MODEL 1
REMARK VINA RESULT:     -12.8      0.000      0.000
REMARK SMILES COc1ccc2[nH]c(C(=O)c3cc(C)ccn3)c(CC(=O)NCCCCCCNC(=O)c3ccc(-c4c5nc(c(-c6c(F)cccc6F)c6ccc([nH]6)c(-c6c(F)cccc6F)c6nc(c(-c7c(F)cccc7F)c7ccc4[nH]7)C=C6)C=C5)cc3)c2c1
REMARK SMILES IDX 25 1 24 2 23 3 22 4 20 5 21 6 19 8 18 9 3 10 4 11 87 12 5 13
REMARK SMILES IDX 86 14 6 15 7 16 8 17 2 19 1 20 9 21 10 22 11 23 12 24 17 25
REMARK SMILES IDX 13 26 16 27 14 28 15 29 26 30 27 31 28 32 29 33 30 34 31 36
REMARK SMILES IDX 32 37 33 38 85 39 34 40 84 41 35 42 36 43 37 44 78 45 38 46
REMARK SMILES IDX 83 47 77 48 79 49 39 50 82 51 76 52 75 53 40 55 66 56 49 57
REMARK SMILES IDX 65 58 50 59 53 60 64 61 80 62 51 63 52 64 63 66 81 67 54 68
REMARK SMILES IDX 41 69 42 70 47 71 43 72 44 73 46 74 48 75 45 76 67 77 68 78
REMARK SMILES IDX 73 79 69 80 70 81 72 82 74 83 71 84 55 85 56 86 61 87 57 88
REMARK SMILES IDX 58 89 60 90 62 91 59 92
REMARK H PARENT 22 7 7 18 29 35 79 54 53 65
REMARK Flexibility Score: inf
ROOT
ATOM      1  C   UNL A   1      32.343  29.556  26.989  1.00  0.00     0.002 C 
ENDROOT
BRANCH   1   2
ATOM      2  C   UNL A   1      31.594  28.248  27.279  1.00  0.00     0.021 C 
BRANCH   2   3
ATOM      3  C   UNL A   1      32.086  27.051  26.468  1.00  0.00     0.116 C 
BRANCH   3   4
ATOM      4  N   UNL A   1      31.423  25.824  26.851  1.00  0.00    -0.356 N 
ATOM      5  C   UNL A   1      31.768  24.527  26.605  1.00  0.00     0.224 C 
ATOM      6  O   UNL A   1      31.123  23.660  27.203  1.00  0.00    -0.275 OA
ATOM      7  H   UNL A   1      30.595  25.943  27.369  1.00  0.00     0.163 HD
BRANCH   5   8
ATOM      8  C   UNL A   1      32.981  24.166  25.755  1.00  0.00     0.138 C 
BRANCH   8   9
ATOM      9  C   UNL A   1      32.690  23.458  24.456  1.00  0.00    -0.002 A 
ATOM     10  C   UNL A   1      32.380  19.648  24.721  1.00  0.00     0.119 A 
ATOM     11  C   UNL A   1      32.208  19.417  23.359  1.00  0.00     0.048 A 
ATOM     12  C   UNL A   1      32.491  20.953  25.209  1.00  0.00     0.057 A 
ATOM     13  C   UNL A   1      32.181  20.482  22.448  1.00  0.00     0.030 A 
ATOM     14  C   UNL A   1      32.501  22.042  24.310  1.00  0.00     0.008 A 
ATOM     15  C   UNL A   1      32.341  21.777  22.955  1.00  0.00     0.046 A 
ATOM     16  N   UNL A   1      32.375  22.987  22.304  1.00  0.00    -0.352 N 
ATOM     17  C   UNL A   1      32.514  24.032  23.195  1.00  0.00     0.093 A 
ATOM     18  H   UNL A   1      32.308  23.095  21.328  1.00  0.00     0.167 HD
BRANCH  10  19
ATOM     19  O   UNL A   1      32.407  18.658  25.668  1.00  0.00    -0.497 OA
ATOM     20  C   UNL A   1      32.603  17.352  25.133  1.00  0.00     0.278 C 
ENDBRANCH  10  19
BRANCH  17  21
ATOM     21  C   UNL A   1      32.500  25.448  22.840  1.00  0.00     0.227 C 
ATOM     22  O   UNL A   1      33.480  26.041  22.395  1.00  0.00    -0.285 OA
BRANCH  21  23
ATOM     23  C   UNL A   1      31.265  26.244  23.074  1.00  0.00     0.113 A 
ATOM     24  C   UNL A   1      31.208  27.571  22.661  1.00  0.00     0.036 A 
ATOM     25  N   UNL A   1      30.237  25.593  23.674  1.00  0.00    -0.253 NA
ATOM     26  C   UNL A   1      30.025  28.281  22.874  1.00  0.00    -0.047 A 
ATOM     27  C   UNL A   1      29.095  26.289  23.834  1.00  0.00     0.112 A 
ATOM     28  C   UNL A   1      29.891  29.715  22.458  1.00  0.00     0.044 C 
ATOM     29  C   UNL A   1      28.944  27.617  23.461  1.00  0.00     0.023 A 
ENDBRANCH  21  23
ENDBRANCH  17  21
ENDBRANCH   8   9
ENDBRANCH   5   8
ENDBRANCH   3   4
ENDBRANCH   2   3
ENDBRANCH   1   2
BRANCH   1  30
ATOM     30  C   UNL A   1      31.642  30.518  26.022  1.00  0.00     0.002 C 
BRANCH  30  31
ATOM     31  C   UNL A   1      31.368  31.919  26.575  1.00  0.00     0.021 C 
BRANCH  31  32
ATOM     32  C   UNL A   1      32.573  32.603  27.212  1.00  0.00     0.116 C 
BRANCH  32  33
ATOM     33  N   UNL A   1      32.313  34.001  27.523  1.00  0.00    -0.352 N 
ATOM     34  C   UNL A   1      32.917  34.817  28.446  1.00  0.00     0.251 C 
ATOM     35  H   UNL A   1      31.598  34.423  26.993  1.00  0.00     0.163 HD
ATOM     36  O   UNL A   1      32.447  35.926  28.695  1.00  0.00    -0.269 OA
BRANCH  34  37
ATOM     37  C   UNL A   1      34.126  34.358  29.161  1.00  0.00     0.039 A 
ATOM     38  C   UNL A   1      33.983  33.759  30.416  1.00  0.00     0.014 A 
ATOM     39  C   UNL A   1      35.395  34.521  28.600  1.00  0.00     0.014 A 
ATOM     40  C   UNL A   1      35.108  33.261  31.078  1.00  0.00     0.010 A 
ATOM     41  C   UNL A   1      36.507  33.970  29.232  1.00  0.00     0.010 A 
ATOM     42  C   UNL A   1      36.373  33.330  30.474  1.00  0.00    -0.014 A 
BRANCH  42  43
ATOM     43  C   UNL A   1      37.568  32.722  31.112  1.00  0.00     0.031 A 
ATOM     44  C   UNL A   1      38.230  31.523  30.494  1.00  0.00     0.074 A 
ATOM     45  C   UNL A   1      38.007  33.202  32.291  1.00  0.00     0.049 A 
ATOM     46  N   UNL A   1      39.216  30.795  30.952  1.00  0.00    -0.248 NA
ATOM     47  C   UNL A   1      37.694  31.067  29.201  1.00  0.00     0.031 C 
ATOM     48  C   UNL A   1      37.427  34.336  33.013  1.00  0.00     0.029 A 
ATOM     49  N   UNL A   1      39.036  32.787  33.098  1.00  0.00    -0.354 N 
ATOM     50  C   UNL A   1      39.409  29.788  30.015  1.00  0.00     0.074 A 
ATOM     51  C   UNL A   1      38.409  29.972  28.985  1.00  0.00     0.031 C 
ATOM     52  C   UNL A   1      38.117  34.535  34.147  1.00  0.00     0.029 A 
ATOM     53  C   UNL A   1      39.163  33.522  34.251  1.00  0.00     0.049 A 
ATOM     54  H   UNL A   1      39.628  32.032  32.872  1.00  0.00     0.167 HD
ATOM     55  C   UNL A   1      40.347  28.811  30.005  1.00  0.00     0.037 A 
ATOM     56  C   UNL A   1      40.017  33.388  35.282  1.00  0.00     0.037 A 
ATOM     57  C   UNL A   1      41.357  28.646  31.017  1.00  0.00     0.049 A 
ATOM     58  C   UNL A   1      41.041  32.287  35.254  1.00  0.00     0.074 A 
ATOM     59  C   UNL A   1      42.389  27.724  31.063  1.00  0.00     0.029 A 
ATOM     60  N   UNL A   1      41.460  29.419  32.164  1.00  0.00    -0.354 N 
ATOM     61  N   UNL A   1      41.248  31.377  34.334  1.00  0.00    -0.248 NA
ATOM     62  C   UNL A   1      41.948  32.197  36.406  1.00  0.00     0.031 C 
ATOM     63  C   UNL A   1      43.093  27.915  32.257  1.00  0.00     0.029 A 
ATOM     64  C   UNL A   1      42.524  28.981  32.935  1.00  0.00     0.049 A 
ATOM     65  H   UNL A   1      40.865  30.168  32.396  1.00  0.00     0.167 HD
ATOM     66  C   UNL A   1      42.324  30.622  34.783  1.00  0.00     0.074 A 
ATOM     67  C   UNL A   1      42.732  31.188  36.053  1.00  0.00     0.031 C 
ATOM     68  C   UNL A   1      42.920  29.557  34.195  1.00  0.00     0.037 A 
BRANCH  55  69
ATOM     69  C   UNL A   1      40.324  27.845  28.857  1.00  0.00     0.057 A 
ATOM     70  C   UNL A   1      41.043  28.083  27.678  1.00  0.00     0.134 A 
ATOM     71  C   UNL A   1      39.601  26.650  28.943  1.00  0.00     0.134 A 
ATOM     72  F   UNL A   1      41.746  29.216  27.529  1.00  0.00    -0.206 F 
ATOM     73  C   UNL A   1      41.021  27.179  26.614  1.00  0.00     0.040 A 
ATOM     74  C   UNL A   1      39.593  25.725  27.897  1.00  0.00     0.040 A 
ATOM     75  F   UNL A   1      38.896  26.355  30.046  1.00  0.00    -0.206 F 
ATOM     76  C   UNL A   1      40.298  25.993  26.726  1.00  0.00     0.006 A 
ENDBRANCH  55  69
BRANCH  56  77
ATOM     77  C   UNL A   1      39.953  34.333  36.425  1.00  0.00     0.057 A 
ATOM     78  C   UNL A   1      40.626  35.559  36.382  1.00  0.00     0.134 A 
ATOM     79  C   UNL A   1      39.220  34.037  37.580  1.00  0.00     0.134 A 
ATOM     80  F   UNL A   1      41.359  35.888  35.308  1.00  0.00    -0.206 F 
ATOM     81  C   UNL A   1      40.585  36.452  37.453  1.00  0.00     0.040 A 
ATOM     82  C   UNL A   1      39.152  34.931  38.650  1.00  0.00     0.040 A 
ATOM     83  F   UNL A   1      38.548  32.880  37.680  1.00  0.00    -0.206 F 
ATOM     84  C   UNL A   1      39.841  36.141  38.590  1.00  0.00     0.006 A 
ENDBRANCH  56  77
BRANCH  68  85
ATOM     85  C   UNL A   1      44.093  28.949  34.905  1.00  0.00     0.057 A 
ATOM     86  C   UNL A   1      45.402  29.389  34.675  1.00  0.00     0.134 A 
ATOM     87  C   UNL A   1      43.905  27.943  35.860  1.00  0.00     0.134 A 
ATOM     88  F   UNL A   1      45.650  30.342  33.763  1.00  0.00    -0.206 F 
ATOM     89  C   UNL A   1      46.486  28.836  35.359  1.00  0.00     0.040 A 
ATOM     90  C   UNL A   1      44.977  27.398  36.566  1.00  0.00     0.040 A 
ATOM     91  F   UNL A   1      42.674  27.481  36.131  1.00  0.00    -0.206 F 
ATOM     92  C   UNL A   1      46.274  27.843  36.313  1.00  0.00     0.006 A 
ENDBRANCH  68  85
ENDBRANCH  42  43
ENDBRANCH  34  37
ENDBRANCH  32  33
ENDBRANCH  31  32
ENDBRANCH  30  31
ENDBRANCH   1  30
TORSDOF 17
ENDMDL
MODEL 2
REMARK VINA RESULT:     -12.6      0.799      6.054
REMARK SMILES COc1ccc2[nH]c(C(=O)c3cc(C)ccn3)c(CC(=O)NCCCCCCNC(=O)c3ccc(-c4c5nc(c(-c6c(F)cccc6F)c6ccc([nH]6)c(-c6c(F)cccc6F)c6nc(c(-c7c(F)cccc7F)c7ccc4[nH]7)C=C6)C=C5)cc3)c2c1
REMARK SMILES IDX 25 1 24 2 23 3 22 4 20 5 21 6 19 8 18 9 3 10 4 11 87 12 5 13
REMARK SMILES IDX 86 14 6 15 7 16 8 17 2 19 1 20 9 21 10 22 11 23 12 24 17 25
REMARK SMILES IDX 13 26 16 27 14 28 15 29 26 30 27 31 28 32 29 33 30 34 31 36
REMARK SMILES IDX 32 37 33 38 85 39 34 40 84 41 35 42 36 43 37 44 78 45 38 46
REMARK SMILES IDX 83 47 77 48 79 49 39 50 82 51 76 52 75 53 40 55 66 56 49 57
REMARK SMILES IDX 65 58 50 59 53 60 64 61 80 62 51 63 52 64 63 66 81 67 54 68
REMARK SMILES IDX 41 69 42 70 47 71 43 72 44 73 46 74 48 75 45 76 67 77 68 78
REMARK SMILES IDX 73 79 69 80 70 81 72 82 74 83 71 84 55 85 56 86 61 87 57 88
REMARK SMILES IDX 58 89 60 90 62 91 59 92
REMARK H PARENT 22 7 7 18 29 35 79 54 53 65
REMARK Flexibility Score: inf
ROOT
ATOM      1  C   UNL A   1      32.270  29.601  26.947  1.00  0.00     0.002 C 
ENDROOT
BRANCH   1   2
ATOM      2  C   UNL A   1      31.627  28.263  27.338  1.00  0.00     0.021 C 
BRANCH   2   3
ATOM      3  C   UNL A   1      32.022  27.092  26.441  1.00  0.00     0.116 C 
BRANCH   3   4
ATOM      4  N   UNL A   1      31.379  25.859  26.839  1.00  0.00    -0.356 N 
ATOM      5  C   UNL A   1      31.740  24.565  26.602  1.00  0.00     0.224 C 
ATOM      6  O   UNL A   1      31.111  23.694  27.212  1.00  0.00    -0.275 OA
ATOM      7  H   UNL A   1      30.553  25.971  27.362  1.00  0.00     0.163 HD
BRANCH   5   8
ATOM      8  C   UNL A   1      32.952  24.212  25.747  1.00  0.00     0.138 C 
BRANCH   8   9
ATOM      9  C   UNL A   1      32.660  23.512  24.445  1.00  0.00    -0.002 A 
ATOM     10  C   UNL A   1      32.366  19.698  24.689  1.00  0.00     0.119 A 
ATOM     11  C   UNL A   1      32.191  19.475  23.326  1.00  0.00     0.048 A 
ATOM     12  C   UNL A   1      32.474  21.001  25.184  1.00  0.00     0.057 A 
ATOM     13  C   UNL A   1      32.158  20.544  22.421  1.00  0.00     0.030 A 
ATOM     14  C   UNL A   1      32.477  22.095  24.291  1.00  0.00     0.008 A 
ATOM     15  C   UNL A   1      32.314  21.837  22.935  1.00  0.00     0.046 A 
ATOM     16  N   UNL A   1      32.341  23.051  22.291  1.00  0.00    -0.352 N 
ATOM     17  C   UNL A   1      32.478  24.092  23.188  1.00  0.00     0.093 A 
ATOM     18  H   UNL A   1      32.271  23.164  21.316  1.00  0.00     0.167 HD
BRANCH  10  19
ATOM     19  O   UNL A   1      32.401  18.703  25.630  1.00  0.00    -0.497 OA
ATOM     20  C   UNL A   1      32.507  17.392  25.081  1.00  0.00     0.278 C 
ENDBRANCH  10  19
BRANCH  17  21
ATOM     21  C   UNL A   1      32.457  25.509  22.840  1.00  0.00     0.227 C 
ATOM     22  O   UNL A   1      33.440  26.114  22.415  1.00  0.00    -0.285 OA
BRANCH  21  23
ATOM     23  C   UNL A   1      31.212  26.293  23.059  1.00  0.00     0.113 A 
ATOM     24  C   UNL A   1      31.136  27.610  22.618  1.00  0.00     0.036 A 
ATOM     25  N   UNL A   1      30.194  25.641  23.675  1.00  0.00    -0.253 NA
ATOM     26  C   UNL A   1      29.944  28.308  22.818  1.00  0.00    -0.047 A 
ATOM     27  C   UNL A   1      29.042  26.325  23.822  1.00  0.00     0.112 A 
ATOM     28  C   UNL A   1      29.789  29.731  22.372  1.00  0.00     0.044 C 
ATOM     29  C   UNL A   1      28.873  27.642  23.421  1.00  0.00     0.023 A 
ENDBRANCH  21  23
ENDBRANCH  17  21
ENDBRANCH   8   9
ENDBRANCH   5   8
ENDBRANCH   3   4
ENDBRANCH   2   3
ENDBRANCH   1   2
BRANCH   1  30
ATOM     30  C   UNL A   1      31.419  30.504  26.047  1.00  0.00     0.002 C 
BRANCH  30  31
ATOM     31  C   UNL A   1      31.360  31.976  26.465  1.00  0.00     0.021 C 
BRANCH  31  32
ATOM     32  C   UNL A   1      32.623  32.501  27.141  1.00  0.00     0.116 C 
BRANCH  32  33
ATOM     33  N   UNL A   1      32.487  33.889  27.559  1.00  0.00    -0.352 N 
ATOM     34  C   UNL A   1      33.161  34.575  28.538  1.00  0.00     0.251 C 
ATOM     35  H   UNL A   1      31.813  34.412  27.068  1.00  0.00     0.163 HD
ATOM     36  O   UNL A   1      32.791  35.699  28.874  1.00  0.00    -0.269 OA
BRANCH  34  37
ATOM     37  C   UNL A   1      34.323  33.957  29.209  1.00  0.00     0.039 A 
ATOM     38  C   UNL A   1      34.102  33.079  30.274  1.00  0.00     0.014 A 
ATOM     39  C   UNL A   1      35.626  34.245  28.793  1.00  0.00     0.014 A 
ATOM     40  C   UNL A   1      35.185  32.437  30.879  1.00  0.00     0.010 A 
ATOM     41  C   UNL A   1      36.699  33.557  29.355  1.00  0.00     0.010 A 
ATOM     42  C   UNL A   1      36.488  32.643  30.399  1.00  0.00    -0.014 A 
BRANCH  42  43
ATOM     43  C   UNL A   1      37.644  31.899  30.959  1.00  0.00     0.031 A 
ATOM     44  C   UNL A   1      38.211  32.276  32.298  1.00  0.00     0.074 A 
ATOM     45  C   UNL A   1      38.233  30.936  30.225  1.00  0.00     0.049 A 
ATOM     46  N   UNL A   1      39.274  31.814  32.906  1.00  0.00    -0.248 NA
ATOM     47  C   UNL A   1      37.505  33.333  33.039  1.00  0.00     0.031 C 
ATOM     48  C   UNL A   1      37.802  30.503  28.894  1.00  0.00     0.029 A 
ATOM     49  N   UNL A   1      39.331  30.155  30.488  1.00  0.00    -0.354 N 
ATOM     50  C   UNL A   1      39.373  32.531  34.092  1.00  0.00     0.074 A 
ATOM     51  C   UNL A   1      38.288  33.490  34.097  1.00  0.00     0.031 C 
ATOM     52  C   UNL A   1      38.616  29.525  28.465  1.00  0.00     0.029 A 
ATOM     53  C   UNL A   1      39.647  29.289  29.470  1.00  0.00     0.049 A 
ATOM     54  H   UNL A   1      39.843  30.212  31.327  1.00  0.00     0.167 HD
ATOM     55  C   UNL A   1      40.274  32.389  35.093  1.00  0.00     0.037 A 
ATOM     56  C   UNL A   1      40.661  28.411  29.355  1.00  0.00     0.037 A 
ATOM     57  C   UNL A   1      41.335  31.417  35.098  1.00  0.00     0.049 A 
ATOM     58  C   UNL A   1      41.655  28.281  30.474  1.00  0.00     0.074 A 
ATOM     59  C   UNL A   1      42.259  31.155  36.095  1.00  0.00     0.029 A 
ATOM     60  N   UNL A   1      41.615  30.549  34.054  1.00  0.00    -0.354 N 
ATOM     61  N   UNL A   1      41.703  28.926  31.615  1.00  0.00    -0.248 NA
ATOM     62  C   UNL A   1      42.735  27.302  30.292  1.00  0.00     0.031 C 
ATOM     63  C   UNL A   1      43.124  30.154  35.637  1.00  0.00     0.029 A 
ATOM     64  C   UNL A   1      42.712  29.765  34.372  1.00  0.00     0.049 A 
ATOM     65  H   UNL A   1      41.109  30.496  33.211  1.00  0.00     0.167 HD
ATOM     66  C   UNL A   1      42.800  28.414  32.295  1.00  0.00     0.074 A 
ATOM     67  C   UNL A   1      43.384  27.397  31.444  1.00  0.00     0.031 C 
ATOM     68  C   UNL A   1      43.279  28.755  33.516  1.00  0.00     0.037 A 
BRANCH  55  69
ATOM     69  C   UNL A   1      40.145  33.309  36.272  1.00  0.00     0.057 A 
ATOM     70  C   UNL A   1      40.891  34.490  36.371  1.00  0.00     0.134 A 
ATOM     71  C   UNL A   1      39.243  33.026  37.304  1.00  0.00     0.134 A 
ATOM     72  F   UNL A   1      41.782  34.813  35.421  1.00  0.00    -0.206 F 
ATOM     73  C   UNL A   1      40.765  35.344  37.468  1.00  0.00     0.040 A 
ATOM     74  C   UNL A   1      39.088  33.885  38.394  1.00  0.00     0.040 A 
ATOM     75  F   UNL A   1      38.492  31.914  37.270  1.00  0.00    -0.206 F 
ATOM     76  C   UNL A   1      39.856  35.044  38.481  1.00  0.00     0.006 A 
ENDBRANCH  55  69
BRANCH  56  77
ATOM     77  C   UNL A   1      40.777  27.571  28.137  1.00  0.00     0.057 A 
ATOM     78  C   UNL A   1      40.172  26.311  28.073  1.00  0.00     0.134 A 
ATOM     79  C   UNL A   1      41.491  28.004  27.013  1.00  0.00     0.134 A 
ATOM     80  F   UNL A   1      39.491  25.836  29.126  1.00  0.00    -0.206 F 
ATOM     81  C   UNL A   1      40.284  25.505  26.940  1.00  0.00     0.040 A 
ATOM     82  C   UNL A   1      41.592  27.217  25.866  1.00  0.00     0.040 A 
ATOM     83  F   UNL A   1      42.089  29.205  27.011  1.00  0.00    -0.206 F 
ATOM     84  C   UNL A   1      40.991  25.960  25.829  1.00  0.00     0.006 A 
ENDBRANCH  56  77
BRANCH  68  85
ATOM     85  C   UNL A   1      44.479  28.006  34.014  1.00  0.00     0.057 A 
ATOM     86  C   UNL A   1      44.356  26.796  34.707  1.00  0.00     0.134 A 
ATOM     87  C   UNL A   1      45.772  28.481  33.761  1.00  0.00     0.134 A 
ATOM     88  F   UNL A   1      43.144  26.295  34.992  1.00  0.00    -0.206 F 
ATOM     89  C   UNL A   1      45.478  26.092  35.146  1.00  0.00     0.040 A 
ATOM     90  C   UNL A   1      46.901  27.775  34.175  1.00  0.00     0.040 A 
ATOM     91  F   UNL A   1      45.958  29.632  33.097  1.00  0.00    -0.206 F 
ATOM     92  C   UNL A   1      46.756  26.577  34.874  1.00  0.00     0.006 A 
ENDBRANCH  68  85
ENDBRANCH  42  43
ENDBRANCH  34  37
ENDBRANCH  32  33
ENDBRANCH  31  32
ENDBRANCH  30  31
ENDBRANCH   1  30
TORSDOF 17
ENDMDL
MODEL 3
REMARK VINA RESULT:     -12.2      4.941      9.665
REMARK SMILES COc1ccc2[nH]c(C(=O)c3cc(C)ccn3)c(CC(=O)NCCCCCCNC(=O)c3ccc(-c4c5nc(c(-c6c(F)cccc6F)c6ccc([nH]6)c(-c6c(F)cccc6F)c6nc(c(-c7c(F)cccc7F)c7ccc4[nH]7)C=C6)C=C5)cc3)c2c1
REMARK SMILES IDX 25 1 24 2 23 3 22 4 20 5 21 6 19 8 18 9 3 10 4 11 87 12 5 13
REMARK SMILES IDX 86 14 6 15 7 16 8 17 2 19 1 20 9 21 10 22 11 23 12 24 17 25
REMARK SMILES IDX 13 26 16 27 14 28 15 29 26 30 27 31 28 32 29 33 30 34 31 36
REMARK SMILES IDX 32 37 33 38 85 39 34 40 84 41 35 42 36 43 37 44 78 45 38 46
REMARK SMILES IDX 83 47 77 48 79 49 39 50 82 51 76 52 75 53 40 55 66 56 49 57
REMARK SMILES IDX 65 58 50 59 53 60 64 61 80 62 51 63 52 64 63 66 81 67 54 68
REMARK SMILES IDX 41 69 42 70 47 71 43 72 44 73 46 74 48 75 45 76 67 77 68 78
REMARK SMILES IDX 73 79 69 80 70 81 72 82 74 83 71 84 55 85 56 86 61 87 57 88
REMARK SMILES IDX 58 89 60 90 62 91 59 92
REMARK H PARENT 22 7 7 18 29 35 79 54 53 65
REMARK Flexibility Score: inf
ROOT
ATOM      1  C   UNL A   1      36.419  21.899  24.100  1.00  0.00     0.002 C 
ENDROOT
BRANCH   1   2
ATOM      2  C   UNL A   1      37.099  23.187  24.584  1.00  0.00     0.021 C 
BRANCH   2   3
ATOM      3  C   UNL A   1      36.222  24.061  25.478  1.00  0.00     0.116 C 
BRANCH   3   4
ATOM      4  N   UNL A   1      35.696  23.330  26.610  1.00  0.00    -0.356 N 
ATOM      5  C   UNL A   1      34.406  23.038  26.944  1.00  0.00     0.224 C 
ATOM      6  O   UNL A   1      34.241  22.239  27.871  1.00  0.00    -0.275 OA
ATOM      7  H   UNL A   1      36.375  22.990  27.236  1.00  0.00     0.163 HD
BRANCH   5   8
ATOM      8  C   UNL A   1      33.228  23.549  26.121  1.00  0.00     0.138 C 
BRANCH   8   9
ATOM      9  C   UNL A   1      33.016  22.880  24.787  1.00  0.00    -0.002 A 
ATOM     10  C   UNL A   1      32.473  19.090  24.944  1.00  0.00     0.119 A 
ATOM     11  C   UNL A   1      32.413  18.891  23.568  1.00  0.00     0.048 A 
ATOM     12  C   UNL A   1      32.612  20.378  25.467  1.00  0.00     0.057 A 
ATOM     13  C   UNL A   1      32.528  19.969  22.680  1.00  0.00     0.030 A 
ATOM     14  C   UNL A   1      32.764  21.479  24.595  1.00  0.00     0.008 A 
ATOM     15  C   UNL A   1      32.712  21.245  23.226  1.00  0.00     0.046 A 
ATOM     16  N   UNL A   1      32.872  22.461  22.606  1.00  0.00    -0.352 N 
ATOM     17  C   UNL A   1      32.987  23.482  23.527  1.00  0.00     0.093 A 
ATOM     18  H   UNL A   1      32.900  22.588  21.630  1.00  0.00     0.167 HD
BRANCH  10  19
ATOM     19  O   UNL A   1      32.360  18.085  25.869  1.00  0.00    -0.497 OA
ATOM     20  C   UNL A   1      32.528  16.778  25.326  1.00  0.00     0.278 C 
ENDBRANCH  10  19
BRANCH  17  21
ATOM     21  C   UNL A   1      33.084  24.902  23.201  1.00  0.00     0.227 C 
ATOM     22  O   UNL A   1      33.573  25.322  22.154  1.00  0.00    -0.285 OA
BRANCH  21  23
ATOM     23  C   UNL A   1      32.626  25.909  24.196  1.00  0.00     0.113 A 
ATOM     24  C   UNL A   1      33.559  26.697  24.862  1.00  0.00     0.036 A 
ATOM     25  N   UNL A   1      31.285  26.008  24.375  1.00  0.00    -0.253 NA
ATOM     26  C   UNL A   1      33.093  27.649  25.771  1.00  0.00    -0.047 A 
ATOM     27  C   UNL A   1      30.860  26.960  25.229  1.00  0.00     0.112 A 
ATOM     28  C   UNL A   1      34.039  28.533  26.528  1.00  0.00     0.044 C 
ATOM     29  C   UNL A   1      31.713  27.788  25.944  1.00  0.00     0.023 A 
ENDBRANCH  21  23
ENDBRANCH  17  21
ENDBRANCH   8   9
ENDBRANCH   5   8
ENDBRANCH   3   4
ENDBRANCH   2   3
ENDBRANCH   1   2
BRANCH   1  30
ATOM     30  C   UNL A   1      36.608  20.673  25.001  1.00  0.00     0.002 C 
BRANCH  30  31
ATOM     31  C   UNL A   1      37.901  19.887  24.774  1.00  0.00     0.021 C 
BRANCH  31  32
ATOM     32  C   UNL A   1      39.035  20.228  25.736  1.00  0.00     0.116 C 
BRANCH  32  33
ATOM     33  N   UNL A   1      40.023  19.162  25.824  1.00  0.00    -0.352 N 
ATOM     34  C   UNL A   1      41.376  19.241  26.037  1.00  0.00     0.251 C 
ATOM     35  H   UNL A   1      39.668  18.250  25.714  1.00  0.00     0.163 HD
ATOM     36  O   UNL A   1      42.084  18.245  25.904  1.00  0.00    -0.269 OA
BRANCH  34  37
ATOM     37  C   UNL A   1      41.993  20.532  26.406  1.00  0.00     0.039 A 
ATOM     38  C   UNL A   1      42.435  21.387  25.392  1.00  0.00     0.014 A 
ATOM     39  C   UNL A   1      42.140  20.897  27.747  1.00  0.00     0.014 A 
ATOM     40  C   UNL A   1      42.961  22.638  25.721  1.00  0.00     0.010 A 
ATOM     41  C   UNL A   1      42.608  22.169  28.071  1.00  0.00     0.010 A 
ATOM     42  C   UNL A   1      43.017  23.053  27.061  1.00  0.00    -0.014 A 
BRANCH  42  43
ATOM     43  C   UNL A   1      43.481  24.414  27.430  1.00  0.00     0.031 A 
ATOM     44  C   UNL A   1      42.492  25.463  27.850  1.00  0.00     0.074 A 
ATOM     45  C   UNL A   1      44.785  24.726  27.308  1.00  0.00     0.049 A 
ATOM     46  N   UNL A   1      42.691  26.730  28.112  1.00  0.00    -0.248 NA
ATOM     47  C   UNL A   1      41.088  25.038  27.966  1.00  0.00     0.031 C 
ATOM     48  C   UNL A   1      45.839  23.808  26.872  1.00  0.00     0.029 A 
ATOM     49  N   UNL A   1      45.446  25.909  27.525  1.00  0.00    -0.354 N 
ATOM     50  C   UNL A   1      41.441  27.257  28.409  1.00  0.00     0.074 A 
ATOM     51  C   UNL A   1      40.483  26.183  28.251  1.00  0.00     0.031 C 
ATOM     52  C   UNL A   1      47.014  24.457  26.869  1.00  0.00     0.029 A 
ATOM     53  C   UNL A   1      46.793  25.844  27.265  1.00  0.00     0.049 A 
ATOM     54  H   UNL A   1      44.996  26.728  27.838  1.00  0.00     0.167 HD
ATOM     55  C   UNL A   1      41.123  28.515  28.795  1.00  0.00     0.037 A 
ATOM     56  C   UNL A   1      47.741  26.797  27.327  1.00  0.00     0.037 A 
ATOM     57  C   UNL A   1      42.081  29.574  28.977  1.00  0.00     0.049 A 
ATOM     58  C   UNL A   1      47.361  28.189  27.747  1.00  0.00     0.074 A 
ATOM     59  C   UNL A   1      41.863  30.865  29.427  1.00  0.00     0.029 A 
ATOM     60  N   UNL A   1      43.438  29.465  28.715  1.00  0.00    -0.354 N 
ATOM     61  N   UNL A   1      46.183  28.658  28.080  1.00  0.00    -0.248 NA
ATOM     62  C   UNL A   1      48.442  29.183  27.801  1.00  0.00     0.031 C 
ATOM     63  C   UNL A   1      43.084  31.549  29.399  1.00  0.00     0.029 A 
ATOM     64  C   UNL A   1      44.068  30.672  28.972  1.00  0.00     0.049 A 
ATOM     65  H   UNL A   1      43.888  28.650  28.395  1.00  0.00     0.167 HD
ATOM     66  C   UNL A   1      46.384  29.993  28.406  1.00  0.00     0.074 A 
ATOM     67  C   UNL A   1      47.800  30.256  28.242  1.00  0.00     0.031 C 
ATOM     68  C   UNL A   1      45.478  30.917  28.807  1.00  0.00     0.037 A 
BRANCH  55  69
ATOM     69  C   UNL A   1      39.675  28.812  29.053  1.00  0.00     0.057 A 
ATOM     70  C   UNL A   1      38.812  29.220  28.027  1.00  0.00     0.134 A 
ATOM     71  C   UNL A   1      39.131  28.660  30.333  1.00  0.00     0.134 A 
ATOM     72  F   UNL A   1      39.275  29.397  26.781  1.00  0.00    -0.206 F 
ATOM     73  C   UNL A   1      37.465  29.493  28.272  1.00  0.00     0.040 A 
ATOM     74  C   UNL A   1      37.779  28.904  30.585  1.00  0.00     0.040 A 
ATOM     75  F   UNL A   1      39.900  28.266  31.360  1.00  0.00    -0.206 F 
ATOM     76  C   UNL A   1      36.944  29.328  29.554  1.00  0.00     0.006 A 
ENDBRANCH  55  69
BRANCH  56  77
ATOM     77  C   UNL A   1      49.149  26.463  26.999  1.00  0.00     0.057 A 
ATOM     78  C   UNL A   1      50.048  26.078  28.000  1.00  0.00     0.134 A 
ATOM     79  C   UNL A   1      49.628  26.517  25.685  1.00  0.00     0.134 A 
ATOM     80  F   UNL A   1      49.651  26.025  29.280  1.00  0.00    -0.206 F 
ATOM     81  C   UNL A   1      51.378  25.773  27.709  1.00  0.00     0.040 A 
ATOM     82  C   UNL A   1      50.950  26.194  25.376  1.00  0.00     0.040 A 
ATOM     83  F   UNL A   1      48.813  26.874  24.680  1.00  0.00    -0.206 F 
ATOM     84  C   UNL A   1      51.831  25.825  26.392  1.00  0.00     0.006 A 
ENDBRANCH  56  77
BRANCH  68  85
ATOM     85  C   UNL A   1      45.992  32.291  29.120  1.00  0.00     0.057 A 
ATOM     86  C   UNL A   1      46.470  32.626  30.393  1.00  0.00     0.134 A 
ATOM     87  C   UNL A   1      46.047  33.275  28.126  1.00  0.00     0.134 A 
ATOM     88  F   UNL A   1      46.431  31.731  31.391  1.00  0.00    -0.206 F 
ATOM     89  C   UNL A   1      46.970  33.899  30.670  1.00  0.00     0.040 A 
ATOM     90  C   UNL A   1      46.566  34.544  28.384  1.00  0.00     0.040 A 
ATOM     91  F   UNL A   1      45.610  33.015  26.884  1.00  0.00    -0.206 F 
ATOM     92  C   UNL A   1      47.026  34.860  29.661  1.00  0.00     0.006 A 
ENDBRANCH  68  85
ENDBRANCH  42  43
ENDBRANCH  34  37
ENDBRANCH  32  33
ENDBRANCH  31  32
ENDBRANCH  30  31
ENDBRANCH   1  30
TORSDOF 17
ENDMDL
