MODEL 1
REMARK VINA RESULT:     -12.0      0.000      0.000
REMARK SMILES COc1ccc(CCN2/C(=[NH+]/C(=O)CCC(=O)NCCCCCCNC(=O)c3ccc(-c4c5nc(c(-c6c(F)cccc6F)c6ccc([nH]6)c(-c6c(F)cccc6F)c6nc(c(-c7c(F)cccc7F)c7ccc4[nH]7)C=C6)C=C5)cc3)S[C@@H]3CS(=O)(=O)C[C@@H]32)cc1
REMARK SMILES IDX 19 1 18 2 16 3 17 4 15 6 14 7 12 8 9 9 10 10 89 11 11 12
REMARK SMILES IDX 82 13 83 14 88 15 84 17 85 18 13 19 86 20 87 21 8 22 7 23
REMARK SMILES IDX 6 24 3 25 4 26 91 27 5 28 90 29 2 30 1 31 20 32 21 33 22 34
REMARK SMILES IDX 23 35 24 36 25 37 26 38 27 40 28 41 29 42 81 43 30 44 80 45
REMARK SMILES IDX 31 46 32 47 33 48 74 49 34 50 79 51 73 52 75 53 35 54 78 55
REMARK SMILES IDX 72 56 71 57 36 59 62 60 45 61 61 62 46 63 49 64 60 65 76 66
REMARK SMILES IDX 47 67 48 68 59 70 77 71 50 72 37 73 38 74 43 75 39 76 40 77
REMARK SMILES IDX 42 78 44 79 41 80 63 81 64 82 69 83 65 84 66 85 68 86 70 87
REMARK SMILES IDX 67 88 51 89 52 90 57 91 53 92 54 93 56 94 58 95 55 96
REMARK H PARENT 18 5 11 16 25 39 75 58 49 69
REMARK Flexibility Score: inf
ROOT
ATOM      1  C   UNL A   1      38.067  23.966  26.289  1.00  0.00     0.116 C 
ENDROOT
BRANCH   1   2
ATOM      2  N   UNL A   1      38.076  22.843  25.370  1.00  0.00    -0.356 N 
ATOM      3  C   UNL A   1      37.041  22.195  24.773  1.00  0.00     0.220 C 
ATOM      4  O   UNL A   1      37.290  21.277  23.989  1.00  0.00    -0.275 OA
ATOM      5  H   UNL A   1      38.970  22.498  25.143  1.00  0.00     0.163 HD
BRANCH   3   6
ATOM      6  C   UNL A   1      35.617  22.600  25.066  1.00  0.00     0.112 C 
BRANCH   6   7
ATOM      7  C   UNL A   1      35.134  23.631  24.039  1.00  0.00     0.138 C 
BRANCH   7   8
ATOM      8  C   UNL A   1      33.836  24.258  24.495  1.00  0.00     0.308 C 
ATOM      9  N   UNL A   1      32.849  27.563  25.859  1.00  0.00    -0.251 N 
ATOM     10  C   UNL A   1      32.890  26.141  25.564  1.00  0.00     0.314 C 
ATOM     11  C   UNL A   1      31.463  28.158  25.769  1.00  0.00     0.206 C 
ATOM     12  N   UNL A   1      33.941  25.496  25.136  1.00  0.00    -0.205 N 
ATOM     13  S   UNL A   1      31.283  25.299  25.672  1.00  0.00    -0.030 SA
ATOM     14  C   UNL A   1      30.263  26.703  25.238  1.00  0.00     0.120 C 
ATOM     15  C   UNL A   1      31.069  29.848  24.683  1.00  0.00     0.187 C 
ATOM     16  H   UNL A   1      34.833  25.893  25.268  1.00  0.00     0.316 HD
ATOM     17  C   UNL A   1      29.306  27.061  23.539  1.00  0.00     0.156 C 
ATOM     18  S   UNL A   1      29.622  29.275  22.929  1.00  0.00     0.155 S 
ATOM     19  O   UNL A   1      32.809  23.715  24.081  1.00  0.00    -0.247 OA
ATOM     20  O   UNL A   1      30.295  29.380  21.645  1.00  0.00    -0.229 OA
ATOM     21  O   UNL A   1      28.352  29.978  23.014  1.00  0.00    -0.229 OA
BRANCH   9  22
ATOM     22  C   UNL A   1      33.729  28.145  26.963  1.00  0.00     0.242 C 
BRANCH  22  23
ATOM     23  C   UNL A   1      34.652  29.439  26.717  1.00  0.00     0.081 C 
BRANCH  23  24
ATOM     24  C   UNL A   1      34.760  30.686  27.626  1.00  0.00    -0.044 A 
ATOM     25  C   UNL A   1      34.772  32.624  29.772  1.00  0.00     0.118 A 
ATOM     26  C   UNL A   1      35.631  31.558  29.793  1.00  0.00     0.046 A 
ATOM     27  C   UNL A   1      33.959  32.778  28.650  1.00  0.00     0.046 A 
ATOM     28  C   UNL A   1      35.595  30.662  28.715  1.00  0.00     0.007 A 
ATOM     29  C   UNL A   1      33.953  31.823  27.585  1.00  0.00     0.007 A 
BRANCH  25  30
ATOM     30  O   UNL A   1      34.550  33.386  30.883  1.00  0.00    -0.497 OA
ATOM     31  C   UNL A   1      34.776  32.703  32.115  1.00  0.00     0.278 C 
ENDBRANCH  25  30
ENDBRANCH  23  24
ENDBRANCH  22  23
ENDBRANCH   9  22
ENDBRANCH   7   8
ENDBRANCH   6   7
ENDBRANCH   3   6
ENDBRANCH   1   2
BRANCH   1  32
ATOM     32  C   UNL A   1      39.279  24.017  27.212  1.00  0.00     0.021 C 
BRANCH  32  33
ATOM     33  C   UNL A   1      40.318  22.983  26.840  1.00  0.00     0.002 C 
BRANCH  33  34
ATOM     34  C   UNL A   1      41.116  22.381  28.002  1.00  0.00     0.002 C 
BRANCH  34  35
ATOM     35  C   UNL A   1      42.127  20.962  27.753  1.00  0.00     0.021 C 
BRANCH  35  36
ATOM     36  C   UNL A   1      42.322  19.547  26.123  1.00  0.00     0.116 C 
BRANCH  36  37
ATOM     37  N   UNL A   1      43.592  19.251  25.160  1.00  0.00    -0.352 N 
ATOM     38  C   UNL A   1      44.524  19.960  24.494  1.00  0.00     0.251 C 
ATOM     39  H   UNL A   1      43.718  18.284  25.024  1.00  0.00     0.163 HD
ATOM     40  O   UNL A   1      45.147  19.460  23.569  1.00  0.00    -0.269 OA
BRANCH  38  41
ATOM     41  C   UNL A   1      44.725  21.294  24.898  1.00  0.00     0.039 A 
ATOM     42  C   UNL A   1      45.373  21.530  26.105  1.00  0.00     0.014 A 
ATOM     43  C   UNL A   1      44.312  22.239  23.969  1.00  0.00     0.014 A 
ATOM     44  C   UNL A   1      45.624  22.836  26.410  1.00  0.00     0.010 A 
ATOM     45  C   UNL A   1      44.647  23.523  24.231  1.00  0.00     0.010 A 
ATOM     46  C   UNL A   1      45.259  23.804  25.465  1.00  0.00    -0.014 A 
BRANCH  46  47
ATOM     47  C   UNL A   1      45.400  25.208  25.768  1.00  0.00     0.031 A 
ATOM     48  C   UNL A   1      46.774  25.765  25.653  1.00  0.00     0.074 A 
ATOM     49  C   UNL A   1      44.328  25.810  26.292  1.00  0.00     0.049 A 
ATOM     50  N   UNL A   1      47.235  26.881  26.128  1.00  0.00    -0.248 NA
ATOM     51  C   UNL A   1      47.792  24.910  25.003  1.00  0.00     0.031 C 
ATOM     52  C   UNL A   1      43.002  25.202  26.466  1.00  0.00     0.029 A 
ATOM     53  N   UNL A   1      44.205  27.055  26.811  1.00  0.00    -0.354 N 
ATOM     54  C   UNL A   1      48.595  26.846  25.868  1.00  0.00     0.074 A 
ATOM     55  C   UNL A   1      48.905  25.576  25.264  1.00  0.00     0.031 C 
ATOM     56  C   UNL A   1      42.190  26.097  27.049  1.00  0.00     0.029 A 
ATOM     57  C   UNL A   1      42.959  27.302  27.321  1.00  0.00     0.049 A 
ATOM     58  H   UNL A   1      44.936  27.715  26.820  1.00  0.00     0.167 HD
ATOM     59  C   UNL A   1      49.484  27.831  26.106  1.00  0.00     0.037 A 
ATOM     60  C   UNL A   1      42.530  28.401  27.954  1.00  0.00     0.037 A 
ATOM     61  C   UNL A   1      49.078  29.090  26.663  1.00  0.00     0.049 A 
ATOM     62  C   UNL A   1      43.530  29.508  28.126  1.00  0.00     0.074 A 
ATOM     63  C   UNL A   1      49.829  30.224  26.879  1.00  0.00     0.029 A 
ATOM     64  N   UNL A   1      47.778  29.371  27.076  1.00  0.00    -0.354 N 
ATOM     65  N   UNL A   1      44.808  29.523  27.814  1.00  0.00    -0.248 NA
ATOM     66  C   UNL A   1      43.034  30.751  28.716  1.00  0.00     0.031 C 
ATOM     67  C   UNL A   1      48.988  31.184  27.453  1.00  0.00     0.029 A 
ATOM     68  C   UNL A   1      47.704  30.662  27.552  1.00  0.00     0.049 A 
ATOM     69  H   UNL A   1      47.023  28.740  27.034  1.00  0.00     0.167 HD
ATOM     70  C   UNL A   1      45.266  30.787  28.142  1.00  0.00     0.074 A 
ATOM     71  C   UNL A   1      44.118  31.512  28.659  1.00  0.00     0.031 C 
ATOM     72  C   UNL A   1      46.512  31.313  28.039  1.00  0.00     0.037 A 
BRANCH  59  73
ATOM     73  C   UNL A   1      50.916  27.585  25.749  1.00  0.00     0.057 A 
ATOM     74  C   UNL A   1      51.840  27.090  26.680  1.00  0.00     0.134 A 
ATOM     75  C   UNL A   1      51.380  27.836  24.453  1.00  0.00     0.134 A 
ATOM     76  F   UNL A   1      51.470  26.858  27.949  1.00  0.00    -0.206 F 
ATOM     77  C   UNL A   1      53.174  26.862  26.340  1.00  0.00     0.040 A 
ATOM     78  C   UNL A   1      52.705  27.586  24.091  1.00  0.00     0.040 A 
ATOM     79  F   UNL A   1      50.556  28.331  23.518  1.00  0.00    -0.206 F 
ATOM     80  C   UNL A   1      53.607  27.100  25.037  1.00  0.00     0.006 A 
ENDBRANCH  59  73
BRANCH  60  81
ATOM     81  C   UNL A   1      41.125  28.504  28.401  1.00  0.00     0.057 A 
ATOM     82  C   UNL A   1      40.122  28.909  27.515  1.00  0.00     0.134 A 
ATOM     83  C   UNL A   1      40.738  28.171  29.705  1.00  0.00     0.134 A 
ATOM     84  F   UNL A   1      40.429  29.225  26.248  1.00  0.00    -0.206 F 
ATOM     85  C   UNL A   1      38.791  29.023  27.918  1.00  0.00     0.040 A 
ATOM     86  C   UNL A   1      39.408  28.255  30.115  1.00  0.00     0.040 A 
ATOM     87  F   UNL A   1      41.647  27.740  30.593  1.00  0.00    -0.206 F 
ATOM     88  C   UNL A   1      38.432  28.695  29.224  1.00  0.00     0.006 A 
ENDBRANCH  60  81
BRANCH  72  89
ATOM     89  C   UNL A   1      46.658  32.740  28.461  1.00  0.00     0.057 A 
ATOM     90  C   UNL A   1      46.443  33.793  27.566  1.00  0.00     0.134 A 
ATOM     91  C   UNL A   1      46.968  33.054  29.789  1.00  0.00     0.134 A 
ATOM     92  F   UNL A   1      46.156  33.546  26.279  1.00  0.00    -0.206 F 
ATOM     93  C   UNL A   1      46.560  35.119  27.974  1.00  0.00     0.040 A 
ATOM     94  C   UNL A   1      47.053  34.375  30.216  1.00  0.00     0.040 A 
ATOM     95  F   UNL A   1      47.169  32.082  30.692  1.00  0.00    -0.206 F 
ATOM     96  C   UNL A   1      46.857  35.412  29.305  1.00  0.00     0.006 A 
ENDBRANCH  72  89
ENDBRANCH  46  47
ENDBRANCH  38  41
ENDBRANCH  36  37
ENDBRANCH  35  36
ENDBRANCH  34  35
ENDBRANCH  33  34
ENDBRANCH  32  33
ENDBRANCH   1  32
TORSDOF 19
ENDMDL
MODEL 2
REMARK VINA RESULT:     -11.9      5.753     10.576
REMARK SMILES COc1ccc(CCN2/C(=[NH+]/C(=O)CCC(=O)NCCCCCCNC(=O)c3ccc(-c4c5nc(c(-c6c(F)cccc6F)c6ccc([nH]6)c(-c6c(F)cccc6F)c6nc(c(-c7c(F)cccc7F)c7ccc4[nH]7)C=C6)C=C5)cc3)S[C@@H]3CS(=O)(=O)C[C@@H]32)cc1
REMARK SMILES IDX 19 1 18 2 16 3 17 4 15 6 14 7 12 8 9 9 10 10 89 11 11 12
REMARK SMILES IDX 82 13 83 14 88 15 84 17 85 18 13 19 86 20 87 21 8 22 7 23
REMARK SMILES IDX 6 24 3 25 4 26 91 27 5 28 90 29 2 30 1 31 20 32 21 33 22 34
REMARK SMILES IDX 23 35 24 36 25 37 26 38 27 40 28 41 29 42 81 43 30 44 80 45
REMARK SMILES IDX 31 46 32 47 33 48 74 49 34 50 79 51 73 52 75 53 35 54 78 55
REMARK SMILES IDX 72 56 71 57 36 59 62 60 45 61 61 62 46 63 49 64 60 65 76 66
REMARK SMILES IDX 47 67 48 68 59 70 77 71 50 72 37 73 38 74 43 75 39 76 40 77
REMARK SMILES IDX 42 78 44 79 41 80 63 81 64 82 69 83 65 84 66 85 68 86 70 87
REMARK SMILES IDX 67 88 51 89 52 90 57 91 53 92 54 93 56 94 58 95 55 96
REMARK H PARENT 18 5 11 16 25 39 75 58 49 69
REMARK Flexibility Score: inf
ROOT
ATOM      1  C   UNL A   1      30.916  27.349  22.516  1.00  0.00     0.116 C 
ENDROOT
BRANCH   1   2
ATOM      2  N   UNL A   1      31.514  26.927  21.263  1.00  0.00    -0.356 N 
ATOM      3  C   UNL A   1      32.465  25.986  21.022  1.00  0.00     0.220 C 
ATOM      4  O   UNL A   1      32.800  25.767  19.857  1.00  0.00    -0.275 OA
ATOM      5  H   UNL A   1      31.179  27.394  20.463  1.00  0.00     0.163 HD
BRANCH   3   6
ATOM      6  C   UNL A   1      33.091  25.224  22.165  1.00  0.00     0.112 C 
BRANCH   6   7
ATOM      7  C   UNL A   1      34.070  24.171  21.631  1.00  0.00     0.138 C 
BRANCH   7   8
ATOM      8  C   UNL A   1      34.475  23.222  22.736  1.00  0.00     0.308 C 
ATOM      9  N   UNL A   1      32.663  21.072  25.154  1.00  0.00    -0.251 N 
ATOM     10  C   UNL A   1      33.669  21.916  24.531  1.00  0.00     0.314 C 
ATOM     11  C   UNL A   1      33.235  19.838  25.813  1.00  0.00     0.206 C 
ATOM     12  N   UNL A   1      33.443  22.749  23.552  1.00  0.00    -0.205 N 
ATOM     13  S   UNL A   1      35.367  21.618  25.106  1.00  0.00    -0.030 SA
ATOM     14  C   UNL A   1      35.169  19.886  25.508  1.00  0.00     0.120 C 
ATOM     15  C   UNL A   1      32.495  17.964  25.450  1.00  0.00     0.187 C 
ATOM     16  H   UNL A   1      32.522  23.051  23.384  1.00  0.00     0.316 HD
ATOM     17  C   UNL A   1      35.843  18.302  24.526  1.00  0.00     0.156 C 
ATOM     18  S   UNL A   1      34.171  16.702  24.402  1.00  0.00     0.155 S 
ATOM     19  O   UNL A   1      35.636  22.808  22.682  1.00  0.00    -0.247 OA
ATOM     20  O   UNL A   1      33.816  16.412  23.022  1.00  0.00    -0.229 OA
ATOM     21  O   UNL A   1      34.559  15.544  25.191  1.00  0.00    -0.229 OA
BRANCH   9  22
ATOM     22  C   UNL A   1      31.476  21.699  25.881  1.00  0.00     0.242 C 
BRANCH  22  23
ATOM     23  C   UNL A   1      31.643  23.002  26.809  1.00  0.00     0.081 C 
BRANCH  23  24
ATOM     24  C   UNL A   1      31.943  24.444  26.337  1.00  0.00    -0.044 A 
ATOM     25  C   UNL A   1      32.861  27.161  25.966  1.00  0.00     0.118 A 
ATOM     26  C   UNL A   1      33.742  26.115  25.906  1.00  0.00     0.046 A 
ATOM     27  C   UNL A   1      31.510  26.861  26.133  1.00  0.00     0.046 A 
ATOM     28  C   UNL A   1      33.236  24.818  26.072  1.00  0.00     0.007 A 
ATOM     29  C   UNL A   1      31.052  25.518  26.312  1.00  0.00     0.007 A 
BRANCH  25  30
ATOM     30  O   UNL A   1      33.290  28.452  26.082  1.00  0.00    -0.497 OA
ATOM     31  C   UNL A   1      34.212  28.669  27.150  1.00  0.00     0.278 C 
ENDBRANCH  25  30
ENDBRANCH  23  24
ENDBRANCH  22  23
ENDBRANCH   9  22
ENDBRANCH   7   8
ENDBRANCH   6   7
ENDBRANCH   3   6
ENDBRANCH   1   2
BRANCH   1  32
ATOM     32  C   UNL A   1      31.041  28.844  22.786  1.00  0.00     0.021 C 
BRANCH  32  33
ATOM     33  C   UNL A   1      30.453  29.229  24.125  1.00  0.00     0.002 C 
BRANCH  33  34
ATOM     34  C   UNL A   1      30.693  30.674  24.576  1.00  0.00     0.002 C 
BRANCH  34  35
ATOM     35  C   UNL A   1      31.173  31.027  26.232  1.00  0.00     0.021 C 
BRANCH  35  36
ATOM     36  C   UNL A   1      32.736  32.258  27.093  1.00  0.00     0.116 C 
BRANCH  36  37
ATOM     37  N   UNL A   1      32.671  33.791  27.615  1.00  0.00    -0.352 N 
ATOM     38  C   UNL A   1      33.210  34.531  28.605  1.00  0.00     0.251 C 
ATOM     39  H   UNL A   1      32.072  34.334  27.053  1.00  0.00     0.163 HD
ATOM     40  O   UNL A   1      32.698  35.586  28.946  1.00  0.00    -0.269 OA
BRANCH  38  41
ATOM     41  C   UNL A   1      34.364  34.022  29.231  1.00  0.00     0.039 A 
ATOM     42  C   UNL A   1      34.209  33.070  30.233  1.00  0.00     0.014 A 
ATOM     43  C   UNL A   1      35.555  34.487  28.694  1.00  0.00     0.014 A 
ATOM     44  C   UNL A   1      35.357  32.542  30.746  1.00  0.00     0.010 A 
ATOM     45  C   UNL A   1      36.687  33.892  29.139  1.00  0.00     0.010 A 
ATOM     46  C   UNL A   1      36.571  32.962  30.186  1.00  0.00    -0.014 A 
BRANCH  46  47
ATOM     47  C   UNL A   1      37.824  32.522  30.750  1.00  0.00     0.031 A 
ATOM     48  C   UNL A   1      38.467  31.357  30.086  1.00  0.00     0.074 A 
ATOM     49  C   UNL A   1      38.180  33.085  31.909  1.00  0.00     0.049 A 
ATOM     50  N   UNL A   1      39.413  30.591  30.535  1.00  0.00    -0.248 NA
ATOM     51  C   UNL A   1      37.905  30.934  28.783  1.00  0.00     0.031 C 
ATOM     52  C   UNL A   1      37.475  34.185  32.581  1.00  0.00     0.029 A 
ATOM     53  N   UNL A   1      39.203  32.775  32.741  1.00  0.00    -0.354 N 
ATOM     54  C   UNL A   1      39.533  29.581  29.595  1.00  0.00     0.074 A 
ATOM     55  C   UNL A   1      38.523  29.782  28.588  1.00  0.00     0.031 C 
ATOM     56  C   UNL A   1      38.106  34.463  33.732  1.00  0.00     0.029 A 
ATOM     57  C   UNL A   1      39.214  33.533  33.881  1.00  0.00     0.049 A 
ATOM     58  H   UNL A   1      39.869  32.076  32.547  1.00  0.00     0.167 HD
ATOM     59  C   UNL A   1      40.449  28.593  29.591  1.00  0.00     0.037 A 
ATOM     60  C   UNL A   1      40.046  33.438  34.926  1.00  0.00     0.037 A 
ATOM     61  C   UNL A   1      41.457  28.500  30.608  1.00  0.00     0.049 A 
ATOM     62  C   UNL A   1      41.105  32.376  34.845  1.00  0.00     0.074 A 
ATOM     63  C   UNL A   1      42.515  27.622  30.702  1.00  0.00     0.029 A 
ATOM     64  N   UNL A   1      41.528  29.351  31.709  1.00  0.00    -0.354 N 
ATOM     65  N   UNL A   1      41.284  31.457  33.920  1.00  0.00    -0.248 NA
ATOM     66  C   UNL A   1      42.084  32.344  35.931  1.00  0.00     0.031 C 
ATOM     67  C   UNL A   1      43.209  27.922  31.880  1.00  0.00     0.029 A 
ATOM     68  C   UNL A   1      42.610  29.016  32.494  1.00  0.00     0.049 A 
ATOM     69  H   UNL A   1      40.898  30.083  31.898  1.00  0.00     0.167 HD
ATOM     70  C   UNL A   1      42.415  30.753  34.297  1.00  0.00     0.074 A 
ATOM     71  C   UNL A   1      42.885  31.370  35.525  1.00  0.00     0.031 C 
ATOM     72  C   UNL A   1      43.017  29.694  33.700  1.00  0.00     0.037 A 
BRANCH  59  73
ATOM     73  C   UNL A   1      40.402  27.597  28.475  1.00  0.00     0.057 A 
ATOM     74  C   UNL A   1      41.062  27.813  27.258  1.00  0.00     0.134 A 
ATOM     75  C   UNL A   1      39.696  26.398  28.621  1.00  0.00     0.134 A 
ATOM     76  F   UNL A   1      41.731  28.956  27.038  1.00  0.00    -0.206 F 
ATOM     77  C   UNL A   1      41.015  26.879  26.222  1.00  0.00     0.040 A 
ATOM     78  C   UNL A   1      39.664  25.442  27.603  1.00  0.00     0.040 A 
ATOM     79  F   UNL A   1      39.024  26.135  29.752  1.00  0.00    -0.206 F 
ATOM     80  C   UNL A   1      40.322  25.683  26.399  1.00  0.00     0.006 A 
ENDBRANCH  59  73
BRANCH  60  81
ATOM     81  C   UNL A   1      39.931  34.380  36.059  1.00  0.00     0.057 A 
ATOM     82  C   UNL A   1      39.171  34.052  37.186  1.00  0.00     0.134 A 
ATOM     83  C   UNL A   1      40.599  35.611  36.067  1.00  0.00     0.134 A 
ATOM     84  F   UNL A   1      38.522  32.879  37.244  1.00  0.00    -0.206 F 
ATOM     85  C   UNL A   1      39.041  34.930  38.262  1.00  0.00     0.040 A 
ATOM     86  C   UNL A   1      40.499  36.488  37.146  1.00  0.00     0.040 A 
ATOM     87  F   UNL A   1      41.373  35.969  35.031  1.00  0.00    -0.206 F 
ATOM     88  C   UNL A   1      39.707  36.154  38.243  1.00  0.00     0.006 A 
ENDBRANCH  60  81
BRANCH  72  89
ATOM     89  C   UNL A   1      44.256  29.185  34.364  1.00  0.00     0.057 A 
ATOM     90  C   UNL A   1      45.508  29.756  34.110  1.00  0.00     0.134 A 
ATOM     91  C   UNL A   1      44.180  28.149  35.301  1.00  0.00     0.134 A 
ATOM     92  F   UNL A   1      45.637  30.743  33.211  1.00  0.00    -0.206 F 
ATOM     93  C   UNL A   1      46.654  29.290  34.750  1.00  0.00     0.040 A 
ATOM     94  C   UNL A   1      45.313  27.699  35.972  1.00  0.00     0.040 A 
ATOM     95  F   UNL A   1      43.002  27.577  35.594  1.00  0.00    -0.206 F 
ATOM     96  C   UNL A   1      46.555  28.265  35.690  1.00  0.00     0.006 A 
ENDBRANCH  72  89
ENDBRANCH  46  47
ENDBRANCH  38  41
ENDBRANCH  36  37
ENDBRANCH  35  36
ENDBRANCH  34  35
ENDBRANCH  33  34
ENDBRANCH  32  33
ENDBRANCH   1  32
TORSDOF 19
ENDMDL
MODEL 3
REMARK VINA RESULT:     -11.8      5.641     11.030
REMARK SMILES COc1ccc(CCN2/C(=[NH+]/C(=O)CCC(=O)NCCCCCCNC(=O)c3ccc(-c4c5nc(c(-c6c(F)cccc6F)c6ccc([nH]6)c(-c6c(F)cccc6F)c6nc(c(-c7c(F)cccc7F)c7ccc4[nH]7)C=C6)C=C5)cc3)S[C@@H]3CS(=O)(=O)C[C@@H]32)cc1
REMARK SMILES IDX 19 1 18 2 16 3 17 4 15 6 14 7 12 8 9 9 10 10 89 11 11 12
REMARK SMILES IDX 82 13 83 14 88 15 84 17 85 18 13 19 86 20 87 21 8 22 7 23
REMARK SMILES IDX 6 24 3 25 4 26 91 27 5 28 90 29 2 30 1 31 20 32 21 33 22 34
REMARK SMILES IDX 23 35 24 36 25 37 26 38 27 40 28 41 29 42 81 43 30 44 80 45
REMARK SMILES IDX 31 46 32 47 33 48 74 49 34 50 79 51 73 52 75 53 35 54 78 55
REMARK SMILES IDX 72 56 71 57 36 59 62 60 45 61 61 62 46 63 49 64 60 65 76 66
REMARK SMILES IDX 47 67 48 68 59 70 77 71 50 72 37 73 38 74 43 75 39 76 40 77
REMARK SMILES IDX 42 78 44 79 41 80 63 81 64 82 69 83 65 84 66 85 68 86 70 87
REMARK SMILES IDX 67 88 51 89 52 90 57 91 53 92 54 93 56 94 58 95 55 96
REMARK H PARENT 18 5 11 16 25 39 75 58 49 69
REMARK Flexibility Score: inf
ROOT
ATOM      1  C   UNL A   1      30.905  27.554  22.863  1.00  0.00     0.116 C 
ENDROOT
BRANCH   1   2
ATOM      2  N   UNL A   1      31.204  26.962  21.572  1.00  0.00    -0.356 N 
ATOM      3  C   UNL A   1      32.130  26.025  21.234  1.00  0.00     0.220 C 
ATOM      4  O   UNL A   1      32.182  25.639  20.065  1.00  0.00    -0.275 OA
ATOM      5  H   UNL A   1      30.651  27.289  20.826  1.00  0.00     0.163 HD
BRANCH   3   6
ATOM      6  C   UNL A   1      33.069  25.470  22.277  1.00  0.00     0.112 C 
BRANCH   6   7
ATOM      7  C   UNL A   1      33.921  24.343  21.681  1.00  0.00     0.138 C 
BRANCH   7   8
ATOM      8  C   UNL A   1      34.321  23.361  22.759  1.00  0.00     0.308 C 
ATOM      9  N   UNL A   1      32.500  21.084  25.050  1.00  0.00    -0.251 N 
ATOM     10  C   UNL A   1      33.501  21.971  24.484  1.00  0.00     0.314 C 
ATOM     11  C   UNL A   1      33.081  19.838  25.676  1.00  0.00     0.206 C 
ATOM     12  N   UNL A   1      33.281  22.836  23.532  1.00  0.00    -0.205 N 
ATOM     13  S   UNL A   1      35.192  21.684  25.086  1.00  0.00    -0.030 SA
ATOM     14  C   UNL A   1      35.021  19.935  25.417  1.00  0.00     0.120 C 
ATOM     15  C   UNL A   1      32.389  17.965  25.224  1.00  0.00     0.187 C 
ATOM     16  H   UNL A   1      32.358  23.127  23.354  1.00  0.00     0.316 HD
ATOM     17  C   UNL A   1      35.749  18.403  24.391  1.00  0.00     0.156 C 
ATOM     18  S   UNL A   1      34.112  16.777  24.168  1.00  0.00     0.155 S 
ATOM     19  O   UNL A   1      35.491  22.972  22.715  1.00  0.00    -0.247 OA
ATOM     20  O   UNL A   1      33.794  16.533  22.771  1.00  0.00    -0.229 OA
ATOM     21  O   UNL A   1      34.507  15.597  24.922  1.00  0.00    -0.229 OA
BRANCH   9  22
ATOM     22  C   UNL A   1      31.284  21.660  25.773  1.00  0.00     0.242 C 
BRANCH  22  23
ATOM     23  C   UNL A   1      31.405  22.926  26.757  1.00  0.00     0.081 C 
BRANCH  23  24
ATOM     24  C   UNL A   1      31.602  24.405  26.346  1.00  0.00    -0.044 A 
ATOM     25  C   UNL A   1      32.277  27.207  26.122  1.00  0.00     0.118 A 
ATOM     26  C   UNL A   1      33.259  26.253  26.123  1.00  0.00     0.046 A 
ATOM     27  C   UNL A   1      30.953  26.773  26.153  1.00  0.00     0.046 A 
ATOM     28  C   UNL A   1      32.871  24.909  26.213  1.00  0.00     0.007 A 
ATOM     29  C   UNL A   1      30.616  25.388  26.259  1.00  0.00     0.007 A 
BRANCH  25  30
ATOM     30  O   UNL A   1      32.564  28.530  26.305  1.00  0.00    -0.497 OA
ATOM     31  C   UNL A   1      33.593  29.029  25.452  1.00  0.00     0.278 C 
ENDBRANCH  25  30
ENDBRANCH  23  24
ENDBRANCH  22  23
ENDBRANCH   9  22
ENDBRANCH   7   8
ENDBRANCH   6   7
ENDBRANCH   3   6
ENDBRANCH   1   2
BRANCH   1  32
ATOM     32  C   UNL A   1      30.923  29.078  22.861  1.00  0.00     0.021 C 
BRANCH  32  33
ATOM     33  C   UNL A   1      29.959  29.657  23.872  1.00  0.00     0.002 C 
BRANCH  33  34
ATOM     34  C   UNL A   1      30.262  31.081  24.354  1.00  0.00     0.002 C 
BRANCH  34  35
ATOM     35  C   UNL A   1      30.751  31.377  26.019  1.00  0.00     0.021 C 
BRANCH  35  36
ATOM     36  C   UNL A   1      32.451  32.384  26.909  1.00  0.00     0.116 C 
BRANCH  36  37
ATOM     37  N   UNL A   1      32.562  33.885  27.510  1.00  0.00    -0.352 N 
ATOM     38  C   UNL A   1      33.216  34.514  28.507  1.00  0.00     0.251 C 
ATOM     39  H   UNL A   1      31.995  34.513  27.007  1.00  0.00     0.163 HD
ATOM     40  O   UNL A   1      32.826  35.593  28.927  1.00  0.00    -0.269 OA
BRANCH  38  41
ATOM     41  C   UNL A   1      34.341  33.862  29.048  1.00  0.00     0.039 A 
ATOM     42  C   UNL A   1      35.606  34.288  28.655  1.00  0.00     0.014 A 
ATOM     43  C   UNL A   1      34.039  32.900  30.000  1.00  0.00     0.014 A 
ATOM     44  C   UNL A   1      36.663  33.687  29.272  1.00  0.00     0.010 A 
ATOM     45  C   UNL A   1      35.087  32.376  30.676  1.00  0.00     0.010 A 
ATOM     46  C   UNL A   1      36.381  32.747  30.272  1.00  0.00    -0.014 A 
BRANCH  46  47
ATOM     47  C   UNL A   1      37.449  32.000  30.892  1.00  0.00     0.031 A 
ATOM     48  C   UNL A   1      37.953  32.531  32.186  1.00  0.00     0.074 A 
ATOM     49  C   UNL A   1      37.992  31.025  30.156  1.00  0.00     0.049 A 
ATOM     50  N   UNL A   1      39.059  32.246  32.801  1.00  0.00    -0.248 NA
ATOM     51  C   UNL A   1      37.155  33.600  32.828  1.00  0.00     0.031 C 
ATOM     52  C   UNL A   1      37.518  30.578  28.839  1.00  0.00     0.029 A 
ATOM     53  N   UNL A   1      39.089  30.269  30.399  1.00  0.00    -0.354 N 
ATOM     54  C   UNL A   1      39.107  33.119  33.875  1.00  0.00     0.074 A 
ATOM     55  C   UNL A   1      37.966  33.994  33.795  1.00  0.00     0.031 C 
ATOM     56  C   UNL A   1      38.327  29.603  28.396  1.00  0.00     0.029 A 
ATOM     57  C   UNL A   1      39.384  29.408  29.376  1.00  0.00     0.049 A 
ATOM     58  H   UNL A   1      39.620  30.331  31.227  1.00  0.00     0.167 HD
ATOM     59  C   UNL A   1      40.037  33.141  34.851  1.00  0.00     0.037 A 
ATOM     60  C   UNL A   1      40.427  28.575  29.275  1.00  0.00     0.037 A 
ATOM     61  C   UNL A   1      41.114  32.194  34.883  1.00  0.00     0.049 A 
ATOM     62  C   UNL A   1      41.396  28.570  30.423  1.00  0.00     0.074 A 
ATOM     63  C   UNL A   1      42.083  32.016  35.846  1.00  0.00     0.029 A 
ATOM     64  N   UNL A   1      41.340  31.244  33.889  1.00  0.00    -0.354 N 
ATOM     65  N   UNL A   1      41.414  29.339  31.491  1.00  0.00    -0.248 NA
ATOM     66  C   UNL A   1      42.472  27.582  30.367  1.00  0.00     0.031 C 
ATOM     67  C   UNL A   1      42.916  30.976  35.418  1.00  0.00     0.029 A 
ATOM     68  C   UNL A   1      42.439  30.477  34.213  1.00  0.00     0.049 A 
ATOM     69  H   UNL A   1      40.795  31.137  33.077  1.00  0.00     0.167 HD
ATOM     70  C   UNL A   1      42.487  28.909  32.252  1.00  0.00     0.074 A 
ATOM     71  C   UNL A   1      43.079  27.798  31.525  1.00  0.00     0.031 C 
ATOM     72  C   UNL A   1      42.956  29.378  33.435  1.00  0.00     0.037 A 
BRANCH  59  73
ATOM     73  C   UNL A   1      39.902  34.175  35.924  1.00  0.00     0.057 A 
ATOM     74  C   UNL A   1      39.237  33.913  37.130  1.00  0.00     0.134 A 
ATOM     75  C   UNL A   1      40.455  35.449  35.757  1.00  0.00     0.134 A 
ATOM     76  F   UNL A   1      38.656  32.722  37.342  1.00  0.00    -0.206 F 
ATOM     77  C   UNL A   1      39.117  34.882  38.127  1.00  0.00     0.040 A 
ATOM     78  C   UNL A   1      40.366  36.420  36.758  1.00  0.00     0.040 A 
ATOM     79  F   UNL A   1      41.086  35.776  34.620  1.00  0.00    -0.206 F 
ATOM     80  C   UNL A   1      39.694  36.138  37.946  1.00  0.00     0.006 A 
ENDBRANCH  59  73
BRANCH  60  81
ATOM     81  C   UNL A   1      40.558  27.682  28.105  1.00  0.00     0.057 A 
ATOM     82  C   UNL A   1      41.296  28.077  26.984  1.00  0.00     0.134 A 
ATOM     83  C   UNL A   1      39.984  26.405  28.082  1.00  0.00     0.134 A 
ATOM     84  F   UNL A   1      41.883  29.282  26.954  1.00  0.00    -0.206 F 
ATOM     85  C   UNL A   1      41.423  27.254  25.865  1.00  0.00     0.040 A 
ATOM     86  C   UNL A   1      40.125  25.561  26.980  1.00  0.00     0.040 A 
ATOM     87  F   UNL A   1      39.294  25.952  29.140  1.00  0.00    -0.206 F 
ATOM     88  C   UNL A   1      40.836  25.991  25.861  1.00  0.00     0.006 A 
ENDBRANCH  60  81
BRANCH  72  89
ATOM     89  C   UNL A   1      44.133  28.654  34.007  1.00  0.00     0.057 A 
ATOM     90  C   UNL A   1      45.442  29.089  33.774  1.00  0.00     0.134 A 
ATOM     91  C   UNL A   1      43.943  27.544  34.837  1.00  0.00     0.134 A 
ATOM     92  F   UNL A   1      45.678  30.141  32.976  1.00  0.00    -0.206 F 
ATOM     93  C   UNL A   1      46.531  28.422  34.329  1.00  0.00     0.040 A 
ATOM     94  C   UNL A   1      45.022  26.891  35.425  1.00  0.00     0.040 A 
ATOM     95  F   UNL A   1      42.707  27.095  35.106  1.00  0.00    -0.206 F 
ATOM     96  C   UNL A   1      46.320  27.325  35.164  1.00  0.00     0.006 A 
ENDBRANCH  72  89
ENDBRANCH  46  47
ENDBRANCH  38  41
ENDBRANCH  36  37
ENDBRANCH  35  36
ENDBRANCH  34  35
ENDBRANCH  33  34
ENDBRANCH  32  33
ENDBRANCH   1  32
TORSDOF 19
ENDMDL
