MODEL 1
REMARK VINA RESULT:     -11.8      0.000      0.000
REMARK SMILES Cc1cc(F)ccc1-n1ccc(C)c(C(=O)NCCCCCCNC(=O)c2ccc(-c3c4nc(c(-c5c(F)cccc5F)c5ccc([nH]5)c(-c5c(F)cccc5F)c5nc(c(-c6c(F)cccc6F)c6ccc3[nH]6)C=C5)C=C4)cc2)c1=O
REMARK SMILES IDX 21 1 20 2 19 3 18 4 17 5 15 6 16 7 14 9 9 10 10 11 81 12
REMARK SMILES IDX 11 13 82 14 12 15 13 16 8 17 1 18 2 19 3 20 4 21 7 22 5 23
REMARK SMILES IDX 6 24 22 25 23 26 24 27 25 28 26 30 27 31 28 32 80 33 29 34
REMARK SMILES IDX 79 35 30 36 31 37 32 38 73 39 33 40 78 41 72 42 74 43 34 44
REMARK SMILES IDX 77 45 71 46 70 47 35 49 61 50 44 51 60 52 45 53 48 54 59 55
REMARK SMILES IDX 75 56 46 57 47 58 58 60 76 61 49 62 36 63 37 64 42 65 38 66
REMARK SMILES IDX 39 67 41 68 43 69 40 70 62 71 63 72 68 73 64 74 65 75 67 76
REMARK SMILES IDX 69 77 66 78 50 79 51 80 56 81 52 82 53 83 55 84 57 85 54 86
REMARK H PARENT 17 8 24 29 74 48 48 59
REMARK Flexibility Score: inf
ROOT
ATOM      1  C   UNL A   1      36.489  21.522  24.593  1.00  0.00     0.002 C 
ENDROOT
BRANCH   1   2
ATOM      2  C   UNL A   1      35.893  22.321  25.756  1.00  0.00     0.002 C 
BRANCH   2   3
ATOM      3  C   UNL A   1      34.802  21.642  26.589  1.00  0.00     0.021 C 
BRANCH   3   4
ATOM      4  C   UNL A   1      33.832  22.561  27.326  1.00  0.00     0.116 C 
BRANCH   4   5
ATOM      5  N   UNL A   1      32.426  22.245  27.146  1.00  0.00    -0.352 N 
ATOM      6  C   UNL A   1      31.631  22.423  26.041  1.00  0.00     0.257 C 
ATOM      7  O   UNL A   1      30.519  21.892  26.035  1.00  0.00    -0.269 OA
ATOM      8  H   UNL A   1      31.979  21.845  27.928  1.00  0.00     0.163 HD
BRANCH   6   9
ATOM      9  C   UNL A   1      32.072  23.310  24.919  1.00  0.00     0.108 A 
ATOM     10  N   UNL A   1      32.046  25.543  23.847  1.00  0.00    -0.283 N 
ATOM     11  C   UNL A   1      32.514  24.947  22.687  1.00  0.00     0.095 A 
ATOM     12  C   UNL A   1      31.976  24.808  25.046  1.00  0.00     0.268 A 
ATOM     13  C   UNL A   1      32.851  23.655  22.649  1.00  0.00     0.023 A 
ATOM     14  O   UNL A   1      31.773  25.301  26.155  1.00  0.00    -0.268 OA
ATOM     15  C   UNL A   1      32.582  22.785  23.779  1.00  0.00    -0.031 A 
ATOM     16  C   UNL A   1      32.853  21.331  23.491  1.00  0.00     0.045 C 
BRANCH  10  17
ATOM     17  C   UNL A   1      31.549  26.890  23.812  1.00  0.00     0.052 A 
ATOM     18  C   UNL A   1      33.748  27.981  24.592  1.00  0.00     0.047 C 
ATOM     19  C   UNL A   1      32.289  28.019  24.224  1.00  0.00    -0.024 A 
ATOM     20  C   UNL A   1      31.652  29.274  24.264  1.00  0.00     0.044 A 
ATOM     21  C   UNL A   1      30.329  29.414  23.861  1.00  0.00     0.123 A 
ATOM     22  C   UNL A   1      30.216  27.069  23.378  1.00  0.00     0.030 A 
ATOM     23  F   UNL A   1      29.749  30.619  23.905  1.00  0.00    -0.207 F 
ATOM     24  C   UNL A   1      29.608  28.324  23.407  1.00  0.00     0.041 A 
ENDBRANCH  10  17
ENDBRANCH   6   9
ENDBRANCH   4   5
ENDBRANCH   3   4
ENDBRANCH   2   3
ENDBRANCH   1   2
BRANCH   1  25
ATOM     25  C   UNL A   1      37.400  20.348  24.951  1.00  0.00     0.021 C 
BRANCH  25  26
ATOM     26  C   UNL A   1      38.702  20.693  25.662  1.00  0.00     0.116 C 
BRANCH  26  27
ATOM     27  N   UNL A   1      39.707  19.644  25.601  1.00  0.00    -0.352 N 
ATOM     28  C   UNL A   1      41.029  19.681  25.985  1.00  0.00     0.251 C 
ATOM     29  H   UNL A   1      39.399  18.785  25.232  1.00  0.00     0.163 HD
ATOM     30  O   UNL A   1      41.756  18.710  25.797  1.00  0.00    -0.269 OA
BRANCH  28  31
ATOM     31  C   UNL A   1      41.589  20.915  26.583  1.00  0.00     0.039 A 
ATOM     32  C   UNL A   1      41.522  21.143  27.958  1.00  0.00     0.014 A 
ATOM     33  C   UNL A   1      42.157  21.877  25.741  1.00  0.00     0.014 A 
ATOM     34  C   UNL A   1      41.849  22.397  28.465  1.00  0.00     0.010 A 
ATOM     35  C   UNL A   1      42.565  23.107  26.267  1.00  0.00     0.010 A 
ATOM     36  C   UNL A   1      42.362  23.399  27.624  1.00  0.00    -0.014 A 
BRANCH  36  37
ATOM     37  C   UNL A   1      42.657  24.745  28.183  1.00  0.00     0.031 A 
ATOM     38  C   UNL A   1      44.065  25.136  28.552  1.00  0.00     0.074 A 
ATOM     39  C   UNL A   1      41.658  25.640  28.315  1.00  0.00     0.049 A 
ATOM     40  N   UNL A   1      44.507  26.267  29.045  1.00  0.00    -0.248 NA
ATOM     41  C   UNL A   1      45.114  24.125  28.348  1.00  0.00     0.031 C 
ATOM     42  C   UNL A   1      40.252  25.386  27.994  1.00  0.00     0.029 A 
ATOM     43  N   UNL A   1      41.673  26.944  28.739  1.00  0.00    -0.354 N 
ATOM     44  C   UNL A   1      45.873  26.095  29.231  1.00  0.00     0.074 A 
ATOM     45  C   UNL A   1      46.187  24.744  28.822  1.00  0.00     0.031 C 
ATOM     46  C   UNL A   1      39.547  26.510  28.196  1.00  0.00     0.029 A 
ATOM     47  C   UNL A   1      40.437  27.542  28.714  1.00  0.00     0.049 A 
ATOM     48  H   UNL A   1      42.491  27.406  29.034  1.00  0.00     0.167 HD
ATOM     49  C   UNL A   1      46.785  26.985  29.692  1.00  0.00     0.037 A 
ATOM     50  C   UNL A   1      40.057  28.778  29.086  1.00  0.00     0.037 A 
ATOM     51  C   UNL A   1      46.480  28.342  30.071  1.00  0.00     0.049 A 
ATOM     52  C   UNL A   1      41.085  29.733  29.620  1.00  0.00     0.074 A 
ATOM     53  C   UNL A   1      47.346  29.333  30.501  1.00  0.00     0.029 A 
ATOM     54  N   UNL A   1      45.210  28.897  30.067  1.00  0.00    -0.354 N 
ATOM     55  N   UNL A   1      42.377  29.565  29.759  1.00  0.00    -0.248 NA
ATOM     56  C   UNL A   1      40.598  31.050  30.057  1.00  0.00     0.031 C 
ATOM     57  C   UNL A   1      46.594  30.475  30.798  1.00  0.00     0.029 A 
ATOM     58  C   UNL A   1      45.265  30.208  30.513  1.00  0.00     0.049 A 
ATOM     59  H   UNL A   1      44.390  28.429  29.787  1.00  0.00     0.167 HD
ATOM     60  C   UNL A   1      42.859  30.754  30.289  1.00  0.00     0.074 A 
ATOM     61  C   UNL A   1      41.725  31.645  30.420  1.00  0.00     0.031 C 
ATOM     62  C   UNL A   1      44.126  31.078  30.644  1.00  0.00     0.037 A 
BRANCH  49  63
ATOM     63  C   UNL A   1      48.206  26.519  29.831  1.00  0.00     0.057 A 
ATOM     64  C   UNL A   1      49.126  26.724  28.793  1.00  0.00     0.134 A 
ATOM     65  C   UNL A   1      48.653  25.826  30.962  1.00  0.00     0.134 A 
ATOM     66  F   UNL A   1      48.761  27.374  27.678  1.00  0.00    -0.206 F 
ATOM     67  C   UNL A   1      50.437  26.253  28.876  1.00  0.00     0.040 A 
ATOM     68  C   UNL A   1      49.969  25.370  31.066  1.00  0.00     0.040 A 
ATOM     69  F   UNL A   1      47.826  25.605  31.996  1.00  0.00    -0.206 F 
ATOM     70  C   UNL A   1      50.863  25.577  30.017  1.00  0.00     0.006 A 
ENDBRANCH  49  63
BRANCH  50  71
ATOM     71  C   UNL A   1      38.631  29.178  28.994  1.00  0.00     0.057 A 
ATOM     72  C   UNL A   1      38.077  29.618  27.786  1.00  0.00     0.134 A 
ATOM     73  C   UNL A   1      37.783  29.104  30.105  1.00  0.00     0.134 A 
ATOM     74  F   UNL A   1      38.839  29.714  26.687  1.00  0.00    -0.206 F 
ATOM     75  C   UNL A   1      36.733  29.978  27.687  1.00  0.00     0.040 A 
ATOM     76  C   UNL A   1      36.430  29.434  30.014  1.00  0.00     0.040 A 
ATOM     77  F   UNL A   1      38.251  28.668  31.283  1.00  0.00    -0.206 F 
ATOM     78  C   UNL A   1      35.903  29.877  28.801  1.00  0.00     0.006 A 
ENDBRANCH  50  71
BRANCH  62  79
ATOM     79  C   UNL A   1      44.344  32.457  31.190  1.00  0.00     0.057 A 
ATOM     80  C   UNL A   1      44.281  32.701  32.568  1.00  0.00     0.134 A 
ATOM     81  C   UNL A   1      44.615  33.546  30.352  1.00  0.00     0.134 A 
ATOM     82  F   UNL A   1      44.020  31.702  33.426  1.00  0.00    -0.206 F 
ATOM     83  C   UNL A   1      44.481  33.978  33.092  1.00  0.00     0.040 A 
ATOM     84  C   UNL A   1      44.841  34.823  30.866  1.00  0.00     0.040 A 
ATOM     85  F   UNL A   1      44.707  33.375  29.025  1.00  0.00    -0.206 F 
ATOM     86  C   UNL A   1      44.770  35.043  32.241  1.00  0.00     0.006 A 
ENDBRANCH  62  79
ENDBRANCH  36  37
ENDBRANCH  28  31
ENDBRANCH  26  27
ENDBRANCH  25  26
ENDBRANCH   1  25
TORSDOF 14
ENDMDL
MODEL 2
REMARK VINA RESULT:     -11.8      2.416      7.607
REMARK SMILES Cc1cc(F)ccc1-n1ccc(C)c(C(=O)NCCCCCCNC(=O)c2ccc(-c3c4nc(c(-c5c(F)cccc5F)c5ccc([nH]5)c(-c5c(F)cccc5F)c5nc(c(-c6c(F)cccc6F)c6ccc3[nH]6)C=C5)C=C4)cc2)c1=O
REMARK SMILES IDX 21 1 20 2 19 3 18 4 17 5 15 6 16 7 14 9 9 10 10 11 81 12
REMARK SMILES IDX 11 13 82 14 12 15 13 16 8 17 1 18 2 19 3 20 4 21 7 22 5 23
REMARK SMILES IDX 6 24 22 25 23 26 24 27 25 28 26 30 27 31 28 32 80 33 29 34
REMARK SMILES IDX 79 35 30 36 31 37 32 38 73 39 33 40 78 41 72 42 74 43 34 44
REMARK SMILES IDX 77 45 71 46 70 47 35 49 61 50 44 51 60 52 45 53 48 54 59 55
REMARK SMILES IDX 75 56 46 57 47 58 58 60 76 61 49 62 36 63 37 64 42 65 38 66
REMARK SMILES IDX 39 67 41 68 43 69 40 70 62 71 63 72 68 73 64 74 65 75 67 76
REMARK SMILES IDX 69 77 66 78 50 79 51 80 56 81 52 82 53 83 55 84 57 85 54 86
REMARK H PARENT 17 8 24 29 74 48 48 59
REMARK Flexibility Score: inf
ROOT
ATOM      1  C   UNL A   1      32.837  28.715  24.818  1.00  0.00     0.002 C 
ENDROOT
BRANCH   1   2
ATOM      2  C   UNL A   1      32.146  27.408  24.422  1.00  0.00     0.002 C 
BRANCH   2   3
ATOM      3  C   UNL A   1      31.048  26.882  25.351  1.00  0.00     0.021 C 
BRANCH   3   4
ATOM      4  C   UNL A   1      31.484  25.923  26.453  1.00  0.00     0.116 C 
BRANCH   4   5
ATOM      5  N   UNL A   1      30.656  24.738  26.604  1.00  0.00    -0.352 N 
ATOM      6  C   UNL A   1      30.882  23.460  26.157  1.00  0.00     0.257 C 
ATOM      7  O   UNL A   1      30.150  22.562  26.577  1.00  0.00    -0.269 OA
ATOM      8  H   UNL A   1      29.815  24.871  27.098  1.00  0.00     0.163 HD
BRANCH   6   9
ATOM      9  C   UNL A   1      31.929  23.186  25.124  1.00  0.00     0.108 A 
ATOM     10  N   UNL A   1      34.307  22.763  24.576  1.00  0.00    -0.283 N 
ATOM     11  C   UNL A   1      34.012  23.054  23.253  1.00  0.00     0.095 A 
ATOM     12  C   UNL A   1      33.274  22.639  25.524  1.00  0.00     0.268 A 
ATOM     13  C   UNL A   1      32.761  23.286  22.848  1.00  0.00     0.023 A 
ATOM     14  O   UNL A   1      33.420  22.186  26.659  1.00  0.00    -0.268 OA
ATOM     15  C   UNL A   1      31.680  23.406  23.810  1.00  0.00    -0.031 A 
ATOM     16  C   UNL A   1      30.379  23.852  23.194  1.00  0.00     0.045 C 
BRANCH  10  17
ATOM     17  C   UNL A   1      35.675  22.673  25.003  1.00  0.00     0.052 A 
ATOM     18  C   UNL A   1      35.831  20.112  24.782  1.00  0.00     0.047 C 
ATOM     19  C   UNL A   1      36.372  21.459  25.179  1.00  0.00    -0.024 A 
ATOM     20  C   UNL A   1      37.671  21.490  25.724  1.00  0.00     0.044 A 
ATOM     21  C   UNL A   1      38.279  22.698  26.043  1.00  0.00     0.123 A 
ATOM     22  C   UNL A   1      36.333  23.887  25.306  1.00  0.00     0.030 A 
ATOM     23  F   UNL A   1      39.515  22.701  26.555  1.00  0.00    -0.207 F 
ATOM     24  C   UNL A   1      37.626  23.899  25.827  1.00  0.00     0.041 A 
ENDBRANCH  10  17
ENDBRANCH   6   9
ENDBRANCH   4   5
ENDBRANCH   3   4
ENDBRANCH   2   3
ENDBRANCH   1   2
BRANCH   1  25
ATOM     25  C   UNL A   1      34.030  28.610  25.768  1.00  0.00     0.021 C 
BRANCH  25  26
ATOM     26  C   UNL A   1      33.719  28.680  27.258  1.00  0.00     0.116 C 
BRANCH  26  27
ATOM     27  N   UNL A   1      33.730  30.028  27.803  1.00  0.00    -0.352 N 
ATOM     28  C   UNL A   1      34.767  30.724  28.384  1.00  0.00     0.251 C 
ATOM     29  H   UNL A   1      32.875  30.512  27.750  1.00  0.00     0.163 HD
ATOM     30  O   UNL A   1      34.576  31.842  28.854  1.00  0.00    -0.269 OA
BRANCH  28  31
ATOM     31  C   UNL A   1      36.106  30.102  28.487  1.00  0.00     0.039 A 
ATOM     32  C   UNL A   1      36.503  29.437  29.649  1.00  0.00     0.014 A 
ATOM     33  C   UNL A   1      36.993  30.222  27.412  1.00  0.00     0.014 A 
ATOM     34  C   UNL A   1      37.834  29.059  29.805  1.00  0.00     0.010 A 
ATOM     35  C   UNL A   1      38.308  29.764  27.541  1.00  0.00     0.010 A 
ATOM     36  C   UNL A   1      38.756  29.230  28.759  1.00  0.00    -0.014 A 
BRANCH  36  37
ATOM     37  C   UNL A   1      40.181  28.862  28.970  1.00  0.00     0.031 A 
ATOM     38  C   UNL A   1      41.126  29.806  29.668  1.00  0.00     0.074 A 
ATOM     39  C   UNL A   1      40.618  27.652  28.571  1.00  0.00     0.049 A 
ATOM     40  N   UNL A   1      42.398  29.650  29.943  1.00  0.00    -0.248 NA
ATOM     41  C   UNL A   1      40.576  31.097  30.111  1.00  0.00     0.031 C 
ATOM     42  C   UNL A   1      39.804  26.647  27.883  1.00  0.00     0.029 A 
ATOM     43  N   UNL A   1      41.846  27.055  28.698  1.00  0.00    -0.354 N 
ATOM     44  C   UNL A   1      42.803  30.824  30.565  1.00  0.00     0.074 A 
ATOM     45  C   UNL A   1      41.649  31.696  30.608  1.00  0.00     0.031 C 
ATOM     46  C   UNL A   1      40.544  25.545  27.684  1.00  0.00     0.029 A 
ATOM     47  C   UNL A   1      41.896  25.786  28.175  1.00  0.00     0.049 A 
ATOM     48  H   UNL A   1      42.618  27.495  29.122  1.00  0.00     0.167 HD
ATOM     49  C   UNL A   1      44.022  31.143  31.065  1.00  0.00     0.037 A 
ATOM     50  C   UNL A   1      42.920  24.918  28.083  1.00  0.00     0.037 A 
ATOM     51  C   UNL A   1      45.163  30.264  31.052  1.00  0.00     0.049 A 
ATOM     52  C   UNL A   1      44.266  25.312  28.620  1.00  0.00     0.074 A 
ATOM     53  C   UNL A   1      46.425  30.481  31.580  1.00  0.00     0.029 A 
ATOM     54  N   UNL A   1      45.182  29.002  30.480  1.00  0.00    -0.354 N 
ATOM     55  N   UNL A   1      44.623  26.413  29.234  1.00  0.00    -0.248 NA
ATOM     56  C   UNL A   1      45.356  24.341  28.442  1.00  0.00     0.031 C 
ATOM     57  C   UNL A   1      47.220  29.366  31.289  1.00  0.00     0.029 A 
ATOM     58  C   UNL A   1      46.440  28.438  30.616  1.00  0.00     0.049 A 
ATOM     59  H   UNL A   1      44.414  28.569  30.041  1.00  0.00     0.167 HD
ATOM     60  C   UNL A   1      45.972  26.265  29.524  1.00  0.00     0.074 A 
ATOM     61  C   UNL A   1      46.363  24.956  29.045  1.00  0.00     0.031 C 
ATOM     62  C   UNL A   1      46.815  27.138  30.127  1.00  0.00     0.037 A 
BRANCH  49  63
ATOM     63  C   UNL A   1      44.195  32.512  31.658  1.00  0.00     0.057 A 
ATOM     64  C   UNL A   1      44.018  32.718  33.033  1.00  0.00     0.134 A 
ATOM     65  C   UNL A   1      44.485  33.631  30.869  1.00  0.00     0.134 A 
ATOM     66  F   UNL A   1      43.731  31.690  33.845  1.00  0.00    -0.206 F 
ATOM     67  C   UNL A   1      44.121  33.990  33.599  1.00  0.00     0.040 A 
ATOM     68  C   UNL A   1      44.613  34.905  31.429  1.00  0.00     0.040 A 
ATOM     69  F   UNL A   1      44.676  33.502  29.548  1.00  0.00    -0.206 F 
ATOM     70  C   UNL A   1      44.424  35.088  32.797  1.00  0.00     0.006 A 
ENDBRANCH  49  63
BRANCH  50  71
ATOM     71  C   UNL A   1      42.722  23.600  27.431  1.00  0.00     0.057 A 
ATOM     72  C   UNL A   1      42.388  22.464  28.177  1.00  0.00     0.134 A 
ATOM     73  C   UNL A   1      42.839  23.452  26.044  1.00  0.00     0.134 A 
ATOM     74  F   UNL A   1      42.264  22.541  29.510  1.00  0.00    -0.206 F 
ATOM     75  C   UNL A   1      42.182  21.225  27.569  1.00  0.00     0.040 A 
ATOM     76  C   UNL A   1      42.609  22.225  25.420  1.00  0.00     0.040 A 
ATOM     77  F   UNL A   1      43.137  24.509  25.275  1.00  0.00    -0.206 F 
ATOM     78  C   UNL A   1      42.283  21.106  26.184  1.00  0.00     0.006 A 
ENDBRANCH  50  71
BRANCH  62  79
ATOM     79  C   UNL A   1      48.234  26.690  30.311  1.00  0.00     0.057 A 
ATOM     80  C   UNL A   1      48.612  25.948  31.438  1.00  0.00     0.134 A 
ATOM     81  C   UNL A   1      49.228  26.997  29.374  1.00  0.00     0.134 A 
ATOM     82  F   UNL A   1      47.708  25.626  32.376  1.00  0.00    -0.206 F 
ATOM     83  C   UNL A   1      49.928  25.525  31.623  1.00  0.00     0.040 A 
ATOM     84  C   UNL A   1      50.543  26.558  29.537  1.00  0.00     0.040 A 
ATOM     85  F   UNL A   1      48.927  27.688  28.265  1.00  0.00    -0.206 F 
ATOM     86  C   UNL A   1      50.897  25.823  30.667  1.00  0.00     0.006 A 
ENDBRANCH  62  79
ENDBRANCH  36  37
ENDBRANCH  28  31
ENDBRANCH  26  27
ENDBRANCH  25  26
ENDBRANCH   1  25
TORSDOF 14
ENDMDL
MODEL 3
REMARK VINA RESULT:     -11.7      0.668      1.683
REMARK SMILES Cc1cc(F)ccc1-n1ccc(C)c(C(=O)NCCCCCCNC(=O)c2ccc(-c3c4nc(c(-c5c(F)cccc5F)c5ccc([nH]5)c(-c5c(F)cccc5F)c5nc(c(-c6c(F)cccc6F)c6ccc3[nH]6)C=C5)C=C4)cc2)c1=O
REMARK SMILES IDX 21 1 20 2 19 3 18 4 17 5 15 6 16 7 14 9 9 10 10 11 81 12
REMARK SMILES IDX 11 13 82 14 12 15 13 16 8 17 1 18 2 19 3 20 4 21 7 22 5 23
REMARK SMILES IDX 6 24 22 25 23 26 24 27 25 28 26 30 27 31 28 32 80 33 29 34
REMARK SMILES IDX 79 35 30 36 31 37 32 38 73 39 33 40 78 41 72 42 74 43 34 44
REMARK SMILES IDX 77 45 71 46 70 47 35 49 61 50 44 51 60 52 45 53 48 54 59 55
REMARK SMILES IDX 75 56 46 57 47 58 58 60 76 61 49 62 36 63 37 64 42 65 38 66
REMARK SMILES IDX 39 67 41 68 43 69 40 70 62 71 63 72 68 73 64 74 65 75 67 76
REMARK SMILES IDX 69 77 66 78 50 79 51 80 56 81 52 82 53 83 55 84 57 85 54 86
REMARK H PARENT 17 8 24 29 74 48 48 59
REMARK Flexibility Score: inf
ROOT
ATOM      1  C   UNL A   1      36.616  21.610  24.584  1.00  0.00     0.002 C 
ENDROOT
BRANCH   1   2
ATOM      2  C   UNL A   1      36.106  22.394  25.797  1.00  0.00     0.002 C 
BRANCH   2   3
ATOM      3  C   UNL A   1      34.961  21.776  26.604  1.00  0.00     0.021 C 
BRANCH   3   4
ATOM      4  C   UNL A   1      34.007  20.857  25.847  1.00  0.00     0.116 C 
BRANCH   4   5
ATOM      5  N   UNL A   1      32.596  21.082  26.108  1.00  0.00    -0.352 N 
ATOM      6  C   UNL A   1      31.726  21.943  25.487  1.00  0.00     0.257 C 
ATOM      7  O   UNL A   1      30.523  21.822  25.725  1.00  0.00    -0.269 OA
ATOM      8  H   UNL A   1      32.208  20.538  26.831  1.00  0.00     0.163 HD
BRANCH   6   9
ATOM      9  C   UNL A   1      32.236  23.051  24.621  1.00  0.00     0.108 A 
ATOM     10  N   UNL A   1      32.705  25.465  24.322  1.00  0.00    -0.283 N 
ATOM     11  C   UNL A   1      32.805  25.236  22.959  1.00  0.00     0.095 A 
ATOM     12  C   UNL A   1      32.599  24.385  25.219  1.00  0.00     0.268 A 
ATOM     13  C   UNL A   1      32.742  24.004  22.449  1.00  0.00     0.023 A 
ATOM     14  O   UNL A   1      32.713  24.480  26.440  1.00  0.00    -0.268 OA
ATOM     15  C   UNL A   1      32.400  22.870  23.288  1.00  0.00    -0.031 A 
ATOM     16  C   UNL A   1      32.192  21.594  22.513  1.00  0.00     0.045 C 
BRANCH  10  17
ATOM     17  C   UNL A   1      32.620  26.810  24.820  1.00  0.00     0.052 A 
ATOM     18  C   UNL A   1      30.103  27.086  24.350  1.00  0.00     0.047 C 
ATOM     19  C   UNL A   1      31.453  27.600  24.773  1.00  0.00    -0.024 A 
ATOM     20  C   UNL A   1      31.524  28.948  25.176  1.00  0.00     0.044 A 
ATOM     21  C   UNL A   1      32.713  29.484  25.658  1.00  0.00     0.123 A 
ATOM     22  C   UNL A   1      33.805  27.374  25.346  1.00  0.00     0.030 A 
ATOM     23  F   UNL A   1      32.753  30.766  26.039  1.00  0.00    -0.207 F 
ATOM     24  C   UNL A   1      33.852  28.705  25.759  1.00  0.00     0.041 A 
ENDBRANCH  10  17
ENDBRANCH   6   9
ENDBRANCH   4   5
ENDBRANCH   3   4
ENDBRANCH   2   3
ENDBRANCH   1   2
BRANCH   1  25
ATOM     25  C   UNL A   1      37.534  20.420  24.862  1.00  0.00     0.021 C 
BRANCH  25  26
ATOM     26  C   UNL A   1      38.774  20.701  25.701  1.00  0.00     0.116 C 
BRANCH  26  27
ATOM     27  N   UNL A   1      39.779  19.652  25.645  1.00  0.00    -0.352 N 
ATOM     28  C   UNL A   1      41.104  19.694  26.021  1.00  0.00     0.251 C 
ATOM     29  H   UNL A   1      39.470  18.789  25.287  1.00  0.00     0.163 HD
ATOM     30  O   UNL A   1      41.830  18.722  25.839  1.00  0.00    -0.269 OA
BRANCH  28  31
ATOM     31  C   UNL A   1      41.666  20.934  26.603  1.00  0.00     0.039 A 
ATOM     32  C   UNL A   1      41.666  21.147  27.982  1.00  0.00     0.014 A 
ATOM     33  C   UNL A   1      42.167  21.918  25.743  1.00  0.00     0.014 A 
ATOM     34  C   UNL A   1      41.992  22.403  28.485  1.00  0.00     0.010 A 
ATOM     35  C   UNL A   1      42.574  23.152  26.261  1.00  0.00     0.010 A 
ATOM     36  C   UNL A   1      42.437  23.425  27.630  1.00  0.00    -0.014 A 
BRANCH  36  37
ATOM     37  C   UNL A   1      42.731  24.772  28.187  1.00  0.00     0.031 A 
ATOM     38  C   UNL A   1      44.139  25.167  28.549  1.00  0.00     0.074 A 
ATOM     39  C   UNL A   1      41.729  25.663  28.326  1.00  0.00     0.049 A 
ATOM     40  N   UNL A   1      44.580  26.299  29.040  1.00  0.00    -0.248 NA
ATOM     41  C   UNL A   1      45.191  24.159  28.340  1.00  0.00     0.031 C 
ATOM     42  C   UNL A   1      40.322  25.405  28.012  1.00  0.00     0.029 A 
ATOM     43  N   UNL A   1      41.742  26.967  28.750  1.00  0.00    -0.354 N 
ATOM     44  C   UNL A   1      45.948  26.132  29.219  1.00  0.00     0.074 A 
ATOM     45  C   UNL A   1      46.264  24.782  28.807  1.00  0.00     0.031 C 
ATOM     46  C   UNL A   1      39.614  26.527  28.218  1.00  0.00     0.029 A 
ATOM     47  C   UNL A   1      40.504  27.562  28.732  1.00  0.00     0.049 A 
ATOM     48  H   UNL A   1      42.560  27.431  29.041  1.00  0.00     0.167 HD
ATOM     49  C   UNL A   1      46.860  27.025  29.676  1.00  0.00     0.037 A 
ATOM     50  C   UNL A   1      40.122  28.796  29.106  1.00  0.00     0.037 A 
ATOM     51  C   UNL A   1      46.552  28.380  30.056  1.00  0.00     0.049 A 
ATOM     52  C   UNL A   1      41.150  29.754  29.635  1.00  0.00     0.074 A 
ATOM     53  C   UNL A   1      47.417  29.374  30.482  1.00  0.00     0.029 A 
ATOM     54  N   UNL A   1      45.280  28.931  30.059  1.00  0.00    -0.354 N 
ATOM     55  N   UNL A   1      42.443  29.590  29.767  1.00  0.00    -0.248 NA
ATOM     56  C   UNL A   1      40.661  31.069  30.076  1.00  0.00     0.031 C 
ATOM     57  C   UNL A   1      46.663  30.513  30.784  1.00  0.00     0.029 A 
ATOM     58  C   UNL A   1      45.333  30.242  30.506  1.00  0.00     0.049 A 
ATOM     59  H   UNL A   1      44.460  28.461  29.784  1.00  0.00     0.167 HD
ATOM     60  C   UNL A   1      42.924  30.781  30.295  1.00  0.00     0.074 A 
ATOM     61  C   UNL A   1      41.788  31.668  30.433  1.00  0.00     0.031 C 
ATOM     62  C   UNL A   1      44.192  31.108  30.643  1.00  0.00     0.037 A 
BRANCH  49  63
ATOM     63  C   UNL A   1      48.283  26.564  29.807  1.00  0.00     0.057 A 
ATOM     64  C   UNL A   1      48.720  25.933  30.979  1.00  0.00     0.134 A 
ATOM     65  C   UNL A   1      49.230  26.786  28.801  1.00  0.00     0.134 A 
ATOM     66  F   UNL A   1      47.865  25.696  31.985  1.00  0.00    -0.206 F 
ATOM     67  C   UNL A   1      50.050  25.544  31.146  1.00  0.00     0.040 A 
ATOM     68  C   UNL A   1      50.559  26.380  28.948  1.00  0.00     0.040 A 
ATOM     69  F   UNL A   1      48.876  27.376  27.650  1.00  0.00    -0.206 F 
ATOM     70  C   UNL A   1      50.973  25.762  30.127  1.00  0.00     0.006 A 
ENDBRANCH  49  63
BRANCH  50  71
ATOM     71  C   UNL A   1      38.694  29.191  29.022  1.00  0.00     0.057 A 
ATOM     72  C   UNL A   1      38.126  29.605  27.812  1.00  0.00     0.134 A 
ATOM     73  C   UNL A   1      37.859  29.138  30.144  1.00  0.00     0.134 A 
ATOM     74  F   UNL A   1      38.875  29.680  26.702  1.00  0.00    -0.206 F 
ATOM     75  C   UNL A   1      36.780  29.961  27.720  1.00  0.00     0.040 A 
ATOM     76  C   UNL A   1      36.504  29.464  30.061  1.00  0.00     0.040 A 
ATOM     77  F   UNL A   1      38.341  28.728  31.326  1.00  0.00    -0.206 F 
ATOM     78  C   UNL A   1      35.962  29.881  28.846  1.00  0.00     0.006 A 
ENDBRANCH  50  71
BRANCH  62  79
ATOM     79  C   UNL A   1      44.409  32.488  31.189  1.00  0.00     0.057 A 
ATOM     80  C   UNL A   1      44.678  33.564  30.333  1.00  0.00     0.134 A 
ATOM     81  C   UNL A   1      44.353  32.752  32.563  1.00  0.00     0.134 A 
ATOM     82  F   UNL A   1      44.749  33.378  29.006  1.00  0.00    -0.206 F 
ATOM     83  C   UNL A   1      44.882  34.853  30.825  1.00  0.00     0.040 A 
ATOM     84  C   UNL A   1      44.531  34.042  33.065  1.00  0.00     0.040 A 
ATOM     85  F   UNL A   1      44.081  31.768  33.433  1.00  0.00    -0.206 F 
ATOM     86  C   UNL A   1      44.801  35.096  32.195  1.00  0.00     0.006 A 
ENDBRANCH  62  79
ENDBRANCH  36  37
ENDBRANCH  28  31
ENDBRANCH  26  27
ENDBRANCH  25  26
ENDBRANCH   1  25
TORSDOF 14
ENDMDL
