MODEL 1
REMARK VINA RESULT:     -11.5      0.000      0.000
REMARK SMILES COc1cc(OC)cc(-c2ccc([C@@H](C)C(=O)NCCCCCCNC(=O)c3ccc(-c4c5nc(c(-c6c(F)cccc6F)c6ccc([nH]6)c(-c6c(F)cccc6F)c6nc(c(-c7c(F)cccc7F)c7ccc4[nH]7)C=C6)C=C5)cc3)cc2F)c1
REMARK SMILES IDX 21 1 20 2 19 3 18 4 16 5 17 6 14 8 15 9 13 10 10 11 11 12
REMARK SMILES IDX 83 13 12 14 82 15 84 16 9 17 3 18 4 19 85 20 5 21 8 22 2 23
REMARK SMILES IDX 1 24 6 25 7 26 22 27 23 28 24 29 25 30 26 31 27 33 28 34
REMARK SMILES IDX 29 35 81 36 30 37 80 38 31 39 32 40 33 41 74 42 34 43 79 44
REMARK SMILES IDX 73 45 75 46 35 47 78 48 72 49 71 50 36 52 62 53 45 54 61 55
REMARK SMILES IDX 46 56 49 57 60 58 76 59 47 60 48 61 59 63 77 64 50 65 37 66
REMARK SMILES IDX 38 67 43 68 39 69 40 70 42 71 44 72 41 73 63 74 64 75 69 76
REMARK SMILES IDX 65 77 66 78 68 79 70 80 67 81 51 82 52 83 57 84 53 85 54 86
REMARK SMILES IDX 56 87 58 88 55 89
REMARK H PARENT 18 7 25 32 75 51 49 62
REMARK Flexibility Score: inf
ROOT
ATOM      1  C   UNL A   1      32.920  30.141  27.047  1.00  0.00     0.002 C 
ENDROOT
BRANCH   1   2
ATOM      2  C   UNL A   1      33.387  29.212  25.922  1.00  0.00     0.021 C 
BRANCH   2   3
ATOM      3  C   UNL A   1      32.623  29.392  24.609  1.00  0.00     0.116 C 
BRANCH   3   4
ATOM      4  N   UNL A   1      33.483  29.221  23.457  1.00  0.00    -0.356 N 
ATOM      5  C   UNL A   1      33.447  28.338  22.422  1.00  0.00     0.227 C 
ATOM      6  O   UNL A   1      34.386  28.393  21.619  1.00  0.00    -0.274 OA
ATOM      7  H   UNL A   1      34.230  29.861  23.414  1.00  0.00     0.163 HD
BRANCH   5   8
ATOM      8  C   UNL A   1      32.322  27.314  22.213  1.00  0.00     0.105 C 
ATOM      9  C   UNL A   1      30.934  27.821  22.605  1.00  0.00     0.023 C 
BRANCH   8  10
ATOM     10  C   UNL A   1      32.683  25.916  22.693  1.00  0.00    -0.033 A 
ATOM     11  C   UNL A   1      33.263  23.293  23.690  1.00  0.00     0.018 A 
ATOM     12  C   UNL A   1      33.099  23.548  22.317  1.00  0.00     0.012 A 
ATOM     13  C   UNL A   1      33.135  24.394  24.547  1.00  0.00     0.131 A 
ATOM     14  C   UNL A   1      32.850  24.834  21.827  1.00  0.00     0.005 A 
ATOM     15  C   UNL A   1      32.834  25.674  24.068  1.00  0.00     0.044 A 
ATOM     16  F   UNL A   1      33.313  24.253  25.871  1.00  0.00    -0.206 F 
BRANCH  11  17
ATOM     17  C   UNL A   1      33.585  21.927  24.165  1.00  0.00    -0.008 A 
ATOM     18  C   UNL A   1      32.923  19.674  24.836  1.00  0.00     0.123 A 
ATOM     19  C   UNL A   1      34.263  19.343  25.041  1.00  0.00     0.092 A 
ATOM     20  C   UNL A   1      32.589  20.959  24.396  1.00  0.00     0.055 A 
ATOM     21  C   UNL A   1      35.273  20.275  24.816  1.00  0.00     0.123 A 
ATOM     22  C   UNL A   1      34.927  21.557  24.391  1.00  0.00     0.055 A 
BRANCH  18  23
ATOM     23  O   UNL A   1      32.044  18.663  25.116  1.00  0.00    -0.497 OA
ATOM     24  C   UNL A   1      32.596  17.399  25.459  1.00  0.00     0.278 C 
ENDBRANCH  18  23
BRANCH  21  25
ATOM     25  O   UNL A   1      36.545  19.824  25.041  1.00  0.00    -0.497 OA
ATOM     26  C   UNL A   1      37.588  20.790  24.994  1.00  0.00     0.278 C 
ENDBRANCH  21  25
ENDBRANCH  11  17
ENDBRANCH   8  10
ENDBRANCH   5   8
ENDBRANCH   3   4
ENDBRANCH   2   3
ENDBRANCH   1   2
BRANCH   1  27
ATOM     27  C   UNL A   1      31.498  30.695  26.891  1.00  0.00     0.002 C 
BRANCH  27  28
ATOM     28  C   UNL A   1      31.382  32.222  26.842  1.00  0.00     0.021 C 
BRANCH  28  29
ATOM     29  C   UNL A   1      32.710  32.970  26.938  1.00  0.00     0.116 C 
BRANCH  29  30
ATOM     30  N   UNL A   1      32.580  34.212  27.683  1.00  0.00    -0.352 N 
ATOM     31  C   UNL A   1      33.212  34.621  28.830  1.00  0.00     0.251 C 
ATOM     32  H   UNL A   1      31.940  34.858  27.307  1.00  0.00     0.163 HD
ATOM     33  O   UNL A   1      32.808  35.610  29.433  1.00  0.00    -0.269 OA
BRANCH  31  34
ATOM     34  C   UNL A   1      34.377  33.871  29.351  1.00  0.00     0.039 A 
ATOM     35  C   UNL A   1      35.658  34.239  28.933  1.00  0.00     0.014 A 
ATOM     36  C   UNL A   1      34.206  32.777  30.206  1.00  0.00     0.014 A 
ATOM     37  C   UNL A   1      36.772  33.545  29.410  1.00  0.00     0.010 A 
ATOM     38  C   UNL A   1      35.321  32.125  30.730  1.00  0.00     0.010 A 
ATOM     39  C   UNL A   1      36.613  32.498  30.332  1.00  0.00    -0.014 A 
BRANCH  39  40
ATOM     40  C   UNL A   1      37.788  31.772  30.879  1.00  0.00     0.031 A 
ATOM     41  C   UNL A   1      38.331  32.126  32.236  1.00  0.00     0.074 A 
ATOM     42  C   UNL A   1      38.400  30.836  30.130  1.00  0.00     0.049 A 
ATOM     43  N   UNL A   1      39.385  31.657  32.853  1.00  0.00    -0.248 NA
ATOM     44  C   UNL A   1      37.605  33.161  32.989  1.00  0.00     0.031 C 
ATOM     45  C   UNL A   1      37.995  30.429  28.783  1.00  0.00     0.029 A 
ATOM     46  N   UNL A   1      39.502  30.060  30.393  1.00  0.00    -0.354 N 
ATOM     47  C   UNL A   1      39.459  32.347  34.056  1.00  0.00     0.074 A 
ATOM     48  C   UNL A   1      38.370  33.301  34.063  1.00  0.00     0.031 C 
ATOM     49  C   UNL A   1      38.825  29.467  28.347  1.00  0.00     0.029 A 
ATOM     50  C   UNL A   1      39.837  29.212  29.366  1.00  0.00     0.049 A 
ATOM     51  H   UNL A   1      40.005  30.108  31.238  1.00  0.00     0.167 HD
ATOM     52  C   UNL A   1      40.339  32.187  35.072  1.00  0.00     0.037 A 
ATOM     53  C   UNL A   1      40.849  28.332  29.258  1.00  0.00     0.037 A 
ATOM     54  C   UNL A   1      41.405  31.220  35.078  1.00  0.00     0.049 A 
ATOM     55  C   UNL A   1      41.812  28.171  30.402  1.00  0.00     0.074 A 
ATOM     56  C   UNL A   1      42.319  30.949  36.080  1.00  0.00     0.029 A 
ATOM     57  N   UNL A   1      41.697  30.363  34.028  1.00  0.00    -0.354 N 
ATOM     58  N   UNL A   1      41.836  28.794  31.555  1.00  0.00    -0.248 NA
ATOM     59  C   UNL A   1      42.884  27.181  30.231  1.00  0.00     0.031 C 
ATOM     60  C   UNL A   1      43.185  29.949  35.624  1.00  0.00     0.029 A 
ATOM     61  C   UNL A   1      42.785  29.571  34.353  1.00  0.00     0.049 A 
ATOM     62  H   UNL A   1      41.203  30.324  33.177  1.00  0.00     0.167 HD
ATOM     63  C   UNL A   1      42.903  28.252  32.258  1.00  0.00     0.074 A 
ATOM     64  C   UNL A   1      43.496  27.241  31.406  1.00  0.00     0.031 C 
ATOM     65  C   UNL A   1      43.353  28.562  33.497  1.00  0.00     0.037 A 
BRANCH  52  66
ATOM     66  C   UNL A   1      40.180  33.076  36.272  1.00  0.00     0.057 A 
ATOM     67  C   UNL A   1      39.274  32.773  37.296  1.00  0.00     0.134 A 
ATOM     68  C   UNL A   1      40.964  34.226  36.422  1.00  0.00     0.134 A 
ATOM     69  F   UNL A   1      38.483  31.692  37.208  1.00  0.00    -0.206 F 
ATOM     70  C   UNL A   1      39.137  33.594  38.417  1.00  0.00     0.040 A 
ATOM     71  C   UNL A   1      40.855  35.041  37.549  1.00  0.00     0.040 A 
ATOM     72  F   UNL A   1      41.856  34.570  35.481  1.00  0.00    -0.206 F 
ATOM     73  C   UNL A   1      39.934  34.729  38.548  1.00  0.00     0.006 A 
ENDBRANCH  52  66
BRANCH  53  74
ATOM     74  C   UNL A   1      40.993  27.509  28.030  1.00  0.00     0.057 A 
ATOM     75  C   UNL A   1      41.738  27.969  26.939  1.00  0.00     0.134 A 
ATOM     76  C   UNL A   1      40.381  26.257  27.914  1.00  0.00     0.134 A 
ATOM     77  F   UNL A   1      42.333  29.170  26.987  1.00  0.00    -0.206 F 
ATOM     78  C   UNL A   1      41.853  27.222  25.766  1.00  0.00     0.040 A 
ATOM     79  C   UNL A   1      40.507  25.489  26.755  1.00  0.00     0.040 A 
ATOM     80  F   UNL A   1      39.659  25.757  28.927  1.00  0.00    -0.206 F 
ATOM     81  C   UNL A   1      41.238  25.976  25.673  1.00  0.00     0.006 A 
ENDBRANCH  53  74
BRANCH  65  82
ATOM     82  C   UNL A   1      44.517  27.773  34.020  1.00  0.00     0.057 A 
ATOM     83  C   UNL A   1      45.837  28.215  33.870  1.00  0.00     0.134 A 
ATOM     84  C   UNL A   1      44.310  26.573  34.711  1.00  0.00     0.134 A 
ATOM     85  F   UNL A   1      46.102  29.351  33.205  1.00  0.00    -0.206 F 
ATOM     86  C   UNL A   1      46.912  27.480  34.369  1.00  0.00     0.040 A 
ATOM     87  C   UNL A   1      45.376  25.841  35.236  1.00  0.00     0.040 A 
ATOM     88  F   UNL A   1      43.069  26.098  34.897  1.00  0.00    -0.206 F 
ATOM     89  C   UNL A   1      46.682  26.291  35.060  1.00  0.00     0.006 A 
ENDBRANCH  65  82
ENDBRANCH  39  40
ENDBRANCH  31  34
ENDBRANCH  29  30
ENDBRANCH  28  29
ENDBRANCH  27  28
ENDBRANCH   1  27
TORSDOF 17
ENDMDL
MODEL 2
REMARK VINA RESULT:     -11.5      2.543      8.294
REMARK SMILES COc1cc(OC)cc(-c2ccc([C@@H](C)C(=O)NCCCCCCNC(=O)c3ccc(-c4c5nc(c(-c6c(F)cccc6F)c6ccc([nH]6)c(-c6c(F)cccc6F)c6nc(c(-c7c(F)cccc7F)c7ccc4[nH]7)C=C6)C=C5)cc3)cc2F)c1
REMARK SMILES IDX 21 1 20 2 19 3 18 4 16 5 17 6 14 8 15 9 13 10 10 11 11 12
REMARK SMILES IDX 83 13 12 14 82 15 84 16 9 17 3 18 4 19 85 20 5 21 8 22 2 23
REMARK SMILES IDX 1 24 6 25 7 26 22 27 23 28 24 29 25 30 26 31 27 33 28 34
REMARK SMILES IDX 29 35 81 36 30 37 80 38 31 39 32 40 33 41 74 42 34 43 79 44
REMARK SMILES IDX 73 45 75 46 35 47 78 48 72 49 71 50 36 52 62 53 45 54 61 55
REMARK SMILES IDX 46 56 49 57 60 58 76 59 47 60 48 61 59 63 77 64 50 65 37 66
REMARK SMILES IDX 38 67 43 68 39 69 40 70 42 71 44 72 41 73 63 74 64 75 69 76
REMARK SMILES IDX 65 77 66 78 68 79 70 80 67 81 51 82 52 83 57 84 53 85 54 86
REMARK SMILES IDX 56 87 58 88 55 89
REMARK H PARENT 18 7 25 32 75 51 49 62
REMARK Flexibility Score: inf
ROOT
ATOM      1  C   UNL A   1      35.967  23.038  25.334  1.00  0.00     0.002 C 
ENDROOT
BRANCH   1   2
ATOM      2  C   UNL A   1      35.660  21.675  25.962  1.00  0.00     0.021 C 
BRANCH   2   3
ATOM      3  C   UNL A   1      35.303  20.588  24.946  1.00  0.00     0.116 C 
BRANCH   3   4
ATOM      4  N   UNL A   1      34.358  19.634  25.487  1.00  0.00    -0.356 N 
ATOM      5  C   UNL A   1      33.031  19.443  25.256  1.00  0.00     0.227 C 
ATOM      6  O   UNL A   1      32.471  18.581  25.945  1.00  0.00    -0.274 OA
ATOM      7  H   UNL A   1      34.747  19.009  26.141  1.00  0.00     0.163 HD
BRANCH   5   8
ATOM      8  C   UNL A   1      32.226  20.221  24.206  1.00  0.00     0.105 C 
ATOM      9  C   UNL A   1      32.389  19.696  22.779  1.00  0.00     0.023 C 
BRANCH   8  10
ATOM     10  C   UNL A   1      32.313  21.730  24.376  1.00  0.00    -0.033 A 
ATOM     11  C   UNL A   1      32.546  24.552  24.813  1.00  0.00     0.018 A 
ATOM     12  C   UNL A   1      32.874  23.961  23.580  1.00  0.00     0.012 A 
ATOM     13  C   UNL A   1      32.091  23.687  25.818  1.00  0.00     0.131 A 
ATOM     14  C   UNL A   1      32.728  22.588  23.356  1.00  0.00     0.005 A 
ATOM     15  C   UNL A   1      31.992  22.306  25.616  1.00  0.00     0.044 A 
ATOM     16  F   UNL A   1      31.719  24.168  27.015  1.00  0.00    -0.206 F 
BRANCH  11  17
ATOM     17  C   UNL A   1      32.657  26.018  24.993  1.00  0.00    -0.008 A 
ATOM     18  C   UNL A   1      31.882  28.299  24.586  1.00  0.00     0.123 A 
ATOM     19  C   UNL A   1      32.908  28.790  25.396  1.00  0.00     0.092 A 
ATOM     20  C   UNL A   1      31.758  26.920  24.392  1.00  0.00     0.055 A 
ATOM     21  C   UNL A   1      33.810  27.926  26.010  1.00  0.00     0.123 A 
ATOM     22  C   UNL A   1      33.685  26.554  25.797  1.00  0.00     0.055 A 
BRANCH  18  23
ATOM     23  O   UNL A   1      31.086  29.267  24.037  1.00  0.00    -0.497 OA
ATOM     24  C   UNL A   1      29.906  28.837  23.371  1.00  0.00     0.278 C 
ENDBRANCH  18  23
BRANCH  21  25
ATOM     25  O   UNL A   1      34.761  28.530  26.787  1.00  0.00    -0.497 OA
ATOM     26  C   UNL A   1      34.363  29.692  27.505  1.00  0.00     0.278 C 
ENDBRANCH  21  25
ENDBRANCH  11  17
ENDBRANCH   8  10
ENDBRANCH   5   8
ENDBRANCH   3   4
ENDBRANCH   2   3
ENDBRANCH   1   2
BRANCH   1  27
ATOM     27  C   UNL A   1      37.213  23.746  25.883  1.00  0.00     0.002 C 
BRANCH  27  28
ATOM     28  C   UNL A   1      38.427  22.847  26.138  1.00  0.00     0.021 C 
BRANCH  28  29
ATOM     29  C   UNL A   1      39.563  23.508  26.915  1.00  0.00     0.116 C 
BRANCH  29  30
ATOM     30  N   UNL A   1      40.575  24.062  26.031  1.00  0.00    -0.352 N 
ATOM     31  C   UNL A   1      41.170  25.298  26.038  1.00  0.00     0.251 C 
ATOM     32  H   UNL A   1      40.881  23.457  25.317  1.00  0.00     0.163 HD
ATOM     33  O   UNL A   1      41.840  25.662  25.077  1.00  0.00    -0.269 OA
BRANCH  31  34
ATOM     34  C   UNL A   1      41.002  26.204  27.196  1.00  0.00     0.039 A 
ATOM     35  C   UNL A   1      41.783  27.360  27.268  1.00  0.00     0.014 A 
ATOM     36  C   UNL A   1      40.117  25.890  28.234  1.00  0.00     0.014 A 
ATOM     37  C   UNL A   1      41.643  28.229  28.353  1.00  0.00     0.010 A 
ATOM     38  C   UNL A   1      39.934  26.788  29.284  1.00  0.00     0.010 A 
ATOM     39  C   UNL A   1      40.699  27.961  29.357  1.00  0.00    -0.014 A 
BRANCH  39  40
ATOM     40  C   UNL A   1      40.510  28.892  30.500  1.00  0.00     0.031 A 
ATOM     41  C   UNL A   1      39.440  29.947  30.446  1.00  0.00     0.074 A 
ATOM     42  C   UNL A   1      41.338  28.823  31.558  1.00  0.00     0.049 A 
ATOM     43  N   UNL A   1      39.167  30.892  31.309  1.00  0.00    -0.248 NA
ATOM     44  C   UNL A   1      38.578  29.955  29.253  1.00  0.00     0.031 C 
ATOM     45  C   UNL A   1      42.440  27.871  31.713  1.00  0.00     0.029 A 
ATOM     46  N   UNL A   1      41.388  29.577  32.705  1.00  0.00    -0.354 N 
ATOM     47  C   UNL A   1      38.115  31.614  30.760  1.00  0.00     0.074 A 
ATOM     48  C   UNL A   1      37.830  31.028  29.467  1.00  0.00     0.031 C 
ATOM     49  C   UNL A   1      43.044  28.086  32.893  1.00  0.00     0.029 A 
ATOM     50  C   UNL A   1      42.395  29.208  33.563  1.00  0.00     0.049 A 
ATOM     51  H   UNL A   1      40.762  30.313  32.893  1.00  0.00     0.167 HD
ATOM     52  C   UNL A   1      37.434  32.657  31.291  1.00  0.00     0.037 A 
ATOM     53  C   UNL A   1      42.757  29.722  34.753  1.00  0.00     0.037 A 
ATOM     54  C   UNL A   1      37.699  33.221  32.588  1.00  0.00     0.049 A 
ATOM     55  C   UNL A   1      41.982  30.878  35.323  1.00  0.00     0.074 A 
ATOM     56  C   UNL A   1      37.033  34.247  33.235  1.00  0.00     0.029 A 
ATOM     57  N   UNL A   1      38.712  32.805  33.437  1.00  0.00    -0.354 N 
ATOM     58  N   UNL A   1      40.956  31.516  34.815  1.00  0.00    -0.248 NA
ATOM     59  C   UNL A   1      42.414  31.381  36.635  1.00  0.00     0.031 C 
ATOM     60  C   UNL A   1      37.663  34.473  34.463  1.00  0.00     0.029 A 
ATOM     61  C   UNL A   1      38.697  33.561  34.597  1.00  0.00     0.049 A 
ATOM     62  H   UNL A   1      39.348  32.079  33.244  1.00  0.00     0.167 HD
ATOM     63  C   UNL A   1      40.600  32.473  35.755  1.00  0.00     0.074 A 
ATOM     64  C   UNL A   1      41.513  32.325  36.871  1.00  0.00     0.031 C 
ATOM     65  C   UNL A   1      39.606  33.392  35.701  1.00  0.00     0.037 A 
BRANCH  52  66
ATOM     66  C   UNL A   1      36.325  33.249  30.471  1.00  0.00     0.057 A 
ATOM     67  C   UNL A   1      34.979  32.977  30.746  1.00  0.00     0.134 A 
ATOM     68  C   UNL A   1      36.605  34.129  29.418  1.00  0.00     0.134 A 
ATOM     69  F   UNL A   1      34.645  32.132  31.733  1.00  0.00    -0.206 F 
ATOM     70  C   UNL A   1      33.951  33.540  29.989  1.00  0.00     0.040 A 
ATOM     71  C   UNL A   1      35.584  34.718  28.670  1.00  0.00     0.040 A 
ATOM     72  F   UNL A   1      37.872  34.438  29.105  1.00  0.00    -0.206 F 
ATOM     73  C   UNL A   1      34.252  34.419  28.951  1.00  0.00     0.006 A 
ENDBRANCH  52  66
BRANCH  53  74
ATOM     74  C   UNL A   1      43.892  29.130  35.506  1.00  0.00     0.057 A 
ATOM     75  C   UNL A   1      43.680  28.120  36.451  1.00  0.00     0.134 A 
ATOM     76  C   UNL A   1      45.206  29.566  35.309  1.00  0.00     0.134 A 
ATOM     77  F   UNL A   1      42.439  27.674  36.694  1.00  0.00    -0.206 F 
ATOM     78  C   UNL A   1      44.732  27.579  37.191  1.00  0.00     0.040 A 
ATOM     79  C   UNL A   1      46.272  29.018  36.026  1.00  0.00     0.040 A 
ATOM     80  F   UNL A   1      45.476  30.527  34.412  1.00  0.00    -0.206 F 
ATOM     81  C   UNL A   1      46.034  28.027  36.976  1.00  0.00     0.006 A 
ENDBRANCH  53  74
BRANCH  65  82
ATOM     82  C   UNL A   1      39.431  34.281  36.896  1.00  0.00     0.057 A 
ATOM     83  C   UNL A   1      38.772  33.845  38.052  1.00  0.00     0.134 A 
ATOM     84  C   UNL A   1      39.959  35.579  36.901  1.00  0.00     0.134 A 
ATOM     85  F   UNL A   1      38.232  32.617  38.104  1.00  0.00    -0.206 F 
ATOM     86  C   UNL A   1      38.625  34.676  39.163  1.00  0.00     0.040 A 
ATOM     87  C   UNL A   1      39.839  36.410  38.016  1.00  0.00     0.040 A 
ATOM     88  F   UNL A   1      40.609  36.055  35.828  1.00  0.00    -0.206 F 
ATOM     89  C   UNL A   1      39.164  35.961  39.148  1.00  0.00     0.006 A 
ENDBRANCH  65  82
ENDBRANCH  39  40
ENDBRANCH  31  34
ENDBRANCH  29  30
ENDBRANCH  28  29
ENDBRANCH  27  28
ENDBRANCH   1  27
TORSDOF 17
ENDMDL
MODEL 3
REMARK VINA RESULT:     -11.5      1.181      6.131
REMARK SMILES COc1cc(OC)cc(-c2ccc([C@@H](C)C(=O)NCCCCCCNC(=O)c3ccc(-c4c5nc(c(-c6c(F)cccc6F)c6ccc([nH]6)c(-c6c(F)cccc6F)c6nc(c(-c7c(F)cccc7F)c7ccc4[nH]7)C=C6)C=C5)cc3)cc2F)c1
REMARK SMILES IDX 21 1 20 2 19 3 18 4 16 5 17 6 14 8 15 9 13 10 10 11 11 12
REMARK SMILES IDX 83 13 12 14 82 15 84 16 9 17 3 18 4 19 85 20 5 21 8 22 2 23
REMARK SMILES IDX 1 24 6 25 7 26 22 27 23 28 24 29 25 30 26 31 27 33 28 34
REMARK SMILES IDX 29 35 81 36 30 37 80 38 31 39 32 40 33 41 74 42 34 43 79 44
REMARK SMILES IDX 73 45 75 46 35 47 78 48 72 49 71 50 36 52 62 53 45 54 61 55
REMARK SMILES IDX 46 56 49 57 60 58 76 59 47 60 48 61 59 63 77 64 50 65 37 66
REMARK SMILES IDX 38 67 43 68 39 69 40 70 42 71 44 72 41 73 63 74 64 75 69 76
REMARK SMILES IDX 65 77 66 78 68 79 70 80 67 81 51 82 52 83 57 84 53 85 54 86
REMARK SMILES IDX 56 87 58 88 55 89
REMARK H PARENT 18 7 25 32 75 51 49 62
REMARK Flexibility Score: inf
ROOT
ATOM      1  C   UNL A   1      33.108  29.922  27.135  1.00  0.00     0.002 C 
ENDROOT
BRANCH   1   2
ATOM      2  C   UNL A   1      33.608  29.191  25.885  1.00  0.00     0.021 C 
BRANCH   2   3
ATOM      3  C   UNL A   1      32.872  29.578  24.601  1.00  0.00     0.116 C 
BRANCH   3   4
ATOM      4  N   UNL A   1      33.666  29.305  23.422  1.00  0.00    -0.356 N 
ATOM      5  C   UNL A   1      33.528  28.382  22.431  1.00  0.00     0.227 C 
ATOM      6  O   UNL A   1      34.430  28.344  21.585  1.00  0.00    -0.274 OA
ATOM      7  H   UNL A   1      34.447  29.894  23.317  1.00  0.00     0.163 HD
BRANCH   5   8
ATOM      8  C   UNL A   1      32.336  27.421  22.318  1.00  0.00     0.105 C 
ATOM      9  C   UNL A   1      31.003  28.025  22.765  1.00  0.00     0.023 C 
BRANCH   8  10
ATOM     10  C   UNL A   1      32.639  26.021  22.829  1.00  0.00    -0.033 A 
ATOM     11  C   UNL A   1      33.301  23.369  23.689  1.00  0.00     0.018 A 
ATOM     12  C   UNL A   1      33.263  24.454  24.583  1.00  0.00     0.012 A 
ATOM     13  C   UNL A   1      32.991  23.653  22.352  1.00  0.00     0.131 A 
ATOM     14  C   UNL A   1      32.906  25.741  24.170  1.00  0.00     0.005 A 
ATOM     15  C   UNL A   1      32.684  24.949  21.922  1.00  0.00     0.044 A 
ATOM     16  F   UNL A   1      32.965  22.673  21.435  1.00  0.00    -0.206 F 
BRANCH  11  17
ATOM     17  C   UNL A   1      33.625  22.008  24.176  1.00  0.00    -0.008 A 
ATOM     18  C   UNL A   1      32.969  19.753  24.849  1.00  0.00     0.123 A 
ATOM     19  C   UNL A   1      34.309  19.434  25.076  1.00  0.00     0.092 A 
ATOM     20  C   UNL A   1      32.633  21.033  24.396  1.00  0.00     0.055 A 
ATOM     21  C   UNL A   1      35.315  20.372  24.861  1.00  0.00     0.123 A 
ATOM     22  C   UNL A   1      34.966  21.649  24.425  1.00  0.00     0.055 A 
BRANCH  18  23
ATOM     23  O   UNL A   1      32.094  18.738  25.120  1.00  0.00    -0.497 OA
ATOM     24  C   UNL A   1      32.550  17.410  24.896  1.00  0.00     0.278 C 
ENDBRANCH  18  23
BRANCH  21  25
ATOM     25  O   UNL A   1      36.586  19.932  25.109  1.00  0.00    -0.497 OA
ATOM     26  C   UNL A   1      37.636  20.882  24.964  1.00  0.00     0.278 C 
ENDBRANCH  21  25
ENDBRANCH  11  17
ENDBRANCH   8  10
ENDBRANCH   5   8
ENDBRANCH   3   4
ENDBRANCH   2   3
ENDBRANCH   1   2
BRANCH   1  27
ATOM     27  C   UNL A   1      31.655  30.409  27.070  1.00  0.00     0.002 C 
BRANCH  27  28
ATOM     28  C   UNL A   1      31.469  31.920  26.892  1.00  0.00     0.021 C 
BRANCH  28  29
ATOM     29  C   UNL A   1      32.750  32.743  27.007  1.00  0.00     0.116 C 
BRANCH  29  30
ATOM     30  N   UNL A   1      32.517  34.021  27.661  1.00  0.00    -0.352 N 
ATOM     31  C   UNL A   1      33.168  34.599  28.720  1.00  0.00     0.251 C 
ATOM     32  H   UNL A   1      31.778  34.552  27.286  1.00  0.00     0.163 HD
ATOM     33  O   UNL A   1      32.686  35.582  29.274  1.00  0.00    -0.269 OA
BRANCH  31  34
ATOM     34  C   UNL A   1      34.449  34.041  29.208  1.00  0.00     0.039 A 
ATOM     35  C   UNL A   1      34.432  33.169  30.300  1.00  0.00     0.014 A 
ATOM     36  C   UNL A   1      35.666  34.413  28.627  1.00  0.00     0.014 A 
ATOM     37  C   UNL A   1      35.629  32.631  30.779  1.00  0.00     0.010 A 
ATOM     38  C   UNL A   1      36.852  33.828  29.066  1.00  0.00     0.010 A 
ATOM     39  C   UNL A   1      36.846  32.937  30.150  1.00  0.00    -0.014 A 
BRANCH  39  40
ATOM     40  C   UNL A   1      38.124  32.345  30.622  1.00  0.00     0.031 A 
ATOM     41  C   UNL A   1      38.633  31.066  30.017  1.00  0.00     0.074 A 
ATOM     42  C   UNL A   1      38.795  32.929  31.632  1.00  0.00     0.049 A 
ATOM     43  N   UNL A   1      39.686  30.360  30.342  1.00  0.00    -0.248 NA
ATOM     44  C   UNL A   1      37.840  30.491  28.919  1.00  0.00     0.031 C 
ATOM     45  C   UNL A   1      38.386  34.151  32.328  1.00  0.00     0.029 A 
ATOM     46  N   UNL A   1      39.962  32.567  32.257  1.00  0.00    -0.354 N 
ATOM     47  C   UNL A   1      39.675  29.255  29.501  1.00  0.00     0.074 A 
ATOM     48  C   UNL A   1      38.485  29.357  28.684  1.00  0.00     0.031 C 
ATOM     49  C   UNL A   1      39.297  34.445  33.270  1.00  0.00     0.029 A 
ATOM     50  C   UNL A   1      40.335  33.420  33.266  1.00  0.00     0.049 A 
ATOM     51  H   UNL A   1      40.483  31.769  32.006  1.00  0.00     0.167 HD
ATOM     52  C   UNL A   1      40.584  28.255  29.403  1.00  0.00     0.037 A 
ATOM     53  C   UNL A   1      41.391  33.377  34.099  1.00  0.00     0.037 A 
ATOM     54  C   UNL A   1      41.781  28.167  30.196  1.00  0.00     0.049 A 
ATOM     55  C   UNL A   1      42.388  32.258  33.967  1.00  0.00     0.074 A 
ATOM     56  C   UNL A   1      42.788  27.219  30.138  1.00  0.00     0.029 A 
ATOM     57  N   UNL A   1      42.135  29.064  31.193  1.00  0.00    -0.354 N 
ATOM     58  N   UNL A   1      42.391  31.248  33.131  1.00  0.00    -0.248 NA
ATOM     59  C   UNL A   1      43.530  32.276  34.892  1.00  0.00     0.031 C 
ATOM     60  C   UNL A   1      43.735  27.525  31.121  1.00  0.00     0.029 A 
ATOM     61  C   UNL A   1      43.337  28.685  31.764  1.00  0.00     0.049 A 
ATOM     62  H   UNL A   1      41.608  29.853  31.455  1.00  0.00     0.167 HD
ATOM     63  C   UNL A   1      43.546  30.530  33.407  1.00  0.00     0.074 A 
ATOM     64  C   UNL A   1      44.226  31.225  34.481  1.00  0.00     0.031 C 
ATOM     65  C   UNL A   1      44.005  29.396  32.824  1.00  0.00     0.037 A 
BRANCH  52  66
ATOM     66  C   UNL A   1      40.321  27.178  28.391  1.00  0.00     0.057 A 
ATOM     67  C   UNL A   1      40.902  27.207  27.118  1.00  0.00     0.134 A 
ATOM     68  C   UNL A   1      39.507  26.082  28.706  1.00  0.00     0.134 A 
ATOM     69  F   UNL A   1      41.681  28.235  26.749  1.00  0.00    -0.206 F 
ATOM     70  C   UNL A   1      40.666  26.197  26.184  1.00  0.00     0.040 A 
ATOM     71  C   UNL A   1      39.283  25.054  27.790  1.00  0.00     0.040 A 
ATOM     72  F   UNL A   1      38.925  25.989  29.910  1.00  0.00    -0.206 F 
ATOM     73  C   UNL A   1      39.859  25.112  26.521  1.00  0.00     0.006 A 
ENDBRANCH  52  66
BRANCH  53  74
ATOM     74  C   UNL A   1      41.583  34.441  35.116  1.00  0.00     0.057 A 
ATOM     75  C   UNL A   1      41.091  34.290  36.417  1.00  0.00     0.134 A 
ATOM     76  C   UNL A   1      42.246  35.634  34.810  1.00  0.00     0.134 A 
ATOM     77  F   UNL A   1      40.431  33.175  36.763  1.00  0.00    -0.206 F 
ATOM     78  C   UNL A   1      41.233  35.296  37.373  1.00  0.00     0.040 A 
ATOM     79  C   UNL A   1      42.416  36.640  35.763  1.00  0.00     0.040 A 
ATOM     80  F   UNL A   1      42.747  35.837  33.582  1.00  0.00    -0.206 F 
ATOM     81  C   UNL A   1      41.900  36.475  37.047  1.00  0.00     0.006 A 
ENDBRANCH  53  74
BRANCH  65  82
ATOM     82  C   UNL A   1      45.319  28.861  33.309  1.00  0.00     0.057 A 
ATOM     83  C   UNL A   1      46.534  29.250  32.731  1.00  0.00     0.134 A 
ATOM     84  C   UNL A   1      45.370  27.971  34.389  1.00  0.00     0.134 A 
ATOM     85  F   UNL A   1      46.551  30.089  31.684  1.00  0.00    -0.206 F 
ATOM     86  C   UNL A   1      47.752  28.756  33.197  1.00  0.00     0.040 A 
ATOM     87  C   UNL A   1      46.585  27.489  34.879  1.00  0.00     0.040 A 
ATOM     88  F   UNL A   1      44.243  27.565  34.992  1.00  0.00    -0.206 F 
ATOM     89  C   UNL A   1      47.780  27.876  34.278  1.00  0.00     0.006 A 
ENDBRANCH  65  82
ENDBRANCH  39  40
ENDBRANCH  31  34
ENDBRANCH  29  30
ENDBRANCH  28  29
ENDBRANCH  27  28
ENDBRANCH   1  27
TORSDOF 17
ENDMDL
