MODEL 1
REMARK VINA RESULT:     -12.9      0.000      0.000
REMARK SMILES O=C(NCCCCCCNC(=O)c1ccc2c(c1)NC1=[NH+]S(=O)(=O)[NH+]=C1N2)c1ccc(-c2c3nc(c(-c4c(F)cccc4F)c4ccc([nH]4)c(-c4c(F)cccc4F)c4nc(c(-c5c(F)cccc5F)c5ccc2[nH]5)C=C4)C=C3)cc1
REMARK SMILES IDX 5 1 4 2 3 3 1 4 2 5 28 7 29 8 81 9 30 10 80 11 31 12 32 13
REMARK SMILES IDX 33 14 74 15 34 16 79 17 73 18 75 19 35 20 78 21 72 22 71 23
REMARK SMILES IDX 36 25 62 26 45 27 61 28 46 29 49 30 60 31 76 32 47 33 48 34
REMARK SMILES IDX 59 36 77 37 50 38 37 39 38 40 43 41 39 42 40 43 42 44 44 45
REMARK SMILES IDX 41 46 63 47 64 48 69 49 65 50 66 51 68 52 70 53 67 54 51 55
REMARK SMILES IDX 52 56 57 57 53 58 54 59 56 60 58 61 55 62 6 63 7 64 8 65
REMARK SMILES IDX 9 66 10 67 11 68 12 70 13 71 14 72 18 73 15 74 17 75 16 76
REMARK SMILES IDX 19 77 27 78 20 79 26 81 21 83 25 84 22 85 23 88 24 89
REMARK H PARENT 3 6 75 24 49 35 10 69 19 80 27 82 21 86 25 87
REMARK Flexibility Score: inf
ROOT
ATOM      1  C   UNL A   1      38.527  22.257  25.883  1.00  0.00     0.021 C 
ENDROOT
BRANCH   1   2
ATOM      2  C   UNL A   1      39.721  22.248  26.818  1.00  0.00     0.116 C 
BRANCH   2   3
ATOM      3  N   UNL A   1      41.017  22.184  26.131  1.00  0.00    -0.352 N 
ATOM      4  O   UNL A   1      42.752  23.125  24.993  1.00  0.00    -0.269 OA
ATOM      5  C   UNL A   1      41.914  23.215  25.881  1.00  0.00     0.251 C 
ATOM      6  H   UNL A   1      41.285  21.295  25.806  1.00  0.00     0.163 HD
BRANCH   5   7
ATOM      7  C   UNL A   1      41.848  24.423  26.722  1.00  0.00     0.039 A 
ATOM      8  C   UNL A   1      42.505  24.564  27.944  1.00  0.00     0.014 A 
ATOM      9  C   UNL A   1      41.094  25.472  26.222  1.00  0.00     0.014 A 
ATOM     10  C   UNL A   1      42.356  25.773  28.621  1.00  0.00     0.010 A 
ATOM     11  C   UNL A   1      41.333  26.734  26.655  1.00  0.00     0.010 A 
ATOM     12  C   UNL A   1      41.739  26.851  27.957  1.00  0.00    -0.014 A 
BRANCH  12  13
ATOM     13  C   UNL A   1      41.499  28.143  28.574  1.00  0.00     0.031 A 
ATOM     14  C   UNL A   1      42.553  29.117  28.262  1.00  0.00     0.074 A 
ATOM     15  C   UNL A   1      40.366  28.472  29.239  1.00  0.00     0.049 A 
ATOM     16  N   UNL A   1      43.539  29.441  29.021  1.00  0.00    -0.248 NA
ATOM     17  C   UNL A   1      42.659  29.606  26.880  1.00  0.00     0.031 C 
ATOM     18  C   UNL A   1      39.101  27.732  29.372  1.00  0.00     0.029 A 
ATOM     19  N   UNL A   1      40.103  29.616  29.927  1.00  0.00    -0.354 N 
ATOM     20  C   UNL A   1      44.268  30.375  28.301  1.00  0.00     0.074 A 
ATOM     21  C   UNL A   1      43.821  30.261  26.937  1.00  0.00     0.031 C 
ATOM     22  C   UNL A   1      38.153  28.530  29.916  1.00  0.00     0.029 A 
ATOM     23  C   UNL A   1      38.781  29.768  30.336  1.00  0.00     0.049 A 
ATOM     24  H   UNL A   1      40.797  30.287  30.121  1.00  0.00     0.167 HD
ATOM     25  C   UNL A   1      44.955  31.345  28.959  1.00  0.00     0.037 A 
ATOM     26  C   UNL A   1      38.257  30.842  30.979  1.00  0.00     0.037 A 
ATOM     27  C   UNL A   1      45.101  31.002  30.359  1.00  0.00     0.049 A 
ATOM     28  C   UNL A   1      39.391  31.570  31.602  1.00  0.00     0.074 A 
ATOM     29  C   UNL A   1      45.688  29.961  31.054  1.00  0.00     0.029 A 
ATOM     30  N   UNL A   1      44.225  31.590  31.241  1.00  0.00    -0.354 N 
ATOM     31  N   UNL A   1      40.098  31.092  32.589  1.00  0.00    -0.248 NA
ATOM     32  C   UNL A   1      40.041  32.602  30.811  1.00  0.00     0.031 C 
ATOM     33  C   UNL A   1      44.805  29.695  32.145  1.00  0.00     0.029 A 
ATOM     34  C   UNL A   1      43.768  30.628  32.104  1.00  0.00     0.049 A 
ATOM     35  H   UNL A   1      43.970  32.541  31.250  1.00  0.00     0.167 HD
ATOM     36  C   UNL A   1      41.409  31.425  32.279  1.00  0.00     0.074 A 
ATOM     37  C   UNL A   1      41.302  32.428  31.218  1.00  0.00     0.031 C 
ATOM     38  C   UNL A   1      42.450  30.647  32.702  1.00  0.00     0.037 A 
BRANCH  25  39
ATOM     39  C   UNL A   1      45.079  32.768  28.468  1.00  0.00     0.057 A 
ATOM     40  C   UNL A   1      44.050  33.732  28.509  1.00  0.00     0.134 A 
ATOM     41  C   UNL A   1      46.368  33.284  28.247  1.00  0.00     0.134 A 
ATOM     42  F   UNL A   1      42.769  33.425  28.737  1.00  0.00    -0.206 F 
ATOM     43  C   UNL A   1      44.293  35.104  28.417  1.00  0.00     0.040 A 
ATOM     44  C   UNL A   1      46.627  34.658  28.199  1.00  0.00     0.040 A 
ATOM     45  F   UNL A   1      47.432  32.470  28.165  1.00  0.00    -0.206 F 
ATOM     46  C   UNL A   1      45.590  35.574  28.303  1.00  0.00     0.006 A 
ENDBRANCH  25  39
BRANCH  26  47
ATOM     47  C   UNL A   1      36.914  31.454  30.839  1.00  0.00     0.057 A 
ATOM     48  C   UNL A   1      36.544  32.129  29.663  1.00  0.00     0.134 A 
ATOM     49  C   UNL A   1      36.082  31.655  31.951  1.00  0.00     0.134 A 
ATOM     50  F   UNL A   1      37.304  32.062  28.561  1.00  0.00    -0.206 F 
ATOM     51  C   UNL A   1      35.432  32.978  29.604  1.00  0.00     0.040 A 
ATOM     52  C   UNL A   1      34.966  32.502  31.906  1.00  0.00     0.040 A 
ATOM     53  F   UNL A   1      36.373  31.087  33.131  1.00  0.00    -0.206 F 
ATOM     54  C   UNL A   1      34.646  33.178  30.733  1.00  0.00     0.006 A 
ENDBRANCH  26  47
BRANCH  38  55
ATOM     55  C   UNL A   1      42.147  29.589  33.731  1.00  0.00     0.057 A 
ATOM     56  C   UNL A   1      42.255  29.920  35.085  1.00  0.00     0.134 A 
ATOM     57  C   UNL A   1      41.864  28.245  33.433  1.00  0.00     0.134 A 
ATOM     58  F   UNL A   1      42.576  31.172  35.449  1.00  0.00    -0.206 F 
ATOM     59  C   UNL A   1      42.076  28.973  36.096  1.00  0.00     0.040 A 
ATOM     60  C   UNL A   1      41.650  27.293  34.435  1.00  0.00     0.040 A 
ATOM     61  F   UNL A   1      41.833  27.807  32.168  1.00  0.00    -0.206 F 
ATOM     62  C   UNL A   1      41.759  27.656  35.774  1.00  0.00     0.006 A 
ENDBRANCH  38  55
ENDBRANCH  12  13
ENDBRANCH   5   7
ENDBRANCH   2   3
ENDBRANCH   1   2
BRANCH   1  63
ATOM     63  C   UNL A   1      37.768  23.591  25.837  1.00  0.00     0.002 C 
BRANCH  63  64
ATOM     64  C   UNL A   1      36.510  23.663  24.956  1.00  0.00     0.002 C 
BRANCH  64  65
ATOM     65  C   UNL A   1      35.234  24.191  25.618  1.00  0.00     0.021 C 
BRANCH  65  66
ATOM     66  C   UNL A   1      34.260  24.903  24.686  1.00  0.00     0.116 C 
BRANCH  66  67
ATOM     67  N   UNL A   1      32.922  24.995  25.245  1.00  0.00    -0.352 N 
ATOM     68  C   UNL A   1      31.905  24.076  25.206  1.00  0.00     0.251 C 
ATOM     69  H   UNL A   1      32.716  25.834  25.716  1.00  0.00     0.163 HD
ATOM     70  O   UNL A   1      30.776  24.370  25.586  1.00  0.00    -0.269 OA
BRANCH  68  71
ATOM     71  C   UNL A   1      32.164  22.729  24.665  1.00  0.00     0.044 A 
ATOM     72  C   UNL A   1      32.001  22.461  23.302  1.00  0.00     0.018 A 
ATOM     73  C   UNL A   1      32.555  21.723  25.553  1.00  0.00     0.070 A 
ATOM     74  C   UNL A   1      32.144  21.157  22.830  1.00  0.00     0.057 A 
ATOM     75  C   UNL A   1      32.703  20.416  25.090  1.00  0.00     0.173 A 
ATOM     76  C   UNL A   1      32.470  20.124  23.715  1.00  0.00     0.172 A 
ATOM     77  N   UNL A   1      33.010  19.377  25.988  1.00  0.00    -0.229 N 
ATOM     78  N   UNL A   1      32.527  18.794  23.258  1.00  0.00    -0.229 N 
ATOM     79  C   UNL A   1      33.002  18.070  25.587  1.00  0.00     0.383 C 
ATOM     80  H   UNL A   1      33.234  19.594  26.922  1.00  0.00     0.313 HD
ATOM     81  C   UNL A   1      32.735  17.759  24.125  1.00  0.00     0.383 C 
ATOM     82  H   UNL A   1      32.415  18.607  22.298  1.00  0.00     0.313 HD
ATOM     83  N   UNL A   1      33.186  17.013  26.292  1.00  0.00    -0.122 N 
ATOM     84  N   UNL A   1      32.737  16.498  23.877  1.00  0.00    -0.122 N 
ATOM     85  S   UNL A   1      33.014  15.726  25.294  1.00  0.00     0.469 S 
ATOM     86  H   UNL A   1      33.391  16.982  27.256  1.00  0.00     0.331 HD
ATOM     87  H   UNL A   1      32.597  16.075  22.999  1.00  0.00     0.331 HD
ATOM     88  O   UNL A   1      34.270  15.034  25.206  1.00  0.00    -0.143 OA
ATOM     89  O   UNL A   1      31.792  15.031  25.670  1.00  0.00    -0.143 OA
ENDBRANCH  68  71
ENDBRANCH  66  67
ENDBRANCH  65  66
ENDBRANCH  64  65
ENDBRANCH  63  64
ENDBRANCH   1  63
TORSDOF 13
ENDMDL
MODEL 2
REMARK VINA RESULT:     -12.9      4.227      8.909
REMARK SMILES O=C(NCCCCCCNC(=O)c1ccc2c(c1)NC1=[NH+]S(=O)(=O)[NH+]=C1N2)c1ccc(-c2c3nc(c(-c4c(F)cccc4F)c4ccc([nH]4)c(-c4c(F)cccc4F)c4nc(c(-c5c(F)cccc5F)c5ccc2[nH]5)C=C4)C=C3)cc1
REMARK SMILES IDX 5 1 4 2 3 3 1 4 2 5 28 7 29 8 81 9 30 10 80 11 31 12 32 13
REMARK SMILES IDX 33 14 74 15 34 16 79 17 73 18 75 19 35 20 78 21 72 22 71 23
REMARK SMILES IDX 36 25 62 26 45 27 61 28 46 29 49 30 60 31 76 32 47 33 48 34
REMARK SMILES IDX 59 36 77 37 50 38 37 39 38 40 43 41 39 42 40 43 42 44 44 45
REMARK SMILES IDX 41 46 63 47 64 48 69 49 65 50 66 51 68 52 70 53 67 54 51 55
REMARK SMILES IDX 52 56 57 57 53 58 54 59 56 60 58 61 55 62 6 63 7 64 8 65
REMARK SMILES IDX 9 66 10 67 11 68 12 70 13 71 14 72 18 73 15 74 17 75 16 76
REMARK SMILES IDX 19 77 27 78 20 79 26 81 21 83 25 84 22 85 23 88 24 89
REMARK H PARENT 3 6 75 24 49 35 10 69 19 80 27 82 21 86 25 87
REMARK Flexibility Score: inf
ROOT
ATOM      1  C   UNL A   1      32.337  30.168  26.846  1.00  0.00     0.021 C 
ENDROOT
BRANCH   1   2
ATOM      2  C   UNL A   1      33.648  30.315  27.595  1.00  0.00     0.116 C 
BRANCH   2   3
ATOM      3  N   UNL A   1      34.153  31.693  27.650  1.00  0.00    -0.352 N 
ATOM      4  O   UNL A   1      35.479  33.328  28.521  1.00  0.00    -0.269 OA
ATOM      5  C   UNL A   1      35.344  32.156  28.195  1.00  0.00     0.251 C 
ATOM      6  H   UNL A   1      33.571  32.378  27.250  1.00  0.00     0.163 HD
BRANCH   5   7
ATOM      7  C   UNL A   1      36.457  31.204  28.360  1.00  0.00     0.039 A 
ATOM      8  C   UNL A   1      36.517  29.953  27.746  1.00  0.00     0.014 A 
ATOM      9  C   UNL A   1      37.503  31.626  29.165  1.00  0.00     0.014 A 
ATOM     10  C   UNL A   1      37.642  29.168  27.989  1.00  0.00     0.010 A 
ATOM     11  C   UNL A   1      38.728  31.065  29.018  1.00  0.00     0.010 A 
ATOM     12  C   UNL A   1      38.741  29.745  28.655  1.00  0.00    -0.014 A 
BRANCH  12  13
ATOM     13  C   UNL A   1      39.948  29.015  28.994  1.00  0.00     0.031 A 
ATOM     14  C   UNL A   1      40.173  28.946  30.444  1.00  0.00     0.074 A 
ATOM     15  C   UNL A   1      40.710  28.343  28.098  1.00  0.00     0.049 A 
ATOM     16  N   UNL A   1      40.968  29.691  31.128  1.00  0.00    -0.248 NA
ATOM     17  C   UNL A   1      39.252  28.134  31.251  1.00  0.00     0.031 C 
ATOM     18  C   UNL A   1      40.462  28.051  26.678  1.00  0.00     0.029 A 
ATOM     19  N   UNL A   1      41.902  27.722  28.314  1.00  0.00    -0.354 N 
ATOM     20  C   UNL A   1      40.831  29.269  32.441  1.00  0.00     0.074 A 
ATOM     21  C   UNL A   1      39.620  28.491  32.484  1.00  0.00     0.031 C 
ATOM     22  C   UNL A   1      41.363  27.149  26.226  1.00  0.00     0.029 A 
ATOM     23  C   UNL A   1      42.358  26.935  27.260  1.00  0.00     0.049 A 
ATOM     24  H   UNL A   1      42.406  27.822  29.155  1.00  0.00     0.167 HD
ATOM     25  C   UNL A   1      41.887  29.364  33.292  1.00  0.00     0.037 A 
ATOM     26  C   UNL A   1      43.479  26.172  27.252  1.00  0.00     0.037 A 
ATOM     27  C   UNL A   1      42.894  30.254  32.753  1.00  0.00     0.049 A 
ATOM     28  C   UNL A   1      44.368  26.698  28.319  1.00  0.00     0.074 A 
ATOM     29  C   UNL A   1      42.927  31.586  32.388  1.00  0.00     0.029 A 
ATOM     30  N   UNL A   1      43.971  29.671  32.127  1.00  0.00    -0.354 N 
ATOM     31  N   UNL A   1      44.942  27.868  28.266  1.00  0.00    -0.248 NA
ATOM     32  C   UNL A   1      44.224  26.133  29.651  1.00  0.00     0.031 C 
ATOM     33  C   UNL A   1      43.733  31.633  31.210  1.00  0.00     0.029 A 
ATOM     34  C   UNL A   1      44.210  30.346  30.958  1.00  0.00     0.049 A 
ATOM     35  H   UNL A   1      44.484  28.901  32.463  1.00  0.00     0.167 HD
ATOM     36  C   UNL A   1      44.826  28.377  29.552  1.00  0.00     0.074 A 
ATOM     37  C   UNL A   1      44.453  27.230  30.379  1.00  0.00     0.031 C 
ATOM     38  C   UNL A   1      44.756  29.725  29.769  1.00  0.00     0.037 A 
BRANCH  25  39
ATOM     39  C   UNL A   1      42.213  28.330  34.344  1.00  0.00     0.057 A 
ATOM     40  C   UNL A   1      41.879  28.431  35.710  1.00  0.00     0.134 A 
ATOM     41  C   UNL A   1      42.588  27.044  33.917  1.00  0.00     0.134 A 
ATOM     42  F   UNL A   1      41.475  29.569  36.282  1.00  0.00    -0.206 F 
ATOM     43  C   UNL A   1      41.843  27.327  36.564  1.00  0.00     0.040 A 
ATOM     44  C   UNL A   1      42.510  25.924  34.753  1.00  0.00     0.040 A 
ATOM     45  F   UNL A   1      42.950  26.818  32.644  1.00  0.00    -0.206 F 
ATOM     46  C   UNL A   1      42.118  26.061  36.076  1.00  0.00     0.006 A 
ENDBRANCH  25  39
BRANCH  26  47
ATOM     47  C   UNL A   1      43.709  24.852  26.619  1.00  0.00     0.057 A 
ATOM     48  C   UNL A   1      44.385  24.744  25.391  1.00  0.00     0.134 A 
ATOM     49  C   UNL A   1      43.016  23.707  27.041  1.00  0.00     0.134 A 
ATOM     50  F   UNL A   1      45.023  25.798  24.860  1.00  0.00    -0.206 F 
ATOM     51  C   UNL A   1      44.348  23.580  24.614  1.00  0.00     0.040 A 
ATOM     52  C   UNL A   1      42.971  22.535  26.273  1.00  0.00     0.040 A 
ATOM     53  F   UNL A   1      42.307  23.722  28.180  1.00  0.00    -0.206 F 
ATOM     54  C   UNL A   1      43.627  22.474  25.048  1.00  0.00     0.006 A 
ENDBRANCH  26  47
BRANCH  38  55
ATOM     55  C   UNL A   1      45.082  30.629  28.609  1.00  0.00     0.057 A 
ATOM     56  C   UNL A   1      46.364  31.181  28.529  1.00  0.00     0.134 A 
ATOM     57  C   UNL A   1      44.153  31.054  27.645  1.00  0.00     0.134 A 
ATOM     58  F   UNL A   1      47.292  30.866  29.447  1.00  0.00    -0.206 F 
ATOM     59  C   UNL A   1      46.717  32.096  27.534  1.00  0.00     0.040 A 
ATOM     60  C   UNL A   1      44.501  31.945  26.623  1.00  0.00     0.040 A 
ATOM     61  F   UNL A   1      42.875  30.658  27.690  1.00  0.00    -0.206 F 
ATOM     62  C   UNL A   1      45.788  32.471  26.567  1.00  0.00     0.006 A 
ENDBRANCH  38  55
ENDBRANCH  12  13
ENDBRANCH   5   7
ENDBRANCH   2   3
ENDBRANCH   1   2
BRANCH   1  63
ATOM     63  C   UNL A   1      32.108  28.777  26.237  1.00  0.00     0.002 C 
BRANCH  63  64
ATOM     64  C   UNL A   1      32.988  27.624  26.746  1.00  0.00     0.002 C 
BRANCH  64  65
ATOM     65  C   UNL A   1      34.016  27.057  25.762  1.00  0.00     0.021 C 
BRANCH  65  66
ATOM     66  C   UNL A   1      33.987  25.541  25.588  1.00  0.00     0.116 C 
BRANCH  66  67
ATOM     67  N   UNL A   1      34.248  25.135  24.217  1.00  0.00    -0.352 N 
ATOM     68  C   UNL A   1      33.451  25.267  23.110  1.00  0.00     0.251 C 
ATOM     69  H   UNL A   1      35.119  24.702  24.063  1.00  0.00     0.163 HD
ATOM     70  O   UNL A   1      33.748  24.724  22.051  1.00  0.00    -0.269 OA
BRANCH  68  71
ATOM     71  C   UNL A   1      32.200  26.043  23.205  1.00  0.00     0.044 A 
ATOM     72  C   UNL A   1      31.030  25.457  23.702  1.00  0.00     0.018 A 
ATOM     73  C   UNL A   1      32.208  27.369  22.766  1.00  0.00     0.070 A 
ATOM     74  C   UNL A   1      29.834  26.172  23.681  1.00  0.00     0.057 A 
ATOM     75  C   UNL A   1      31.017  28.093  22.744  1.00  0.00     0.173 A 
ATOM     76  C   UNL A   1      29.809  27.479  23.182  1.00  0.00     0.172 A 
ATOM     77  N   UNL A   1      30.992  29.401  22.222  1.00  0.00    -0.229 N 
ATOM     78  N   UNL A   1      28.588  28.171  23.077  1.00  0.00    -0.229 N 
ATOM     79  C   UNL A   1      29.813  30.068  22.041  1.00  0.00     0.383 C 
ATOM     80  H   UNL A   1      31.839  29.842  21.982  1.00  0.00     0.313 HD
ATOM     81  C   UNL A   1      28.524  29.405  22.493  1.00  0.00     0.383 C 
ATOM     82  H   UNL A   1      27.766  27.759  23.430  1.00  0.00     0.313 HD
ATOM     83  N   UNL A   1      29.617  31.223  21.515  1.00  0.00    -0.122 N 
ATOM     84  N   UNL A   1      27.486  30.123  22.254  1.00  0.00    -0.122 N 
ATOM     85  S   UNL A   1      28.002  31.490  21.518  1.00  0.00     0.469 S 
ATOM     86  H   UNL A   1      30.310  31.834  21.172  1.00  0.00     0.331 HD
ATOM     87  H   UNL A   1      26.554  29.892  22.473  1.00  0.00     0.331 HD
ATOM     88  O   UNL A   1      27.717  32.611  22.371  1.00  0.00    -0.143 OA
ATOM     89  O   UNL A   1      27.541  31.455  20.138  1.00  0.00    -0.143 OA
ENDBRANCH  68  71
ENDBRANCH  66  67
ENDBRANCH  65  66
ENDBRANCH  64  65
ENDBRANCH  63  64
ENDBRANCH   1  63
TORSDOF 13
ENDMDL
MODEL 3
REMARK VINA RESULT:     -12.9      3.543      5.428
REMARK SMILES O=C(NCCCCCCNC(=O)c1ccc2c(c1)NC1=[NH+]S(=O)(=O)[NH+]=C1N2)c1ccc(-c2c3nc(c(-c4c(F)cccc4F)c4ccc([nH]4)c(-c4c(F)cccc4F)c4nc(c(-c5c(F)cccc5F)c5ccc2[nH]5)C=C4)C=C3)cc1
REMARK SMILES IDX 5 1 4 2 3 3 1 4 2 5 28 7 29 8 81 9 30 10 80 11 31 12 32 13
REMARK SMILES IDX 33 14 74 15 34 16 79 17 73 18 75 19 35 20 78 21 72 22 71 23
REMARK SMILES IDX 36 25 62 26 45 27 61 28 46 29 49 30 60 31 76 32 47 33 48 34
REMARK SMILES IDX 59 36 77 37 50 38 37 39 38 40 43 41 39 42 40 43 42 44 44 45
REMARK SMILES IDX 41 46 63 47 64 48 69 49 65 50 66 51 68 52 70 53 67 54 51 55
REMARK SMILES IDX 52 56 57 57 53 58 54 59 56 60 58 61 55 62 6 63 7 64 8 65
REMARK SMILES IDX 9 66 10 67 11 68 12 70 13 71 14 72 18 73 15 74 17 75 16 76
REMARK SMILES IDX 19 77 27 78 20 79 26 81 21 83 25 84 22 85 23 88 24 89
REMARK H PARENT 3 6 75 24 49 35 10 69 19 80 27 82 21 86 25 87
REMARK Flexibility Score: inf
ROOT
ATOM      1  C   UNL A   1      43.063  18.684  26.527  1.00  0.00     0.021 C 
ENDROOT
BRANCH   1   2
ATOM      2  C   UNL A   1      43.382  18.843  25.054  1.00  0.00     0.116 C 
BRANCH   2   3
ATOM      3  N   UNL A   1      44.819  18.862  24.753  1.00  0.00    -0.352 N 
ATOM      4  O   UNL A   1      46.690  19.819  23.872  1.00  0.00    -0.269 OA
ATOM      5  C   UNL A   1      45.629  19.955  24.468  1.00  0.00     0.251 C 
ATOM      6  H   UNL A   1      45.267  17.986  24.752  1.00  0.00     0.163 HD
BRANCH   5   7
ATOM      7  C   UNL A   1      45.190  21.289  24.914  1.00  0.00     0.039 A 
ATOM      8  C   UNL A   1      44.328  22.113  24.191  1.00  0.00     0.014 A 
ATOM      9  C   UNL A   1      45.669  21.706  26.146  1.00  0.00     0.014 A 
ATOM     10  C   UNL A   1      43.994  23.345  24.749  1.00  0.00     0.010 A 
ATOM     11  C   UNL A   1      44.996  22.657  26.837  1.00  0.00     0.010 A 
ATOM     12  C   UNL A   1      44.363  23.608  26.083  1.00  0.00    -0.014 A 
BRANCH  12  13
ATOM     13  C   UNL A   1      44.101  24.868  26.755  1.00  0.00     0.031 A 
ATOM     14  C   UNL A   1      45.155  25.862  26.511  1.00  0.00     0.074 A 
ATOM     15  C   UNL A   1      42.953  25.158  27.411  1.00  0.00     0.049 A 
ATOM     16  N   UNL A   1      46.124  26.155  27.304  1.00  0.00    -0.248 NA
ATOM     17  C   UNL A   1      45.286  26.417  25.157  1.00  0.00     0.031 C 
ATOM     18  C   UNL A   1      41.690  24.406  27.484  1.00  0.00     0.029 A 
ATOM     19  N   UNL A   1      42.669  26.267  28.148  1.00  0.00    -0.354 N 
ATOM     20  C   UNL A   1      46.860  27.126  26.644  1.00  0.00     0.074 A 
ATOM     21  C   UNL A   1      46.442  27.075  25.268  1.00  0.00     0.031 C 
ATOM     22  C   UNL A   1      40.727  25.171  28.046  1.00  0.00     0.029 A 
ATOM     23  C   UNL A   1      41.338  26.392  28.537  1.00  0.00     0.049 A 
ATOM     24  H   UNL A   1      43.354  26.932  28.388  1.00  0.00     0.167 HD
ATOM     25  C   UNL A   1      47.528  28.067  27.362  1.00  0.00     0.037 A 
ATOM     26  C   UNL A   1      40.794  27.431  29.220  1.00  0.00     0.037 A 
ATOM     27  C   UNL A   1      47.648  27.659  28.746  1.00  0.00     0.049 A 
ATOM     28  C   UNL A   1      41.911  28.135  29.900  1.00  0.00     0.074 A 
ATOM     29  C   UNL A   1      48.228  26.590  29.403  1.00  0.00     0.029 A 
ATOM     30  N   UNL A   1      46.751  28.199  29.637  1.00  0.00    -0.354 N 
ATOM     31  N   UNL A   1      42.601  27.614  30.876  1.00  0.00    -0.248 NA
ATOM     32  C   UNL A   1      42.570  29.207  29.172  1.00  0.00     0.031 C 
ATOM     33  C   UNL A   1      47.325  26.266  30.462  1.00  0.00     0.029 A 
ATOM     34  C   UNL A   1      46.283  27.195  30.444  1.00  0.00     0.049 A 
ATOM     35  H   UNL A   1      46.490  29.148  29.687  1.00  0.00     0.167 HD
ATOM     36  C   UNL A   1      43.916  27.969  30.609  1.00  0.00     0.074 A 
ATOM     37  C   UNL A   1      43.823  29.021  29.596  1.00  0.00     0.031 C 
ATOM     38  C   UNL A   1      44.953  27.178  31.016  1.00  0.00     0.037 A 
BRANCH  25  39
ATOM     39  C   UNL A   1      47.652  29.513  26.942  1.00  0.00     0.057 A 
ATOM     40  C   UNL A   1      46.568  30.383  26.702  1.00  0.00     0.134 A 
ATOM     41  C   UNL A   1      48.898  30.145  27.099  1.00  0.00     0.134 A 
ATOM     42  F   UNL A   1      45.309  29.960  26.555  1.00  0.00    -0.206 F 
ATOM     43  C   UNL A   1      46.700  31.773  26.697  1.00  0.00     0.040 A 
ATOM     44  C   UNL A   1      49.032  31.538  27.142  1.00  0.00     0.040 A 
ATOM     45  F   UNL A   1      50.013  29.429  27.311  1.00  0.00    -0.206 F 
ATOM     46  C   UNL A   1      47.927  32.356  26.959  1.00  0.00     0.006 A 
ENDBRANCH  25  39
BRANCH  26  47
ATOM     47  C   UNL A   1      39.450  28.041  29.082  1.00  0.00     0.057 A 
ATOM     48  C   UNL A   1      39.125  28.833  27.967  1.00  0.00     0.134 A 
ATOM     49  C   UNL A   1      38.565  28.115  30.168  1.00  0.00     0.134 A 
ATOM     50  F   UNL A   1      39.936  28.891  26.901  1.00  0.00    -0.206 F 
ATOM     51  C   UNL A   1      38.005  29.673  27.946  1.00  0.00     0.040 A 
ATOM     52  C   UNL A   1      37.440  28.951  30.160  1.00  0.00     0.040 A 
ATOM     53  F   UNL A   1      38.810  27.428  31.294  1.00  0.00    -0.206 F 
ATOM     54  C   UNL A   1      37.165  29.745  29.051  1.00  0.00     0.006 A 
ENDBRANCH  26  47
BRANCH  38  55
ATOM     55  C   UNL A   1      44.637  26.070  31.987  1.00  0.00     0.057 A 
ATOM     56  C   UNL A   1      44.690  26.344  33.357  1.00  0.00     0.134 A 
ATOM     57  C   UNL A   1      44.393  24.735  31.622  1.00  0.00     0.134 A 
ATOM     58  F   UNL A   1      44.973  27.585  33.786  1.00  0.00    -0.206 F 
ATOM     59  C   UNL A   1      44.496  25.351  34.320  1.00  0.00     0.040 A 
ATOM     60  C   UNL A   1      44.164  23.736  32.574  1.00  0.00     0.040 A 
ATOM     61  F   UNL A   1      44.415  24.352  30.339  1.00  0.00    -0.206 F 
ATOM     62  C   UNL A   1      44.218  24.043  33.931  1.00  0.00     0.006 A 
ENDBRANCH  38  55
ENDBRANCH  12  13
ENDBRANCH   5   7
ENDBRANCH   2   3
ENDBRANCH   1   2
BRANCH   1  63
ATOM     63  C   UNL A   1      42.235  19.831  27.124  1.00  0.00     0.002 C 
BRANCH  63  64
ATOM     64  C   UNL A   1      40.826  20.063  26.554  1.00  0.00     0.002 C 
BRANCH  64  65
ATOM     65  C   UNL A   1      40.416  21.517  26.300  1.00  0.00     0.021 C 
BRANCH  65  66
ATOM     66  C   UNL A   1      38.961  21.724  25.891  1.00  0.00     0.116 C 
BRANCH  66  67
ATOM     67  N   UNL A   1      38.322  20.490  25.467  1.00  0.00    -0.352 N 
ATOM     68  C   UNL A   1      37.057  20.297  24.974  1.00  0.00     0.251 C 
ATOM     69  H   UNL A   1      38.874  19.679  25.545  1.00  0.00     0.163 HD
ATOM     70  O   UNL A   1      36.609  19.166  24.813  1.00  0.00    -0.269 OA
BRANCH  68  71
ATOM     71  C   UNL A   1      36.211  21.466  24.669  1.00  0.00     0.044 A 
ATOM     72  C   UNL A   1      36.595  22.393  23.693  1.00  0.00     0.018 A 
ATOM     73  C   UNL A   1      35.028  21.635  25.394  1.00  0.00     0.070 A 
ATOM     74  C   UNL A   1      35.838  23.547  23.498  1.00  0.00     0.057 A 
ATOM     75  C   UNL A   1      34.263  22.785  25.204  1.00  0.00     0.173 A 
ATOM     76  C   UNL A   1      34.687  23.766  24.262  1.00  0.00     0.172 A 
ATOM     77  N   UNL A   1      33.117  23.011  25.989  1.00  0.00    -0.229 N 
ATOM     78  N   UNL A   1      33.971  24.971  24.130  1.00  0.00    -0.229 N 
ATOM     79  C   UNL A   1      32.445  24.201  25.933  1.00  0.00     0.383 C 
ATOM     80  H   UNL A   1      32.794  22.302  26.590  1.00  0.00     0.313 HD
ATOM     81  C   UNL A   1      32.909  25.253  24.942  1.00  0.00     0.383 C 
ATOM     82  H   UNL A   1      34.241  25.621  23.441  1.00  0.00     0.313 HD
ATOM     83  N   UNL A   1      31.439  24.587  26.630  1.00  0.00    -0.122 N 
ATOM     84  N   UNL A   1      32.210  26.330  24.997  1.00  0.00    -0.122 N 
ATOM     85  S   UNL A   1      31.086  26.118  26.168  1.00  0.00     0.469 S 
ATOM     86  H   UNL A   1      30.966  24.060  27.316  1.00  0.00     0.331 HD
ATOM     87  H   UNL A   1      32.328  27.132  24.439  1.00  0.00     0.331 HD
ATOM     88  O   UNL A   1      29.782  26.134  25.567  1.00  0.00    -0.143 OA
ATOM     89  O   UNL A   1      31.420  27.005  27.273  1.00  0.00    -0.143 OA
ENDBRANCH  68  71
ENDBRANCH  66  67
ENDBRANCH  65  66
ENDBRANCH  64  65
ENDBRANCH  63  64
ENDBRANCH   1  63
TORSDOF 13
ENDMDL
