MODEL 1
REMARK VINA RESULT:     -11.9      0.000      0.000
REMARK SMILES C[C@@H]1CC[C@H](C)[N@H+]1Cc1cc2c(cc1Cl)C=C(C(=O)NCCCCCCNC(=O)c1ccc(-c3c4nc(c(-c5c(F)cccc5F)c5ccc([nH]5)c(-c5c(F)cccc5F)c5nc(c(-c6c(F)cccc6F)c6ccc3[nH]6)C=C5)C=C4)cc1)[C@@H](C(F)(F)F)O2
REMARK SMILES IDX 23 1 22 2 21 3 20 4 18 5 19 6 17 8 9 9 10 10 14 11 11 12
REMARK SMILES IDX 13 13 15 14 12 15 89 16 16 17 84 18 8 19 7 20 6 21 5 22 4 23
REMARK SMILES IDX 3 24 2 25 1 27 85 28 86 29 87 30 88 31 24 32 25 33 26 34
REMARK SMILES IDX 27 35 28 36 29 38 30 39 31 40 83 41 32 42 82 43 33 44 34 45
REMARK SMILES IDX 35 46 76 47 36 48 81 49 75 50 77 51 37 52 80 53 74 54 73 55
REMARK SMILES IDX 38 57 64 58 47 59 63 60 48 61 51 62 62 63 78 64 49 65 50 66
REMARK SMILES IDX 61 68 79 69 52 70 39 71 40 72 45 73 41 74 42 75 44 76 46 77
REMARK SMILES IDX 43 78 65 79 66 80 71 81 67 82 68 83 70 84 72 85 69 86 53 87
REMARK SMILES IDX 54 88 59 89 55 90 56 91 58 92 60 93 57 94
REMARK H PARENT 20 7 7 26 27 37 77 56 51 67
REMARK Flexibility Score: inf
ROOT
ATOM      1  C   UNL A   1      34.513  31.906  29.100  1.00  0.00     0.002 C 
ENDROOT
BRANCH   1   2
ATOM      2  C   UNL A   1      34.272  31.648  27.609  1.00  0.00     0.021 C 
BRANCH   2   3
ATOM      3  C   UNL A   1      33.575  30.324  27.311  1.00  0.00     0.116 C 
BRANCH   3   4
ATOM      4  N   UNL A   1      32.537  30.486  26.310  1.00  0.00    -0.352 N 
ATOM      5  C   UNL A   1      31.773  29.687  25.533  1.00  0.00     0.251 C 
ATOM      6  O   UNL A   1      30.971  30.281  24.805  1.00  0.00    -0.270 OA
ATOM      7  H   UNL A   1      32.334  31.437  26.156  1.00  0.00     0.163 HD
BRANCH   5   8
ATOM      8  C   UNL A   1      31.832  28.198  25.498  1.00  0.00     0.067 C 
ATOM      9  C   UNL A   1      33.422  23.405  25.742  1.00  0.00     0.029 A 
ATOM     10  C   UNL A   1      32.180  24.047  25.909  1.00  0.00     0.058 A 
ATOM     11  C   UNL A   1      34.517  24.192  25.346  1.00  0.00     0.050 A 
ATOM     12  C   UNL A   1      32.070  25.428  25.787  1.00  0.00     0.128 A 
ATOM     13  C   UNL A   1      34.413  25.588  25.292  1.00  0.00     0.033 A 
ATOM     14  Cl  UNL A   1      36.021  23.515  24.830  1.00  0.00    -0.084 Cl
ATOM     15  C   UNL A   1      33.193  26.211  25.539  1.00  0.00     0.019 A 
ATOM     16  O   UNL A   1      30.829  25.972  25.963  1.00  0.00    -0.475 OA
ATOM     17  C   UNL A   1      33.065  27.663  25.571  1.00  0.00     0.025 C 
ATOM     18  C   UNL A   1      30.645  27.286  25.362  1.00  0.00     0.314 C 
BRANCH   9  19
ATOM     19  C   UNL A   1      33.502  21.917  26.039  1.00  0.00     0.301 C 
BRANCH  19  20
ATOM     20  N   UNL A   1      33.544  21.015  24.876  1.00  0.00    -0.327 N 
ATOM     21  C   UNL A   1      32.898  22.136  22.762  1.00  0.00     0.075 C 
ATOM     22  C   UNL A   1      32.485  21.173  23.866  1.00  0.00     0.181 C 
ATOM     23  C   UNL A   1      32.238  19.765  23.325  1.00  0.00     0.071 C 
ATOM     24  C   UNL A   1      32.529  18.891  24.525  1.00  0.00     0.071 C 
ATOM     25  C   UNL A   1      33.710  19.591  25.187  1.00  0.00     0.181 C 
ATOM     26  H   UNL A   1      34.405  21.355  24.447  1.00  0.00     0.348 HD
ATOM     27  C   UNL A   1      35.050  19.118  24.628  1.00  0.00     0.075 C 
ENDBRANCH  19  20
ENDBRANCH   9  19
BRANCH  18  28
ATOM     28  C   UNL A   1      30.194  27.141  23.895  1.00  0.00     0.429 C 
ATOM     29  F   UNL A   1      29.598  25.941  23.691  1.00  0.00    -0.167 F 
ATOM     30  F   UNL A   1      29.283  28.082  23.542  1.00  0.00    -0.167 F 
ATOM     31  F   UNL A   1      31.217  27.241  23.016  1.00  0.00    -0.167 F 
ENDBRANCH  18  28
ENDBRANCH   5   8
ENDBRANCH   3   4
ENDBRANCH   2   3
ENDBRANCH   1   2
BRANCH   1  32
ATOM     32  C   UNL A   1      34.701  33.377  29.494  1.00  0.00     0.002 C 
BRANCH  32  33
ATOM     33  C   UNL A   1      33.595  34.331  29.035  1.00  0.00     0.021 C 
BRANCH  33  34
ATOM     34  C   UNL A   1      33.663  35.728  29.639  1.00  0.00     0.116 C 
BRANCH  34  35
ATOM     35  N   UNL A   1      32.572  35.993  30.562  1.00  0.00    -0.352 N 
ATOM     36  C   UNL A   1      32.466  35.660  31.892  1.00  0.00     0.251 C 
ATOM     37  H   UNL A   1      31.802  36.475  30.182  1.00  0.00     0.163 HD
ATOM     38  O   UNL A   1      31.420  35.828  32.502  1.00  0.00    -0.269 OA
BRANCH  36  39
ATOM     39  C   UNL A   1      33.630  35.051  32.568  1.00  0.00     0.039 A 
ATOM     40  C   UNL A   1      34.853  35.726  32.617  1.00  0.00     0.014 A 
ATOM     41  C   UNL A   1      33.509  33.759  33.083  1.00  0.00     0.014 A 
ATOM     42  C   UNL A   1      35.995  35.045  33.027  1.00  0.00     0.010 A 
ATOM     43  C   UNL A   1      34.646  33.102  33.557  1.00  0.00     0.010 A 
ATOM     44  C   UNL A   1      35.905  33.719  33.477  1.00  0.00    -0.014 A 
BRANCH  44  45
ATOM     45  C   UNL A   1      37.138  32.953  33.787  1.00  0.00     0.031 A 
ATOM     46  C   UNL A   1      37.876  33.208  35.073  1.00  0.00     0.074 A 
ATOM     47  C   UNL A   1      37.578  32.010  32.935  1.00  0.00     0.049 A 
ATOM     48  N   UNL A   1      39.015  32.712  35.490  1.00  0.00    -0.248 NA
ATOM     49  C   UNL A   1      37.252  34.149  36.018  1.00  0.00     0.031 C 
ATOM     50  C   UNL A   1      36.931  31.640  31.676  1.00  0.00     0.029 A 
ATOM     51  N   UNL A   1      38.675  31.189  33.002  1.00  0.00    -0.354 N 
ATOM     52  C   UNL A   1      39.254  33.297  36.727  1.00  0.00     0.074 A 
ATOM     53  C   UNL A   1      38.156  34.204  36.985  1.00  0.00     0.031 C 
ATOM     54  C   UNL A   1      37.633  30.654  31.097  1.00  0.00     0.029 A 
ATOM     55  C   UNL A   1      38.809  30.366  31.912  1.00  0.00     0.049 A 
ATOM     56  H   UNL A   1      39.305  31.191  33.759  1.00  0.00     0.167 HD
ATOM     57  C   UNL A   1      40.290  33.092  37.576  1.00  0.00     0.037 A 
ATOM     58  C   UNL A   1      39.787  29.500  31.590  1.00  0.00     0.037 A 
ATOM     59  C   UNL A   1      41.374  32.178  37.324  1.00  0.00     0.049 A 
ATOM     60  C   UNL A   1      40.958  29.335  32.517  1.00  0.00     0.074 A 
ATOM     61  C   UNL A   1      42.475  31.904  38.117  1.00  0.00     0.029 A 
ATOM     62  N   UNL A   1      41.488  31.385  36.193  1.00  0.00    -0.354 N 
ATOM     63  N   UNL A   1      41.186  29.912  33.671  1.00  0.00    -0.248 NA
ATOM     64  C   UNL A   1      42.011  28.403  32.090  1.00  0.00     0.031 C 
ATOM     65  C   UNL A   1      43.271  30.966  37.449  1.00  0.00     0.029 A 
ATOM     66  C   UNL A   1      42.645  30.628  36.260  1.00  0.00     0.049 A 
ATOM     67  H   UNL A   1      40.840  31.364  35.451  1.00  0.00     0.167 HD
ATOM     68  C   UNL A   1      42.397  29.401  34.118  1.00  0.00     0.074 A 
ATOM     69  C   UNL A   1      42.849  28.459  33.116  1.00  0.00     0.031 C 
ATOM     70  C   UNL A   1      43.073  29.688  35.257  1.00  0.00     0.037 A 
BRANCH  57  71
ATOM     71  C   UNL A   1      40.306  33.890  38.846  1.00  0.00     0.057 A 
ATOM     72  C   UNL A   1      41.033  35.085  38.930  1.00  0.00     0.134 A 
ATOM     73  C   UNL A   1      39.611  33.477  39.990  1.00  0.00     0.134 A 
ATOM     74  F   UNL A   1      41.723  35.537  37.873  1.00  0.00    -0.206 F 
ATOM     75  C   UNL A   1      41.064  35.841  40.103  1.00  0.00     0.040 A 
ATOM     76  C   UNL A   1      39.616  34.235  41.162  1.00  0.00     0.040 A 
ATOM     77  F   UNL A   1      38.882  32.350  39.971  1.00  0.00    -0.206 F 
ATOM     78  C   UNL A   1      40.348  35.419  41.221  1.00  0.00     0.006 A 
ENDBRANCH  57  71
BRANCH  58  79
ATOM     79  C   UNL A   1      39.710  28.743  30.317  1.00  0.00     0.057 A 
ATOM     80  C   UNL A   1      39.079  27.494  30.252  1.00  0.00     0.134 A 
ATOM     81  C   UNL A   1      40.268  29.249  29.139  1.00  0.00     0.134 A 
ATOM     82  F   UNL A   1      38.529  26.955  31.349  1.00  0.00    -0.206 F 
ATOM     83  C   UNL A   1      39.019  26.769  29.061  1.00  0.00     0.040 A 
ATOM     84  C   UNL A   1      40.194  28.545  27.937  1.00  0.00     0.040 A 
ATOM     85  F   UNL A   1      40.868  30.449  29.138  1.00  0.00    -0.206 F 
ATOM     86  C   UNL A   1      39.573  27.298  27.897  1.00  0.00     0.006 A 
ENDBRANCH  58  79
BRANCH  70  87
ATOM     87  C   UNL A   1      44.351  28.942  35.497  1.00  0.00     0.057 A 
ATOM     88  C   UNL A   1      44.345  27.729  36.196  1.00  0.00     0.134 A 
ATOM     89  C   UNL A   1      45.587  29.440  35.068  1.00  0.00     0.134 A 
ATOM     90  F   UNL A   1      43.194  27.203  36.638  1.00  0.00    -0.206 F 
ATOM     91  C   UNL A   1      45.527  27.038  36.464  1.00  0.00     0.040 A 
ATOM     92  C   UNL A   1      46.774  28.747  35.311  1.00  0.00     0.040 A 
ATOM     93  F   UNL A   1      45.655  30.589  34.379  1.00  0.00    -0.206 F 
ATOM     94  C   UNL A   1      46.746  27.546  36.017  1.00  0.00     0.006 A 
ENDBRANCH  70  87
ENDBRANCH  44  45
ENDBRANCH  36  39
ENDBRANCH  34  35
ENDBRANCH  33  34
ENDBRANCH  32  33
ENDBRANCH   1  32
TORSDOF 16
ENDMDL
MODEL 2
REMARK VINA RESULT:     -11.8      5.505     10.390
REMARK SMILES C[C@@H]1CC[C@H](C)[N@H+]1Cc1cc2c(cc1Cl)C=C(C(=O)NCCCCCCNC(=O)c1ccc(-c3c4nc(c(-c5c(F)cccc5F)c5ccc([nH]5)c(-c5c(F)cccc5F)c5nc(c(-c6c(F)cccc6F)c6ccc3[nH]6)C=C5)C=C4)cc1)[C@@H](C(F)(F)F)O2
REMARK SMILES IDX 23 1 22 2 21 3 20 4 18 5 19 6 17 8 9 9 10 10 14 11 11 12
REMARK SMILES IDX 13 13 15 14 12 15 89 16 16 17 84 18 8 19 7 20 6 21 5 22 4 23
REMARK SMILES IDX 3 24 2 25 1 27 85 28 86 29 87 30 88 31 24 32 25 33 26 34
REMARK SMILES IDX 27 35 28 36 29 38 30 39 31 40 83 41 32 42 82 43 33 44 34 45
REMARK SMILES IDX 35 46 76 47 36 48 81 49 75 50 77 51 37 52 80 53 74 54 73 55
REMARK SMILES IDX 38 57 64 58 47 59 63 60 48 61 51 62 62 63 78 64 49 65 50 66
REMARK SMILES IDX 61 68 79 69 52 70 39 71 40 72 45 73 41 74 42 75 44 76 46 77
REMARK SMILES IDX 43 78 65 79 66 80 71 81 67 82 68 83 70 84 72 85 69 86 53 87
REMARK SMILES IDX 54 88 59 89 55 90 56 91 58 92 60 93 57 94
REMARK H PARENT 20 7 7 26 27 37 77 56 51 67
REMARK Flexibility Score: inf
ROOT
ATOM      1  C   UNL A   1      35.491  21.942  24.977  1.00  0.00     0.002 C 
ENDROOT
BRANCH   1   2
ATOM      2  C   UNL A   1      35.166  20.454  24.809  1.00  0.00     0.021 C 
BRANCH   2   3
ATOM      3  C   UNL A   1      33.685  20.119  24.961  1.00  0.00     0.116 C 
BRANCH   3   4
ATOM      4  N   UNL A   1      32.976  20.277  23.705  1.00  0.00    -0.352 N 
ATOM      5  C   UNL A   1      32.277  21.246  23.074  1.00  0.00     0.251 C 
ATOM      6  O   UNL A   1      31.842  20.934  21.961  1.00  0.00    -0.270 OA
ATOM      7  H   UNL A   1      33.013  19.453  23.168  1.00  0.00     0.163 HD
BRANCH   5   8
ATOM      8  C   UNL A   1      32.009  22.611  23.611  1.00  0.00     0.067 C 
ATOM      9  C   UNL A   1      31.874  27.624  24.254  1.00  0.00     0.029 A 
ATOM     10  C   UNL A   1      31.040  26.554  24.630  1.00  0.00     0.058 A 
ATOM     11  C   UNL A   1      33.083  27.314  23.608  1.00  0.00     0.050 A 
ATOM     12  C   UNL A   1      31.355  25.246  24.277  1.00  0.00     0.128 A 
ATOM     13  C   UNL A   1      33.361  26.005  23.197  1.00  0.00     0.033 A 
ATOM     14  Cl  UNL A   1      34.330  28.482  23.344  1.00  0.00    -0.084 Cl
ATOM     15  C   UNL A   1      32.482  24.971  23.508  1.00  0.00     0.019 A 
ATOM     16  O   UNL A   1      30.493  24.266  24.680  1.00  0.00    -0.475 OA
ATOM     17  C   UNL A   1      32.697  23.611  23.028  1.00  0.00     0.025 C 
ATOM     18  C   UNL A   1      31.070  22.930  24.741  1.00  0.00     0.314 C 
BRANCH   9  19
ATOM     19  C   UNL A   1      31.394  29.037  24.539  1.00  0.00     0.301 C 
BRANCH  19  20
ATOM     20  N   UNL A   1      31.621  29.549  25.901  1.00  0.00    -0.327 N 
ATOM     21  C   UNL A   1      30.992  31.933  26.152  1.00  0.00     0.075 C 
ATOM     22  C   UNL A   1      32.126  30.925  26.024  1.00  0.00     0.181 C 
ATOM     23  C   UNL A   1      33.015  30.914  27.267  1.00  0.00     0.071 C 
ATOM     24  C   UNL A   1      33.568  29.506  27.267  1.00  0.00     0.071 C 
ATOM     25  C   UNL A   1      32.390  28.667  26.786  1.00  0.00     0.181 C 
ATOM     26  H   UNL A   1      30.652  29.566  26.223  1.00  0.00     0.348 HD
ATOM     27  C   UNL A   1      31.491  28.220  27.937  1.00  0.00     0.075 C 
ENDBRANCH  19  20
ENDBRANCH   9  19
BRANCH  18  28
ATOM     28  C   UNL A   1      31.724  22.694  26.117  1.00  0.00     0.429 C 
ATOM     29  F   UNL A   1      31.047  23.353  27.090  1.00  0.00    -0.167 F 
ATOM     30  F   UNL A   1      31.720  21.385  26.471  1.00  0.00    -0.167 F 
ATOM     31  F   UNL A   1      33.011  23.107  26.167  1.00  0.00    -0.167 F 
ENDBRANCH  18  28
ENDBRANCH   5   8
ENDBRANCH   3   4
ENDBRANCH   2   3
ENDBRANCH   1   2
BRANCH   1  32
ATOM     32  C   UNL A   1      36.967  22.320  24.790  1.00  0.00     0.002 C 
BRANCH  32  33
ATOM     33  C   UNL A   1      37.949  21.147  24.742  1.00  0.00     0.021 C 
BRANCH  33  34
ATOM     34  C   UNL A   1      38.990  21.138  25.854  1.00  0.00     0.116 C 
BRANCH  34  35
ATOM     35  N   UNL A   1      39.803  19.933  25.850  1.00  0.00    -0.352 N 
ATOM     36  C   UNL A   1      41.148  19.798  26.103  1.00  0.00     0.251 C 
ATOM     37  H   UNL A   1      39.325  19.100  25.636  1.00  0.00     0.163 HD
ATOM     38  O   UNL A   1      41.719  18.732  25.922  1.00  0.00    -0.269 OA
BRANCH  36  39
ATOM     39  C   UNL A   1      41.909  20.980  26.559  1.00  0.00     0.039 A 
ATOM     40  C   UNL A   1      42.150  21.185  27.920  1.00  0.00     0.014 A 
ATOM     41  C   UNL A   1      42.310  21.926  25.615  1.00  0.00     0.014 A 
ATOM     42  C   UNL A   1      42.640  22.413  28.351  1.00  0.00     0.010 A 
ATOM     43  C   UNL A   1      42.865  23.132  26.046  1.00  0.00     0.010 A 
ATOM     44  C   UNL A   1      42.978  23.407  27.420  1.00  0.00    -0.014 A 
BRANCH  44  45
ATOM     45  C   UNL A   1      43.373  24.760  27.885  1.00  0.00     0.031 A 
ATOM     46  C   UNL A   1      42.315  25.777  28.220  1.00  0.00     0.074 A 
ATOM     47  C   UNL A   1      44.673  25.068  28.038  1.00  0.00     0.049 A 
ATOM     48  N   UNL A   1      42.450  27.035  28.557  1.00  0.00    -0.248 NA
ATOM     49  C   UNL A   1      40.917  25.318  28.167  1.00  0.00     0.031 C 
ATOM     50  C   UNL A   1      45.792  24.159  27.786  1.00  0.00     0.029 A 
ATOM     51  N   UNL A   1      45.272  26.232  28.445  1.00  0.00    -0.354 N 
ATOM     52  C   UNL A   1      41.160  27.522  28.730  1.00  0.00     0.074 A 
ATOM     53  C   UNL A   1      40.254  26.432  28.439  1.00  0.00     0.031 C 
ATOM     54  C   UNL A   1      46.941  24.795  28.060  1.00  0.00     0.029 A 
ATOM     55  C   UNL A   1      46.643  26.170  28.447  1.00  0.00     0.049 A 
ATOM     56  H   UNL A   1      44.767  27.035  28.710  1.00  0.00     0.167 HD
ATOM     57  C   UNL A   1      40.765  28.763  29.106  1.00  0.00     0.037 A 
ATOM     58  C   UNL A   1      47.558  27.124  28.701  1.00  0.00     0.037 A 
ATOM     59  C   UNL A   1      41.669  29.842  29.410  1.00  0.00     0.049 A 
ATOM     60  C   UNL A   1      47.097  28.509  29.055  1.00  0.00     0.074 A 
ATOM     61  C   UNL A   1      41.370  31.139  29.793  1.00  0.00     0.029 A 
ATOM     62  N   UNL A   1      43.051  29.746  29.370  1.00  0.00    -0.354 N 
ATOM     63  N   UNL A   1      45.876  28.964  29.191  1.00  0.00    -0.248 NA
ATOM     64  C   UNL A   1      48.144  29.515  29.283  1.00  0.00     0.031 C 
ATOM     65  C   UNL A   1      42.573  31.834  29.955  1.00  0.00     0.029 A 
ATOM     66  C   UNL A   1      43.620  30.961  29.711  1.00  0.00     0.049 A 
ATOM     67  H   UNL A   1      43.554  28.932  29.135  1.00  0.00     0.167 HD
ATOM     68  C   UNL A   1      46.006  30.302  29.538  1.00  0.00     0.074 A 
ATOM     69  C   UNL A   1      47.425  30.582  29.603  1.00  0.00     0.031 C 
ATOM     70  C   UNL A   1      45.036  31.217  29.781  1.00  0.00     0.037 A 
BRANCH  57  71
ATOM     71  C   UNL A   1      39.289  29.020  29.186  1.00  0.00     0.057 A 
ATOM     72  C   UNL A   1      38.573  29.431  28.055  1.00  0.00     0.134 A 
ATOM     73  C   UNL A   1      38.575  28.869  30.382  1.00  0.00     0.134 A 
ATOM     74  F   UNL A   1      39.196  29.599  26.879  1.00  0.00    -0.206 F 
ATOM     75  C   UNL A   1      37.201  29.680  28.109  1.00  0.00     0.040 A 
ATOM     76  C   UNL A   1      37.198  29.092  30.444  1.00  0.00     0.040 A 
ATOM     77  F   UNL A   1      39.199  28.460  31.498  1.00  0.00    -0.206 F 
ATOM     78  C   UNL A   1      36.509  29.502  29.305  1.00  0.00     0.006 A 
ENDBRANCH  57  71
BRANCH  58  79
ATOM     79  C   UNL A   1      49.002  26.802  28.602  1.00  0.00     0.057 A 
ATOM     80  C   UNL A   1      49.716  26.317  29.705  1.00  0.00     0.134 A 
ATOM     81  C   UNL A   1      49.702  26.978  27.404  1.00  0.00     0.134 A 
ATOM     82  F   UNL A   1      49.101  26.132  30.881  1.00  0.00    -0.206 F 
ATOM     83  C   UNL A   1      51.079  26.030  29.623  1.00  0.00     0.040 A 
ATOM     84  C   UNL A   1      51.060  26.673  27.302  1.00  0.00     0.040 A 
ATOM     85  F   UNL A   1      49.066  27.422  26.309  1.00  0.00    -0.206 F 
ATOM     86  C   UNL A   1      51.753  26.203  28.416  1.00  0.00     0.006 A 
ENDBRANCH  58  79
BRANCH  70  87
ATOM     87  C   UNL A   1      45.480  32.592  30.179  1.00  0.00     0.057 A 
ATOM     88  C   UNL A   1      45.687  32.909  31.527  1.00  0.00     0.134 A 
ATOM     89  C   UNL A   1      45.668  33.608  29.236  1.00  0.00     0.134 A 
ATOM     90  F   UNL A   1      45.518  31.980  32.479  1.00  0.00    -0.206 F 
ATOM     91  C   UNL A   1      46.062  34.193  31.923  1.00  0.00     0.040 A 
ATOM     92  C   UNL A   1      46.065  34.891  29.618  1.00  0.00     0.040 A 
ATOM     93  F   UNL A   1      45.500  33.362  27.927  1.00  0.00    -0.206 F 
ATOM     94  C   UNL A   1      46.256  35.187  30.966  1.00  0.00     0.006 A 
ENDBRANCH  70  87
ENDBRANCH  44  45
ENDBRANCH  36  39
ENDBRANCH  34  35
ENDBRANCH  33  34
ENDBRANCH  32  33
ENDBRANCH   1  32
TORSDOF 16
ENDMDL
MODEL 3
REMARK VINA RESULT:     -11.7      3.116      8.574
REMARK SMILES C[C@@H]1CC[C@H](C)[N@H+]1Cc1cc2c(cc1Cl)C=C(C(=O)NCCCCCCNC(=O)c1ccc(-c3c4nc(c(-c5c(F)cccc5F)c5ccc([nH]5)c(-c5c(F)cccc5F)c5nc(c(-c6c(F)cccc6F)c6ccc3[nH]6)C=C5)C=C4)cc1)[C@@H](C(F)(F)F)O2
REMARK SMILES IDX 23 1 22 2 21 3 20 4 18 5 19 6 17 8 9 9 10 10 14 11 11 12
REMARK SMILES IDX 13 13 15 14 12 15 89 16 16 17 84 18 8 19 7 20 6 21 5 22 4 23
REMARK SMILES IDX 3 24 2 25 1 27 85 28 86 29 87 30 88 31 24 32 25 33 26 34
REMARK SMILES IDX 27 35 28 36 29 38 30 39 31 40 83 41 32 42 82 43 33 44 34 45
REMARK SMILES IDX 35 46 76 47 36 48 81 49 75 50 77 51 37 52 80 53 74 54 73 55
REMARK SMILES IDX 38 57 64 58 47 59 63 60 48 61 51 62 62 63 78 64 49 65 50 66
REMARK SMILES IDX 61 68 79 69 52 70 39 71 40 72 45 73 41 74 42 75 44 76 46 77
REMARK SMILES IDX 43 78 65 79 66 80 71 81 67 82 68 83 70 84 72 85 69 86 53 87
REMARK SMILES IDX 54 88 59 89 55 90 56 91 58 92 60 93 57 94
REMARK H PARENT 20 7 7 26 27 37 77 56 51 67
REMARK Flexibility Score: inf
ROOT
ATOM      1  C   UNL A   1      37.376  22.767  24.832  1.00  0.00     0.002 C 
ENDROOT
BRANCH   1   2
ATOM      2  C   UNL A   1      36.990  21.420  24.212  1.00  0.00     0.021 C 
BRANCH   2   3
ATOM      3  C   UNL A   1      36.663  20.335  25.235  1.00  0.00     0.116 C 
BRANCH   3   4
ATOM      4  N   UNL A   1      35.467  19.602  24.864  1.00  0.00    -0.352 N 
ATOM      5  C   UNL A   1      34.149  19.860  24.717  1.00  0.00     0.251 C 
ATOM      6  O   UNL A   1      33.467  18.897  24.354  1.00  0.00    -0.270 OA
ATOM      7  H   UNL A   1      35.673  18.660  24.666  1.00  0.00     0.163 HD
BRANCH   5   8
ATOM      8  C   UNL A   1      33.492  21.177  24.955  1.00  0.00     0.067 C 
ATOM      9  C   UNL A   1      31.530  25.796  24.335  1.00  0.00     0.029 A 
ATOM     10  C   UNL A   1      31.300  24.733  25.230  1.00  0.00     0.058 A 
ATOM     11  C   UNL A   1      32.579  25.655  23.410  1.00  0.00     0.050 A 
ATOM     12  C   UNL A   1      32.019  23.547  25.127  1.00  0.00     0.128 A 
ATOM     13  C   UNL A   1      33.252  24.435  23.268  1.00  0.00     0.033 A 
ATOM     14  Cl  UNL A   1      33.163  26.968  22.449  1.00  0.00    -0.084 Cl
ATOM     15  C   UNL A   1      32.952  23.368  24.111  1.00  0.00     0.019 A 
ATOM     16  O   UNL A   1      31.735  22.566  26.034  1.00  0.00    -0.475 OA
ATOM     17  C   UNL A   1      33.573  22.059  23.942  1.00  0.00     0.025 C 
ATOM     18  C   UNL A   1      32.791  21.581  26.223  1.00  0.00     0.314 C 
BRANCH   9  19
ATOM     19  C   UNL A   1      30.608  27.001  24.406  1.00  0.00     0.301 C 
BRANCH  19  20
ATOM     20  N   UNL A   1      31.078  28.144  25.206  1.00  0.00    -0.327 N 
ATOM     21  C   UNL A   1      30.368  30.329  24.275  1.00  0.00     0.075 C 
ATOM     22  C   UNL A   1      31.512  29.343  24.472  1.00  0.00     0.181 C 
ATOM     23  C   UNL A   1      32.636  29.942  25.316  1.00  0.00     0.071 C 
ATOM     24  C   UNL A   1      33.264  28.720  25.950  1.00  0.00     0.071 C 
ATOM     25  C   UNL A   1      32.066  27.825  26.243  1.00  0.00     0.181 C 
ATOM     26  H   UNL A   1      30.197  28.387  25.661  1.00  0.00     0.348 HD
ATOM     27  C   UNL A   1      31.451  28.112  27.612  1.00  0.00     0.075 C 
ENDBRANCH  19  20
ENDBRANCH   9  19
BRANCH  18  28
ATOM     28  C   UNL A   1      33.783  22.063  27.301  1.00  0.00     0.429 C 
ATOM     29  F   UNL A   1      34.580  23.046  26.815  1.00  0.00    -0.167 F 
ATOM     30  F   UNL A   1      33.152  22.585  28.382  1.00  0.00    -0.167 F 
ATOM     31  F   UNL A   1      34.587  21.076  27.757  1.00  0.00    -0.167 F 
ENDBRANCH  18  28
ENDBRANCH   5   8
ENDBRANCH   3   4
ENDBRANCH   2   3
ENDBRANCH   1   2
BRANCH   1  32
ATOM     32  C   UNL A   1      38.166  22.686  26.146  1.00  0.00     0.002 C 
BRANCH  32  33
ATOM     33  C   UNL A   1      39.482  21.906  26.079  1.00  0.00     0.021 C 
BRANCH  33  34
ATOM     34  C   UNL A   1      40.638  22.534  26.849  1.00  0.00     0.116 C 
BRANCH  34  35
ATOM     35  N   UNL A   1      41.736  22.932  25.983  1.00  0.00    -0.352 N 
ATOM     36  C   UNL A   1      42.282  24.180  25.798  1.00  0.00     0.251 C 
ATOM     37  H   UNL A   1      42.144  22.207  25.456  1.00  0.00     0.163 HD
ATOM     38  O   UNL A   1      43.113  24.381  24.926  1.00  0.00    -0.269 OA
BRANCH  36  39
ATOM     39  C   UNL A   1      41.812  25.295  26.648  1.00  0.00     0.039 A 
ATOM     40  C   UNL A   1      42.407  26.556  26.553  1.00  0.00     0.014 A 
ATOM     41  C   UNL A   1      40.822  25.044  27.599  1.00  0.00     0.014 A 
ATOM     42  C   UNL A   1      42.133  27.516  27.522  1.00  0.00     0.010 A 
ATOM     43  C   UNL A   1      40.499  26.034  28.529  1.00  0.00     0.010 A 
ATOM     44  C   UNL A   1      41.195  27.255  28.533  1.00  0.00    -0.014 A 
BRANCH  44  45
ATOM     45  C   UNL A   1      41.002  28.226  29.639  1.00  0.00     0.031 A 
ATOM     46  C   UNL A   1      41.910  28.187  30.839  1.00  0.00     0.074 A 
ATOM     47  C   UNL A   1      40.039  29.160  29.555  1.00  0.00     0.049 A 
ATOM     48  N   UNL A   1      41.854  28.885  31.945  1.00  0.00    -0.248 NA
ATOM     49  C   UNL A   1      43.029  27.232  30.789  1.00  0.00     0.031 C 
ATOM     50  C   UNL A   1      39.121  29.330  28.428  1.00  0.00     0.029 A 
ATOM     51  N   UNL A   1      39.674  30.146  30.436  1.00  0.00    -0.354 N 
ATOM     52  C   UNL A   1      42.910  28.438  32.730  1.00  0.00     0.074 A 
ATOM     53  C   UNL A   1      43.577  27.392  31.985  1.00  0.00     0.031 C 
ATOM     54  C   UNL A   1      38.309  30.368  28.678  1.00  0.00     0.029 A 
ATOM     55  C   UNL A   1      38.608  30.897  30.005  1.00  0.00     0.049 A 
ATOM     56  H   UNL A   1      40.132  30.300  31.294  1.00  0.00     0.167 HD
ATOM     57  C   UNL A   1      43.296  28.866  33.957  1.00  0.00     0.037 A 
ATOM     58  C   UNL A   1      37.929  31.880  30.624  1.00  0.00     0.037 A 
ATOM     59  C   UNL A   1      42.640  29.917  34.689  1.00  0.00     0.049 A 
ATOM     60  C   UNL A   1      38.335  32.295  32.009  1.00  0.00     0.074 A 
ATOM     61  C   UNL A   1      42.947  30.420  35.942  1.00  0.00     0.029 A 
ATOM     62  N   UNL A   1      41.544  30.633  34.230  1.00  0.00    -0.354 N 
ATOM     63  N   UNL A   1      39.319  31.848  32.751  1.00  0.00    -0.248 NA
ATOM     64  C   UNL A   1      37.529  33.346  32.646  1.00  0.00     0.031 C 
ATOM     65  C   UNL A   1      42.018  31.419  36.253  1.00  0.00     0.029 A 
ATOM     66  C   UNL A   1      41.156  31.565  35.177  1.00  0.00     0.049 A 
ATOM     67  H   UNL A   1      41.107  30.497  33.358  1.00  0.00     0.167 HD
ATOM     68  C   UNL A   1      39.263  32.575  33.932  1.00  0.00     0.074 A 
ATOM     69  C   UNL A   1      38.156  33.500  33.804  1.00  0.00     0.031 C 
ATOM     70  C   UNL A   1      40.058  32.484  35.026  1.00  0.00     0.037 A 
BRANCH  57  71
ATOM     71  C   UNL A   1      44.469  28.177  34.588  1.00  0.00     0.057 A 
ATOM     72  C   UNL A   1      45.769  28.666  34.404  1.00  0.00     0.134 A 
ATOM     73  C   UNL A   1      44.318  27.024  35.370  1.00  0.00     0.134 A 
ATOM     74  F   UNL A   1      45.985  29.763  33.664  1.00  0.00    -0.206 F 
ATOM     75  C   UNL A   1      46.875  28.037  34.979  1.00  0.00     0.040 A 
ATOM     76  C   UNL A   1      45.414  26.400  35.969  1.00  0.00     0.040 A 
ATOM     77  F   UNL A   1      43.098  26.514  35.599  1.00  0.00    -0.206 F 
ATOM     78  C   UNL A   1      46.697  26.904  35.770  1.00  0.00     0.006 A 
ENDBRANCH  57  71
BRANCH  58  79
ATOM     79  C   UNL A   1      36.776  32.518  29.943  1.00  0.00     0.057 A 
ATOM     80  C   UNL A   1      36.965  33.504  28.966  1.00  0.00     0.134 A 
ATOM     81  C   UNL A   1      35.462  32.161  30.257  1.00  0.00     0.134 A 
ATOM     82  F   UNL A   1      38.202  33.892  28.625  1.00  0.00    -0.206 F 
ATOM     83  C   UNL A   1      35.885  34.122  28.335  1.00  0.00     0.040 A 
ATOM     84  C   UNL A   1      34.373  32.754  29.617  1.00  0.00     0.040 A 
ATOM     85  F   UNL A   1      35.221  31.209  31.171  1.00  0.00    -0.206 F 
ATOM     86  C   UNL A   1      34.583  33.742  28.657  1.00  0.00     0.006 A 
ENDBRANCH  58  79
BRANCH  70  87
ATOM     87  C   UNL A   1      39.783  33.437  36.150  1.00  0.00     0.057 A 
ATOM     88  C   UNL A   1      40.408  34.689  36.188  1.00  0.00     0.134 A 
ATOM     89  C   UNL A   1      38.931  33.103  37.209  1.00  0.00     0.134 A 
ATOM     90  F   UNL A   1      41.240  35.066  35.206  1.00  0.00    -0.206 F 
ATOM     91  C   UNL A   1      40.197  35.576  37.245  1.00  0.00     0.040 A 
ATOM     92  C   UNL A   1      38.695  33.990  38.260  1.00  0.00     0.040 A 
ATOM     93  F   UNL A   1      38.292  31.923  37.221  1.00  0.00    -0.206 F 
ATOM     94  C   UNL A   1      39.335  35.228  38.283  1.00  0.00     0.006 A 
ENDBRANCH  70  87
ENDBRANCH  44  45
ENDBRANCH  36  39
ENDBRANCH  34  35
ENDBRANCH  33  34
ENDBRANCH  32  33
ENDBRANCH   1  32
TORSDOF 16
ENDMDL
