MODEL 1
REMARK VINA RESULT:     -10.8      0.000      0.000
REMARK SMILES C[C@H](C(=O)NCCCCCCNC(=O)c1ccc(-c2c3nc(c(-c4c(F)cccc4F)c4ccc([nH]4)c(-c4c(F)cccc4F)c4nc(c(-c5c(F)cccc5F)c5ccc2[nH]5)C=C4)C=C3)cc1)n1ccc(C(=O)N(C)Cc2cnn(C)c2)n1
REMARK SMILES IDX 7 1 6 2 5 3 3 4 4 5 2 7 1 8 69 9 70 10 84 11 71 12 72 13
REMARK SMILES IDX 73 14 74 15 75 16 76 17 77 18 78 19 79 20 83 21 80 22 81 23
REMARK SMILES IDX 82 24 8 25 9 26 10 27 11 28 12 29 13 30 14 32 15 33 16 34
REMARK SMILES IDX 68 35 17 36 67 37 18 38 19 39 20 40 61 41 21 42 66 43 60 44
REMARK SMILES IDX 62 45 22 46 65 47 59 48 58 49 23 51 49 52 32 53 48 54 33 55
REMARK SMILES IDX 36 56 47 57 63 58 34 59 35 60 46 62 64 63 37 64 24 65 25 66
REMARK SMILES IDX 30 67 26 68 27 69 29 70 31 71 28 72 50 73 51 74 56 75 52 76
REMARK SMILES IDX 53 77 55 78 57 79 54 80 38 81 39 82 44 83 40 84 41 85 43 86
REMARK SMILES IDX 45 87 42 88
REMARK H PARENT 5 6 12 31 62 50 36 61
REMARK Flexibility Score: inf
ROOT
ATOM      1  C   UNL A   1      31.512  28.104  27.123  1.00  0.00     0.021 C 
ENDROOT
BRANCH   1   2
ATOM      2  C   UNL A   1      31.589  27.399  25.768  1.00  0.00     0.116 C 
BRANCH   2   3
ATOM      3  N   UNL A   1      30.310  26.812  25.421  1.00  0.00    -0.354 N 
ATOM      4  C   UNL A   1      29.632  26.806  24.234  1.00  0.00     0.244 C 
ATOM      5  O   UNL A   1      28.509  26.295  24.242  1.00  0.00    -0.273 OA
ATOM      6  H   UNL A   1      29.858  26.341  26.158  1.00  0.00     0.163 HD
BRANCH   4   7
ATOM      7  C   UNL A   1      30.285  27.347  22.965  1.00  0.00     0.193 C 
ATOM      8  C   UNL A   1      30.396  28.873  23.045  1.00  0.00     0.044 C 
BRANCH   7   9
ATOM      9  N   UNL A   1      31.573  26.705  22.709  1.00  0.00    -0.260 N 
ATOM     10  C   UNL A   1      32.743  27.331  22.381  1.00  0.00     0.110 A 
ATOM     11  N   UNL A   1      31.741  25.387  22.940  1.00  0.00    -0.167 NA
ATOM     12  C   UNL A   1      33.697  26.349  22.330  1.00  0.00     0.056 A 
ATOM     13  C   UNL A   1      33.041  25.143  22.707  1.00  0.00     0.150 A 
BRANCH  13  14
ATOM     14  C   UNL A   1      33.737  23.846  22.857  1.00  0.00     0.274 C 
ATOM     15  O   UNL A   1      33.728  23.076  21.890  1.00  0.00    -0.267 OA
BRANCH  14  16
ATOM     16  N   UNL A   1      34.373  23.460  24.046  1.00  0.00    -0.336 N 
ATOM     17  C   UNL A   1      35.580  24.026  24.633  1.00  0.00     0.147 C 
BRANCH  16  18
ATOM     18  C   UNL A   1      33.796  22.329  24.764  1.00  0.00     0.158 C 
BRANCH  18  19
ATOM     19  C   UNL A   1      32.692  22.771  25.668  1.00  0.00     0.009 A 
ATOM     20  C   UNL A   1      32.621  23.945  26.458  1.00  0.00     0.140 A 
ATOM     21  C   UNL A   1      31.463  22.170  25.875  1.00  0.00     0.113 A 
ATOM     22  N   UNL A   1      31.459  24.071  27.103  1.00  0.00    -0.181 NA
ATOM     23  N   UNL A   1      30.765  22.992  26.710  1.00  0.00    -0.275 N 
ATOM     24  C   UNL A   1      29.398  22.843  27.144  1.00  0.00     0.173 C 
ENDBRANCH  18  19
ENDBRANCH  16  18
ENDBRANCH  14  16
ENDBRANCH  13  14
ENDBRANCH   7   9
ENDBRANCH   4   7
ENDBRANCH   2   3
ENDBRANCH   1   2
BRANCH   1  25
ATOM     25  C   UNL A   1      32.157  29.496  27.133  1.00  0.00     0.002 C 
BRANCH  25  26
ATOM     26  C   UNL A   1      31.598  30.476  26.095  1.00  0.00     0.002 C 
BRANCH  26  27
ATOM     27  C   UNL A   1      31.430  31.915  26.590  1.00  0.00     0.021 C 
BRANCH  27  28
ATOM     28  C   UNL A   1      32.665  32.500  27.269  1.00  0.00     0.116 C 
BRANCH  28  29
ATOM     29  N   UNL A   1      32.466  33.887  27.661  1.00  0.00    -0.352 N 
ATOM     30  C   UNL A   1      33.140  34.636  28.590  1.00  0.00     0.251 C 
ATOM     31  H   UNL A   1      31.740  34.356  27.191  1.00  0.00     0.163 HD
ATOM     32  O   UNL A   1      32.696  35.729  28.940  1.00  0.00    -0.269 OA
BRANCH  30  33
ATOM     33  C   UNL A   1      34.388  34.124  29.191  1.00  0.00     0.039 A 
ATOM     34  C   UNL A   1      34.313  33.384  30.374  1.00  0.00     0.014 A 
ATOM     35  C   UNL A   1      35.628  34.372  28.595  1.00  0.00     0.014 A 
ATOM     36  C   UNL A   1      35.472  32.828  30.916  1.00  0.00     0.010 A 
ATOM     37  C   UNL A   1      36.775  33.762  29.101  1.00  0.00     0.010 A 
ATOM     38  C   UNL A   1      36.706  32.974  30.259  1.00  0.00    -0.014 A 
BRANCH  38  39
ATOM     39  C   UNL A   1      37.920  32.269  30.747  1.00  0.00     0.031 A 
ATOM     40  C   UNL A   1      38.735  32.839  31.875  1.00  0.00     0.074 A 
ATOM     41  C   UNL A   1      38.324  31.147  30.119  1.00  0.00     0.049 A 
ATOM     42  N   UNL A   1      39.856  32.394  32.386  1.00  0.00    -0.248 NA
ATOM     43  C   UNL A   1      38.242  34.077  32.496  1.00  0.00     0.031 C 
ATOM     44  C   UNL A   1      37.647  30.523  28.979  1.00  0.00     0.029 A 
ATOM     45  N   UNL A   1      39.410  30.337  30.341  1.00  0.00    -0.354 N 
ATOM     46  C   UNL A   1      40.207  33.302  33.377  1.00  0.00     0.074 A 
ATOM     47  C   UNL A   1      39.203  34.343  33.371  1.00  0.00     0.031 C 
ATOM     48  C   UNL A   1      38.323  29.423  28.614  1.00  0.00     0.029 A 
ATOM     49  C   UNL A   1      39.501  29.284  29.462  1.00  0.00     0.049 A 
ATOM     50  H   UNL A   1      40.062  30.494  31.062  1.00  0.00     0.167 HD
ATOM     51  C   UNL A   1      41.261  33.258  34.226  1.00  0.00     0.037 A 
ATOM     52  C   UNL A   1      40.438  28.325  29.340  1.00  0.00     0.037 A 
ATOM     53  C   UNL A   1      42.243  32.205  34.250  1.00  0.00     0.049 A 
ATOM     54  C   UNL A   1      41.604  28.313  30.291  1.00  0.00     0.074 A 
ATOM     55  C   UNL A   1      43.300  32.035  35.126  1.00  0.00     0.029 A 
ATOM     56  N   UNL A   1      42.294  31.151  33.352  1.00  0.00    -0.354 N 
ATOM     57  N   UNL A   1      41.872  29.128  31.280  1.00  0.00    -0.248 NA
ATOM     58  C   UNL A   1      42.596  27.244  30.109  1.00  0.00     0.031 C 
ATOM     59  C   UNL A   1      44.023  30.907  34.727  1.00  0.00     0.029 A 
ATOM     60  C   UNL A   1      43.386  30.345  33.634  1.00  0.00     0.049 A 
ATOM     61  H   UNL A   1      41.651  30.997  32.622  1.00  0.00     0.167 HD
ATOM     62  C   UNL A   1      43.046  28.657  31.853  1.00  0.00     0.074 A 
ATOM     63  C   UNL A   1      43.426  27.472  31.116  1.00  0.00     0.031 C 
ATOM     64  C   UNL A   1      43.750  29.164  32.895  1.00  0.00     0.037 A 
BRANCH  51  65
ATOM     65  C   UNL A   1      41.416  34.377  35.214  1.00  0.00     0.057 A 
ATOM     66  C   UNL A   1      42.131  35.541  34.905  1.00  0.00     0.134 A 
ATOM     67  C   UNL A   1      40.768  34.326  36.456  1.00  0.00     0.134 A 
ATOM     68  F   UNL A   1      42.780  35.650  33.737  1.00  0.00    -0.206 F 
ATOM     69  C   UNL A   1      42.202  36.612  35.798  1.00  0.00     0.040 A 
ATOM     70  C   UNL A   1      40.812  35.400  37.346  1.00  0.00     0.040 A 
ATOM     71  F   UNL A   1      40.060  33.244  36.810  1.00  0.00    -0.206 F 
ATOM     72  C   UNL A   1      41.531  36.548  37.018  1.00  0.00     0.006 A 
ENDBRANCH  51  65
BRANCH  52  73
ATOM     73  C   UNL A   1      40.328  27.295  28.273  1.00  0.00     0.057 A 
ATOM     74  C   UNL A   1      39.605  26.114  28.478  1.00  0.00     0.134 A 
ATOM     75  C   UNL A   1      40.978  27.447  27.042  1.00  0.00     0.134 A 
ATOM     76  F   UNL A   1      38.976  25.900  29.643  1.00  0.00    -0.206 F 
ATOM     77  C   UNL A   1      39.561  25.107  27.512  1.00  0.00     0.040 A 
ATOM     78  C   UNL A   1      40.918  26.461  26.057  1.00  0.00     0.040 A 
ATOM     79  F   UNL A   1      41.682  28.558  26.779  1.00  0.00    -0.206 F 
ATOM     80  C   UNL A   1      40.218  25.280  26.296  1.00  0.00     0.006 A 
ENDBRANCH  52  73
BRANCH  64  81
ATOM     81  C   UNL A   1      44.986  28.423  33.313  1.00  0.00     0.057 A 
ATOM     82  C   UNL A   1      46.250  28.752  32.808  1.00  0.00     0.134 A 
ATOM     83  C   UNL A   1      44.914  27.391  34.258  1.00  0.00     0.134 A 
ATOM     84  F   UNL A   1      46.385  29.721  31.890  1.00  0.00    -0.206 F 
ATOM     85  C   UNL A   1      47.397  28.064  33.208  1.00  0.00     0.040 A 
ATOM     86  C   UNL A   1      46.057  26.716  34.688  1.00  0.00     0.040 A 
ATOM     87  F   UNL A   1      43.735  27.033  34.788  1.00  0.00    -0.206 F 
ATOM     88  C   UNL A   1      47.302  27.047  34.157  1.00  0.00     0.006 A 
ENDBRANCH  64  81
ENDBRANCH  38  39
ENDBRANCH  30  33
ENDBRANCH  28  29
ENDBRANCH  27  28
ENDBRANCH  26  27
ENDBRANCH  25  26
ENDBRANCH   1  25
TORSDOF 18
ENDMDL
MODEL 2
REMARK VINA RESULT:     -10.8      3.399      4.722
REMARK SMILES C[C@H](C(=O)NCCCCCCNC(=O)c1ccc(-c2c3nc(c(-c4c(F)cccc4F)c4ccc([nH]4)c(-c4c(F)cccc4F)c4nc(c(-c5c(F)cccc5F)c5ccc2[nH]5)C=C4)C=C3)cc1)n1ccc(C(=O)N(C)Cc2cnn(C)c2)n1
REMARK SMILES IDX 7 1 6 2 5 3 3 4 4 5 2 7 1 8 69 9 70 10 84 11 71 12 72 13
REMARK SMILES IDX 73 14 74 15 75 16 76 17 77 18 78 19 79 20 83 21 80 22 81 23
REMARK SMILES IDX 82 24 8 25 9 26 10 27 11 28 12 29 13 30 14 32 15 33 16 34
REMARK SMILES IDX 68 35 17 36 67 37 18 38 19 39 20 40 61 41 21 42 66 43 60 44
REMARK SMILES IDX 62 45 22 46 65 47 59 48 58 49 23 51 49 52 32 53 48 54 33 55
REMARK SMILES IDX 36 56 47 57 63 58 34 59 35 60 46 62 64 63 37 64 24 65 25 66
REMARK SMILES IDX 30 67 26 68 27 69 29 70 31 71 28 72 50 73 51 74 56 75 52 76
REMARK SMILES IDX 53 77 55 78 57 79 54 80 38 81 39 82 44 83 40 84 41 85 43 86
REMARK SMILES IDX 45 87 42 88
REMARK H PARENT 5 6 12 31 62 50 36 61
REMARK Flexibility Score: inf
ROOT
ATOM      1  C   UNL A   1      30.838  28.107  24.664  1.00  0.00     0.021 C 
ENDROOT
BRANCH   1   2
ATOM      2  C   UNL A   1      30.755  27.912  23.150  1.00  0.00     0.116 C 
BRANCH   2   3
ATOM      3  N   UNL A   1      32.064  28.039  22.542  1.00  0.00    -0.354 N 
ATOM      4  C   UNL A   1      32.864  27.097  21.960  1.00  0.00     0.244 C 
ATOM      5  O   UNL A   1      33.980  27.472  21.592  1.00  0.00    -0.273 OA
ATOM      6  H   UNL A   1      32.436  28.951  22.549  1.00  0.00     0.163 HD
BRANCH   4   7
ATOM      7  C   UNL A   1      32.350  25.680  21.724  1.00  0.00     0.193 C 
ATOM      8  C   UNL A   1      32.693  25.230  20.299  1.00  0.00     0.044 C 
BRANCH   7   9
ATOM      9  N   UNL A   1      32.848  24.752  22.739  1.00  0.00    -0.260 N 
ATOM     10  C   UNL A   1      33.847  24.993  23.639  1.00  0.00     0.110 A 
ATOM     11  N   UNL A   1      32.217  23.583  22.969  1.00  0.00    -0.167 NA
ATOM     12  C   UNL A   1      33.906  23.885  24.445  1.00  0.00     0.056 A 
ATOM     13  C   UNL A   1      32.855  23.028  24.012  1.00  0.00     0.150 A 
BRANCH  13  14
ATOM     14  C   UNL A   1      32.519  21.748  24.673  1.00  0.00     0.274 C 
ATOM     15  O   UNL A   1      31.647  21.767  25.549  1.00  0.00    -0.267 OA
BRANCH  14  16
ATOM     16  N   UNL A   1      33.164  20.542  24.361  1.00  0.00    -0.336 N 
ATOM     17  C   UNL A   1      34.452  20.070  24.852  1.00  0.00     0.147 C 
BRANCH  16  18
ATOM     18  C   UNL A   1      32.500  19.670  23.399  1.00  0.00     0.158 C 
BRANCH  18  19
ATOM     19  C   UNL A   1      32.785  18.232  23.687  1.00  0.00     0.009 A 
ATOM     20  C   UNL A   1      33.625  17.343  22.971  1.00  0.00     0.140 A 
ATOM     21  C   UNL A   1      32.353  17.472  24.759  1.00  0.00     0.113 A 
ATOM     22  N   UNL A   1      33.712  16.137  23.537  1.00  0.00    -0.181 NA
ATOM     23  N   UNL A   1      32.950  16.252  24.636  1.00  0.00    -0.275 N 
ATOM     24  C   UNL A   1      32.885  15.147  25.561  1.00  0.00     0.173 C 
ENDBRANCH  18  19
ENDBRANCH  16  18
ENDBRANCH  14  16
ENDBRANCH  13  14
ENDBRANCH   7   9
ENDBRANCH   4   7
ENDBRANCH   2   3
ENDBRANCH   1   2
BRANCH   1  25
ATOM     25  C   UNL A   1      31.013  26.800  25.447  1.00  0.00     0.002 C 
BRANCH  25  26
ATOM     26  C   UNL A   1      32.157  26.804  26.467  1.00  0.00     0.002 C 
BRANCH  26  27
ATOM     27  C   UNL A   1      32.316  28.107  27.255  1.00  0.00     0.021 C 
BRANCH  27  28
ATOM     28  C   UNL A   1      33.708  28.727  27.180  1.00  0.00     0.116 C 
BRANCH  28  29
ATOM     29  N   UNL A   1      33.723  30.096  27.672  1.00  0.00    -0.352 N 
ATOM     30  C   UNL A   1      34.692  30.759  28.380  1.00  0.00     0.251 C 
ATOM     31  H   UNL A   1      32.917  30.624  27.468  1.00  0.00     0.163 HD
ATOM     32  O   UNL A   1      34.443  31.849  28.895  1.00  0.00    -0.269 OA
BRANCH  30  33
ATOM     33  C   UNL A   1      36.030  30.158  28.546  1.00  0.00     0.039 A 
ATOM     34  C   UNL A   1      36.930  30.209  27.479  1.00  0.00     0.014 A 
ATOM     35  C   UNL A   1      36.399  29.543  29.747  1.00  0.00     0.014 A 
ATOM     36  C   UNL A   1      38.225  29.713  27.641  1.00  0.00     0.010 A 
ATOM     37  C   UNL A   1      37.710  29.109  29.929  1.00  0.00     0.010 A 
ATOM     38  C   UNL A   1      38.639  29.201  28.882  1.00  0.00    -0.014 A 
BRANCH  38  39
ATOM     39  C   UNL A   1      40.053  28.802  29.111  1.00  0.00     0.031 A 
ATOM     40  C   UNL A   1      41.035  29.769  29.711  1.00  0.00     0.074 A 
ATOM     41  C   UNL A   1      40.463  27.583  28.707  1.00  0.00     0.049 A 
ATOM     42  N   UNL A   1      42.317  29.614  29.923  1.00  0.00    -0.248 NA
ATOM     43  C   UNL A   1      40.516  31.087  30.108  1.00  0.00     0.031 C 
ATOM     44  C   UNL A   1      39.617  26.574  28.064  1.00  0.00     0.029 A 
ATOM     45  N   UNL A   1      41.699  26.989  28.765  1.00  0.00    -0.354 N 
ATOM     46  C   UNL A   1      42.760  30.814  30.464  1.00  0.00     0.074 A 
ATOM     47  C   UNL A   1      41.620  31.702  30.512  1.00  0.00     0.031 C 
ATOM     48  C   UNL A   1      40.355  25.483  27.802  1.00  0.00     0.029 A 
ATOM     49  C   UNL A   1      41.731  25.727  28.219  1.00  0.00     0.049 A 
ATOM     50  H   UNL A   1      42.489  27.423  29.162  1.00  0.00     0.167 HD
ATOM     51  C   UNL A   1      44.002  31.137  30.897  1.00  0.00     0.037 A 
ATOM     52  C   UNL A   1      42.757  24.871  28.054  1.00  0.00     0.037 A 
ATOM     53  C   UNL A   1      45.129  30.242  30.874  1.00  0.00     0.049 A 
ATOM     54  C   UNL A   1      44.127  25.266  28.534  1.00  0.00     0.074 A 
ATOM     55  C   UNL A   1      46.406  30.453  31.365  1.00  0.00     0.029 A 
ATOM     56  N   UNL A   1      45.119  28.969  30.324  1.00  0.00    -0.354 N 
ATOM     57  N   UNL A   1      44.509  26.371  29.125  1.00  0.00    -0.248 NA
ATOM     58  C   UNL A   1      45.208  24.292  28.327  1.00  0.00     0.031 C 
ATOM     59  C   UNL A   1      47.183  29.331  31.064  1.00  0.00     0.029 A 
ATOM     60  C   UNL A   1      46.377  28.399  30.435  1.00  0.00     0.049 A 
ATOM     61  H   UNL A   1      44.335  28.535  29.917  1.00  0.00     0.167 HD
ATOM     62  C   UNL A   1      45.864  26.215  29.382  1.00  0.00     0.074 A 
ATOM     63  C   UNL A   1      46.234  24.901  28.904  1.00  0.00     0.031 C 
ATOM     64  C   UNL A   1      46.729  27.086  29.959  1.00  0.00     0.037 A 
BRANCH  51  65
ATOM     65  C   UNL A   1      44.221  32.518  31.443  1.00  0.00     0.057 A 
ATOM     66  C   UNL A   1      44.584  33.589  30.618  1.00  0.00     0.134 A 
ATOM     67  C   UNL A   1      43.977  32.796  32.795  1.00  0.00     0.134 A 
ATOM     68  F   UNL A   1      44.839  33.389  29.316  1.00  0.00    -0.206 F 
ATOM     69  C   UNL A   1      44.705  34.887  31.118  1.00  0.00     0.040 A 
ATOM     70  C   UNL A   1      44.072  34.092  33.301  1.00  0.00     0.040 A 
ATOM     71  F   UNL A   1      43.618  31.816  33.637  1.00  0.00    -0.206 F 
ATOM     72  C   UNL A   1      44.437  35.143  32.462  1.00  0.00     0.006 A 
ENDBRANCH  51  65
BRANCH  52  73
ATOM     73  C   UNL A   1      42.541  23.554  27.398  1.00  0.00     0.057 A 
ATOM     74  C   UNL A   1      42.232  22.413  28.148  1.00  0.00     0.134 A 
ATOM     75  C   UNL A   1      42.683  23.397  26.014  1.00  0.00     0.134 A 
ATOM     76  F   UNL A   1      42.103  22.495  29.480  1.00  0.00    -0.206 F 
ATOM     77  C   UNL A   1      42.105  21.158  27.550  1.00  0.00     0.040 A 
ATOM     78  C   UNL A   1      42.529  22.154  25.400  1.00  0.00     0.040 A 
ATOM     79  F   UNL A   1      42.970  24.452  25.237  1.00  0.00    -0.206 F 
ATOM     80  C   UNL A   1      42.252  21.026  26.171  1.00  0.00     0.006 A 
ENDBRANCH  52  73
BRANCH  64  81
ATOM     81  C   UNL A   1      48.149  26.632  30.127  1.00  0.00     0.057 A 
ATOM     82  C   UNL A   1      49.139  26.943  29.187  1.00  0.00     0.134 A 
ATOM     83  C   UNL A   1      48.537  25.905  31.260  1.00  0.00     0.134 A 
ATOM     84  F   UNL A   1      48.831  27.624  28.073  1.00  0.00    -0.206 F 
ATOM     85  C   UNL A   1      50.461  26.524  29.354  1.00  0.00     0.040 A 
ATOM     86  C   UNL A   1      49.861  25.507  31.453  1.00  0.00     0.040 A 
ATOM     87  F   UNL A   1      47.639  25.583  32.203  1.00  0.00    -0.206 F 
ATOM     88  C   UNL A   1      50.825  25.811  30.495  1.00  0.00     0.006 A 
ENDBRANCH  64  81
ENDBRANCH  38  39
ENDBRANCH  30  33
ENDBRANCH  28  29
ENDBRANCH  27  28
ENDBRANCH  26  27
ENDBRANCH  25  26
ENDBRANCH   1  25
TORSDOF 18
ENDMDL
MODEL 3
REMARK VINA RESULT:     -10.8      1.250      1.971
REMARK SMILES C[C@H](C(=O)NCCCCCCNC(=O)c1ccc(-c2c3nc(c(-c4c(F)cccc4F)c4ccc([nH]4)c(-c4c(F)cccc4F)c4nc(c(-c5c(F)cccc5F)c5ccc2[nH]5)C=C4)C=C3)cc1)n1ccc(C(=O)N(C)Cc2cnn(C)c2)n1
REMARK SMILES IDX 7 1 6 2 5 3 3 4 4 5 2 7 1 8 69 9 70 10 84 11 71 12 72 13
REMARK SMILES IDX 73 14 74 15 75 16 76 17 77 18 78 19 79 20 83 21 80 22 81 23
REMARK SMILES IDX 82 24 8 25 9 26 10 27 11 28 12 29 13 30 14 32 15 33 16 34
REMARK SMILES IDX 68 35 17 36 67 37 18 38 19 39 20 40 61 41 21 42 66 43 60 44
REMARK SMILES IDX 62 45 22 46 65 47 59 48 58 49 23 51 49 52 32 53 48 54 33 55
REMARK SMILES IDX 36 56 47 57 63 58 34 59 35 60 46 62 64 63 37 64 24 65 25 66
REMARK SMILES IDX 30 67 26 68 27 69 29 70 31 71 28 72 50 73 51 74 56 75 52 76
REMARK SMILES IDX 53 77 55 78 57 79 54 80 38 81 39 82 44 83 40 84 41 85 43 86
REMARK SMILES IDX 45 87 42 88
REMARK H PARENT 5 6 12 31 62 50 36 61
REMARK Flexibility Score: inf
ROOT
ATOM      1  C   UNL A   1      32.103  28.600  27.374  1.00  0.00     0.021 C 
ENDROOT
BRANCH   1   2
ATOM      2  C   UNL A   1      32.117  27.525  26.287  1.00  0.00     0.116 C 
BRANCH   2   3
ATOM      3  N   UNL A   1      31.305  26.389  26.675  1.00  0.00    -0.354 N 
ATOM      4  C   UNL A   1      30.454  25.616  25.936  1.00  0.00     0.244 C 
ATOM      5  O   UNL A   1      29.819  24.754  26.548  1.00  0.00    -0.273 OA
ATOM      6  H   UNL A   1      31.377  26.134  27.623  1.00  0.00     0.163 HD
BRANCH   4   7
ATOM      7  C   UNL A   1      30.370  25.785  24.421  1.00  0.00     0.193 C 
ATOM      8  C   UNL A   1      29.885  27.199  24.080  1.00  0.00     0.044 C 
BRANCH   7   9
ATOM      9  N   UNL A   1      31.639  25.458  23.773  1.00  0.00    -0.260 N 
ATOM     10  C   UNL A   1      32.262  26.181  22.794  1.00  0.00     0.110 A 
ATOM     11  N   UNL A   1      32.401  24.444  24.230  1.00  0.00    -0.167 NA
ATOM     12  C   UNL A   1      33.457  25.551  22.562  1.00  0.00     0.056 A 
ATOM     13  C   UNL A   1      33.524  24.478  23.495  1.00  0.00     0.150 A 
BRANCH  13  14
ATOM     14  C   UNL A   1      34.698  23.587  23.632  1.00  0.00     0.274 C 
ATOM     15  O   UNL A   1      35.412  23.422  22.637  1.00  0.00    -0.267 OA
BRANCH  14  16
ATOM     16  N   UNL A   1      35.004  22.916  24.826  1.00  0.00    -0.336 N 
ATOM     17  C   UNL A   1      35.007  23.462  26.176  1.00  0.00     0.147 C 
BRANCH  16  18
ATOM     18  C   UNL A   1      35.416  21.522  24.710  1.00  0.00     0.158 C 
BRANCH  18  19
ATOM     19  C   UNL A   1      34.252  20.600  24.872  1.00  0.00     0.009 A 
ATOM     20  C   UNL A   1      32.895  20.933  25.106  1.00  0.00     0.140 A 
ATOM     21  C   UNL A   1      34.229  19.222  24.751  1.00  0.00     0.113 A 
ATOM     22  N   UNL A   1      32.093  19.866  25.133  1.00  0.00    -0.181 NA
ATOM     23  N   UNL A   1      32.926  18.843  24.889  1.00  0.00    -0.275 N 
ATOM     24  C   UNL A   1      32.381  17.514  24.748  1.00  0.00     0.173 C 
ENDBRANCH  18  19
ENDBRANCH  16  18
ENDBRANCH  14  16
ENDBRANCH  13  14
ENDBRANCH   7   9
ENDBRANCH   4   7
ENDBRANCH   2   3
ENDBRANCH   1   2
BRANCH   1  25
ATOM     25  C   UNL A   1      32.564  29.979  26.887  1.00  0.00     0.002 C 
BRANCH  25  26
ATOM     26  C   UNL A   1      31.510  30.778  26.113  1.00  0.00     0.002 C 
BRANCH  26  27
ATOM     27  C   UNL A   1      31.367  32.242  26.539  1.00  0.00     0.021 C 
BRANCH  27  28
ATOM     28  C   UNL A   1      32.558  32.795  27.317  1.00  0.00     0.116 C 
BRANCH  28  29
ATOM     29  N   UNL A   1      32.369  34.190  27.685  1.00  0.00    -0.352 N 
ATOM     30  C   UNL A   1      33.038  34.947  28.611  1.00  0.00     0.251 C 
ATOM     31  H   UNL A   1      31.654  34.659  27.196  1.00  0.00     0.163 HD
ATOM     32  O   UNL A   1      32.601  36.050  28.938  1.00  0.00    -0.269 OA
BRANCH  30  33
ATOM     33  C   UNL A   1      34.271  34.431  29.238  1.00  0.00     0.039 A 
ATOM     34  C   UNL A   1      34.187  33.824  30.494  1.00  0.00     0.014 A 
ATOM     35  C   UNL A   1      35.507  34.543  28.595  1.00  0.00     0.014 A 
ATOM     36  C   UNL A   1      35.327  33.264  31.070  1.00  0.00     0.010 A 
ATOM     37  C   UNL A   1      36.631  33.925  29.139  1.00  0.00     0.010 A 
ATOM     38  C   UNL A   1      36.549  33.269  30.376  1.00  0.00    -0.014 A 
BRANCH  38  39
ATOM     39  C   UNL A   1      37.736  32.552  30.913  1.00  0.00     0.031 A 
ATOM     40  C   UNL A   1      38.492  33.096  32.092  1.00  0.00     0.074 A 
ATOM     41  C   UNL A   1      38.171  31.442  30.283  1.00  0.00     0.049 A 
ATOM     42  N   UNL A   1      39.583  32.639  32.652  1.00  0.00    -0.248 NA
ATOM     43  C   UNL A   1      37.968  34.322  32.713  1.00  0.00     0.031 C 
ATOM     44  C   UNL A   1      37.553  30.843  29.097  1.00  0.00     0.029 A 
ATOM     45  N   UNL A   1      39.243  30.625  30.544  1.00  0.00    -0.354 N 
ATOM     46  C   UNL A   1      39.883  33.524  33.679  1.00  0.00     0.074 A 
ATOM     47  C   UNL A   1      38.882  34.568  33.642  1.00  0.00     0.031 C 
ATOM     48  C   UNL A   1      38.247  29.749  28.744  1.00  0.00     0.029 A 
ATOM     49  C   UNL A   1      39.379  29.590  29.649  1.00  0.00     0.049 A 
ATOM     50  H   UNL A   1      39.856  30.766  31.302  1.00  0.00     0.167 HD
ATOM     51  C   UNL A   1      40.891  33.461  34.581  1.00  0.00     0.037 A 
ATOM     52  C   UNL A   1      40.320  28.632  29.556  1.00  0.00     0.037 A 
ATOM     53  C   UNL A   1      41.869  32.406  34.634  1.00  0.00     0.049 A 
ATOM     54  C   UNL A   1      41.435  28.598  30.566  1.00  0.00     0.074 A 
ATOM     55  C   UNL A   1      42.879  32.215  35.560  1.00  0.00     0.029 A 
ATOM     56  N   UNL A   1      41.967  31.370  33.718  1.00  0.00    -0.354 N 
ATOM     57  N   UNL A   1      41.651  29.392  31.585  1.00  0.00    -0.248 NA
ATOM     58  C   UNL A   1      42.434  27.531  30.414  1.00  0.00     0.031 C 
ATOM     59  C   UNL A   1      43.622  31.095  35.176  1.00  0.00     0.029 A 
ATOM     60  C   UNL A   1      43.041  30.557  34.040  1.00  0.00     0.049 A 
ATOM     61  H   UNL A   1      41.363  31.233  32.953  1.00  0.00     0.167 HD
ATOM     62  C   UNL A   1      42.793  28.907  32.209  1.00  0.00     0.074 A 
ATOM     63  C   UNL A   1      43.211  27.737  31.468  1.00  0.00     0.031 C 
ATOM     64  C   UNL A   1      43.442  29.391  33.296  1.00  0.00     0.037 A 
BRANCH  51  65
ATOM     65  C   UNL A   1      40.996  34.559  35.599  1.00  0.00     0.057 A 
ATOM     66  C   UNL A   1      40.295  34.511  36.810  1.00  0.00     0.134 A 
ATOM     67  C   UNL A   1      41.877  35.632  35.402  1.00  0.00     0.134 A 
ATOM     68  F   UNL A   1      39.432  33.516  37.058  1.00  0.00    -0.206 F 
ATOM     69  C   UNL A   1      40.461  35.495  37.788  1.00  0.00     0.040 A 
ATOM     70  C   UNL A   1      42.068  36.607  36.381  1.00  0.00     0.040 A 
ATOM     71  F   UNL A   1      42.584  35.732  34.267  1.00  0.00    -0.206 F 
ATOM     72  C   UNL A   1      41.359  36.541  37.579  1.00  0.00     0.006 A 
ENDBRANCH  51  65
BRANCH  52  73
ATOM     73  C   UNL A   1      40.265  27.625  28.464  1.00  0.00     0.057 A 
ATOM     74  C   UNL A   1      39.593  26.409  28.633  1.00  0.00     0.134 A 
ATOM     75  C   UNL A   1      40.919  27.836  27.243  1.00  0.00     0.134 A 
ATOM     76  F   UNL A   1      38.964  26.139  29.786  1.00  0.00    -0.206 F 
ATOM     77  C   UNL A   1      39.602  25.424  27.643  1.00  0.00     0.040 A 
ATOM     78  C   UNL A   1      40.910  26.873  26.234  1.00  0.00     0.040 A 
ATOM     79  F   UNL A   1      41.574  28.983  27.014  1.00  0.00    -0.206 F 
ATOM     80  C   UNL A   1      40.261  25.657  26.437  1.00  0.00     0.006 A 
ENDBRANCH  52  73
BRANCH  64  81
ATOM     81  C   UNL A   1      44.654  28.639  33.763  1.00  0.00     0.057 A 
ATOM     82  C   UNL A   1      44.556  27.562  34.653  1.00  0.00     0.134 A 
ATOM     83  C   UNL A   1      45.929  28.975  33.290  1.00  0.00     0.134 A 
ATOM     84  F   UNL A   1      43.366  27.198  35.153  1.00  0.00    -0.206 F 
ATOM     85  C   UNL A   1      45.687  26.861  35.076  1.00  0.00     0.040 A 
ATOM     86  C   UNL A   1      47.064  28.263  33.683  1.00  0.00     0.040 A 
ATOM     87  F   UNL A   1      46.091  29.990  32.429  1.00  0.00    -0.206 F 
ATOM     88  C   UNL A   1      46.945  27.207  34.584  1.00  0.00     0.006 A 
ENDBRANCH  64  81
ENDBRANCH  38  39
ENDBRANCH  30  33
ENDBRANCH  28  29
ENDBRANCH  27  28
ENDBRANCH  26  27
ENDBRANCH  25  26
ENDBRANCH   1  25
TORSDOF 18
ENDMDL
