MODEL 1
REMARK VINA RESULT:     -11.0      0.000      0.000
REMARK SMILES COCCCN1C(=O)CC[C@@H](C(=O)NCCCCCCNC(=O)c2ccc(-c3c4nc(c(-c5c(F)cccc5F)c5ccc([nH]5)c(-c5c(F)cccc5F)c5nc(c(-c6c(F)cccc6F)c6ccc3[nH]6)C=C5)C=C4)cc2)[C@@H]1c1ccc(F)cc1
REMARK SMILES IDX 16 1 15 2 14 3 12 4 13 5 11 7 6 8 7 9 78 10 8 11 9 12 10 13
REMARK SMILES IDX 5 14 4 15 3 16 2 17 1 18 79 19 80 20 85 21 81 22 84 23 82 24
REMARK SMILES IDX 83 25 17 26 18 27 19 28 20 29 21 30 22 31 23 33 24 34 25 35
REMARK SMILES IDX 77 36 26 37 76 38 27 39 28 40 29 41 70 42 30 43 75 44 69 45
REMARK SMILES IDX 71 46 31 47 74 48 68 49 67 50 32 52 58 53 41 54 57 55 42 56
REMARK SMILES IDX 45 57 56 58 72 59 43 60 44 61 55 63 73 64 46 65 33 66 34 67
REMARK SMILES IDX 39 68 35 69 36 70 38 71 40 72 37 73 59 74 60 75 65 76 61 77
REMARK SMILES IDX 62 78 64 79 66 80 63 81 47 82 48 83 53 84 49 85 50 86 52 87
REMARK SMILES IDX 54 88 51 89
REMARK H PARENT 14 6 21 32 71 51 45 62
REMARK Flexibility Score: inf
ROOT
ATOM      1  C   UNL A   1      37.514  23.735  26.133  1.00  0.00     0.021 C 
ENDROOT
BRANCH   1   2
ATOM      2  C   UNL A   1      36.020  23.437  26.208  1.00  0.00     0.116 C 
BRANCH   2   3
ATOM      3  N   UNL A   1      35.239  24.428  25.496  1.00  0.00    -0.356 N 
ATOM      4  C   UNL A   1      34.512  24.318  24.350  1.00  0.00     0.225 C 
ATOM      5  O   UNL A   1      34.060  25.353  23.861  1.00  0.00    -0.275 OA
ATOM      6  H   UNL A   1      35.232  25.324  25.905  1.00  0.00     0.163 HD
BRANCH   4   7
ATOM      7  C   UNL A   1      34.273  22.942  23.734  1.00  0.00     0.106 C 
ATOM      8  N   UNL A   1      31.875  22.716  24.462  1.00  0.00    -0.335 N 
ATOM      9  C   UNL A   1      31.440  23.411  23.343  1.00  0.00     0.223 C 
ATOM     10  C   UNL A   1      33.241  22.165  24.565  1.00  0.00     0.128 C 
ATOM     11  O   UNL A   1      30.317  23.913  23.274  1.00  0.00    -0.275 OA
ATOM     12  C   UNL A   1      32.377  23.566  22.158  1.00  0.00     0.101 C 
ATOM     13  C   UNL A   1      33.794  23.033  22.289  1.00  0.00     0.026 C 
BRANCH   8  14
ATOM     14  C   UNL A   1      31.079  22.770  25.703  1.00  0.00     0.122 C 
BRANCH  14  15
ATOM     15  C   UNL A   1      31.577  23.639  26.871  1.00  0.00     0.050 C 
BRANCH  15  16
ATOM     16  C   UNL A   1      31.820  25.111  26.554  1.00  0.00     0.161 C 
BRANCH  16  17
ATOM     17  O   UNL A   1      30.641  25.905  26.425  1.00  0.00    -0.385 OA
ATOM     18  C   UNL A   1      30.604  26.769  25.304  1.00  0.00     0.194 C 
ENDBRANCH  16  17
ENDBRANCH  15  16
ENDBRANCH  14  15
ENDBRANCH   8  14
BRANCH  10  19
ATOM     19  C   UNL A   1      33.315  20.658  24.299  1.00  0.00    -0.024 A 
ATOM     20  C   UNL A   1      34.331  19.843  24.825  1.00  0.00     0.009 A 
ATOM     21  C   UNL A   1      32.336  20.050  23.487  1.00  0.00     0.009 A 
ATOM     22  C   UNL A   1      34.414  18.489  24.486  1.00  0.00     0.039 A 
ATOM     23  C   UNL A   1      32.400  18.691  23.174  1.00  0.00     0.039 A 
ATOM     24  C   UNL A   1      33.451  17.926  23.661  1.00  0.00     0.123 A 
ATOM     25  F   UNL A   1      33.534  16.632  23.329  1.00  0.00    -0.207 F 
ENDBRANCH  10  19
ENDBRANCH   4   7
ENDBRANCH   2   3
ENDBRANCH   1   2
BRANCH   1  26
ATOM     26  C   UNL A   1      38.382  22.543  25.718  1.00  0.00     0.002 C 
BRANCH  26  27
ATOM     27  C   UNL A   1      37.673  21.476  24.879  1.00  0.00     0.002 C 
BRANCH  27  28
ATOM     28  C   UNL A   1      38.281  20.073  24.953  1.00  0.00     0.021 C 
BRANCH  28  29
ATOM     29  C   UNL A   1      39.146  19.809  26.181  1.00  0.00     0.116 C 
BRANCH  29  30
ATOM     30  N   UNL A   1      40.382  19.123  25.853  1.00  0.00    -0.352 N 
ATOM     31  C   UNL A   1      41.669  19.592  25.876  1.00  0.00     0.251 C 
ATOM     32  H   UNL A   1      40.280  18.184  25.574  1.00  0.00     0.163 HD
ATOM     33  O   UNL A   1      42.579  18.902  25.412  1.00  0.00    -0.269 OA
BRANCH  31  34
ATOM     34  C   UNL A   1      41.976  20.926  26.436  1.00  0.00     0.039 A 
ATOM     35  C   UNL A   1      41.927  21.098  27.821  1.00  0.00     0.014 A 
ATOM     36  C   UNL A   1      42.263  22.015  25.608  1.00  0.00     0.014 A 
ATOM     37  C   UNL A   1      42.189  22.351  28.377  1.00  0.00     0.010 A 
ATOM     38  C   UNL A   1      42.600  23.247  26.166  1.00  0.00     0.010 A 
ATOM     39  C   UNL A   1      42.540  23.434  27.556  1.00  0.00    -0.014 A 
BRANCH  39  40
ATOM     40  C   UNL A   1      42.789  24.778  28.134  1.00  0.00     0.031 A 
ATOM     41  C   UNL A   1      44.179  25.171  28.557  1.00  0.00     0.074 A 
ATOM     42  C   UNL A   1      41.765  25.636  28.304  1.00  0.00     0.049 A 
ATOM     43  N   UNL A   1      44.597  26.292  29.091  1.00  0.00    -0.248 NA
ATOM     44  C   UNL A   1      45.235  24.162  28.382  1.00  0.00     0.031 C 
ATOM     45  C   UNL A   1      40.363  25.358  27.983  1.00  0.00     0.029 A 
ATOM     46  N   UNL A   1      41.746  26.919  28.791  1.00  0.00    -0.354 N 
ATOM     47  C   UNL A   1      45.955  26.114  29.328  1.00  0.00     0.074 A 
ATOM     48  C   UNL A   1      46.279  24.760  28.935  1.00  0.00     0.031 C 
ATOM     49  C   UNL A   1      39.627  26.448  28.255  1.00  0.00     0.029 A 
ATOM     50  C   UNL A   1      40.498  27.490  28.789  1.00  0.00     0.049 A 
ATOM     51  H   UNL A   1      42.552  27.385  29.112  1.00  0.00     0.167 HD
ATOM     52  C   UNL A   1      46.858  27.005  29.802  1.00  0.00     0.037 A 
ATOM     53  C   UNL A   1      40.104  28.721  29.167  1.00  0.00     0.037 A 
ATOM     54  C   UNL A   1      46.542  28.363  30.160  1.00  0.00     0.049 A 
ATOM     55  C   UNL A   1      41.130  29.703  29.661  1.00  0.00     0.074 A 
ATOM     56  C   UNL A   1      47.394  29.360  30.603  1.00  0.00     0.029 A 
ATOM     57  N   UNL A   1      45.272  28.915  30.111  1.00  0.00    -0.354 N 
ATOM     58  N   UNL A   1      42.421  29.541  29.820  1.00  0.00    -0.248 NA
ATOM     59  C   UNL A   1      40.644  31.045  30.011  1.00  0.00     0.031 C 
ATOM     60  C   UNL A   1      46.632  30.507  30.852  1.00  0.00     0.029 A 
ATOM     61  C   UNL A   1      45.314  30.237  30.524  1.00  0.00     0.049 A 
ATOM     62  H   UNL A   1      44.458  28.438  29.826  1.00  0.00     0.167 HD
ATOM     63  C   UNL A   1      42.907  30.767  30.256  1.00  0.00     0.074 A 
ATOM     64  C   UNL A   1      41.772  31.666  30.321  1.00  0.00     0.031 C 
ATOM     65  C   UNL A   1      44.177  31.119  30.573  1.00  0.00     0.037 A 
BRANCH  52  66
ATOM     66  C   UNL A   1      48.277  26.536  29.948  1.00  0.00     0.057 A 
ATOM     67  C   UNL A   1      48.718  25.866  31.098  1.00  0.00     0.134 A 
ATOM     68  C   UNL A   1      49.209  26.738  28.922  1.00  0.00     0.134 A 
ATOM     69  F   UNL A   1      47.880  25.654  32.124  1.00  0.00    -0.206 F 
ATOM     70  C   UNL A   1      50.042  25.444  31.234  1.00  0.00     0.040 A 
ATOM     71  C   UNL A   1      50.527  26.294  29.035  1.00  0.00     0.040 A 
ATOM     72  F   UNL A   1      48.853  27.367  27.792  1.00  0.00    -0.206 F 
ATOM     73  C   UNL A   1      50.949  25.652  30.199  1.00  0.00     0.006 A 
ENDBRANCH  52  66
BRANCH  53  74
ATOM     74  C   UNL A   1      38.677  29.114  29.049  1.00  0.00     0.057 A 
ATOM     75  C   UNL A   1      37.814  29.033  30.148  1.00  0.00     0.134 A 
ATOM     76  C   UNL A   1      38.139  29.562  27.837  1.00  0.00     0.134 A 
ATOM     77  F   UNL A   1      38.269  28.594  31.331  1.00  0.00    -0.206 F 
ATOM     78  C   UNL A   1      36.462  29.361  30.042  1.00  0.00     0.040 A 
ATOM     79  C   UNL A   1      36.793  29.916  27.722  1.00  0.00     0.040 A 
ATOM     80  F   UNL A   1      38.916  29.670  26.750  1.00  0.00    -0.206 F 
ATOM     81  C   UNL A   1      35.949  29.808  28.826  1.00  0.00     0.006 A 
ENDBRANCH  53  74
BRANCH  65  82
ATOM     82  C   UNL A   1      44.409  32.547  30.977  1.00  0.00     0.057 A 
ATOM     83  C   UNL A   1      44.359  32.957  32.315  1.00  0.00     0.134 A 
ATOM     84  C   UNL A   1      44.696  33.520  30.012  1.00  0.00     0.134 A 
ATOM     85  F   UNL A   1      44.076  32.076  33.286  1.00  0.00    -0.206 F 
ATOM     86  C   UNL A   1      44.554  34.291  32.676  1.00  0.00     0.040 A 
ATOM     87  C   UNL A   1      44.921  34.851  30.362  1.00  0.00     0.040 A 
ATOM     88  F   UNL A   1      44.769  33.192  28.713  1.00  0.00    -0.206 F 
ATOM     89  C   UNL A   1      44.841  35.241  31.697  1.00  0.00     0.006 A 
ENDBRANCH  65  82
ENDBRANCH  39  40
ENDBRANCH  31  34
ENDBRANCH  29  30
ENDBRANCH  28  29
ENDBRANCH  27  28
ENDBRANCH  26  27
ENDBRANCH   1  26
TORSDOF 18
ENDMDL
MODEL 2
REMARK VINA RESULT:     -10.4      2.528      3.549
REMARK SMILES COCCCN1C(=O)CC[C@@H](C(=O)NCCCCCCNC(=O)c2ccc(-c3c4nc(c(-c5c(F)cccc5F)c5ccc([nH]5)c(-c5c(F)cccc5F)c5nc(c(-c6c(F)cccc6F)c6ccc3[nH]6)C=C5)C=C4)cc2)[C@@H]1c1ccc(F)cc1
REMARK SMILES IDX 16 1 15 2 14 3 12 4 13 5 11 7 6 8 7 9 78 10 8 11 9 12 10 13
REMARK SMILES IDX 5 14 4 15 3 16 2 17 1 18 79 19 80 20 85 21 81 22 84 23 82 24
REMARK SMILES IDX 83 25 17 26 18 27 19 28 20 29 21 30 22 31 23 33 24 34 25 35
REMARK SMILES IDX 77 36 26 37 76 38 27 39 28 40 29 41 70 42 30 43 75 44 69 45
REMARK SMILES IDX 71 46 31 47 74 48 68 49 67 50 32 52 58 53 41 54 57 55 42 56
REMARK SMILES IDX 45 57 56 58 72 59 43 60 44 61 55 63 73 64 46 65 33 66 34 67
REMARK SMILES IDX 39 68 35 69 36 70 38 71 40 72 37 73 59 74 60 75 65 76 61 77
REMARK SMILES IDX 62 78 64 79 66 80 63 81 47 82 48 83 53 84 49 85 50 86 52 87
REMARK SMILES IDX 54 88 51 89
REMARK H PARENT 14 6 21 32 71 51 45 62
REMARK Flexibility Score: inf
ROOT
ATOM      1  C   UNL A   1      40.355  22.050  27.257  1.00  0.00     0.021 C 
ENDROOT
BRANCH   1   2
ATOM      2  C   UNL A   1      39.331  22.140  26.130  1.00  0.00     0.116 C 
BRANCH   2   3
ATOM      3  N   UNL A   1      38.156  22.886  26.531  1.00  0.00    -0.356 N 
ATOM      4  C   UNL A   1      36.865  22.785  26.112  1.00  0.00     0.225 C 
ATOM      5  O   UNL A   1      36.072  23.644  26.498  1.00  0.00    -0.275 OA
ATOM      6  H   UNL A   1      38.316  23.575  27.217  1.00  0.00     0.163 HD
BRANCH   4   7
ATOM      7  C   UNL A   1      36.449  21.626  25.210  1.00  0.00     0.106 C 
ATOM      8  N   UNL A   1      34.291  22.645  24.411  1.00  0.00    -0.335 N 
ATOM      9  C   UNL A   1      34.956  23.330  23.404  1.00  0.00     0.223 C 
ATOM     10  C   UNL A   1      34.917  21.530  25.149  1.00  0.00     0.128 C 
ATOM     11  O   UNL A   1      34.455  24.292  22.819  1.00  0.00    -0.275 OA
ATOM     12  C   UNL A   1      36.352  22.887  23.004  1.00  0.00     0.101 C 
ATOM     13  C   UNL A   1      37.003  21.766  23.797  1.00  0.00     0.026 C 
BRANCH   8  14
ATOM     14  C   UNL A   1      33.051  23.211  24.975  1.00  0.00     0.122 C 
BRANCH  14  15
ATOM     15  C   UNL A   1      32.674  22.877  26.429  1.00  0.00     0.050 C 
BRANCH  15  16
ATOM     16  C   UNL A   1      31.223  23.139  26.821  1.00  0.00     0.161 C 
BRANCH  16  17
ATOM     17  O   UNL A   1      30.916  24.497  27.132  1.00  0.00    -0.385 OA
ATOM     18  C   UNL A   1      30.286  25.233  26.100  1.00  0.00     0.194 C 
ENDBRANCH  16  17
ENDBRANCH  15  16
ENDBRANCH  14  15
ENDBRANCH   8  14
BRANCH  10  19
ATOM     19  C   UNL A   1      34.452  20.147  24.680  1.00  0.00    -0.024 A 
ATOM     20  C   UNL A   1      33.157  19.906  24.192  1.00  0.00     0.009 A 
ATOM     21  C   UNL A   1      35.346  19.059  24.744  1.00  0.00     0.009 A 
ATOM     22  C   UNL A   1      32.745  18.612  23.858  1.00  0.00     0.039 A 
ATOM     23  C   UNL A   1      34.945  17.773  24.379  1.00  0.00     0.039 A 
ATOM     24  C   UNL A   1      33.640  17.557  23.958  1.00  0.00     0.123 A 
ATOM     25  F   UNL A   1      33.243  16.317  23.647  1.00  0.00    -0.207 F 
ENDBRANCH  10  19
ENDBRANCH   4   7
ENDBRANCH   2   3
ENDBRANCH   1   2
BRANCH   1  26
ATOM     26  C   UNL A   1      41.664  21.350  26.876  1.00  0.00     0.002 C 
BRANCH  26  27
ATOM     27  C   UNL A   1      41.946  20.039  27.616  1.00  0.00     0.002 C 
BRANCH  27  28
ATOM     28  C   UNL A   1      42.652  18.960  26.792  1.00  0.00     0.021 C 
BRANCH  28  29
ATOM     29  C   UNL A   1      42.586  19.156  25.281  1.00  0.00     0.116 C 
BRANCH  29  30
ATOM     30  N   UNL A   1      43.824  18.789  24.618  1.00  0.00    -0.352 N 
ATOM     31  C   UNL A   1      44.914  19.565  24.322  1.00  0.00     0.251 C 
ATOM     32  H   UNL A   1      43.889  17.846  24.343  1.00  0.00     0.163 HD
ATOM     33  O   UNL A   1      45.813  19.108  23.613  1.00  0.00    -0.269 OA
BRANCH  31  34
ATOM     34  C   UNL A   1      45.015  20.950  24.829  1.00  0.00     0.039 A 
ATOM     35  C   UNL A   1      44.746  22.005  23.954  1.00  0.00     0.014 A 
ATOM     36  C   UNL A   1      45.417  21.219  26.141  1.00  0.00     0.014 A 
ATOM     37  C   UNL A   1      44.854  23.323  24.397  1.00  0.00     0.010 A 
ATOM     38  C   UNL A   1      45.451  22.532  26.605  1.00  0.00     0.010 A 
ATOM     39  C   UNL A   1      45.196  23.599  25.731  1.00  0.00    -0.014 A 
BRANCH  39  40
ATOM     40  C   UNL A   1      45.346  24.998  26.204  1.00  0.00     0.031 A 
ATOM     41  C   UNL A   1      46.691  25.672  26.148  1.00  0.00     0.074 A 
ATOM     42  C   UNL A   1      44.284  25.654  26.708  1.00  0.00     0.049 A 
ATOM     43  N   UNL A   1      47.027  26.881  26.523  1.00  0.00    -0.248 NA
ATOM     44  C   UNL A   1      47.811  24.873  25.627  1.00  0.00     0.031 C 
ATOM     45  C   UNL A   1      42.939  25.096  26.865  1.00  0.00     0.029 A 
ATOM     46  N   UNL A   1      44.169  26.936  27.183  1.00  0.00    -0.354 N 
ATOM     47  C   UNL A   1      48.396  26.979  26.297  1.00  0.00     0.074 A 
ATOM     48  C   UNL A   1      48.837  25.691  25.810  1.00  0.00     0.031 C 
ATOM     49  C   UNL A   1      42.129  26.040  27.372  1.00  0.00     0.029 A 
ATOM     50  C   UNL A   1      42.900  27.259  27.597  1.00  0.00     0.049 A 
ATOM     51  H   UNL A   1      44.926  27.565  27.224  1.00  0.00     0.167 HD
ATOM     52  C   UNL A   1      49.207  28.052  26.453  1.00  0.00     0.037 A 
ATOM     53  C   UNL A   1      42.414  28.413  28.092  1.00  0.00     0.037 A 
ATOM     54  C   UNL A   1      48.761  29.344  26.905  1.00  0.00     0.049 A 
ATOM     55  C   UNL A   1      43.328  29.599  28.228  1.00  0.00     0.074 A 
ATOM     56  C   UNL A   1      49.494  30.509  27.049  1.00  0.00     0.029 A 
ATOM     57  N   UNL A   1      47.461  29.641  27.282  1.00  0.00    -0.354 N 
ATOM     58  N   UNL A   1      44.606  29.695  27.950  1.00  0.00    -0.248 NA
ATOM     59  C   UNL A   1      42.725  30.842  28.727  1.00  0.00     0.031 C 
ATOM     60  C   UNL A   1      48.642  31.503  27.544  1.00  0.00     0.029 A 
ATOM     61  C   UNL A   1      47.371  30.968  27.666  1.00  0.00     0.049 A 
ATOM     62  H   UNL A   1      46.711  29.002  27.277  1.00  0.00     0.167 HD
ATOM     63  C   UNL A   1      44.952  31.015  28.211  1.00  0.00     0.074 A 
ATOM     64  C   UNL A   1      43.745  31.684  28.652  1.00  0.00     0.031 C 
ATOM     65  C   UNL A   1      46.159  31.620  28.094  1.00  0.00     0.037 A 
BRANCH  52  66
ATOM     66  C   UNL A   1      50.660  27.870  26.120  1.00  0.00     0.057 A 
ATOM     67  C   UNL A   1      51.611  27.567  27.104  1.00  0.00     0.134 A 
ATOM     68  C   UNL A   1      51.112  27.981  24.798  1.00  0.00     0.134 A 
ATOM     69  F   UNL A   1      51.247  27.463  28.391  1.00  0.00    -0.206 F 
ATOM     70  C   UNL A   1      52.963  27.413  26.792  1.00  0.00     0.040 A 
ATOM     71  C   UNL A   1      52.457  27.800  24.470  1.00  0.00     0.040 A 
ATOM     72  F   UNL A   1      50.255  28.264  23.806  1.00  0.00    -0.206 F 
ATOM     73  C   UNL A   1      53.388  27.522  25.470  1.00  0.00     0.006 A 
ENDBRANCH  52  66
BRANCH  53  74
ATOM     74  C   UNL A   1      40.978  28.519  28.454  1.00  0.00     0.057 A 
ATOM     75  C   UNL A   1      40.531  28.180  29.736  1.00  0.00     0.134 A 
ATOM     76  C   UNL A   1      40.020  28.945  27.527  1.00  0.00     0.134 A 
ATOM     77  F   UNL A   1      41.401  27.749  30.662  1.00  0.00    -0.206 F 
ATOM     78  C   UNL A   1      39.179  28.237  30.079  1.00  0.00     0.040 A 
ATOM     79  C   UNL A   1      38.667  29.030  27.863  1.00  0.00     0.040 A 
ATOM     80  F   UNL A   1      40.386  29.293  26.285  1.00  0.00    -0.206 F 
ATOM     81  C   UNL A   1      38.243  28.667  29.140  1.00  0.00     0.006 A 
ENDBRANCH  53  74
BRANCH  65  82
ATOM     82  C   UNL A   1      46.221  33.087  28.409  1.00  0.00     0.057 A 
ATOM     83  C   UNL A   1      45.999  34.065  27.432  1.00  0.00     0.134 A 
ATOM     84  C   UNL A   1      46.495  33.522  29.711  1.00  0.00     0.134 A 
ATOM     85  F   UNL A   1      45.744  33.714  26.162  1.00  0.00    -0.206 F 
ATOM     86  C   UNL A   1      46.081  35.426  27.731  1.00  0.00     0.040 A 
ATOM     87  C   UNL A   1      46.552  34.879  30.029  1.00  0.00     0.040 A 
ATOM     88  F   UNL A   1      46.707  32.637  30.696  1.00  0.00    -0.206 F 
ATOM     89  C   UNL A   1      46.354  35.835  29.035  1.00  0.00     0.006 A 
ENDBRANCH  65  82
ENDBRANCH  39  40
ENDBRANCH  31  34
ENDBRANCH  29  30
ENDBRANCH  28  29
ENDBRANCH  27  28
ENDBRANCH  26  27
ENDBRANCH   1  26
TORSDOF 18
ENDMDL
MODEL 3
REMARK VINA RESULT:     -10.2      1.249      1.878
REMARK SMILES COCCCN1C(=O)CC[C@@H](C(=O)NCCCCCCNC(=O)c2ccc(-c3c4nc(c(-c5c(F)cccc5F)c5ccc([nH]5)c(-c5c(F)cccc5F)c5nc(c(-c6c(F)cccc6F)c6ccc3[nH]6)C=C5)C=C4)cc2)[C@@H]1c1ccc(F)cc1
REMARK SMILES IDX 16 1 15 2 14 3 12 4 13 5 11 7 6 8 7 9 78 10 8 11 9 12 10 13
REMARK SMILES IDX 5 14 4 15 3 16 2 17 1 18 79 19 80 20 85 21 81 22 84 23 82 24
REMARK SMILES IDX 83 25 17 26 18 27 19 28 20 29 21 30 22 31 23 33 24 34 25 35
REMARK SMILES IDX 77 36 26 37 76 38 27 39 28 40 29 41 70 42 30 43 75 44 69 45
REMARK SMILES IDX 71 46 31 47 74 48 68 49 67 50 32 52 58 53 41 54 57 55 42 56
REMARK SMILES IDX 45 57 56 58 72 59 43 60 44 61 55 63 73 64 46 65 33 66 34 67
REMARK SMILES IDX 39 68 35 69 36 70 38 71 40 72 37 73 59 74 60 75 65 76 61 77
REMARK SMILES IDX 62 78 64 79 66 80 63 81 47 82 48 83 53 84 49 85 50 86 52 87
REMARK SMILES IDX 54 88 51 89
REMARK H PARENT 14 6 21 32 71 51 45 62
REMARK Flexibility Score: inf
ROOT
ATOM      1  C   UNL A   1      38.819  23.514  26.710  1.00  0.00     0.021 C 
ENDROOT
BRANCH   1   2
ATOM      2  C   UNL A   1      37.639  23.652  25.754  1.00  0.00     0.116 C 
BRANCH   2   3
ATOM      3  N   UNL A   1      36.377  23.701  26.464  1.00  0.00    -0.356 N 
ATOM      4  C   UNL A   1      35.231  22.992  26.272  1.00  0.00     0.225 C 
ATOM      5  O   UNL A   1      34.238  23.330  26.916  1.00  0.00    -0.275 OA
ATOM      6  H   UNL A   1      36.342  24.350  27.204  1.00  0.00     0.163 HD
BRANCH   4   7
ATOM      7  C   UNL A   1      35.221  21.816  25.299  1.00  0.00     0.106 C 
ATOM      8  N   UNL A   1      33.014  22.357  24.218  1.00  0.00    -0.335 N 
ATOM      9  C   UNL A   1      33.630  23.227  23.330  1.00  0.00     0.223 C 
ATOM     10  C   UNL A   1      33.776  21.378  25.017  1.00  0.00     0.128 C 
ATOM     11  O   UNL A   1      33.003  24.078  22.697  1.00  0.00    -0.275 OA
ATOM     12  C   UNL A   1      35.132  23.134  23.125  1.00  0.00     0.101 C 
ATOM     13  C   UNL A   1      35.913  22.152  23.982  1.00  0.00     0.026 C 
BRANCH   8  14
ATOM     14  C   UNL A   1      31.612  22.597  24.610  1.00  0.00     0.122 C 
BRANCH  14  15
ATOM     15  C   UNL A   1      31.271  22.748  26.103  1.00  0.00     0.050 C 
BRANCH  15  16
ATOM     16  C   UNL A   1      30.552  24.034  26.498  1.00  0.00     0.161 C 
BRANCH  16  17
ATOM     17  O   UNL A   1      31.403  25.155  26.731  1.00  0.00    -0.385 OA
ATOM     18  C   UNL A   1      30.950  26.388  26.203  1.00  0.00     0.194 C 
ENDBRANCH  16  17
ENDBRANCH  15  16
ENDBRANCH  14  15
ENDBRANCH   8  14
BRANCH  10  19
ATOM     19  C   UNL A   1      33.713  19.951  24.460  1.00  0.00    -0.024 A 
ATOM     20  C   UNL A   1      32.616  19.469  23.728  1.00  0.00     0.009 A 
ATOM     21  C   UNL A   1      34.790  19.071  24.693  1.00  0.00     0.009 A 
ATOM     22  C   UNL A   1      32.558  18.134  23.315  1.00  0.00     0.039 A 
ATOM     23  C   UNL A   1      34.747  17.747  24.252  1.00  0.00     0.039 A 
ATOM     24  C   UNL A   1      33.622  17.285  23.583  1.00  0.00     0.123 A 
ATOM     25  F   UNL A   1      33.564  16.005  23.196  1.00  0.00    -0.207 F 
ENDBRANCH  10  19
ENDBRANCH   4   7
ENDBRANCH   2   3
ENDBRANCH   1   2
BRANCH   1  26
ATOM     26  C   UNL A   1      39.596  22.200  26.579  1.00  0.00     0.002 C 
BRANCH  26  27
ATOM     27  C   UNL A   1      38.948  21.141  25.683  1.00  0.00     0.002 C 
BRANCH  27  28
ATOM     28  C   UNL A   1      39.579  19.748  25.752  1.00  0.00     0.021 C 
BRANCH  28  29
ATOM     29  C   UNL A   1      40.846  19.656  26.594  1.00  0.00     0.116 C 
BRANCH  29  30
ATOM     30  N   UNL A   1      42.033  19.427  25.791  1.00  0.00    -0.352 N 
ATOM     31  C   UNL A   1      43.033  20.300  25.449  1.00  0.00     0.251 C 
ATOM     32  H   UNL A   1      42.134  18.512  25.441  1.00  0.00     0.163 HD
ATOM     33  O   UNL A   1      43.884  19.960  24.625  1.00  0.00    -0.269 OA
BRANCH  31  34
ATOM     34  C   UNL A   1      43.090  21.652  26.045  1.00  0.00     0.039 A 
ATOM     35  C   UNL A   1      43.127  22.758  25.192  1.00  0.00     0.014 A 
ATOM     36  C   UNL A   1      43.156  21.837  27.428  1.00  0.00     0.014 A 
ATOM     37  C   UNL A   1      43.204  24.046  25.724  1.00  0.00     0.010 A 
ATOM     38  C   UNL A   1      43.155  23.124  27.962  1.00  0.00     0.010 A 
ATOM     39  C   UNL A   1      43.206  24.241  27.114  1.00  0.00    -0.014 A 
BRANCH  39  40
ATOM     40  C   UNL A   1      43.321  25.604  27.691  1.00  0.00     0.031 A 
ATOM     41  C   UNL A   1      44.678  26.195  27.963  1.00  0.00     0.074 A 
ATOM     42  C   UNL A   1      42.210  26.301  27.994  1.00  0.00     0.049 A 
ATOM     43  N   UNL A   1      44.987  27.362  28.472  1.00  0.00    -0.248 NA
ATOM     44  C   UNL A   1      45.843  25.353  27.648  1.00  0.00     0.031 C 
ATOM     45  C   UNL A   1      40.836  25.821  27.827  1.00  0.00     0.029 A 
ATOM     46  N   UNL A   1      42.060  27.564  28.509  1.00  0.00    -0.354 N 
ATOM     47  C   UNL A   1      46.375  27.385  28.551  1.00  0.00     0.074 A 
ATOM     48  C   UNL A   1      46.845  26.096  28.094  1.00  0.00     0.031 C 
ATOM     49  C   UNL A   1      39.985  26.789  28.204  1.00  0.00     0.029 A 
ATOM     50  C   UNL A   1      40.749  27.945  28.660  1.00  0.00     0.049 A 
ATOM     51  H   UNL A   1      42.820  28.142  28.748  1.00  0.00     0.167 HD
ATOM     52  C   UNL A   1      47.186  28.397  28.939  1.00  0.00     0.037 A 
ATOM     53  C   UNL A   1      40.227  29.102  29.107  1.00  0.00     0.037 A 
ATOM     54  C   UNL A   1      46.719  29.691  29.361  1.00  0.00     0.049 A 
ATOM     55  C   UNL A   1      41.148  30.222  29.505  1.00  0.00     0.074 A 
ATOM     56  C   UNL A   1      47.462  30.801  29.728  1.00  0.00     0.029 A 
ATOM     57  N   UNL A   1      45.384  30.051  29.468  1.00  0.00    -0.354 N 
ATOM     58  N   UNL A   1      42.459  30.251  29.513  1.00  0.00    -0.248 NA
ATOM     59  C   UNL A   1      40.516  31.476  29.937  1.00  0.00     0.031 C 
ATOM     60  C   UNL A   1      46.574  31.821  30.087  1.00  0.00     0.029 A 
ATOM     61  C   UNL A   1      45.281  31.362  29.903  1.00  0.00     0.049 A 
ATOM     62  H   UNL A   1      44.622  29.461  29.266  1.00  0.00     0.167 HD
ATOM     63  C   UNL A   1      42.807  31.533  29.920  1.00  0.00     0.074 A 
ATOM     64  C   UNL A   1      41.569  32.254  30.132  1.00  0.00     0.031 C 
ATOM     65  C   UNL A   1      44.040  32.067  30.099  1.00  0.00     0.037 A 
BRANCH  52  66
ATOM     66  C   UNL A   1      48.665  28.141  28.914  1.00  0.00     0.057 A 
ATOM     67  C   UNL A   1      49.348  27.645  30.034  1.00  0.00     0.134 A 
ATOM     68  C   UNL A   1      49.415  28.374  27.753  1.00  0.00     0.134 A 
ATOM     69  F   UNL A   1      48.693  27.416  31.182  1.00  0.00    -0.206 F 
ATOM     70  C   UNL A   1      50.726  27.422  30.010  1.00  0.00     0.040 A 
ATOM     71  C   UNL A   1      50.787  28.126  27.709  1.00  0.00     0.040 A 
ATOM     72  F   UNL A   1      48.824  28.843  26.644  1.00  0.00    -0.206 F 
ATOM     73  C   UNL A   1      51.449  27.657  28.843  1.00  0.00     0.006 A 
ENDBRANCH  52  66
BRANCH  53  74
ATOM     74  C   UNL A   1      38.753  29.281  29.160  1.00  0.00     0.057 A 
ATOM     75  C   UNL A   1      38.023  29.591  28.006  1.00  0.00     0.134 A 
ATOM     76  C   UNL A   1      38.044  29.162  30.360  1.00  0.00     0.134 A 
ATOM     77  F   UNL A   1      38.651  29.735  26.830  1.00  0.00    -0.206 F 
ATOM     78  C   UNL A   1      36.644  29.801  28.048  1.00  0.00     0.040 A 
ATOM     79  C   UNL A   1      36.661  29.346  30.412  1.00  0.00     0.040 A 
ATOM     80  F   UNL A   1      38.685  28.857  31.498  1.00  0.00    -0.206 F 
ATOM     81  C   UNL A   1      35.959  29.675  29.254  1.00  0.00     0.006 A 
ENDBRANCH  53  74
BRANCH  65  82
ATOM     82  C   UNL A   1      44.106  33.510  30.506  1.00  0.00     0.057 A 
ATOM     83  C   UNL A   1      44.127  33.902  31.851  1.00  0.00     0.134 A 
ATOM     84  C   UNL A   1      44.162  34.519  29.537  1.00  0.00     0.134 A 
ATOM     85  F   UNL A   1      44.063  32.985  32.828  1.00  0.00    -0.206 F 
ATOM     86  C   UNL A   1      44.165  35.248  32.217  1.00  0.00     0.040 A 
ATOM     87  C   UNL A   1      44.229  35.867  29.890  1.00  0.00     0.040 A 
ATOM     88  F   UNL A   1      44.157  34.212  28.231  1.00  0.00    -0.206 F 
ATOM     89  C   UNL A   1      44.222  36.235  31.234  1.00  0.00     0.006 A 
ENDBRANCH  65  82
ENDBRANCH  39  40
ENDBRANCH  31  34
ENDBRANCH  29  30
ENDBRANCH  28  29
ENDBRANCH  27  28
ENDBRANCH  26  27
ENDBRANCH   1  26
TORSDOF 18
ENDMDL
