MODEL 1
REMARK VINA RESULT:     -12.4      0.000      0.000
REMARK SMILES Cc1nc2cc(S(=O)(=O)N3CCC(C(=O)NCCCCCCNC(=O)c4ccc(-c5c6nc(c(-c7c(F)cccc7F)c7ccc([nH]7)c(-c7c(F)cccc7F)c7nc(c(-c8c(F)cccc8F)c8ccc5[nH]8)C=C7)C=C6)cc4)CC3)ccc2n1C1CCCC1
REMARK SMILES IDX 19 1 18 2 17 3 16 4 14 5 15 6 13 8 10 9 11 10 81 11 12 12
REMARK SMILES IDX 80 13 7 14 8 15 9 16 6 17 1 18 2 19 3 20 85 21 4 22 84 23
REMARK SMILES IDX 5 24 83 25 82 26 86 27 87 28 90 29 88 30 89 31 20 32 21 33
REMARK SMILES IDX 22 34 23 35 24 36 25 38 26 39 27 40 79 41 28 42 78 43 29 44
REMARK SMILES IDX 30 45 31 46 72 47 32 48 77 49 71 50 73 51 33 52 76 53 70 54
REMARK SMILES IDX 69 55 34 57 60 58 43 59 59 60 44 61 47 62 58 63 74 64 45 65
REMARK SMILES IDX 46 66 57 68 75 69 48 70 35 71 36 72 41 73 37 74 38 75 40 76
REMARK SMILES IDX 42 77 39 78 61 79 62 80 67 81 63 82 64 83 66 84 68 85 65 86
REMARK SMILES IDX 49 87 50 88 55 89 51 90 52 91 54 92 56 93 53 94
REMARK H PARENT 16 7 23 37 73 56 47 67
REMARK Flexibility Score: inf
ROOT
ATOM      1  C   UNL A   1      40.970  21.544  27.681  1.00  0.00     0.002 C 
ENDROOT
BRANCH   1   2
ATOM      2  C   UNL A   1      40.355  22.401  26.576  1.00  0.00     0.021 C 
BRANCH   2   3
ATOM      3  C   UNL A   1      38.842  22.253  26.476  1.00  0.00     0.116 C 
BRANCH   3   4
ATOM      4  N   UNL A   1      38.416  22.140  25.089  1.00  0.00    -0.356 N 
ATOM      5  C   UNL A   1      37.180  22.272  24.533  1.00  0.00     0.223 C 
ATOM      6  O   UNL A   1      37.052  22.081  23.323  1.00  0.00    -0.275 OA
ATOM      7  H   UNL A   1      39.138  21.937  24.451  1.00  0.00     0.163 HD
BRANCH   5   8
ATOM      8  C   UNL A   1      35.986  22.666  25.385  1.00  0.00     0.081 C 
ATOM      9  N   UNL A   1      33.151  23.249  25.557  1.00  0.00    -0.198 NA
ATOM     10  C   UNL A   1      34.110  24.381  25.561  1.00  0.00     0.103 C 
ATOM     11  C   UNL A   1      33.617  21.901  25.962  1.00  0.00     0.103 C 
ATOM     12  C   UNL A   1      35.453  24.032  24.965  1.00  0.00     0.030 C 
ATOM     13  C   UNL A   1      34.967  21.529  25.395  1.00  0.00     0.030 C 
BRANCH   9  14
ATOM     14  S   UNL A   1      31.578  23.660  26.140  1.00  0.00     0.243 S 
ATOM     15  O   UNL A   1      31.651  23.700  27.591  1.00  0.00    -0.207 OA
ATOM     16  O   UNL A   1      30.629  22.820  25.452  1.00  0.00    -0.207 OA
BRANCH  14  17
ATOM     17  C   UNL A   1      31.274  25.333  25.601  1.00  0.00     0.085 A 
ATOM     18  C   UNL A   1      31.591  31.281  26.102  1.00  0.00     0.088 C 
ATOM     19  C   UNL A   1      31.414  29.836  25.803  1.00  0.00     0.106 A 
ATOM     20  N   UNL A   1      31.895  28.875  26.570  1.00  0.00    -0.233 NA
ATOM     21  N   UNL A   1      30.747  29.311  24.713  1.00  0.00    -0.325 N 
ATOM     22  C   UNL A   1      31.526  27.695  25.988  1.00  0.00     0.090 A 
ATOM     23  C   UNL A   1      30.797  27.937  24.831  1.00  0.00     0.068 A 
ATOM     24  C   UNL A   1      31.774  26.374  26.396  1.00  0.00     0.052 A 
ATOM     25  C   UNL A   1      30.278  26.913  24.045  1.00  0.00     0.030 A 
ATOM     26  C   UNL A   1      30.544  25.615  24.444  1.00  0.00     0.024 A 
BRANCH  21  27
ATOM     27  C   UNL A   1      30.091  30.025  23.632  1.00  0.00     0.089 C 
ATOM     28  C   UNL A   1      30.556  29.632  22.225  1.00  0.00     0.025 C 
ATOM     29  C   UNL A   1      28.570  29.842  23.602  1.00  0.00     0.025 C 
ATOM     30  C   UNL A   1      29.426  30.090  21.313  1.00  0.00     0.002 C 
ATOM     31  C   UNL A   1      28.152  30.070  22.152  1.00  0.00     0.002 C 
ENDBRANCH  21  27
ENDBRANCH  14  17
ENDBRANCH   9  14
ENDBRANCH   5   8
ENDBRANCH   3   4
ENDBRANCH   2   3
ENDBRANCH   1   2
BRANCH   1  32
ATOM     32  C   UNL A   1      41.160  20.070  27.306  1.00  0.00     0.002 C 
BRANCH  32  33
ATOM     33  C   UNL A   1      41.795  19.828  25.929  1.00  0.00     0.021 C 
BRANCH  33  34
ATOM     34  C   UNL A   1      43.121  19.068  25.983  1.00  0.00     0.116 C 
BRANCH  34  35
ATOM     35  N   UNL A   1      44.132  19.636  25.117  1.00  0.00    -0.352 N 
ATOM     36  C   UNL A   1      44.633  20.885  24.908  1.00  0.00     0.251 C 
ATOM     37  H   UNL A   1      44.558  18.958  24.544  1.00  0.00     0.163 HD
ATOM     38  O   UNL A   1      45.573  20.963  24.113  1.00  0.00    -0.269 OA
BRANCH  36  39
ATOM     39  C   UNL A   1      44.090  22.139  25.494  1.00  0.00     0.039 A 
ATOM     40  C   UNL A   1      43.342  23.102  24.819  1.00  0.00     0.014 A 
ATOM     41  C   UNL A   1      44.454  22.385  26.833  1.00  0.00     0.014 A 
ATOM     42  C   UNL A   1      43.089  24.331  25.417  1.00  0.00     0.010 A 
ATOM     43  C   UNL A   1      44.183  23.600  27.443  1.00  0.00     0.010 A 
ATOM     44  C   UNL A   1      43.561  24.598  26.706  1.00  0.00    -0.014 A 
BRANCH  44  45
ATOM     45  C   UNL A   1      43.286  25.909  27.280  1.00  0.00     0.031 A 
ATOM     46  C   UNL A   1      44.305  26.937  26.935  1.00  0.00     0.074 A 
ATOM     47  C   UNL A   1      42.184  26.195  28.005  1.00  0.00     0.049 A 
ATOM     48  N   UNL A   1      45.149  27.508  27.729  1.00  0.00    -0.248 NA
ATOM     49  C   UNL A   1      44.520  27.245  25.512  1.00  0.00     0.031 C 
ATOM     50  C   UNL A   1      40.993  25.370  28.229  1.00  0.00     0.029 A 
ATOM     51  N   UNL A   1      41.875  27.348  28.664  1.00  0.00    -0.354 N 
ATOM     52  C   UNL A   1      45.879  28.397  26.941  1.00  0.00     0.074 A 
ATOM     53  C   UNL A   1      45.559  28.080  25.575  1.00  0.00     0.031 C 
ATOM     54  C   UNL A   1      40.013  26.129  28.774  1.00  0.00     0.029 A 
ATOM     55  C   UNL A   1      40.550  27.444  29.077  1.00  0.00     0.049 A 
ATOM     56  H   UNL A   1      42.537  28.057  28.833  1.00  0.00     0.167 HD
ATOM     57  C   UNL A   1      46.510  29.468  27.495  1.00  0.00     0.037 A 
ATOM     58  C   UNL A   1      39.941  28.541  29.599  1.00  0.00     0.037 A 
ATOM     59  C   UNL A   1      46.697  29.282  28.913  1.00  0.00     0.049 A 
ATOM     60  C   UNL A   1      41.003  29.441  30.107  1.00  0.00     0.074 A 
ATOM     61  C   UNL A   1      47.392  28.384  29.699  1.00  0.00     0.029 A 
ATOM     62  N   UNL A   1      45.811  29.904  29.756  1.00  0.00    -0.354 N 
ATOM     63  N   UNL A   1      41.745  29.164  31.142  1.00  0.00    -0.248 NA
ATOM     64  C   UNL A   1      41.562  30.411  29.178  1.00  0.00     0.031 C 
ATOM     65  C   UNL A   1      46.557  28.167  30.835  1.00  0.00     0.029 A 
ATOM     66  C   UNL A   1      45.439  28.991  30.707  1.00  0.00     0.049 A 
ATOM     67  H   UNL A   1      45.499  30.835  29.689  1.00  0.00     0.167 HD
ATOM     68  C   UNL A   1      43.021  29.564  30.777  1.00  0.00     0.074 A 
ATOM     69  C   UNL A   1      42.834  30.389  29.583  1.00  0.00     0.031 C 
ATOM     70  C   UNL A   1      44.125  28.955  31.301  1.00  0.00     0.037 A 
BRANCH  57  71
ATOM     71  C   UNL A   1      46.563  30.841  26.861  1.00  0.00     0.057 A 
ATOM     72  C   UNL A   1      45.428  31.627  26.573  1.00  0.00     0.134 A 
ATOM     73  C   UNL A   1      47.785  31.540  26.862  1.00  0.00     0.134 A 
ATOM     74  F   UNL A   1      44.188  31.129  26.555  1.00  0.00    -0.206 F 
ATOM     75  C   UNL A   1      45.494  33.010  26.385  1.00  0.00     0.040 A 
ATOM     76  C   UNL A   1      47.856  32.930  26.719  1.00  0.00     0.040 A 
ATOM     77  F   UNL A   1      48.943  30.905  27.102  1.00  0.00    -0.206 F 
ATOM     78  C   UNL A   1      46.704  33.673  26.501  1.00  0.00     0.006 A 
ENDBRANCH  57  71
BRANCH  58  79
ATOM     79  C   UNL A   1      38.547  29.006  29.414  1.00  0.00     0.057 A 
ATOM     80  C   UNL A   1      38.129  29.570  28.195  1.00  0.00     0.134 A 
ATOM     81  C   UNL A   1      37.675  29.182  30.500  1.00  0.00     0.134 A 
ATOM     82  F   UNL A   1      38.920  29.535  27.114  1.00  0.00    -0.206 F 
ATOM     83  C   UNL A   1      36.926  30.273  28.065  1.00  0.00     0.040 A 
ATOM     84  C   UNL A   1      36.467  29.886  30.384  1.00  0.00     0.040 A 
ATOM     85  F   UNL A   1      38.007  28.729  31.718  1.00  0.00    -0.206 F 
ATOM     86  C   UNL A   1      36.095  30.444  29.165  1.00  0.00     0.006 A 
ENDBRANCH  58  79
BRANCH  70  87
ATOM     87  C   UNL A   1      43.917  28.003  32.446  1.00  0.00     0.057 A 
ATOM     88  C   UNL A   1      43.993  28.496  33.752  1.00  0.00     0.134 A 
ATOM     89  C   UNL A   1      43.777  26.614  32.300  1.00  0.00     0.134 A 
ATOM     90  F   UNL A   1      44.186  29.807  33.968  1.00  0.00    -0.206 F 
ATOM     91  C   UNL A   1      43.916  27.654  34.864  1.00  0.00     0.040 A 
ATOM     92  C   UNL A   1      43.667  25.763  33.405  1.00  0.00     0.040 A 
ATOM     93  F   UNL A   1      43.798  26.038  31.092  1.00  0.00    -0.206 F 
ATOM     94  C   UNL A   1      43.740  26.284  34.692  1.00  0.00     0.006 A 
ENDBRANCH  70  87
ENDBRANCH  44  45
ENDBRANCH  36  39
ENDBRANCH  34  35
ENDBRANCH  33  34
ENDBRANCH  32  33
ENDBRANCH   1  32
TORSDOF 16
ENDMDL
MODEL 2
REMARK VINA RESULT:     -11.8      2.511      9.074
REMARK SMILES Cc1nc2cc(S(=O)(=O)N3CCC(C(=O)NCCCCCCNC(=O)c4ccc(-c5c6nc(c(-c7c(F)cccc7F)c7ccc([nH]7)c(-c7c(F)cccc7F)c7nc(c(-c8c(F)cccc8F)c8ccc5[nH]8)C=C7)C=C6)cc4)CC3)ccc2n1C1CCCC1
REMARK SMILES IDX 19 1 18 2 17 3 16 4 14 5 15 6 13 8 10 9 11 10 81 11 12 12
REMARK SMILES IDX 80 13 7 14 8 15 9 16 6 17 1 18 2 19 3 20 85 21 4 22 84 23
REMARK SMILES IDX 5 24 83 25 82 26 86 27 87 28 90 29 88 30 89 31 20 32 21 33
REMARK SMILES IDX 22 34 23 35 24 36 25 38 26 39 27 40 79 41 28 42 78 43 29 44
REMARK SMILES IDX 30 45 31 46 72 47 32 48 77 49 71 50 73 51 33 52 76 53 70 54
REMARK SMILES IDX 69 55 34 57 60 58 43 59 59 60 44 61 47 62 58 63 74 64 45 65
REMARK SMILES IDX 46 66 57 68 75 69 48 70 35 71 36 72 41 73 37 74 38 75 40 76
REMARK SMILES IDX 42 77 39 78 61 79 62 80 67 81 63 82 64 83 66 84 68 85 65 86
REMARK SMILES IDX 49 87 50 88 55 89 51 90 52 91 54 92 56 93 53 94
REMARK H PARENT 16 7 23 37 73 56 47 67
REMARK Flexibility Score: inf
ROOT
ATOM      1  C   UNL A   1      30.864  29.334  24.442  1.00  0.00     0.002 C 
ENDROOT
BRANCH   1   2
ATOM      2  C   UNL A   1      30.895  28.954  22.962  1.00  0.00     0.021 C 
BRANCH   2   3
ATOM      3  C   UNL A   1      30.888  27.449  22.731  1.00  0.00     0.116 C 
BRANCH   3   4
ATOM      4  N   UNL A   1      31.802  27.077  21.661  1.00  0.00    -0.356 N 
ATOM      5  C   UNL A   1      32.647  26.015  21.552  1.00  0.00     0.223 C 
ATOM      6  O   UNL A   1      33.371  25.934  20.559  1.00  0.00    -0.275 OA
ATOM      7  H   UNL A   1      31.810  27.692  20.892  1.00  0.00     0.163 HD
BRANCH   5   8
ATOM      8  C   UNL A   1      32.682  24.941  22.625  1.00  0.00     0.081 C 
ATOM      9  N   UNL A   1      34.196  22.943  24.082  1.00  0.00    -0.198 NA
ATOM     10  C   UNL A   1      33.273  22.492  23.013  1.00  0.00     0.103 C 
ATOM     11  C   UNL A   1      33.980  24.264  24.720  1.00  0.00     0.103 C 
ATOM     12  C   UNL A   1      32.947  23.572  22.008  1.00  0.00     0.030 C 
ATOM     13  C   UNL A   1      33.635  25.362  23.742  1.00  0.00     0.030 C 
BRANCH   9  14
ATOM     14  S   UNL A   1      34.661  21.694  25.181  1.00  0.00     0.243 S 
ATOM     15  O   UNL A   1      34.722  20.455  24.425  1.00  0.00    -0.207 OA
ATOM     16  O   UNL A   1      33.838  21.825  26.358  1.00  0.00    -0.207 OA
BRANCH  14  17
ATOM     17  C   UNL A   1      36.333  22.070  25.676  1.00  0.00     0.085 A 
ATOM     18  C   UNL A   1      40.626  25.627  27.834  1.00  0.00     0.088 C 
ATOM     19  C   UNL A   1      39.703  24.601  27.283  1.00  0.00     0.106 A 
ATOM     20  N   UNL A   1      38.410  24.809  27.110  1.00  0.00    -0.233 NA
ATOM     21  N   UNL A   1      40.054  23.324  26.890  1.00  0.00    -0.325 N 
ATOM     22  C   UNL A   1      37.901  23.658  26.580  1.00  0.00     0.090 A 
ATOM     23  C   UNL A   1      38.909  22.715  26.420  1.00  0.00     0.068 A 
ATOM     24  C   UNL A   1      36.584  23.346  26.201  1.00  0.00     0.052 A 
ATOM     25  C   UNL A   1      38.675  21.454  25.881  1.00  0.00     0.030 A 
ATOM     26  C   UNL A   1      37.372  21.149  25.529  1.00  0.00     0.024 A 
BRANCH  21  27
ATOM     27  C   UNL A   1      41.365  22.700  26.932  1.00  0.00     0.089 C 
ATOM     28  C   UNL A   1      41.386  21.283  27.516  1.00  0.00     0.025 C 
ATOM     29  C   UNL A   1      42.029  22.562  25.557  1.00  0.00     0.025 C 
ATOM     30  C   UNL A   1      42.682  20.679  26.993  1.00  0.00     0.002 C 
ATOM     31  C   UNL A   1      42.995  21.387  25.678  1.00  0.00     0.002 C 
ENDBRANCH  21  27
ENDBRANCH  14  17
ENDBRANCH   9  14
ENDBRANCH   5   8
ENDBRANCH   3   4
ENDBRANCH   2   3
ENDBRANCH   1   2
BRANCH   1  32
ATOM     32  C   UNL A   1      32.231  29.297  25.133  1.00  0.00     0.002 C 
BRANCH  32  33
ATOM     33  C   UNL A   1      32.251  28.582  26.492  1.00  0.00     0.021 C 
BRANCH  33  34
ATOM     34  C   UNL A   1      33.518  28.836  27.309  1.00  0.00     0.116 C 
BRANCH  34  35
ATOM     35  N   UNL A   1      33.678  30.225  27.682  1.00  0.00    -0.352 N 
ATOM     36  C   UNL A   1      34.740  31.043  27.930  1.00  0.00     0.251 C 
ATOM     37  H   UNL A   1      32.815  30.689  27.778  1.00  0.00     0.163 HD
ATOM     38  O   UNL A   1      34.469  32.226  28.153  1.00  0.00    -0.269 OA
BRANCH  36  39
ATOM     39  C   UNL A   1      36.157  30.606  28.027  1.00  0.00     0.039 A 
ATOM     40  C   UNL A   1      36.668  29.380  27.606  1.00  0.00     0.014 A 
ATOM     41  C   UNL A   1      37.021  31.505  28.685  1.00  0.00     0.014 A 
ATOM     42  C   UNL A   1      37.959  29.006  27.957  1.00  0.00     0.010 A 
ATOM     43  C   UNL A   1      38.319  31.147  29.017  1.00  0.00     0.010 A 
ATOM     44  C   UNL A   1      38.762  29.868  28.712  1.00  0.00    -0.014 A 
BRANCH  44  45
ATOM     45  C   UNL A   1      40.101  29.420  29.072  1.00  0.00     0.031 A 
ATOM     46  C   UNL A   1      40.284  29.196  30.531  1.00  0.00     0.074 A 
ATOM     47  C   UNL A   1      41.075  29.167  28.171  1.00  0.00     0.049 A 
ATOM     48  N   UNL A   1      41.018  29.877  31.347  1.00  0.00    -0.248 NA
ATOM     49  C   UNL A   1      39.422  28.201  31.190  1.00  0.00     0.031 C 
ATOM     50  C   UNL A   1      40.981  29.113  26.710  1.00  0.00     0.029 A 
ATOM     51  N   UNL A   1      42.379  28.840  28.399  1.00  0.00    -0.354 N 
ATOM     52  C   UNL A   1      40.865  29.277  32.596  1.00  0.00     0.074 A 
ATOM     53  C   UNL A   1      39.763  28.360  32.470  1.00  0.00     0.031 C 
ATOM     54  C   UNL A   1      42.109  28.558  26.205  1.00  0.00     0.029 A 
ATOM     55  C   UNL A   1      43.059  28.360  27.285  1.00  0.00     0.049 A 
ATOM     56  H   UNL A   1      42.804  28.936  29.281  1.00  0.00     0.167 HD
ATOM     57  C   UNL A   1      41.811  29.423  33.564  1.00  0.00     0.037 A 
ATOM     58  C   UNL A   1      44.303  27.811  27.268  1.00  0.00     0.037 A 
ATOM     59  C   UNL A   1      42.651  30.565  33.298  1.00  0.00     0.049 A 
ATOM     60  C   UNL A   1      44.997  28.245  28.504  1.00  0.00     0.074 A 
ATOM     61  C   UNL A   1      42.448  31.927  33.199  1.00  0.00     0.029 A 
ATOM     62  N   UNL A   1      43.877  30.330  32.728  1.00  0.00    -0.354 N 
ATOM     63  N   UNL A   1      45.370  29.475  28.723  1.00  0.00    -0.248 NA
ATOM     64  C   UNL A   1      44.839  27.418  29.689  1.00  0.00     0.031 C 
ATOM     65  C   UNL A   1      43.317  32.353  32.151  1.00  0.00     0.029 A 
ATOM     66  C   UNL A   1      44.043  31.242  31.721  1.00  0.00     0.049 A 
ATOM     67  H   UNL A   1      44.519  29.634  32.995  1.00  0.00     0.167 HD
ATOM     68  C   UNL A   1      45.062  29.702  30.056  1.00  0.00     0.074 A 
ATOM     69  C   UNL A   1      44.802  28.377  30.618  1.00  0.00     0.031 C 
ATOM     70  C   UNL A   1      44.764  30.957  30.504  1.00  0.00     0.037 A 
BRANCH  57  71
ATOM     71  C   UNL A   1      42.252  28.312  34.492  1.00  0.00     0.057 A 
ATOM     72  C   UNL A   1      41.934  28.251  35.864  1.00  0.00     0.134 A 
ATOM     73  C   UNL A   1      42.703  27.102  33.932  1.00  0.00     0.134 A 
ATOM     74  F   UNL A   1      41.469  29.302  36.548  1.00  0.00    -0.206 F 
ATOM     75  C   UNL A   1      41.981  27.063  36.599  1.00  0.00     0.040 A 
ATOM     76  C   UNL A   1      42.710  25.899  34.648  1.00  0.00     0.040 A 
ATOM     77  F   UNL A   1      43.058  27.029  32.640  1.00  0.00    -0.206 F 
ATOM     78  C   UNL A   1      42.327  25.873  35.981  1.00  0.00     0.006 A 
ENDBRANCH  57  71
BRANCH  58  79
ATOM     79  C   UNL A   1      44.819  26.702  26.432  1.00  0.00     0.057 A 
ATOM     80  C   UNL A   1      44.552  25.363  26.765  1.00  0.00     0.134 A 
ATOM     81  C   UNL A   1      45.817  26.907  25.467  1.00  0.00     0.134 A 
ATOM     82  F   UNL A   1      43.678  25.054  27.734  1.00  0.00    -0.206 F 
ATOM     83  C   UNL A   1      45.242  24.292  26.183  1.00  0.00     0.040 A 
ATOM     84  C   UNL A   1      46.516  25.844  24.877  1.00  0.00     0.040 A 
ATOM     85  F   UNL A   1      46.183  28.150  25.120  1.00  0.00    -0.206 F 
ATOM     86  C   UNL A   1      46.236  24.531  25.244  1.00  0.00     0.006 A 
ENDBRANCH  58  79
BRANCH  70  87
ATOM     87  C   UNL A   1      45.001  32.107  29.564  1.00  0.00     0.057 A 
ATOM     88  C   UNL A   1      46.169  32.862  29.708  1.00  0.00     0.134 A 
ATOM     89  C   UNL A   1      44.064  32.561  28.622  1.00  0.00     0.134 A 
ATOM     90  F   UNL A   1      47.083  32.521  30.630  1.00  0.00    -0.206 F 
ATOM     91  C   UNL A   1      46.406  34.006  28.943  1.00  0.00     0.040 A 
ATOM     92  C   UNL A   1      44.304  33.686  27.827  1.00  0.00     0.040 A 
ATOM     93  F   UNL A   1      42.874  31.965  28.484  1.00  0.00    -0.206 F 
ATOM     94  C   UNL A   1      45.478  34.414  27.989  1.00  0.00     0.006 A 
ENDBRANCH  70  87
ENDBRANCH  44  45
ENDBRANCH  36  39
ENDBRANCH  34  35
ENDBRANCH  33  34
ENDBRANCH  32  33
ENDBRANCH   1  32
TORSDOF 16
ENDMDL
MODEL 3
REMARK VINA RESULT:     -11.5      4.040      9.669
REMARK SMILES Cc1nc2cc(S(=O)(=O)N3CCC(C(=O)NCCCCCCNC(=O)c4ccc(-c5c6nc(c(-c7c(F)cccc7F)c7ccc([nH]7)c(-c7c(F)cccc7F)c7nc(c(-c8c(F)cccc8F)c8ccc5[nH]8)C=C7)C=C6)cc4)CC3)ccc2n1C1CCCC1
REMARK SMILES IDX 19 1 18 2 17 3 16 4 14 5 15 6 13 8 10 9 11 10 81 11 12 12
REMARK SMILES IDX 80 13 7 14 8 15 9 16 6 17 1 18 2 19 3 20 85 21 4 22 84 23
REMARK SMILES IDX 5 24 83 25 82 26 86 27 87 28 90 29 88 30 89 31 20 32 21 33
REMARK SMILES IDX 22 34 23 35 24 36 25 38 26 39 27 40 79 41 28 42 78 43 29 44
REMARK SMILES IDX 30 45 31 46 72 47 32 48 77 49 71 50 73 51 33 52 76 53 70 54
REMARK SMILES IDX 69 55 34 57 60 58 43 59 59 60 44 61 47 62 58 63 74 64 45 65
REMARK SMILES IDX 46 66 57 68 75 69 48 70 35 71 36 72 41 73 37 74 38 75 40 76
REMARK SMILES IDX 42 77 39 78 61 79 62 80 67 81 63 82 64 83 66 84 68 85 65 86
REMARK SMILES IDX 49 87 50 88 55 89 51 90 52 91 54 92 56 93 53 94
REMARK H PARENT 16 7 23 37 73 56 47 67
REMARK Flexibility Score: inf
ROOT
ATOM      1  C   UNL A   1      31.386  28.914  24.747  1.00  0.00     0.002 C 
ENDROOT
BRANCH   1   2
ATOM      2  C   UNL A   1      31.415  28.802  23.224  1.00  0.00     0.021 C 
BRANCH   2   3
ATOM      3  C   UNL A   1      30.891  27.467  22.712  1.00  0.00     0.116 C 
BRANCH   3   4
ATOM      4  N   UNL A   1      31.687  26.985  21.593  1.00  0.00    -0.356 N 
ATOM      5  C   UNL A   1      32.510  25.904  21.496  1.00  0.00     0.223 C 
ATOM      6  O   UNL A   1      33.127  25.721  20.446  1.00  0.00    -0.275 OA
ATOM      7  H   UNL A   1      31.619  27.527  20.773  1.00  0.00     0.163 HD
BRANCH   5   8
ATOM      8  C   UNL A   1      32.649  24.932  22.655  1.00  0.00     0.081 C 
ATOM      9  N   UNL A   1      34.334  23.159  24.212  1.00  0.00    -0.198 NA
ATOM     10  C   UNL A   1      33.400  22.564  23.225  1.00  0.00     0.103 C 
ATOM     11  C   UNL A   1      34.063  24.516  24.743  1.00  0.00     0.103 C 
ATOM     12  C   UNL A   1      32.972  23.531  22.146  1.00  0.00     0.030 C 
ATOM     13  C   UNL A   1      33.617  25.503  23.689  1.00  0.00     0.030 C 
BRANCH   9  14
ATOM     14  S   UNL A   1      34.914  22.039  25.392  1.00  0.00     0.243 S 
ATOM     15  O   UNL A   1      34.983  20.735  24.754  1.00  0.00    -0.207 OA
ATOM     16  O   UNL A   1      34.156  22.253  26.601  1.00  0.00    -0.207 OA
BRANCH  14  17
ATOM     17  C   UNL A   1      36.595  22.521  25.745  1.00  0.00     0.085 A 
ATOM     18  C   UNL A   1      42.434  21.489  26.501  1.00  0.00     0.088 C 
ATOM     19  C   UNL A   1      41.026  21.941  26.351  1.00  0.00     0.106 A 
ATOM     20  N   UNL A   1      40.039  21.130  26.015  1.00  0.00    -0.233 NA
ATOM     21  N   UNL A   1      40.565  23.230  26.533  1.00  0.00    -0.325 N 
ATOM     22  C   UNL A   1      38.905  21.891  25.990  1.00  0.00     0.090 A 
ATOM     23  C   UNL A   1      39.202  23.208  26.321  1.00  0.00     0.068 A 
ATOM     24  C   UNL A   1      37.581  21.525  25.698  1.00  0.00     0.052 A 
ATOM     25  C   UNL A   1      38.230  24.200  26.391  1.00  0.00     0.030 A 
ATOM     26  C   UNL A   1      36.931  23.834  26.083  1.00  0.00     0.024 A 
BRANCH  21  27
ATOM     27  C   UNL A   1      41.327  24.413  26.891  1.00  0.00     0.089 C 
ATOM     28  C   UNL A   1      40.931  25.688  26.137  1.00  0.00     0.025 C 
ATOM     29  C   UNL A   1      41.223  24.792  28.373  1.00  0.00     0.025 C 
ATOM     30  C   UNL A   1      41.458  26.821  27.007  1.00  0.00     0.002 C 
ATOM     31  C   UNL A   1      41.492  26.293  28.438  1.00  0.00     0.002 C 
ENDBRANCH  21  27
ENDBRANCH  14  17
ENDBRANCH   9  14
ENDBRANCH   5   8
ENDBRANCH   3   4
ENDBRANCH   2   3
ENDBRANCH   1   2
BRANCH   1  32
ATOM     32  C   UNL A   1      32.694  29.414  25.370  1.00  0.00     0.002 C 
BRANCH  32  33
ATOM     33  C   UNL A   1      33.520  28.340  26.091  1.00  0.00     0.021 C 
BRANCH  33  34
ATOM     34  C   UNL A   1      34.732  28.891  26.843  1.00  0.00     0.116 C 
BRANCH  34  35
ATOM     35  N   UNL A   1      34.682  30.326  27.018  1.00  0.00    -0.352 N 
ATOM     36  C   UNL A   1      35.381  31.235  27.754  1.00  0.00     0.251 C 
ATOM     37  H   UNL A   1      33.976  30.745  26.475  1.00  0.00     0.163 HD
ATOM     38  O   UNL A   1      35.084  32.419  27.573  1.00  0.00    -0.269 OA
BRANCH  36  39
ATOM     39  C   UNL A   1      36.394  30.905  28.791  1.00  0.00     0.039 A 
ATOM     40  C   UNL A   1      36.314  29.864  29.714  1.00  0.00     0.014 A 
ATOM     41  C   UNL A   1      37.483  31.797  28.874  1.00  0.00     0.014 A 
ATOM     42  C   UNL A   1      37.213  29.801  30.771  1.00  0.00     0.010 A 
ATOM     43  C   UNL A   1      38.398  31.724  29.914  1.00  0.00     0.010 A 
ATOM     44  C   UNL A   1      38.218  30.766  30.901  1.00  0.00    -0.014 A 
BRANCH  44  45
ATOM     45  C   UNL A   1      39.122  30.666  32.039  1.00  0.00     0.031 A 
ATOM     46  C   UNL A   1      38.841  31.657  33.114  1.00  0.00     0.074 A 
ATOM     47  C   UNL A   1      40.088  29.729  32.151  1.00  0.00     0.049 A 
ATOM     48  N   UNL A   1      39.573  32.659  33.473  1.00  0.00    -0.248 NA
ATOM     49  C   UNL A   1      37.514  31.626  33.750  1.00  0.00     0.031 C 
ATOM     50  C   UNL A   1      40.333  28.559  31.304  1.00  0.00     0.029 A 
ATOM     51  N   UNL A   1      41.043  29.604  33.116  1.00  0.00    -0.354 N 
ATOM     52  C   UNL A   1      38.891  33.278  34.520  1.00  0.00     0.074 A 
ATOM     53  C   UNL A   1      37.574  32.700  34.540  1.00  0.00     0.031 C 
ATOM     54  C   UNL A   1      41.213  27.733  31.917  1.00  0.00     0.029 A 
ATOM     55  C   UNL A   1      41.708  28.382  33.118  1.00  0.00     0.049 A 
ATOM     56  H   UNL A   1      41.245  30.321  33.760  1.00  0.00     0.167 HD
ATOM     57  C   UNL A   1      39.551  34.052  35.424  1.00  0.00     0.037 A 
ATOM     58  C   UNL A   1      42.576  27.934  34.063  1.00  0.00     0.037 A 
ATOM     59  C   UNL A   1      40.825  34.483  34.904  1.00  0.00     0.049 A 
ATOM     60  C   UNL A   1      43.071  29.115  34.810  1.00  0.00     0.074 A 
ATOM     61  C   UNL A   1      41.236  35.262  33.840  1.00  0.00     0.029 A 
ATOM     62  N   UNL A   1      41.941  33.797  35.312  1.00  0.00    -0.354 N 
ATOM     63  N   UNL A   1      43.855  30.016  34.289  1.00  0.00    -0.248 NA
ATOM     64  C   UNL A   1      42.306  29.545  35.969  1.00  0.00     0.031 C 
ATOM     65  C   UNL A   1      42.426  34.636  33.364  1.00  0.00     0.029 A 
ATOM     66  C   UNL A   1      42.706  33.558  34.202  1.00  0.00     0.049 A 
ATOM     67  H   UNL A   1      42.153  33.526  36.235  1.00  0.00     0.167 HD
ATOM     68  C   UNL A   1      43.360  31.224  34.757  1.00  0.00     0.074 A 
ATOM     69  C   UNL A   1      42.448  30.867  35.844  1.00  0.00     0.031 C 
ATOM     70  C   UNL A   1      43.511  32.372  34.034  1.00  0.00     0.037 A 
BRANCH  57  71
ATOM     71  C   UNL A   1      39.256  34.059  36.908  1.00  0.00     0.057 A 
ATOM     72  C   UNL A   1      39.177  32.901  37.707  1.00  0.00     0.134 A 
ATOM     73  C   UNL A   1      39.403  35.265  37.621  1.00  0.00     0.134 A 
ATOM     74  F   UNL A   1      39.060  31.672  37.192  1.00  0.00    -0.206 F 
ATOM     75  C   UNL A   1      39.317  32.929  39.097  1.00  0.00     0.040 A 
ATOM     76  C   UNL A   1      39.590  35.299  39.008  1.00  0.00     0.040 A 
ATOM     77  F   UNL A   1      39.471  36.442  36.981  1.00  0.00    -0.206 F 
ATOM     78  C   UNL A   1      39.569  34.126  39.749  1.00  0.00     0.006 A 
ENDBRANCH  57  71
BRANCH  58  79
ATOM     79  C   UNL A   1      42.769  26.554  34.568  1.00  0.00     0.057 A 
ATOM     80  C   UNL A   1      43.694  25.686  33.963  1.00  0.00     0.134 A 
ATOM     81  C   UNL A   1      41.860  25.959  35.457  1.00  0.00     0.134 A 
ATOM     82  F   UNL A   1      44.552  26.132  33.035  1.00  0.00    -0.206 F 
ATOM     83  C   UNL A   1      43.708  24.309  34.215  1.00  0.00     0.040 A 
ATOM     84  C   UNL A   1      41.863  24.580  35.717  1.00  0.00     0.040 A 
ATOM     85  F   UNL A   1      40.905  26.693  36.046  1.00  0.00    -0.206 F 
ATOM     86  C   UNL A   1      42.783  23.749  35.086  1.00  0.00     0.006 A 
ENDBRANCH  58  79
BRANCH  70  87
ATOM     87  C   UNL A   1      44.420  32.327  32.837  1.00  0.00     0.057 A 
ATOM     88  C   UNL A   1      43.880  31.976  31.596  1.00  0.00     0.134 A 
ATOM     89  C   UNL A   1      45.813  32.490  32.898  1.00  0.00     0.134 A 
ATOM     90  F   UNL A   1      42.563  31.745  31.475  1.00  0.00    -0.206 F 
ATOM     91  C   UNL A   1      44.680  31.809  30.464  1.00  0.00     0.040 A 
ATOM     92  C   UNL A   1      46.622  32.359  31.765  1.00  0.00     0.040 A 
ATOM     93  F   UNL A   1      46.433  32.727  34.061  1.00  0.00    -0.206 F 
ATOM     94  C   UNL A   1      46.055  32.013  30.543  1.00  0.00     0.006 A 
ENDBRANCH  70  87
ENDBRANCH  44  45
ENDBRANCH  36  39
ENDBRANCH  34  35
ENDBRANCH  33  34
ENDBRANCH  32  33
ENDBRANCH   1  32
TORSDOF 16
ENDMDL
