MODEL 1
REMARK VINA RESULT:     -11.5      0.000      0.000
REMARK SMILES CSc1ccc(/C=C2\C(C)=C(CC(=O)NCCCCCCNC(=O)c3ccc(-c4c5nc(c(-c6c(F)cccc6F)c6ccc([nH]6)c(-c6c(F)cccc6F)c6nc(c(-c7c(F)cccc7F)c7ccc4[nH]7)C=C6)C=C5)cc3)c3cc(F)ccc32)cc1
REMARK SMILES IDX 18 1 17 2 16 3 15 4 13 5 14 6 12 8 11 9 7 10 8 11 9 12 85 13
REMARK SMILES IDX 10 14 79 15 84 16 80 17 83 18 81 19 82 20 6 21 3 22 4 23
REMARK SMILES IDX 87 24 5 25 86 26 2 27 1 28 19 29 20 30 21 31 22 32 23 33
REMARK SMILES IDX 24 35 25 36 26 37 78 38 27 39 77 40 28 41 29 42 30 43 71 44
REMARK SMILES IDX 31 45 76 46 70 47 72 48 32 49 75 50 69 51 68 52 33 54 59 55
REMARK SMILES IDX 42 56 58 57 43 58 46 59 57 60 73 61 44 62 45 63 56 65 74 66
REMARK SMILES IDX 47 67 34 68 35 69 40 70 36 71 37 72 39 73 41 74 38 75 60 76
REMARK SMILES IDX 61 77 66 78 62 79 63 80 65 81 67 82 64 83 48 84 49 85 54 86
REMARK SMILES IDX 50 87 51 88 53 89 55 90 52 91
REMARK H PARENT 15 7 22 34 72 53 46 64
REMARK Flexibility Score: inf
ROOT
ATOM      1  C   UNL A   1      34.247  22.962  22.779  1.00  0.00     0.002 C 
ENDROOT
BRANCH   1   2
ATOM      2  C   UNL A   1      33.176  23.704  21.985  1.00  0.00     0.021 C 
BRANCH   2   3
ATOM      3  C   UNL A   1      32.823  25.084  22.538  1.00  0.00     0.116 C 
BRANCH   3   4
ATOM      4  N   UNL A   1      31.397  25.224  22.728  1.00  0.00    -0.356 N 
ATOM      5  C   UNL A   1      30.740  26.297  23.259  1.00  0.00     0.224 C 
ATOM      6  O   UNL A   1      29.531  26.220  23.472  1.00  0.00    -0.275 OA
ATOM      7  H   UNL A   1      30.840  24.464  22.444  1.00  0.00     0.163 HD
BRANCH   5   8
ATOM      8  C   UNL A   1      31.533  27.547  23.570  1.00  0.00     0.136 C 
BRANCH   8   9
ATOM      9  C   UNL A   1      31.464  27.812  25.062  1.00  0.00    -0.027 C 
ATOM     10  C   UNL A   1      33.663  25.417  26.118  1.00  0.00     0.017 C 
ATOM     11  C   UNL A   1      33.040  26.609  26.073  1.00  0.00    -0.014 C 
ATOM     12  C   UNL A   1      31.580  26.828  25.998  1.00  0.00    -0.039 C 
ATOM     13  C   UNL A   1      33.586  27.993  26.046  1.00  0.00    -0.010 A 
ATOM     14  C   UNL A   1      31.053  27.083  27.430  1.00  0.00     0.045 C 
ATOM     15  C   UNL A   1      32.521  28.747  25.498  1.00  0.00    -0.011 A 
ATOM     16  C   UNL A   1      34.465  28.596  26.930  1.00  0.00     0.012 A 
ATOM     17  C   UNL A   1      32.288  30.076  25.808  1.00  0.00     0.048 A 
ATOM     18  C   UNL A   1      34.220  29.936  27.281  1.00  0.00     0.040 A 
ATOM     19  C   UNL A   1      33.139  30.651  26.734  1.00  0.00     0.123 A 
ATOM     20  F   UNL A   1      32.846  31.867  27.214  1.00  0.00    -0.207 F 
BRANCH  10  21
ATOM     21  C   UNL A   1      33.080  24.090  26.497  1.00  0.00    -0.025 A 
ATOM     22  C   UNL A   1      32.947  21.387  25.847  1.00  0.00     0.007 A 
ATOM     23  C   UNL A   1      33.812  21.807  26.846  1.00  0.00     0.015 A 
ATOM     24  C   UNL A   1      31.941  22.250  25.413  1.00  0.00     0.015 A 
ATOM     25  C   UNL A   1      33.817  23.145  27.219  1.00  0.00     0.009 A 
ATOM     26  C   UNL A   1      32.009  23.610  25.737  1.00  0.00     0.009 A 
BRANCH  22  27
ATOM     27  S   UNL A   1      33.296  19.880  24.966  1.00  0.00    -0.130 SA
ATOM     28  C   UNL A   1      35.116  20.051  24.926  1.00  0.00     0.091 C 
ENDBRANCH  22  27
ENDBRANCH  10  21
ENDBRANCH   8   9
ENDBRANCH   5   8
ENDBRANCH   3   4
ENDBRANCH   2   3
ENDBRANCH   1   2
BRANCH   1  29
ATOM     29  C   UNL A   1      35.191  23.872  23.562  1.00  0.00     0.002 C 
BRANCH  29  30
ATOM     30  C   UNL A   1      36.577  23.274  23.821  1.00  0.00     0.021 C 
BRANCH  30  31
ATOM     31  C   UNL A   1      37.097  23.510  25.233  1.00  0.00     0.116 C 
BRANCH  31  32
ATOM     32  N   UNL A   1      38.194  22.609  25.545  1.00  0.00    -0.352 N 
ATOM     33  C   UNL A   1      39.406  22.904  26.106  1.00  0.00     0.251 C 
ATOM     34  H   UNL A   1      38.044  21.662  25.324  1.00  0.00     0.163 HD
ATOM     35  O   UNL A   1      40.337  22.099  26.044  1.00  0.00    -0.269 OA
BRANCH  33  36
ATOM     36  C   UNL A   1      39.595  24.202  26.778  1.00  0.00     0.039 A 
ATOM     37  C   UNL A   1      39.077  24.390  28.061  1.00  0.00     0.014 A 
ATOM     38  C   UNL A   1      40.299  25.227  26.139  1.00  0.00     0.014 A 
ATOM     39  C   UNL A   1      39.323  25.589  28.731  1.00  0.00     0.010 A 
ATOM     40  C   UNL A   1      40.602  26.392  26.834  1.00  0.00     0.010 A 
ATOM     41  C   UNL A   1      40.117  26.583  28.136  1.00  0.00    -0.014 A 
BRANCH  41  42
ATOM     42  C   UNL A   1      40.477  27.823  28.868  1.00  0.00     0.031 A 
ATOM     43  C   UNL A   1      41.795  27.920  29.583  1.00  0.00     0.074 A 
ATOM     44  C   UNL A   1      39.578  28.822  28.961  1.00  0.00     0.049 A 
ATOM     45  N   UNL A   1      42.244  28.872  30.362  1.00  0.00    -0.248 NA
ATOM     46  C   UNL A   1      42.723  26.788  29.424  1.00  0.00     0.031 C 
ATOM     47  C   UNL A   1      38.245  28.822  28.352  1.00  0.00     0.029 A 
ATOM     48  N   UNL A   1      39.639  30.022  29.623  1.00  0.00    -0.354 N 
ATOM     49  C   UNL A   1      43.490  28.445  30.802  1.00  0.00     0.074 A 
ATOM     50  C   UNL A   1      43.716  27.134  30.232  1.00  0.00     0.031 C 
ATOM     51  C   UNL A   1      37.618  29.966  28.666  1.00  0.00     0.029 A 
ATOM     52  C   UNL A   1      38.482  30.760  29.532  1.00  0.00     0.049 A 
ATOM     53  H   UNL A   1      40.434  30.326  30.116  1.00  0.00     0.167 HD
ATOM     54  C   UNL A   1      44.372  29.097  31.595  1.00  0.00     0.037 A 
ATOM     55  C   UNL A   1      38.148  31.932  30.103  1.00  0.00     0.037 A 
ATOM     56  C   UNL A   1      44.155  30.414  32.132  1.00  0.00     0.049 A 
ATOM     57  C   UNL A   1      39.149  32.632  30.982  1.00  0.00     0.074 A 
ATOM     58  C   UNL A   1      45.026  31.194  32.874  1.00  0.00     0.029 A 
ATOM     59  N   UNL A   1      42.985  31.144  31.993  1.00  0.00    -0.354 N 
ATOM     60  N   UNL A   1      40.361  32.257  31.315  1.00  0.00    -0.248 NA
ATOM     61  C   UNL A   1      38.738  33.918  31.562  1.00  0.00     0.031 C 
ATOM     62  C   UNL A   1      44.363  32.371  33.231  1.00  0.00     0.029 A 
ATOM     63  C   UNL A   1      43.099  32.350  32.664  1.00  0.00     0.049 A 
ATOM     64  H   UNL A   1      42.191  30.848  31.491  1.00  0.00     0.167 HD
ATOM     65  C   UNL A   1      40.864  33.270  32.120  1.00  0.00     0.074 A 
ATOM     66  C   UNL A   1      39.835  34.285  32.207  1.00  0.00     0.031 C 
ATOM     67  C   UNL A   1      42.069  33.353  32.735  1.00  0.00     0.037 A 
BRANCH  54  68
ATOM     68  C   UNL A   1      45.656  28.403  31.940  1.00  0.00     0.057 A 
ATOM     69  C   UNL A   1      46.811  28.551  31.162  1.00  0.00     0.134 A 
ATOM     70  C   UNL A   1      45.759  27.640  33.112  1.00  0.00     0.134 A 
ATOM     71  F   UNL A   1      46.778  29.260  30.024  1.00  0.00    -0.206 F 
ATOM     72  C   UNL A   1      48.020  27.958  31.531  1.00  0.00     0.040 A 
ATOM     73  C   UNL A   1      46.968  27.062  33.503  1.00  0.00     0.040 A 
ATOM     74  F   UNL A   1      44.692  27.462  33.905  1.00  0.00    -0.206 F 
ATOM     75  C   UNL A   1      48.103  27.220  32.710  1.00  0.00     0.006 A 
ENDBRANCH  54  68
BRANCH  55  76
ATOM     76  C   UNL A   1      36.802  32.520  29.880  1.00  0.00     0.057 A 
ATOM     77  C   UNL A   1      36.575  33.452  28.860  1.00  0.00     0.134 A 
ATOM     78  C   UNL A   1      35.719  32.192  30.704  1.00  0.00     0.134 A 
ATOM     79  F   UNL A   1      37.577  33.822  28.049  1.00  0.00    -0.206 F 
ATOM     80  C   UNL A   1      35.331  34.063  28.690  1.00  0.00     0.040 A 
ATOM     81  C   UNL A   1      34.462  32.772  30.526  1.00  0.00     0.040 A 
ATOM     82  F   UNL A   1      35.864  31.298  31.694  1.00  0.00    -0.206 F 
ATOM     83  C   UNL A   1      34.269  33.721  29.524  1.00  0.00     0.006 A 
ENDBRANCH  55  76
BRANCH  67  84
ATOM     84  C   UNL A   1      42.352  34.595  33.529  1.00  0.00     0.057 A 
ATOM     85  C   UNL A   1      42.906  35.739  32.941  1.00  0.00     0.134 A 
ATOM     86  C   UNL A   1      42.030  34.658  34.891  1.00  0.00     0.134 A 
ATOM     87  F   UNL A   1      43.250  35.739  31.643  1.00  0.00    -0.206 F 
ATOM     88  C   UNL A   1      43.154  36.894  33.685  1.00  0.00     0.040 A 
ATOM     89  C   UNL A   1      42.244  35.817  35.638  1.00  0.00     0.040 A 
ATOM     90  F   UNL A   1      41.487  33.602  35.513  1.00  0.00    -0.206 F 
ATOM     91  C   UNL A   1      42.815  36.936  35.036  1.00  0.00     0.006 A 
ENDBRANCH  67  84
ENDBRANCH  41  42
ENDBRANCH  33  36
ENDBRANCH  31  32
ENDBRANCH  30  31
ENDBRANCH  29  30
ENDBRANCH   1  29
TORSDOF 16
ENDMDL
MODEL 2
REMARK VINA RESULT:     -11.2      2.569      6.913
REMARK SMILES CSc1ccc(/C=C2\C(C)=C(CC(=O)NCCCCCCNC(=O)c3ccc(-c4c5nc(c(-c6c(F)cccc6F)c6ccc([nH]6)c(-c6c(F)cccc6F)c6nc(c(-c7c(F)cccc7F)c7ccc4[nH]7)C=C6)C=C5)cc3)c3cc(F)ccc32)cc1
REMARK SMILES IDX 18 1 17 2 16 3 15 4 13 5 14 6 12 8 11 9 7 10 8 11 9 12 85 13
REMARK SMILES IDX 10 14 79 15 84 16 80 17 83 18 81 19 82 20 6 21 3 22 4 23
REMARK SMILES IDX 87 24 5 25 86 26 2 27 1 28 19 29 20 30 21 31 22 32 23 33
REMARK SMILES IDX 24 35 25 36 26 37 78 38 27 39 77 40 28 41 29 42 30 43 71 44
REMARK SMILES IDX 31 45 76 46 70 47 72 48 32 49 75 50 69 51 68 52 33 54 59 55
REMARK SMILES IDX 42 56 58 57 43 58 46 59 57 60 73 61 44 62 45 63 56 65 74 66
REMARK SMILES IDX 47 67 34 68 35 69 40 70 36 71 37 72 39 73 41 74 38 75 60 76
REMARK SMILES IDX 61 77 66 78 62 79 63 80 65 81 67 82 64 83 48 84 49 85 54 86
REMARK SMILES IDX 50 87 51 88 53 89 55 90 52 91
REMARK H PARENT 15 7 22 34 72 53 46 64
REMARK Flexibility Score: inf
ROOT
ATOM      1  C   UNL A   1      36.350  22.353  24.570  1.00  0.00     0.002 C 
ENDROOT
BRANCH   1   2
ATOM      2  C   UNL A   1      35.273  22.621  23.523  1.00  0.00     0.021 C 
BRANCH   2   3
ATOM      3  C   UNL A   1      34.659  24.019  23.592  1.00  0.00     0.116 C 
BRANCH   3   4
ATOM      4  N   UNL A   1      33.685  24.216  22.543  1.00  0.00    -0.356 N 
ATOM      5  C   UNL A   1      33.005  25.366  22.257  1.00  0.00     0.224 C 
ATOM      6  O   UNL A   1      32.113  25.346  21.410  1.00  0.00    -0.275 OA
ATOM      7  H   UNL A   1      33.490  23.437  21.973  1.00  0.00     0.163 HD
BRANCH   5   8
ATOM      8  C   UNL A   1      33.377  26.627  23.005  1.00  0.00     0.136 C 
BRANCH   8   9
ATOM      9  C   UNL A   1      32.255  26.977  23.964  1.00  0.00    -0.027 C 
ATOM     10  C   UNL A   1      33.156  24.962  26.575  1.00  0.00     0.017 C 
ATOM     11  C   UNL A   1      32.697  26.057  25.942  1.00  0.00    -0.014 C 
ATOM     12  C   UNL A   1      31.716  26.079  24.836  1.00  0.00    -0.039 C 
ATOM     13  C   UNL A   1      33.035  27.496  26.115  1.00  0.00    -0.010 A 
ATOM     14  C   UNL A   1      30.316  26.354  25.434  1.00  0.00     0.045 C 
ATOM     15  C   UNL A   1      32.643  28.068  24.881  1.00  0.00    -0.011 A 
ATOM     16  C   UNL A   1      32.995  28.264  27.267  1.00  0.00     0.012 A 
ATOM     17  C   UNL A   1      32.198  29.372  24.751  1.00  0.00     0.048 A 
ATOM     18  C   UNL A   1      32.512  29.581  27.156  1.00  0.00     0.040 A 
ATOM     19  C   UNL A   1      32.110  30.111  25.917  1.00  0.00     0.123 A 
ATOM     20  F   UNL A   1      31.507  31.307  25.880  1.00  0.00    -0.207 F 
BRANCH  10  21
ATOM     21  C   UNL A   1      32.539  23.597  26.614  1.00  0.00    -0.025 A 
ATOM     22  C   UNL A   1      32.480  21.084  25.420  1.00  0.00     0.007 A 
ATOM     23  C   UNL A   1      33.234  21.277  26.568  1.00  0.00     0.015 A 
ATOM     24  C   UNL A   1      31.524  22.036  25.068  1.00  0.00     0.015 A 
ATOM     25  C   UNL A   1      33.197  22.512  27.203  1.00  0.00     0.009 A 
ATOM     26  C   UNL A   1      31.555  23.302  25.667  1.00  0.00     0.009 A 
BRANCH  22  27
ATOM     27  S   UNL A   1      32.923  19.779  24.293  1.00  0.00    -0.130 SA
ATOM     28  C   UNL A   1      32.731  18.387  25.463  1.00  0.00     0.091 C 
ENDBRANCH  22  27
ENDBRANCH  10  21
ENDBRANCH   8   9
ENDBRANCH   5   8
ENDBRANCH   3   4
ENDBRANCH   2   3
ENDBRANCH   1   2
BRANCH   1  29
ATOM     29  C   UNL A   1      36.411  20.905  25.053  1.00  0.00     0.002 C 
BRANCH  29  30
ATOM     30  C   UNL A   1      37.742  20.201  24.777  1.00  0.00     0.021 C 
BRANCH  30  31
ATOM     31  C   UNL A   1      38.847  20.565  25.761  1.00  0.00     0.116 C 
BRANCH  31  32
ATOM     32  N   UNL A   1      39.855  19.520  25.827  1.00  0.00    -0.352 N 
ATOM     33  C   UNL A   1      41.197  19.642  26.058  1.00  0.00     0.251 C 
ATOM     34  H   UNL A   1      39.527  18.602  25.689  1.00  0.00     0.163 HD
ATOM     35  O   UNL A   1      41.965  18.713  25.801  1.00  0.00    -0.269 OA
BRANCH  33  36
ATOM     36  C   UNL A   1      41.723  20.904  26.610  1.00  0.00     0.039 A 
ATOM     37  C   UNL A   1      42.181  21.893  25.739  1.00  0.00     0.014 A 
ATOM     38  C   UNL A   1      41.746  21.109  27.994  1.00  0.00     0.014 A 
ATOM     39  C   UNL A   1      42.605  23.119  26.255  1.00  0.00     0.010 A 
ATOM     40  C   UNL A   1      42.101  22.354  28.499  1.00  0.00     0.010 A 
ATOM     41  C   UNL A   1      42.533  23.370  27.635  1.00  0.00    -0.014 A 
BRANCH  41  42
ATOM     42  C   UNL A   1      42.881  24.699  28.196  1.00  0.00     0.031 A 
ATOM     43  C   UNL A   1      41.808  25.730  28.413  1.00  0.00     0.074 A 
ATOM     44  C   UNL A   1      44.173  25.004  28.425  1.00  0.00     0.049 A 
ATOM     45  N   UNL A   1      41.927  26.977  28.790  1.00  0.00    -0.248 NA
ATOM     46  C   UNL A   1      40.422  25.313  28.146  1.00  0.00     0.031 C 
ATOM     47  C   UNL A   1      45.307  24.103  28.205  1.00  0.00     0.029 A 
ATOM     48  N   UNL A   1      44.753  26.165  28.870  1.00  0.00    -0.354 N 
ATOM     49  C   UNL A   1      40.639  27.498  28.784  1.00  0.00     0.074 A 
ATOM     50  C   UNL A   1      39.756  26.444  28.334  1.00  0.00     0.031 C 
ATOM     51  C   UNL A   1      46.445  24.744  28.518  1.00  0.00     0.029 A 
ATOM     52  C   UNL A   1      46.126  26.110  28.919  1.00  0.00     0.049 A 
ATOM     53  H   UNL A   1      44.236  26.961  29.131  1.00  0.00     0.167 HD
ATOM     54  C   UNL A   1      40.231  28.739  29.139  1.00  0.00     0.037 A 
ATOM     55  C   UNL A   1      47.027  27.062  29.227  1.00  0.00     0.037 A 
ATOM     56  C   UNL A   1      41.110  29.773  29.616  1.00  0.00     0.049 A 
ATOM     57  C   UNL A   1      46.542  28.433  29.615  1.00  0.00     0.074 A 
ATOM     58  C   UNL A   1      40.780  31.033  30.084  1.00  0.00     0.029 A 
ATOM     59  N   UNL A   1      42.491  29.671  29.683  1.00  0.00    -0.354 N 
ATOM     60  N   UNL A   1      45.313  28.883  29.692  1.00  0.00    -0.248 NA
ATOM     61  C   UNL A   1      47.568  29.426  29.962  1.00  0.00     0.031 C 
ATOM     62  C   UNL A   1      41.964  31.714  30.379  1.00  0.00     0.029 A 
ATOM     63  C   UNL A   1      43.029  30.858  30.150  1.00  0.00     0.049 A 
ATOM     64  H   UNL A   1      43.011  28.873  29.434  1.00  0.00     0.167 HD
ATOM     65  C   UNL A   1      45.417  30.200  30.121  1.00  0.00     0.074 A 
ATOM     66  C   UNL A   1      46.828  30.469  30.306  1.00  0.00     0.031 C 
ATOM     67  C   UNL A   1      44.435  31.108  30.337  1.00  0.00     0.037 A 
BRANCH  54  68
ATOM     68  C   UNL A   1      38.771  29.059  29.024  1.00  0.00     0.057 A 
ATOM     69  C   UNL A   1      37.912  29.009  30.130  1.00  0.00     0.134 A 
ATOM     70  C   UNL A   1      38.233  29.502  27.808  1.00  0.00     0.134 A 
ATOM     71  F   UNL A   1      38.361  28.585  31.321  1.00  0.00    -0.206 F 
ATOM     72  C   UNL A   1      36.569  29.377  30.028  1.00  0.00     0.040 A 
ATOM     73  C   UNL A   1      36.898  29.896  27.700  1.00  0.00     0.040 A 
ATOM     74  F   UNL A   1      39.002  29.578  26.711  1.00  0.00    -0.206 F 
ATOM     75  C   UNL A   1      36.062  29.833  28.813  1.00  0.00     0.006 A 
ENDBRANCH  54  68
BRANCH  55  76
ATOM     76  C   UNL A   1      48.481  26.766  29.170  1.00  0.00     0.057 A 
ATOM     77  C   UNL A   1      49.229  27.017  28.013  1.00  0.00     0.134 A 
ATOM     78  C   UNL A   1      49.151  26.189  30.256  1.00  0.00     0.134 A 
ATOM     79  F   UNL A   1      48.641  27.550  26.932  1.00  0.00    -0.206 F 
ATOM     80  C   UNL A   1      50.581  26.675  27.926  1.00  0.00     0.040 A 
ATOM     81  C   UNL A   1      50.508  25.870  30.193  1.00  0.00     0.040 A 
ATOM     82  F   UNL A   1      48.497  25.932  31.398  1.00  0.00    -0.206 F 
ATOM     83  C   UNL A   1      51.224  26.101  29.020  1.00  0.00     0.006 A 
ENDBRANCH  55  76
BRANCH  67  84
ATOM     84  C   UNL A   1      44.848  32.464  30.829  1.00  0.00     0.057 A 
ATOM     85  C   UNL A   1      45.003  32.741  32.194  1.00  0.00     0.134 A 
ATOM     86  C   UNL A   1      45.130  33.495  29.923  1.00  0.00     0.134 A 
ATOM     87  F   UNL A   1      44.735  31.800  33.113  1.00  0.00    -0.206 F 
ATOM     88  C   UNL A   1      45.400  34.002  32.641  1.00  0.00     0.040 A 
ATOM     89  C   UNL A   1      45.557  34.751  30.357  1.00  0.00     0.040 A 
ATOM     90  F   UNL A   1      45.012  33.294  28.603  1.00  0.00    -0.206 F 
ATOM     91  C   UNL A   1      45.686  35.008  31.720  1.00  0.00     0.006 A 
ENDBRANCH  67  84
ENDBRANCH  41  42
ENDBRANCH  33  36
ENDBRANCH  31  32
ENDBRANCH  30  31
ENDBRANCH  29  30
ENDBRANCH   1  29
TORSDOF 16
ENDMDL
MODEL 3
REMARK VINA RESULT:     -11.2      4.015      8.797
REMARK SMILES CSc1ccc(/C=C2\C(C)=C(CC(=O)NCCCCCCNC(=O)c3ccc(-c4c5nc(c(-c6c(F)cccc6F)c6ccc([nH]6)c(-c6c(F)cccc6F)c6nc(c(-c7c(F)cccc7F)c7ccc4[nH]7)C=C6)C=C5)cc3)c3cc(F)ccc32)cc1
REMARK SMILES IDX 18 1 17 2 16 3 15 4 13 5 14 6 12 8 11 9 7 10 8 11 9 12 85 13
REMARK SMILES IDX 10 14 79 15 84 16 80 17 83 18 81 19 82 20 6 21 3 22 4 23
REMARK SMILES IDX 87 24 5 25 86 26 2 27 1 28 19 29 20 30 21 31 22 32 23 33
REMARK SMILES IDX 24 35 25 36 26 37 78 38 27 39 77 40 28 41 29 42 30 43 71 44
REMARK SMILES IDX 31 45 76 46 70 47 72 48 32 49 75 50 69 51 68 52 33 54 59 55
REMARK SMILES IDX 42 56 58 57 43 58 46 59 57 60 73 61 44 62 45 63 56 65 74 66
REMARK SMILES IDX 47 67 34 68 35 69 40 70 36 71 37 72 39 73 41 74 38 75 60 76
REMARK SMILES IDX 61 77 66 78 62 79 63 80 65 81 67 82 64 83 48 84 49 85 54 86
REMARK SMILES IDX 50 87 51 88 53 89 55 90 52 91
REMARK H PARENT 15 7 22 34 72 53 46 64
REMARK Flexibility Score: inf
ROOT
ATOM      1  C   UNL A   1      34.256  32.439  28.262  1.00  0.00     0.002 C 
ENDROOT
BRANCH   1   2
ATOM      2  C   UNL A   1      35.565  31.705  27.990  1.00  0.00     0.021 C 
BRANCH   2   3
ATOM      3  C   UNL A   1      35.398  30.228  27.635  1.00  0.00     0.116 C 
BRANCH   3   4
ATOM      4  N   UNL A   1      34.072  29.756  27.962  1.00  0.00    -0.356 N 
ATOM      5  C   UNL A   1      33.353  28.801  27.302  1.00  0.00     0.224 C 
ATOM      6  O   UNL A   1      32.184  28.593  27.625  1.00  0.00    -0.275 OA
ATOM      7  H   UNL A   1      33.640  30.169  28.745  1.00  0.00     0.163 HD
BRANCH   5   8
ATOM      8  C   UNL A   1      34.027  28.032  26.188  1.00  0.00     0.136 C 
BRANCH   8   9
ATOM      9  C   UNL A   1      33.148  26.858  25.801  1.00  0.00    -0.027 C 
ATOM     10  C   UNL A   1      31.585  28.249  23.097  1.00  0.00     0.017 C 
ATOM     11  C   UNL A   1      32.185  27.305  23.844  1.00  0.00    -0.014 C 
ATOM     12  C   UNL A   1      31.904  27.007  25.264  1.00  0.00    -0.039 C 
ATOM     13  C   UNL A   1      33.278  26.349  23.514  1.00  0.00    -0.010 A 
ATOM     14  C   UNL A   1      30.910  25.823  25.325  1.00  0.00     0.045 C 
ATOM     15  C   UNL A   1      33.796  26.004  24.784  1.00  0.00    -0.011 A 
ATOM     16  C   UNL A   1      33.344  25.433  22.477  1.00  0.00     0.012 A 
ATOM     17  C   UNL A   1      34.367  24.775  25.068  1.00  0.00     0.048 A 
ATOM     18  C   UNL A   1      33.890  24.167  22.760  1.00  0.00     0.040 A 
ATOM     19  C   UNL A   1      34.378  23.850  24.040  1.00  0.00     0.123 A 
ATOM     20  F   UNL A   1      34.739  22.588  24.311  1.00  0.00    -0.207 F 
BRANCH  10  21
ATOM     21  C   UNL A   1      30.275  28.930  23.355  1.00  0.00    -0.025 A 
ATOM     22  C   UNL A   1      28.682  31.124  22.730  1.00  0.00     0.007 A 
ATOM     23  C   UNL A   1      28.449  29.910  22.101  1.00  0.00     0.015 A 
ATOM     24  C   UNL A   1      29.475  31.153  23.876  1.00  0.00     0.015 A 
ATOM     25  C   UNL A   1      29.196  28.800  22.474  1.00  0.00     0.009 A 
ATOM     26  C   UNL A   1      30.279  30.050  24.189  1.00  0.00     0.009 A 
BRANCH  22  27
ATOM     27  S   UNL A   1      28.190  32.633  21.924  1.00  0.00    -0.130 SA
ATOM     28  C   UNL A   1      28.028  31.952  20.235  1.00  0.00     0.091 C 
ENDBRANCH  22  27
ENDBRANCH  10  21
ENDBRANCH   8   9
ENDBRANCH   5   8
ENDBRANCH   3   4
ENDBRANCH   2   3
ENDBRANCH   1   2
BRANCH   1  29
ATOM     29  C   UNL A   1      34.415  33.730  29.063  1.00  0.00     0.002 C 
BRANCH  29  30
ATOM     30  C   UNL A   1      33.212  34.675  28.986  1.00  0.00     0.021 C 
BRANCH  30  31
ATOM     31  C   UNL A   1      33.479  36.061  29.560  1.00  0.00     0.116 C 
BRANCH  31  32
ATOM     32  N   UNL A   1      32.539  36.379  30.621  1.00  0.00    -0.352 N 
ATOM     33  C   UNL A   1      32.474  35.865  31.887  1.00  0.00     0.251 C 
ATOM     34  H   UNL A   1      31.859  37.056  30.400  1.00  0.00     0.163 HD
ATOM     35  O   UNL A   1      31.461  36.012  32.572  1.00  0.00    -0.269 OA
BRANCH  33  36
ATOM     36  C   UNL A   1      33.628  35.121  32.423  1.00  0.00     0.039 A 
ATOM     37  C   UNL A   1      33.447  33.812  32.876  1.00  0.00     0.014 A 
ATOM     38  C   UNL A   1      34.892  35.717  32.462  1.00  0.00     0.014 A 
ATOM     39  C   UNL A   1      34.551  33.078  33.311  1.00  0.00     0.010 A 
ATOM     40  C   UNL A   1      35.999  34.962  32.828  1.00  0.00     0.010 A 
ATOM     41  C   UNL A   1      35.840  33.635  33.255  1.00  0.00    -0.014 A 
BRANCH  41  42
ATOM     42  C   UNL A   1      37.040  32.841  33.614  1.00  0.00     0.031 A 
ATOM     43  C   UNL A   1      37.795  33.146  34.877  1.00  0.00     0.074 A 
ATOM     44  C   UNL A   1      37.498  31.907  32.758  1.00  0.00     0.049 A 
ATOM     45  N   UNL A   1      38.922  32.640  35.308  1.00  0.00    -0.248 NA
ATOM     46  C   UNL A   1      37.224  34.175  35.762  1.00  0.00     0.031 C 
ATOM     47  C   UNL A   1      36.878  31.557  31.476  1.00  0.00     0.029 A 
ATOM     48  N   UNL A   1      38.603  31.098  32.823  1.00  0.00    -0.354 N 
ATOM     49  C   UNL A   1      39.205  33.301  36.497  1.00  0.00     0.074 A 
ATOM     50  C   UNL A   1      38.150  34.269  36.705  1.00  0.00     0.031 C 
ATOM     51  C   UNL A   1      37.611  30.604  30.880  1.00  0.00     0.029 A 
ATOM     52  C   UNL A   1      38.772  30.306  31.711  1.00  0.00     0.049 A 
ATOM     53  H   UNL A   1      39.218  31.085  33.591  1.00  0.00     0.167 HD
ATOM     54  C   UNL A   1      40.241  33.103  37.344  1.00  0.00     0.037 A 
ATOM     55  C   UNL A   1      39.764  29.455  31.389  1.00  0.00     0.037 A 
ATOM     56  C   UNL A   1      41.269  32.115  37.148  1.00  0.00     0.049 A 
ATOM     57  C   UNL A   1      40.905  29.259  32.351  1.00  0.00     0.074 A 
ATOM     58  C   UNL A   1      42.311  31.780  37.995  1.00  0.00     0.029 A 
ATOM     59  N   UNL A   1      41.390  31.309  36.027  1.00  0.00    -0.354 N 
ATOM     60  N   UNL A   1      41.110  29.827  33.515  1.00  0.00    -0.248 NA
ATOM     61  C   UNL A   1      41.949  28.303  31.957  1.00  0.00     0.031 C 
ATOM     62  C   UNL A   1      43.095  30.812  37.361  1.00  0.00     0.029 A 
ATOM     63  C   UNL A   1      42.509  30.503  36.144  1.00  0.00     0.049 A 
ATOM     64  H   UNL A   1      40.771  31.311  35.260  1.00  0.00     0.167 HD
ATOM     65  C   UNL A   1      42.289  29.278  34.002  1.00  0.00     0.074 A 
ATOM     66  C   UNL A   1      42.742  28.319  33.017  1.00  0.00     0.031 C 
ATOM     67  C   UNL A   1      42.942  29.546  35.159  1.00  0.00     0.037 A 
BRANCH  54  68
ATOM     68  C   UNL A   1      40.327  33.970  38.565  1.00  0.00     0.057 A 
ATOM     69  C   UNL A   1      41.037  35.178  38.568  1.00  0.00     0.134 A 
ATOM     70  C   UNL A   1      39.624  33.630  39.729  1.00  0.00     0.134 A 
ATOM     71  F   UNL A   1      41.739  35.557  37.490  1.00  0.00    -0.206 F 
ATOM     72  C   UNL A   1      41.051  36.012  39.688  1.00  0.00     0.040 A 
ATOM     73  C   UNL A   1      39.611  34.468  40.845  1.00  0.00     0.040 A 
ATOM     74  F   UNL A   1      38.920  32.490  39.791  1.00  0.00    -0.206 F 
ATOM     75  C   UNL A   1      40.328  35.663  40.826  1.00  0.00     0.006 A 
ENDBRANCH  54  68
BRANCH  55  76
ATOM     76  C   UNL A   1      39.740  28.731  30.092  1.00  0.00     0.057 A 
ATOM     77  C   UNL A   1      39.126  27.479  29.969  1.00  0.00     0.134 A 
ATOM     78  C   UNL A   1      40.364  29.256  28.954  1.00  0.00     0.134 A 
ATOM     79  F   UNL A   1      38.528  26.914  31.028  1.00  0.00    -0.206 F 
ATOM     80  C   UNL A   1      39.162  26.759  28.773  1.00  0.00     0.040 A 
ATOM     81  C   UNL A   1      40.382  28.561  27.743  1.00  0.00     0.040 A 
ATOM     82  F   UNL A   1      40.963  30.455  28.999  1.00  0.00    -0.206 F 
ATOM     83  C   UNL A   1      39.791  27.303  27.654  1.00  0.00     0.006 A 
ENDBRANCH  55  76
BRANCH  67  84
ATOM     84  C   UNL A   1      44.196  28.770  35.437  1.00  0.00     0.057 A 
ATOM     85  C   UNL A   1      45.462  29.262  35.097  1.00  0.00     0.134 A 
ATOM     86  C   UNL A   1      44.136  27.531  36.088  1.00  0.00     0.134 A 
ATOM     87  F   UNL A   1      45.587  30.437  34.460  1.00  0.00    -0.206 F 
ATOM     88  C   UNL A   1      46.623  28.538  35.372  1.00  0.00     0.040 A 
ATOM     89  C   UNL A   1      45.292  26.812  36.396  1.00  0.00     0.040 A 
ATOM     90  F   UNL A   1      42.956  27.007  36.450  1.00  0.00    -0.206 F 
ATOM     91  C   UNL A   1      46.539  27.312  36.030  1.00  0.00     0.006 A 
ENDBRANCH  67  84
ENDBRANCH  41  42
ENDBRANCH  33  36
ENDBRANCH  31  32
ENDBRANCH  30  31
ENDBRANCH  29  30
ENDBRANCH   1  29
TORSDOF 16
ENDMDL
