MODEL 1
REMARK VINA RESULT:     -11.7      0.000      0.000
REMARK SMILES O=C(NCCCCCCNC(=O)c1cc(NC(=S)NC(=O)c2ccccc2F)ccc1Cl)c1ccc(-c2c3nc(c(-c4c(F)cccc4F)c4ccc([nH]4)c(-c4c(F)cccc4F)c4nc(c(-c5c(F)cccc5F)c5ccc2[nH]5)C=C4)C=C3)cc1
REMARK SMILES IDX 7 1 6 2 5 3 4 4 3 5 1 6 2 7 33 9 34 10 86 11 35 12 85 13
REMARK SMILES IDX 36 14 37 15 38 16 79 17 39 18 84 19 78 20 80 21 40 22 83 23
REMARK SMILES IDX 77 24 76 25 41 27 67 28 50 29 66 30 51 31 54 32 65 33 81 34
REMARK SMILES IDX 52 35 53 36 64 38 82 39 55 40 42 41 43 42 48 43 44 44 45 45
REMARK SMILES IDX 47 46 49 47 46 48 68 49 69 50 74 51 70 52 71 53 73 54 75 55
REMARK SMILES IDX 72 56 56 57 57 58 62 59 58 60 59 61 61 62 63 63 60 64 8 65
REMARK SMILES IDX 9 66 10 67 11 68 12 70 13 71 14 72 31 73 15 74 30 75 32 76
REMARK SMILES IDX 29 77 16 78 17 80 18 81 19 82 20 83 21 85 22 86 23 87 27 88
REMARK SMILES IDX 24 89 26 90 28 91 25 92
REMARK H PARENT 3 8 80 26 54 37 10 69 16 79 19 84
REMARK Flexibility Score: inf
ROOT
ATOM      1  C   UNL A   1      34.141  29.938  26.686  1.00  0.00     0.002 C 
ENDROOT
BRANCH   1   2
ATOM      2  C   UNL A   1      34.168  30.975  27.815  1.00  0.00     0.002 C 
BRANCH   2   3
ATOM      3  C   UNL A   1      32.970  31.920  27.832  1.00  0.00     0.021 C 
BRANCH   3   4
ATOM      4  C   UNL A   1      33.269  33.275  27.226  1.00  0.00     0.116 C 
BRANCH   4   5
ATOM      5  N   UNL A   1      32.782  34.351  28.068  1.00  0.00    -0.352 N 
ATOM      6  O   UNL A   1      32.637  35.495  30.015  1.00  0.00    -0.269 OA
ATOM      7  C   UNL A   1      33.266  34.733  29.291  1.00  0.00     0.251 C 
ATOM      8  H   UNL A   1      32.017  34.865  27.721  1.00  0.00     0.163 HD
BRANCH   7   9
ATOM      9  C   UNL A   1      34.567  34.187  29.720  1.00  0.00     0.039 A 
ATOM     10  C   UNL A   1      34.632  33.362  30.849  1.00  0.00     0.014 A 
ATOM     11  C   UNL A   1      35.721  34.524  29.013  1.00  0.00     0.014 A 
ATOM     12  C   UNL A   1      35.865  32.960  31.335  1.00  0.00     0.010 A 
ATOM     13  C   UNL A   1      36.951  34.023  29.440  1.00  0.00     0.010 A 
ATOM     14  C   UNL A   1      37.027  33.234  30.599  1.00  0.00    -0.014 A 
BRANCH  14  15
ATOM     15  C   UNL A   1      38.281  32.532  30.957  1.00  0.00     0.031 A 
ATOM     16  C   UNL A   1      38.721  31.293  30.241  1.00  0.00     0.074 A 
ATOM     17  C   UNL A   1      39.002  33.036  31.979  1.00  0.00     0.049 A 
ATOM     18  N   UNL A   1      39.754  30.533  30.495  1.00  0.00    -0.248 NA
ATOM     19  C   UNL A   1      37.908  30.841  29.102  1.00  0.00     0.031 C 
ATOM     20  C   UNL A   1      38.647  34.236  32.746  1.00  0.00     0.029 A 
ATOM     21  N   UNL A   1      40.172  32.615  32.554  1.00  0.00    -0.354 N 
ATOM     22  C   UNL A   1      39.709  29.505  29.565  1.00  0.00     0.074 A 
ATOM     23  C   UNL A   1      38.539  29.729  28.743  1.00  0.00     0.031 C 
ATOM     24  C   UNL A   1      39.588  34.467  33.670  1.00  0.00     0.029 A 
ATOM     25  C   UNL A   1      40.561  33.385  33.624  1.00  0.00     0.049 A 
ATOM     26  H   UNL A   1      40.683  31.837  32.233  1.00  0.00     0.167 HD
ATOM     27  C   UNL A   1      40.575  28.477  29.422  1.00  0.00     0.037 A 
ATOM     28  C   UNL A   1      41.560  33.216  34.509  1.00  0.00     0.037 A 
ATOM     29  C   UNL A   1      41.743  28.287  30.243  1.00  0.00     0.049 A 
ATOM     30  C   UNL A   1      42.467  32.032  34.353  1.00  0.00     0.074 A 
ATOM     31  C   UNL A   1      42.713  27.305  30.131  1.00  0.00     0.029 A 
ATOM     32  N   UNL A   1      42.092  29.074  31.329  1.00  0.00    -0.354 N 
ATOM     33  N   UNL A   1      42.449  31.104  33.427  1.00  0.00    -0.248 NA
ATOM     34  C   UNL A   1      43.522  31.862  35.358  1.00  0.00     0.031 C 
ATOM     35  C   UNL A   1      43.605  27.453  31.192  1.00  0.00     0.029 A 
ATOM     36  C   UNL A   1      43.236  28.569  31.925  1.00  0.00     0.049 A 
ATOM     37  H   UNL A   1      41.601  29.872  31.631  1.00  0.00     0.167 HD
ATOM     38  C   UNL A   1      43.495  30.247  33.733  1.00  0.00     0.074 A 
ATOM     39  C   UNL A   1      44.143  30.778  34.914  1.00  0.00     0.031 C 
ATOM     40  C   UNL A   1      43.876  29.115  33.094  1.00  0.00     0.037 A 
BRANCH  27  41
ATOM     41  C   UNL A   1      40.320  27.455  28.355  1.00  0.00     0.057 A 
ATOM     42  C   UNL A   1      39.625  26.275  28.660  1.00  0.00     0.134 A 
ATOM     43  C   UNL A   1      40.902  27.553  27.086  1.00  0.00     0.134 A 
ATOM     44  F   UNL A   1      39.053  26.115  29.863  1.00  0.00    -0.206 F 
ATOM     45  C   UNL A   1      39.557  25.213  27.757  1.00  0.00     0.040 A 
ATOM     46  C   UNL A   1      40.820  26.506  26.165  1.00  0.00     0.040 A 
ATOM     47  F   UNL A   1      41.576  28.657  26.730  1.00  0.00    -0.206 F 
ATOM     48  C   UNL A   1      40.161  25.326  26.507  1.00  0.00     0.006 A 
ENDBRANCH  27  41
BRANCH  28  49
ATOM     49  C   UNL A   1      41.710  34.168  35.639  1.00  0.00     0.057 A 
ATOM     50  C   UNL A   1      40.983  34.007  36.828  1.00  0.00     0.134 A 
ATOM     51  C   UNL A   1      42.563  35.272  35.554  1.00  0.00     0.134 A 
ATOM     52  F   UNL A   1      40.137  32.975  36.972  1.00  0.00    -0.206 F 
ATOM     53  C   UNL A   1      41.083  34.918  37.879  1.00  0.00     0.040 A 
ATOM     54  C   UNL A   1      42.701  36.172  36.612  1.00  0.00     0.040 A 
ATOM     55  F   UNL A   1      43.294  35.476  34.448  1.00  0.00    -0.206 F 
ATOM     56  C   UNL A   1      41.953  36.000  37.775  1.00  0.00     0.006 A 
ENDBRANCH  28  49
BRANCH  40  57
ATOM     57  C   UNL A   1      45.051  28.364  33.642  1.00  0.00     0.057 A 
ATOM     58  C   UNL A   1      44.874  27.377  34.619  1.00  0.00     0.134 A 
ATOM     59  C   UNL A   1      46.363  28.707  33.295  1.00  0.00     0.134 A 
ATOM     60  F   UNL A   1      43.641  27.011  35.003  1.00  0.00    -0.206 F 
ATOM     61  C   UNL A   1      45.961  26.783  35.260  1.00  0.00     0.040 A 
ATOM     62  C   UNL A   1      47.459  28.100  33.908  1.00  0.00     0.040 A 
ATOM     63  F   UNL A   1      46.598  29.636  32.355  1.00  0.00    -0.206 F 
ATOM     64  C   UNL A   1      47.258  27.148  34.907  1.00  0.00     0.006 A 
ENDBRANCH  40  57
ENDBRANCH  14  15
ENDBRANCH   7   9
ENDBRANCH   4   5
ENDBRANCH   3   4
ENDBRANCH   2   3
ENDBRANCH   1   2
BRANCH   1  65
ATOM     65  C   UNL A   1      33.774  28.512  27.127  1.00  0.00     0.021 C 
BRANCH  65  66
ATOM     66  C   UNL A   1      32.274  28.233  27.110  1.00  0.00     0.116 C 
BRANCH  66  67
ATOM     67  N   UNL A   1      31.626  29.073  26.137  1.00  0.00    -0.352 N 
ATOM     68  C   UNL A   1      31.203  28.821  24.870  1.00  0.00     0.252 C 
ATOM     69  H   UNL A   1      31.460  29.993  26.443  1.00  0.00     0.163 HD
ATOM     70  O   UNL A   1      30.630  29.727  24.273  1.00  0.00    -0.269 OA
BRANCH  68  71
ATOM     71  C   UNL A   1      31.329  27.428  24.259  1.00  0.00     0.060 A 
ATOM     72  C   UNL A   1      30.401  25.653  24.468  1.00  0.00     0.041 A 
ATOM     73  C   UNL A   1      32.904  27.370  23.359  1.00  0.00     0.053 A 
ATOM     74  C   UNL A   1      31.093  24.176  23.986  1.00  0.00     0.041 A 
ATOM     75  C   UNL A   1      33.488  25.780  22.789  1.00  0.00     0.023 A 
ATOM     76  Cl  UNL A   1      33.860  28.762  23.040  1.00  0.00    -0.083 Cl
ATOM     77  C   UNL A   1      32.611  24.241  23.112  1.00  0.00     0.028 A 
BRANCH  74  78
ATOM     78  N   UNL A   1      30.543  23.135  24.754  1.00  0.00    -0.332 N 
ATOM     79  H   UNL A   1      29.841  22.612  24.302  1.00  0.00     0.169 HD
BRANCH  78  80
ATOM     80  C   UNL A   1      30.833  22.731  26.047  1.00  0.00     0.177 C 
ATOM     81  S   UNL A   1      29.566  22.840  27.151  1.00  0.00    -0.040 S 
BRANCH  80  82
ATOM     82  N   UNL A   1      32.068  22.213  26.582  1.00  0.00    -0.299 N 
ATOM     83  C   UNL A   1      33.540  21.887  26.564  1.00  0.00     0.260 C 
ATOM     84  H   UNL A   1      31.791  21.883  27.467  1.00  0.00     0.172 HD
ATOM     85  O   UNL A   1      34.058  21.402  27.566  1.00  0.00    -0.269 OA
BRANCH  83  86
ATOM     86  C   UNL A   1      34.404  22.168  25.345  1.00  0.00     0.075 A 
ATOM     87  C   UNL A   1      35.161  23.701  25.727  1.00  0.00     0.017 A 
ATOM     88  C   UNL A   1      35.330  20.702  24.857  1.00  0.00     0.135 A 
ATOM     89  C   UNL A   1      36.926  23.733  25.893  1.00  0.00     0.001 A 
ATOM     90  C   UNL A   1      37.106  20.581  24.998  1.00  0.00     0.040 A 
ATOM     91  F   UNL A   1      34.670  19.531  24.808  1.00  0.00    -0.206 F 
ATOM     92  C   UNL A   1      38.000  22.050  25.567  1.00  0.00     0.003 A 
ENDBRANCH  83  86
ENDBRANCH  80  82
ENDBRANCH  78  80
ENDBRANCH  74  78
ENDBRANCH  68  71
ENDBRANCH  66  67
ENDBRANCH  65  66
ENDBRANCH   1  65
TORSDOF 17
ENDMDL
MODEL 2
REMARK VINA RESULT:     -11.7      3.803      9.065
REMARK SMILES O=C(NCCCCCCNC(=O)c1cc(NC(=S)NC(=O)c2ccccc2F)ccc1Cl)c1ccc(-c2c3nc(c(-c4c(F)cccc4F)c4ccc([nH]4)c(-c4c(F)cccc4F)c4nc(c(-c5c(F)cccc5F)c5ccc2[nH]5)C=C4)C=C3)cc1
REMARK SMILES IDX 7 1 6 2 5 3 4 4 3 5 1 6 2 7 33 9 34 10 86 11 35 12 85 13
REMARK SMILES IDX 36 14 37 15 38 16 79 17 39 18 84 19 78 20 80 21 40 22 83 23
REMARK SMILES IDX 77 24 76 25 41 27 67 28 50 29 66 30 51 31 54 32 65 33 81 34
REMARK SMILES IDX 52 35 53 36 64 38 82 39 55 40 42 41 43 42 48 43 44 44 45 45
REMARK SMILES IDX 47 46 49 47 46 48 68 49 69 50 74 51 70 52 71 53 73 54 75 55
REMARK SMILES IDX 72 56 56 57 57 58 62 59 58 60 59 61 61 62 63 63 60 64 8 65
REMARK SMILES IDX 9 66 10 67 11 68 12 70 13 71 14 72 31 73 15 74 30 75 32 76
REMARK SMILES IDX 29 77 16 78 17 80 18 81 19 82 20 83 21 85 22 86 23 87 27 88
REMARK SMILES IDX 24 89 26 90 28 91 25 92
REMARK H PARENT 3 8 80 26 54 37 10 69 16 79 19 84
REMARK Flexibility Score: inf
ROOT
ATOM      1  C   UNL A   1      38.785  22.053  26.124  1.00  0.00     0.002 C 
ENDROOT
BRANCH   1   2
ATOM      2  C   UNL A   1      38.215  21.126  25.044  1.00  0.00     0.002 C 
BRANCH   2   3
ATOM      3  C   UNL A   1      38.810  19.721  25.039  1.00  0.00     0.021 C 
BRANCH   3   4
ATOM      4  C   UNL A   1      39.653  19.424  26.261  1.00  0.00     0.116 C 
BRANCH   4   5
ATOM      5  N   UNL A   1      40.927  18.834  25.896  1.00  0.00    -0.352 N 
ATOM      6  O   UNL A   1      43.098  18.926  25.266  1.00  0.00    -0.269 OA
ATOM      7  C   UNL A   1      42.139  19.464  25.806  1.00  0.00     0.251 C 
ATOM      8  H   UNL A   1      40.918  17.872  25.689  1.00  0.00     0.163 HD
BRANCH   7   9
ATOM      9  C   UNL A   1      42.255  20.822  26.371  1.00  0.00     0.039 A 
ATOM     10  C   UNL A   1      42.128  21.009  27.751  1.00  0.00     0.014 A 
ATOM     11  C   UNL A   1      42.461  21.906  25.517  1.00  0.00     0.014 A 
ATOM     12  C   UNL A   1      42.099  22.293  28.270  1.00  0.00     0.010 A 
ATOM     13  C   UNL A   1      42.545  23.189  26.057  1.00  0.00     0.010 A 
ATOM     14  C   UNL A   1      42.372  23.387  27.436  1.00  0.00    -0.014 A 
BRANCH  14  15
ATOM     15  C   UNL A   1      42.652  24.704  28.055  1.00  0.00     0.031 A 
ATOM     16  C   UNL A   1      41.569  25.712  28.283  1.00  0.00     0.074 A 
ATOM     17  C   UNL A   1      43.932  24.974  28.382  1.00  0.00     0.049 A 
ATOM     18  N   UNL A   1      41.679  26.930  28.745  1.00  0.00    -0.248 NA
ATOM     19  C   UNL A   1      40.191  25.316  27.952  1.00  0.00     0.031 C 
ATOM     20  C   UNL A   1      45.061  24.057  28.187  1.00  0.00     0.029 A 
ATOM     21  N   UNL A   1      44.507  26.087  28.937  1.00  0.00    -0.354 N 
ATOM     22  C   UNL A   1      40.395  27.454  28.744  1.00  0.00     0.074 A 
ATOM     23  C   UNL A   1      39.517  26.428  28.225  1.00  0.00     0.031 C 
ATOM     24  C   UNL A   1      46.182  24.631  28.638  1.00  0.00     0.029 A 
ATOM     25  C   UNL A   1      45.872  25.988  29.066  1.00  0.00     0.049 A 
ATOM     26  H   UNL A   1      43.993  26.879  29.216  1.00  0.00     0.167 HD
ATOM     27  C   UNL A   1      40.000  28.684  29.146  1.00  0.00     0.037 A 
ATOM     28  C   UNL A   1      46.787  26.902  29.437  1.00  0.00     0.037 A 
ATOM     29  C   UNL A   1      40.892  29.683  29.677  1.00  0.00     0.049 A 
ATOM     30  C   UNL A   1      46.318  28.273  29.822  1.00  0.00     0.074 A 
ATOM     31  C   UNL A   1      40.572  30.937  30.167  1.00  0.00     0.029 A 
ATOM     32  N   UNL A   1      42.269  29.554  29.771  1.00  0.00    -0.354 N 
ATOM     33  N   UNL A   1      45.092  28.734  29.878  1.00  0.00    -0.248 NA
ATOM     34  C   UNL A   1      47.347  29.253  30.185  1.00  0.00     0.031 C 
ATOM     35  C   UNL A   1      41.759  31.595  30.488  1.00  0.00     0.029 A 
ATOM     36  C   UNL A   1      42.816  30.727  30.266  1.00  0.00     0.049 A 
ATOM     37  H   UNL A   1      42.782  28.750  29.524  1.00  0.00     0.167 HD
ATOM     38  C   UNL A   1      45.202  30.052  30.292  1.00  0.00     0.074 A 
ATOM     39  C   UNL A   1      46.612  30.311  30.498  1.00  0.00     0.031 C 
ATOM     40  C   UNL A   1      44.221  30.966  30.476  1.00  0.00     0.037 A 
BRANCH  27  41
ATOM     41  C   UNL A   1      38.552  29.055  29.035  1.00  0.00     0.057 A 
ATOM     42  C   UNL A   1      38.063  29.642  27.859  1.00  0.00     0.134 A 
ATOM     43  C   UNL A   1      37.690  28.995  30.136  1.00  0.00     0.134 A 
ATOM     44  F   UNL A   1      38.844  29.739  26.772  1.00  0.00    -0.206 F 
ATOM     45  C   UNL A   1      36.783  30.194  27.796  1.00  0.00     0.040 A 
ATOM     46  C   UNL A   1      36.398  29.523  30.077  1.00  0.00     0.040 A 
ATOM     47  F   UNL A   1      38.094  28.442  31.289  1.00  0.00    -0.206 F 
ATOM     48  C   UNL A   1      35.948  30.140  28.911  1.00  0.00     0.006 A 
ENDBRANCH  27  41
BRANCH  28  49
ATOM     49  C   UNL A   1      48.229  26.551  29.408  1.00  0.00     0.057 A 
ATOM     50  C   UNL A   1      48.865  25.988  30.524  1.00  0.00     0.134 A 
ATOM     51  C   UNL A   1      49.014  26.788  28.275  1.00  0.00     0.134 A 
ATOM     52  F   UNL A   1      48.173  25.746  31.648  1.00  0.00    -0.206 F 
ATOM     53  C   UNL A   1      50.228  25.695  30.522  1.00  0.00     0.040 A 
ATOM     54  C   UNL A   1      50.371  26.466  28.246  1.00  0.00     0.040 A 
ATOM     55  F   UNL A   1      48.463  27.314  27.171  1.00  0.00    -0.206 F 
ATOM     56  C   UNL A   1      50.984  25.925  29.376  1.00  0.00     0.006 A 
ENDBRANCH  28  49
BRANCH  40  57
ATOM     57  C   UNL A   1      44.618  32.338  30.930  1.00  0.00     0.057 A 
ATOM     58  C   UNL A   1      44.666  32.651  32.294  1.00  0.00     0.134 A 
ATOM     59  C   UNL A   1      44.827  33.377  30.017  1.00  0.00     0.134 A 
ATOM     60  F   UNL A   1      44.465  31.701  33.220  1.00  0.00    -0.206 F 
ATOM     61  C   UNL A   1      44.871  33.959  32.734  1.00  0.00     0.040 A 
ATOM     62  C   UNL A   1      45.062  34.685  30.444  1.00  0.00     0.040 A 
ATOM     63  F   UNL A   1      44.807  33.137  28.696  1.00  0.00    -0.206 F 
ATOM     64  C   UNL A   1      45.066  34.980  31.807  1.00  0.00     0.006 A 
ENDBRANCH  40  57
ENDBRANCH  14  15
ENDBRANCH   7   9
ENDBRANCH   4   5
ENDBRANCH   3   4
ENDBRANCH   2   3
ENDBRANCH   1   2
BRANCH   1  65
ATOM     65  C   UNL A   1      38.184  23.467  26.145  1.00  0.00     0.021 C 
BRANCH  65  66
ATOM     66  C   UNL A   1      36.693  23.503  25.821  1.00  0.00     0.116 C 
BRANCH  66  67
ATOM     67  N   UNL A   1      35.958  22.738  26.794  1.00  0.00    -0.352 N 
ATOM     68  C   UNL A   1      34.655  22.358  26.841  1.00  0.00     0.252 C 
ATOM     69  H   UNL A   1      36.494  22.436  27.562  1.00  0.00     0.163 HD
ATOM     70  O   UNL A   1      34.301  21.656  27.785  1.00  0.00    -0.269 OA
BRANCH  68  71
ATOM     71  C   UNL A   1      33.694  22.689  25.702  1.00  0.00     0.060 A 
ATOM     72  C   UNL A   1      32.289  24.084  25.336  1.00  0.00     0.041 A 
ATOM     73  C   UNL A   1      33.670  21.262  24.580  1.00  0.00     0.053 A 
ATOM     74  C   UNL A   1      31.063  23.892  24.172  1.00  0.00     0.041 A 
ATOM     75  C   UNL A   1      32.412  21.212  23.312  1.00  0.00     0.023 A 
ATOM     76  Cl  UNL A   1      34.787  19.961  24.686  1.00  0.00    -0.083 Cl
ATOM     77  C   UNL A   1      31.148  22.482  23.134  1.00  0.00     0.028 A 
BRANCH  74  78
ATOM     78  N   UNL A   1      29.954  24.674  24.535  1.00  0.00    -0.332 N 
ATOM     79  H   UNL A   1      29.098  24.188  24.572  1.00  0.00     0.169 HD
BRANCH  78  80
ATOM     80  C   UNL A   1      29.876  26.022  24.849  1.00  0.00     0.177 C 
ATOM     81  S   UNL A   1      29.023  26.980  23.758  1.00  0.00    -0.040 S 
BRANCH  80  82
ATOM     82  N   UNL A   1      30.411  26.722  25.990  1.00  0.00    -0.299 N 
ATOM     83  C   UNL A   1      31.345  27.665  26.705  1.00  0.00     0.260 C 
ATOM     84  H   UNL A   1      29.839  26.399  26.722  1.00  0.00     0.172 HD
ATOM     85  O   UNL A   1      31.179  27.878  27.903  1.00  0.00    -0.269 OA
BRANCH  83  86
ATOM     86  C   UNL A   1      32.471  28.379  25.975  1.00  0.00     0.075 A 
ATOM     87  C   UNL A   1      33.694  27.136  25.797  1.00  0.00     0.017 A 
ATOM     88  C   UNL A   1      31.836  29.346  24.594  1.00  0.00     0.135 A 
ATOM     89  C   UNL A   1      34.128  26.632  24.154  1.00  0.00     0.001 A 
ATOM     90  C   UNL A   1      32.167  28.939  22.887  1.00  0.00     0.040 A 
ATOM     91  F   UNL A   1      30.749  30.107  24.809  1.00  0.00    -0.206 F 
ATOM     92  C   UNL A   1      33.276  27.543  22.561  1.00  0.00     0.003 A 
ENDBRANCH  83  86
ENDBRANCH  80  82
ENDBRANCH  78  80
ENDBRANCH  74  78
ENDBRANCH  68  71
ENDBRANCH  66  67
ENDBRANCH  65  66
ENDBRANCH   1  65
TORSDOF 17
ENDMDL
MODEL 3
REMARK VINA RESULT:     -11.6      4.717      9.908
REMARK SMILES O=C(NCCCCCCNC(=O)c1cc(NC(=S)NC(=O)c2ccccc2F)ccc1Cl)c1ccc(-c2c3nc(c(-c4c(F)cccc4F)c4ccc([nH]4)c(-c4c(F)cccc4F)c4nc(c(-c5c(F)cccc5F)c5ccc2[nH]5)C=C4)C=C3)cc1
REMARK SMILES IDX 7 1 6 2 5 3 4 4 3 5 1 6 2 7 33 9 34 10 86 11 35 12 85 13
REMARK SMILES IDX 36 14 37 15 38 16 79 17 39 18 84 19 78 20 80 21 40 22 83 23
REMARK SMILES IDX 77 24 76 25 41 27 67 28 50 29 66 30 51 31 54 32 65 33 81 34
REMARK SMILES IDX 52 35 53 36 64 38 82 39 55 40 42 41 43 42 48 43 44 44 45 45
REMARK SMILES IDX 47 46 49 47 46 48 68 49 69 50 74 51 70 52 71 53 73 54 75 55
REMARK SMILES IDX 72 56 56 57 57 58 62 59 58 60 59 61 61 62 63 63 60 64 8 65
REMARK SMILES IDX 9 66 10 67 11 68 12 70 13 71 14 72 31 73 15 74 30 75 32 76
REMARK SMILES IDX 29 77 16 78 17 80 18 81 19 82 20 83 21 85 22 86 23 87 27 88
REMARK SMILES IDX 24 89 26 90 28 91 25 92
REMARK H PARENT 3 8 80 26 54 37 10 69 16 79 19 84
REMARK Flexibility Score: inf
ROOT
ATOM      1  C   UNL A   1      36.887  22.173  24.131  1.00  0.00     0.002 C 
ENDROOT
BRANCH   1   2
ATOM      2  C   UNL A   1      36.740  20.979  25.082  1.00  0.00     0.002 C 
BRANCH   2   3
ATOM      3  C   UNL A   1      37.862  19.950  24.980  1.00  0.00     0.021 C 
BRANCH   3   4
ATOM      4  C   UNL A   1      39.112  20.350  25.734  1.00  0.00     0.116 C 
BRANCH   4   5
ATOM      5  N   UNL A   1      40.042  19.243  25.844  1.00  0.00    -0.352 N 
ATOM      6  O   UNL A   1      42.112  18.330  25.888  1.00  0.00    -0.269 OA
ATOM      7  C   UNL A   1      41.395  19.311  26.044  1.00  0.00     0.251 C 
ATOM      8  H   UNL A   1      39.657  18.340  25.767  1.00  0.00     0.163 HD
BRANCH   7   9
ATOM      9  C   UNL A   1      41.970  20.610  26.442  1.00  0.00     0.039 A 
ATOM     10  C   UNL A   1      42.365  21.521  25.458  1.00  0.00     0.014 A 
ATOM     11  C   UNL A   1      42.139  20.900  27.796  1.00  0.00     0.014 A 
ATOM     12  C   UNL A   1      43.030  22.680  25.822  1.00  0.00     0.010 A 
ATOM     13  C   UNL A   1      42.706  22.121  28.163  1.00  0.00     0.010 A 
ATOM     14  C   UNL A   1      43.147  23.018  27.178  1.00  0.00    -0.014 A 
BRANCH  14  15
ATOM     15  C   UNL A   1      43.566  24.393  27.538  1.00  0.00     0.031 A 
ATOM     16  C   UNL A   1      42.580  25.420  27.998  1.00  0.00     0.074 A 
ATOM     17  C   UNL A   1      44.873  24.696  27.406  1.00  0.00     0.049 A 
ATOM     18  N   UNL A   1      42.791  26.681  28.274  1.00  0.00    -0.248 NA
ATOM     19  C   UNL A   1      41.183  24.993  28.169  1.00  0.00     0.031 C 
ATOM     20  C   UNL A   1      45.911  23.761  26.953  1.00  0.00     0.029 A 
ATOM     21  N   UNL A   1      45.558  25.861  27.632  1.00  0.00    -0.354 N 
ATOM     22  C   UNL A   1      41.557  27.204  28.633  1.00  0.00     0.074 A 
ATOM     23  C   UNL A   1      40.595  26.128  28.530  1.00  0.00     0.031 C 
ATOM     24  C   UNL A   1      47.098  24.380  26.959  1.00  0.00     0.029 A 
ATOM     25  C   UNL A   1      46.895  25.775  27.324  1.00  0.00     0.049 A 
ATOM     26  H   UNL A   1      45.135  26.678  27.980  1.00  0.00     0.167 HD
ATOM     27  C   UNL A   1      41.271  28.470  29.013  1.00  0.00     0.037 A 
ATOM     28  C   UNL A   1      47.850  26.722  27.287  1.00  0.00     0.037 A 
ATOM     29  C   UNL A   1      42.252  29.518  29.125  1.00  0.00     0.049 A 
ATOM     30  C   UNL A   1      47.483  28.126  27.661  1.00  0.00     0.074 A 
ATOM     31  C   UNL A   1      42.063  30.818  29.563  1.00  0.00     0.029 A 
ATOM     32  N   UNL A   1      43.590  29.399  28.785  1.00  0.00    -0.354 N 
ATOM     33  N   UNL A   1      46.324  28.592  28.062  1.00  0.00    -0.248 NA
ATOM     34  C   UNL A   1      48.542  29.139  27.573  1.00  0.00     0.031 C 
ATOM     35  C   UNL A   1      43.268  31.505  29.417  1.00  0.00     0.029 A 
ATOM     36  C   UNL A   1      44.227  30.617  28.956  1.00  0.00     0.049 A 
ATOM     37  H   UNL A   1      44.023  28.573  28.469  1.00  0.00     0.167 HD
ATOM     38  C   UNL A   1      46.518  29.946  28.282  1.00  0.00     0.074 A 
ATOM     39  C   UNL A   1      47.910  30.225  27.997  1.00  0.00     0.031 C 
ATOM     40  C   UNL A   1      45.617  30.876  28.678  1.00  0.00     0.037 A 
BRANCH  27  41
ATOM     41  C   UNL A   1      39.852  28.828  29.337  1.00  0.00     0.057 A 
ATOM     42  C   UNL A   1      39.033  29.416  28.362  1.00  0.00     0.134 A 
ATOM     43  C   UNL A   1      39.352  28.755  30.642  1.00  0.00     0.134 A 
ATOM     44  F   UNL A   1      39.459  29.526  27.094  1.00  0.00    -0.206 F 
ATOM     45  C   UNL A   1      37.788  29.957  28.682  1.00  0.00     0.040 A 
ATOM     46  C   UNL A   1      38.096  29.272  30.970  1.00  0.00     0.040 A 
ATOM     47  F   UNL A   1      40.083  28.200  31.621  1.00  0.00    -0.206 F 
ATOM     48  C   UNL A   1      37.319  29.890  29.993  1.00  0.00     0.006 A 
ENDBRANCH  27  41
BRANCH  28  49
ATOM     49  C   UNL A   1      49.218  26.369  26.831  1.00  0.00     0.057 A 
ATOM     50  C   UNL A   1      50.165  25.832  27.716  1.00  0.00     0.134 A 
ATOM     51  C   UNL A   1      49.623  26.578  25.509  1.00  0.00     0.134 A 
ATOM     52  F   UNL A   1      49.846  25.617  29.002  1.00  0.00    -0.206 F 
ATOM     53  C   UNL A   1      51.465  25.537  27.310  1.00  0.00     0.040 A 
ATOM     54  C   UNL A   1      50.910  26.253  25.080  1.00  0.00     0.040 A 
ATOM     55  F   UNL A   1      48.761  27.078  24.612  1.00  0.00    -0.206 F 
ATOM     56  C   UNL A   1      51.838  25.738  25.984  1.00  0.00     0.006 A 
ENDBRANCH  28  49
BRANCH  40  57
ATOM     57  C   UNL A   1      46.092  32.288  28.839  1.00  0.00     0.057 A 
ATOM     58  C   UNL A   1      46.079  33.173  27.752  1.00  0.00     0.134 A 
ATOM     59  C   UNL A   1      46.680  32.731  30.029  1.00  0.00     0.134 A 
ATOM     60  F   UNL A   1      45.539  32.805  26.580  1.00  0.00    -0.206 F 
ATOM     61  C   UNL A   1      46.666  34.435  27.834  1.00  0.00     0.040 A 
ATOM     62  C   UNL A   1      47.246  34.002  30.132  1.00  0.00     0.040 A 
ATOM     63  F   UNL A   1      46.711  31.934  31.109  1.00  0.00    -0.206 F 
ATOM     64  C   UNL A   1      47.255  34.850  29.026  1.00  0.00     0.006 A 
ENDBRANCH  40  57
ENDBRANCH  14  15
ENDBRANCH   7   9
ENDBRANCH   4   5
ENDBRANCH   3   4
ENDBRANCH   2   3
ENDBRANCH   1   2
BRANCH   1  65
ATOM     65  C   UNL A   1      35.996  23.379  24.467  1.00  0.00     0.021 C 
BRANCH  65  66
ATOM     66  C   UNL A   1      34.839  23.575  23.492  1.00  0.00     0.116 C 
BRANCH  66  67
ATOM     67  N   UNL A   1      34.122  22.339  23.320  1.00  0.00    -0.352 N 
ATOM     68  C   UNL A   1      32.837  21.998  23.598  1.00  0.00     0.252 C 
ATOM     69  H   UNL A   1      34.659  21.610  22.934  1.00  0.00     0.163 HD
ATOM     70  O   UNL A   1      32.473  20.864  23.301  1.00  0.00    -0.269 OA
BRANCH  68  71
ATOM     71  C   UNL A   1      31.849  23.025  24.146  1.00  0.00     0.060 A 
ATOM     72  C   UNL A   1      30.511  24.318  23.376  1.00  0.00     0.041 A 
ATOM     73  C   UNL A   1      32.257  23.292  25.894  1.00  0.00     0.053 A 
ATOM     74  C   UNL A   1      29.911  25.661  24.232  1.00  0.00     0.041 A 
ATOM     75  C   UNL A   1      31.481  24.662  26.738  1.00  0.00     0.023 A 
ATOM     76  Cl  UNL A   1      33.355  22.300  26.768  1.00  0.00    -0.083 Cl
ATOM     77  C   UNL A   1      30.361  25.810  25.920  1.00  0.00     0.028 A 
BRANCH  74  78
ATOM     78  N   UNL A   1      29.512  26.651  23.318  1.00  0.00    -0.332 N 
ATOM     79  H   UNL A   1      28.841  26.360  22.659  1.00  0.00     0.169 HD
BRANCH  78  80
ATOM     80  C   UNL A   1      29.914  27.972  23.200  1.00  0.00     0.177 C 
ATOM     81  S   UNL A   1      28.741  29.050  22.657  1.00  0.00    -0.040 S 
BRANCH  80  82
ATOM     82  N   UNL A   1      31.198  28.560  23.492  1.00  0.00    -0.299 N 
ATOM     83  C   UNL A   1      32.284  29.110  24.381  1.00  0.00     0.260 C 
ATOM     84  H   UNL A   1      31.592  28.658  22.595  1.00  0.00     0.172 HD
ATOM     85  O   UNL A   1      33.349  29.460  23.880  1.00  0.00    -0.269 OA
BRANCH  83  86
ATOM     86  C   UNL A   1      32.103  29.218  25.887  1.00  0.00     0.075 A 
ATOM     87  C   UNL A   1      33.442  28.287  26.527  1.00  0.00     0.017 A 
ATOM     88  C   UNL A   1      31.756  30.917  26.377  1.00  0.00     0.135 A 
ATOM     89  C   UNL A   1      34.656  29.142  27.495  1.00  0.00     0.001 A 
ATOM     90  C   UNL A   1      32.899  31.908  27.325  1.00  0.00     0.040 A 
ATOM     91  F   UNL A   1      30.848  31.602  25.661  1.00  0.00    -0.206 F 
ATOM     92  C   UNL A   1      34.424  31.112  27.892  1.00  0.00     0.003 A 
ENDBRANCH  83  86
ENDBRANCH  80  82
ENDBRANCH  78  80
ENDBRANCH  74  78
ENDBRANCH  68  71
ENDBRANCH  66  67
ENDBRANCH  65  66
ENDBRANCH   1  65
TORSDOF 17
ENDMDL
