MODEL 1
REMARK VINA RESULT:     -12.3      0.000      0.000
REMARK SMILES NS(=O)(=O)c1ccc(-n2nc(C(=O)NCCCCCCNC(=O)c3ccc(-c4c5nc(c(-c6c(F)cccc6F)c6ccc([nH]6)c(-c6c(F)cccc6F)c6nc(c(-c7c(F)cccc7F)c7ccc4[nH]7)C=C6)C=C5)cc3)cc2-c2ccc(Cl)s2)cc1
REMARK SMILES IDX 17 1 16 2 15 3 14 4 12 5 13 6 11 8 9 9 10 10 79 11 78 12
REMARK SMILES IDX 8 13 5 14 6 15 87 16 7 17 86 18 2 19 3 20 4 21 1 22 80 25
REMARK SMILES IDX 81 26 85 27 82 28 83 29 84 30 18 31 19 32 20 33 21 34 22 35
REMARK SMILES IDX 23 37 24 38 25 39 77 40 26 41 76 42 27 43 28 44 29 45 70 46
REMARK SMILES IDX 30 47 75 48 69 49 71 50 31 51 74 52 68 53 67 54 32 56 58 57
REMARK SMILES IDX 41 58 57 59 42 60 45 61 56 62 72 63 43 64 44 65 55 67 73 68
REMARK SMILES IDX 46 69 33 70 34 71 39 72 35 73 36 74 38 75 40 76 37 77 59 78
REMARK SMILES IDX 60 79 65 80 61 81 62 82 64 83 66 84 63 85 47 86 48 87 53 88
REMARK SMILES IDX 49 89 50 90 52 91 54 92 51 93
REMARK H PARENT 14 7 1 23 1 24 21 36 71 55 45 66
REMARK Flexibility Score: inf
ROOT
ATOM      1  C   UNL A   1      33.109  28.124  25.378  1.00  0.00     0.002 C 
ENDROOT
BRANCH   1   2
ATOM      2  C   UNL A   1      31.802  28.381  24.631  1.00  0.00     0.021 C 
BRANCH   2   3
ATOM      3  C   UNL A   1      31.071  27.123  24.177  1.00  0.00     0.116 C 
BRANCH   3   4
ATOM      4  N   UNL A   1      30.309  26.498  25.236  1.00  0.00    -0.351 N 
ATOM      5  C   UNL A   1      30.395  25.270  25.857  1.00  0.00     0.271 C 
ATOM      6  O   UNL A   1      29.507  25.029  26.680  1.00  0.00    -0.267 OA
ATOM      7  H   UNL A   1      29.583  27.064  25.583  1.00  0.00     0.163 HD
BRANCH   5   8
ATOM      8  C   UNL A   1      31.483  24.305  25.570  1.00  0.00     0.151 A 
ATOM      9  N   UNL A   1      32.368  22.412  25.058  1.00  0.00    -0.231 N 
ATOM     10  N   UNL A   1      31.193  23.079  25.074  1.00  0.00    -0.162 NA
ATOM     11  C   UNL A   1      33.438  23.261  25.254  1.00  0.00     0.085 A 
ATOM     12  C   UNL A   1      32.888  24.421  25.740  1.00  0.00     0.066 A 
BRANCH   9  13
ATOM     13  C   UNL A   1      32.435  21.016  24.847  1.00  0.00     0.065 A 
ATOM     14  C   UNL A   1      33.017  18.345  24.407  1.00  0.00     0.082 A 
ATOM     15  C   UNL A   1      32.987  18.830  25.717  1.00  0.00     0.024 A 
ATOM     16  C   UNL A   1      32.695  19.173  23.323  1.00  0.00     0.024 A 
ATOM     17  C   UNL A   1      32.700  20.172  25.939  1.00  0.00     0.030 A 
ATOM     18  C   UNL A   1      32.369  20.513  23.547  1.00  0.00     0.030 A 
BRANCH  14  19
ATOM     19  S   UNL A   1      33.522  16.669  24.182  1.00  0.00     0.238 S 
ATOM     20  O   UNL A   1      33.845  16.474  22.791  1.00  0.00    -0.207 OA
ATOM     21  O   UNL A   1      32.591  15.821  24.896  1.00  0.00    -0.207 OA
BRANCH  19  22
ATOM     22  N   UNL A   1      34.972  16.539  25.016  1.00  0.00    -0.225 NA
ATOM     23  H   UNL A   1      35.087  17.348  25.626  1.00  0.00     0.137 HD
ATOM     24  H   UNL A   1      35.745  16.502  24.352  1.00  0.00     0.137 HD
ENDBRANCH  19  22
ENDBRANCH  14  19
ENDBRANCH   9  13
BRANCH  11  25
ATOM     25  C   UNL A   1      34.815  23.001  24.948  1.00  0.00     0.054 A 
ATOM     26  C   UNL A   1      35.424  23.106  23.712  1.00  0.00     0.024 A 
ATOM     27  S   UNL A   1      35.896  22.368  26.126  1.00  0.00    -0.122 S 
ATOM     28  C   UNL A   1      36.791  22.698  23.747  1.00  0.00     0.033 A 
ATOM     29  C   UNL A   1      37.154  22.286  25.003  1.00  0.00     0.094 A 
ATOM     30  Cl  UNL A   1      38.693  21.705  25.489  1.00  0.00    -0.072 Cl
ENDBRANCH  11  25
ENDBRANCH   5   8
ENDBRANCH   3   4
ENDBRANCH   2   3
ENDBRANCH   1   2
BRANCH   1  31
ATOM     31  C   UNL A   1      33.117  28.506  26.868  1.00  0.00     0.002 C 
BRANCH  31  32
ATOM     32  C   UNL A   1      33.145  30.007  27.202  1.00  0.00     0.021 C 
BRANCH  32  33
ATOM     33  C   UNL A   1      34.543  30.559  27.417  1.00  0.00     0.116 C 
BRANCH  33  34
ATOM     34  N   UNL A   1      34.549  31.757  28.262  1.00  0.00    -0.352 N 
ATOM     35  C   UNL A   1      35.245  31.985  29.433  1.00  0.00     0.251 C 
ATOM     36  H   UNL A   1      33.979  32.498  27.953  1.00  0.00     0.163 HD
ATOM     37  O   UNL A   1      34.903  32.864  30.215  1.00  0.00    -0.269 OA
BRANCH  35  38
ATOM     38  C   UNL A   1      36.427  31.156  29.716  1.00  0.00     0.039 A 
ATOM     39  C   UNL A   1      36.339  29.794  30.018  1.00  0.00     0.014 A 
ATOM     40  C   UNL A   1      37.661  31.790  29.636  1.00  0.00     0.014 A 
ATOM     41  C   UNL A   1      37.521  29.071  30.174  1.00  0.00     0.010 A 
ATOM     42  C   UNL A   1      38.796  31.043  29.550  1.00  0.00     0.010 A 
ATOM     43  C   UNL A   1      38.744  29.710  29.927  1.00  0.00    -0.014 A 
BRANCH  43  44
ATOM     44  C   UNL A   1      40.020  29.016  29.975  1.00  0.00     0.031 A 
ATOM     45  C   UNL A   1      40.572  28.876  31.343  1.00  0.00     0.074 A 
ATOM     46  C   UNL A   1      40.491  28.331  28.907  1.00  0.00     0.049 A 
ATOM     47  N   UNL A   1      41.596  29.479  31.844  1.00  0.00    -0.248 NA
ATOM     48  C   UNL A   1      39.797  28.107  32.333  1.00  0.00     0.031 C 
ATOM     49  C   UNL A   1      39.834  28.126  27.604  1.00  0.00     0.029 A 
ATOM     50  N   UNL A   1      41.619  27.579  28.787  1.00  0.00    -0.354 N 
ATOM     51  C   UNL A   1      41.741  28.970  33.134  1.00  0.00     0.074 A 
ATOM     52  C   UNL A   1      40.495  28.327  33.450  1.00  0.00     0.031 C 
ATOM     53  C   UNL A   1      40.456  27.137  26.924  1.00  0.00     0.029 A 
ATOM     54  C   UNL A   1      41.658  26.776  27.649  1.00  0.00     0.049 A 
ATOM     55  H   UNL A   1      42.346  27.600  29.451  1.00  0.00     0.167 HD
ATOM     56  C   UNL A   1      42.979  28.853  33.691  1.00  0.00     0.037 A 
ATOM     57  C   UNL A   1      42.625  25.884  27.323  1.00  0.00     0.037 A 
ATOM     58  C   UNL A   1      43.950  29.553  32.885  1.00  0.00     0.049 A 
ATOM     59  C   UNL A   1      43.830  26.256  28.094  1.00  0.00     0.074 A 
ATOM     60  C   UNL A   1      44.294  30.864  32.643  1.00  0.00     0.029 A 
ATOM     61  N   UNL A   1      44.453  28.798  31.857  1.00  0.00    -0.354 N 
ATOM     62  N   UNL A   1      44.496  27.357  27.893  1.00  0.00    -0.248 NA
ATOM     63  C   UNL A   1      44.095  25.587  29.362  1.00  0.00     0.031 C 
ATOM     64  C   UNL A   1      44.837  30.889  31.324  1.00  0.00     0.029 A 
ATOM     65  C   UNL A   1      44.858  29.590  30.818  1.00  0.00     0.049 A 
ATOM     66  H   UNL A   1      44.515  27.816  31.866  1.00  0.00     0.167 HD
ATOM     67  C   UNL A   1      44.913  27.741  29.153  1.00  0.00     0.074 A 
ATOM     68  C   UNL A   1      44.800  26.542  29.976  1.00  0.00     0.031 C 
ATOM     69  C   UNL A   1      44.998  29.063  29.479  1.00  0.00     0.037 A 
BRANCH  56  70
ATOM     70  C   UNL A   1      43.428  27.747  34.627  1.00  0.00     0.057 A 
ATOM     71  C   UNL A   1      43.472  26.426  34.135  1.00  0.00     0.134 A 
ATOM     72  C   UNL A   1      43.516  27.855  36.030  1.00  0.00     0.134 A 
ATOM     73  F   UNL A   1      43.401  26.177  32.819  1.00  0.00    -0.206 F 
ATOM     74  C   UNL A   1      43.508  25.304  34.977  1.00  0.00     0.040 A 
ATOM     75  C   UNL A   1      43.600  26.743  36.875  1.00  0.00     0.040 A 
ATOM     76  F   UNL A   1      43.427  29.023  36.672  1.00  0.00    -0.206 F 
ATOM     77  C   UNL A   1      43.561  25.462  36.354  1.00  0.00     0.006 A 
ENDBRANCH  56  70
BRANCH  57  78
ATOM     78  C   UNL A   1      42.549  24.619  26.565  1.00  0.00     0.057 A 
ATOM     79  C   UNL A   1      43.289  24.427  25.391  1.00  0.00     0.134 A 
ATOM     80  C   UNL A   1      41.998  23.467  27.149  1.00  0.00     0.134 A 
ATOM     81  F   UNL A   1      43.874  25.467  24.778  1.00  0.00    -0.206 F 
ATOM     82  C   UNL A   1      43.514  23.154  24.851  1.00  0.00     0.040 A 
ATOM     83  C   UNL A   1      42.215  22.188  26.621  1.00  0.00     0.040 A 
ATOM     84  F   UNL A   1      41.320  23.539  28.303  1.00  0.00    -0.206 F 
ATOM     85  C   UNL A   1      42.992  22.027  25.479  1.00  0.00     0.006 A 
ENDBRANCH  57  78
BRANCH  69  86
ATOM     86  C   UNL A   1      45.080  30.040  28.344  1.00  0.00     0.057 A 
ATOM     87  C   UNL A   1      43.985  30.722  27.796  1.00  0.00     0.134 A 
ATOM     88  C   UNL A   1      46.344  30.355  27.838  1.00  0.00     0.134 A 
ATOM     89  F   UNL A   1      42.746  30.540  28.268  1.00  0.00    -0.206 F 
ATOM     90  C   UNL A   1      44.139  31.650  26.762  1.00  0.00     0.040 A 
ATOM     91  C   UNL A   1      46.516  31.302  26.828  1.00  0.00     0.040 A 
ATOM     92  F   UNL A   1      47.439  29.770  28.346  1.00  0.00    -0.206 F 
ATOM     93  C   UNL A   1      45.411  31.945  26.278  1.00  0.00     0.006 A 
ENDBRANCH  69  86
ENDBRANCH  43  44
ENDBRANCH  35  38
ENDBRANCH  33  34
ENDBRANCH  32  33
ENDBRANCH  31  32
ENDBRANCH   1  31
TORSDOF 17
ENDMDL
MODEL 2
REMARK VINA RESULT:     -11.9      2.136      5.997
REMARK SMILES NS(=O)(=O)c1ccc(-n2nc(C(=O)NCCCCCCNC(=O)c3ccc(-c4c5nc(c(-c6c(F)cccc6F)c6ccc([nH]6)c(-c6c(F)cccc6F)c6nc(c(-c7c(F)cccc7F)c7ccc4[nH]7)C=C6)C=C5)cc3)cc2-c2ccc(Cl)s2)cc1
REMARK SMILES IDX 17 1 16 2 15 3 14 4 12 5 13 6 11 8 9 9 10 10 79 11 78 12
REMARK SMILES IDX 8 13 5 14 6 15 87 16 7 17 86 18 2 19 3 20 4 21 1 22 80 25
REMARK SMILES IDX 81 26 85 27 82 28 83 29 84 30 18 31 19 32 20 33 21 34 22 35
REMARK SMILES IDX 23 37 24 38 25 39 77 40 26 41 76 42 27 43 28 44 29 45 70 46
REMARK SMILES IDX 30 47 75 48 69 49 71 50 31 51 74 52 68 53 67 54 32 56 58 57
REMARK SMILES IDX 41 58 57 59 42 60 45 61 56 62 72 63 43 64 44 65 55 67 73 68
REMARK SMILES IDX 46 69 33 70 34 71 39 72 35 73 36 74 38 75 40 76 37 77 59 78
REMARK SMILES IDX 60 79 65 80 61 81 62 82 64 83 66 84 63 85 47 86 48 87 53 88
REMARK SMILES IDX 49 89 50 90 52 91 54 92 51 93
REMARK H PARENT 14 7 1 23 1 24 21 36 71 55 45 66
REMARK Flexibility Score: inf
ROOT
ATOM      1  C   UNL A   1      31.902  27.413  25.613  1.00  0.00     0.002 C 
ENDROOT
BRANCH   1   2
ATOM      2  C   UNL A   1      31.414  27.761  24.208  1.00  0.00     0.021 C 
BRANCH   2   3
ATOM      3  C   UNL A   1      30.884  26.577  23.409  1.00  0.00     0.116 C 
BRANCH   3   4
ATOM      4  N   UNL A   1      31.526  26.432  22.121  1.00  0.00    -0.351 N 
ATOM      5  C   UNL A   1      32.600  25.686  21.685  1.00  0.00     0.271 C 
ATOM      6  O   UNL A   1      32.936  25.875  20.511  1.00  0.00    -0.267 OA
ATOM      7  H   UNL A   1      31.112  26.976  21.412  1.00  0.00     0.163 HD
BRANCH   5   8
ATOM      8  C   UNL A   1      33.301  24.712  22.555  1.00  0.00     0.151 A 
ATOM      9  N   UNL A   1      33.716  22.807  23.463  1.00  0.00    -0.231 N 
ATOM     10  N   UNL A   1      33.025  23.391  22.459  1.00  0.00    -0.162 NA
ATOM     11  C   UNL A   1      34.643  23.668  24.011  1.00  0.00     0.085 A 
ATOM     12  C   UNL A   1      34.280  24.915  23.563  1.00  0.00     0.066 A 
BRANCH   9  13
ATOM     13  C   UNL A   1      33.485  21.468  23.852  1.00  0.00     0.065 A 
ATOM     14  C   UNL A   1      33.331  18.737  24.285  1.00  0.00     0.082 A 
ATOM     15  C   UNL A   1      34.292  19.484  24.972  1.00  0.00     0.024 A 
ATOM     16  C   UNL A   1      32.407  19.358  23.434  1.00  0.00     0.024 A 
ATOM     17  C   UNL A   1      34.373  20.854  24.751  1.00  0.00     0.030 A 
ATOM     18  C   UNL A   1      32.463  20.740  23.240  1.00  0.00     0.030 A 
BRANCH  14  19
ATOM     19  S   UNL A   1      33.368  16.986  24.503  1.00  0.00     0.238 S 
ATOM     20  O   UNL A   1      33.590  16.373  23.219  1.00  0.00    -0.207 OA
ATOM     21  O   UNL A   1      32.265  16.619  25.367  1.00  0.00    -0.207 OA
BRANCH  19  22
ATOM     22  N   UNL A   1      34.753  16.692  25.403  1.00  0.00    -0.225 NA
ATOM     23  H   UNL A   1      34.491  16.365  26.334  1.00  0.00     0.137 HD
ATOM     24  H   UNL A   1      35.295  17.552  25.485  1.00  0.00     0.137 HD
ENDBRANCH  19  22
ENDBRANCH  14  19
ENDBRANCH   9  13
BRANCH  11  25
ATOM     25  C   UNL A   1      35.777  23.319  24.817  1.00  0.00     0.054 A 
ATOM     26  C   UNL A   1      36.079  23.800  26.077  1.00  0.00     0.024 A 
ATOM     27  S   UNL A   1      37.029  22.304  24.219  1.00  0.00    -0.122 S 
ATOM     28  C   UNL A   1      37.326  23.302  26.562  1.00  0.00     0.033 A 
ATOM     29  C   UNL A   1      37.922  22.479  25.642  1.00  0.00     0.094 A 
ATOM     30  Cl  UNL A   1      39.430  21.677  25.806  1.00  0.00    -0.072 Cl
ENDBRANCH  11  25
ENDBRANCH   5   8
ENDBRANCH   3   4
ENDBRANCH   2   3
ENDBRANCH   1   2
BRANCH   1  31
ATOM     31  C   UNL A   1      33.383  27.711  25.903  1.00  0.00     0.002 C 
BRANCH  31  32
ATOM     32  C   UNL A   1      33.692  28.971  26.729  1.00  0.00     0.021 C 
BRANCH  32  33
ATOM     33  C   UNL A   1      35.120  29.030  27.242  1.00  0.00     0.116 C 
BRANCH  33  34
ATOM     34  N   UNL A   1      35.239  29.815  28.474  1.00  0.00    -0.352 N 
ATOM     35  C   UNL A   1      36.255  29.803  29.412  1.00  0.00     0.251 C 
ATOM     36  H   UNL A   1      34.496  30.434  28.659  1.00  0.00     0.163 HD
ATOM     37  O   UNL A   1      36.078  30.229  30.547  1.00  0.00    -0.269 OA
BRANCH  35  38
ATOM     38  C   UNL A   1      37.570  29.280  29.010  1.00  0.00     0.039 A 
ATOM     39  C   UNL A   1      38.217  29.683  27.839  1.00  0.00     0.014 A 
ATOM     40  C   UNL A   1      38.168  28.376  29.879  1.00  0.00     0.014 A 
ATOM     41  C   UNL A   1      39.503  29.207  27.593  1.00  0.00     0.010 A 
ATOM     42  C   UNL A   1      39.498  28.109  29.761  1.00  0.00     0.010 A 
ATOM     43  C   UNL A   1      40.135  28.425  28.571  1.00  0.00    -0.014 A 
BRANCH  43  44
ATOM     44  C   UNL A   1      41.506  27.961  28.445  1.00  0.00     0.031 A 
ATOM     45  C   UNL A   1      41.636  26.679  27.712  1.00  0.00     0.074 A 
ATOM     46  C   UNL A   1      42.554  28.772  28.723  1.00  0.00     0.049 A 
ATOM     47  N   UNL A   1      41.956  25.527  28.194  1.00  0.00    -0.248 NA
ATOM     48  C   UNL A   1      41.193  26.630  26.308  1.00  0.00     0.031 C 
ATOM     49  C   UNL A   1      42.518  30.188  29.128  1.00  0.00     0.029 A 
ATOM     50  N   UNL A   1      43.889  28.535  28.605  1.00  0.00    -0.354 N 
ATOM     51  C   UNL A   1      41.999  24.660  27.103  1.00  0.00     0.074 A 
ATOM     52  C   UNL A   1      41.304  25.327  26.038  1.00  0.00     0.031 C 
ATOM     53  C   UNL A   1      43.747  30.735  29.002  1.00  0.00     0.029 A 
ATOM     54  C   UNL A   1      44.687  29.675  28.697  1.00  0.00     0.049 A 
ATOM     55  H   UNL A   1      44.260  27.634  28.464  1.00  0.00     0.167 HD
ATOM     56  C   UNL A   1      42.875  23.616  27.091  1.00  0.00     0.037 A 
ATOM     57  C   UNL A   1      46.032  29.732  28.545  1.00  0.00     0.037 A 
ATOM     58  C   UNL A   1      43.459  23.446  28.399  1.00  0.00     0.049 A 
ATOM     59  C   UNL A   1      46.547  28.363  28.756  1.00  0.00     0.074 A 
ATOM     60  C   UNL A   1      43.055  22.959  29.622  1.00  0.00     0.029 A 
ATOM     61  N   UNL A   1      44.560  24.235  28.613  1.00  0.00    -0.354 N 
ATOM     62  N   UNL A   1      46.501  27.750  29.904  1.00  0.00    -0.248 NA
ATOM     63  C   UNL A   1      46.780  27.507  27.599  1.00  0.00     0.031 C 
ATOM     64  C   UNL A   1      43.828  23.659  30.597  1.00  0.00     0.029 A 
ATOM     65  C   UNL A   1      44.717  24.512  29.943  1.00  0.00     0.049 A 
ATOM     66  H   UNL A   1      45.160  24.558  27.902  1.00  0.00     0.167 HD
ATOM     67  C   UNL A   1      46.261  26.429  29.579  1.00  0.00     0.074 A 
ATOM     68  C   UNL A   1      46.622  26.310  28.171  1.00  0.00     0.031 C 
ATOM     69  C   UNL A   1      45.492  25.647  30.389  1.00  0.00     0.037 A 
BRANCH  56  70
ATOM     70  C   UNL A   1      43.590  23.074  25.866  1.00  0.00     0.057 A 
ATOM     71  C   UNL A   1      43.621  21.678  25.669  1.00  0.00     0.134 A 
ATOM     72  C   UNL A   1      44.491  23.802  25.063  1.00  0.00     0.134 A 
ATOM     73  F   UNL A   1      42.813  20.865  26.365  1.00  0.00    -0.206 F 
ATOM     74  C   UNL A   1      44.537  21.055  24.809  1.00  0.00     0.040 A 
ATOM     75  C   UNL A   1      45.376  23.193  24.167  1.00  0.00     0.040 A 
ATOM     76  F   UNL A   1      44.641  25.126  25.163  1.00  0.00    -0.206 F 
ATOM     77  C   UNL A   1      45.427  21.814  24.062  1.00  0.00     0.006 A 
ENDBRANCH  56  70
BRANCH  57  78
ATOM     78  C   UNL A   1      46.895  30.816  28.033  1.00  0.00     0.057 A 
ATOM     79  C   UNL A   1      46.550  31.540  26.883  1.00  0.00     0.134 A 
ATOM     80  C   UNL A   1      47.903  31.369  28.838  1.00  0.00     0.134 A 
ATOM     81  F   UNL A   1      45.578  31.100  26.069  1.00  0.00    -0.206 F 
ATOM     82  C   UNL A   1      47.139  32.772  26.574  1.00  0.00     0.040 A 
ATOM     83  C   UNL A   1      48.500  32.601  28.542  1.00  0.00     0.040 A 
ATOM     84  F   UNL A   1      48.266  30.781  29.987  1.00  0.00    -0.206 F 
ATOM     85  C   UNL A   1      48.104  33.316  27.417  1.00  0.00     0.006 A 
ENDBRANCH  57  78
BRANCH  69  86
ATOM     86  C   UNL A   1      45.319  26.102  31.808  1.00  0.00     0.057 A 
ATOM     87  C   UNL A   1      44.203  26.797  32.294  1.00  0.00     0.134 A 
ATOM     88  C   UNL A   1      46.302  25.748  32.737  1.00  0.00     0.134 A 
ATOM     89  F   UNL A   1      43.179  27.112  31.494  1.00  0.00    -0.206 F 
ATOM     90  C   UNL A   1      44.090  27.157  33.640  1.00  0.00     0.040 A 
ATOM     91  C   UNL A   1      46.187  26.073  34.088  1.00  0.00     0.040 A 
ATOM     92  F   UNL A   1      47.376  25.045  32.347  1.00  0.00    -0.206 F 
ATOM     93  C   UNL A   1      45.084  26.790  34.543  1.00  0.00     0.006 A 
ENDBRANCH  69  86
ENDBRANCH  43  44
ENDBRANCH  35  38
ENDBRANCH  33  34
ENDBRANCH  32  33
ENDBRANCH  31  32
ENDBRANCH   1  31
TORSDOF 17
ENDMDL
MODEL 3
REMARK VINA RESULT:     -11.5      5.824     10.258
REMARK SMILES NS(=O)(=O)c1ccc(-n2nc(C(=O)NCCCCCCNC(=O)c3ccc(-c4c5nc(c(-c6c(F)cccc6F)c6ccc([nH]6)c(-c6c(F)cccc6F)c6nc(c(-c7c(F)cccc7F)c7ccc4[nH]7)C=C6)C=C5)cc3)cc2-c2ccc(Cl)s2)cc1
REMARK SMILES IDX 17 1 16 2 15 3 14 4 12 5 13 6 11 8 9 9 10 10 79 11 78 12
REMARK SMILES IDX 8 13 5 14 6 15 87 16 7 17 86 18 2 19 3 20 4 21 1 22 80 25
REMARK SMILES IDX 81 26 85 27 82 28 83 29 84 30 18 31 19 32 20 33 21 34 22 35
REMARK SMILES IDX 23 37 24 38 25 39 77 40 26 41 76 42 27 43 28 44 29 45 70 46
REMARK SMILES IDX 30 47 75 48 69 49 71 50 31 51 74 52 68 53 67 54 32 56 58 57
REMARK SMILES IDX 41 58 57 59 42 60 45 61 56 62 72 63 43 64 44 65 55 67 73 68
REMARK SMILES IDX 46 69 33 70 34 71 39 72 35 73 36 74 38 75 40 76 37 77 59 78
REMARK SMILES IDX 60 79 65 80 61 81 62 82 64 83 66 84 63 85 47 86 48 87 53 88
REMARK SMILES IDX 49 89 50 90 52 91 54 92 51 93
REMARK H PARENT 14 7 1 23 1 24 21 36 71 55 45 66
REMARK Flexibility Score: inf
ROOT
ATOM      1  C   UNL A   1      41.195  24.108  27.726  1.00  0.00     0.002 C 
ENDROOT
BRANCH   1   2
ATOM      2  C   UNL A   1      40.411  25.232  27.053  1.00  0.00     0.021 C 
BRANCH   2   3
ATOM      3  C   UNL A   1      40.827  26.637  27.473  1.00  0.00     0.116 C 
BRANCH   3   4
ATOM      4  N   UNL A   1      41.124  27.498  26.350  1.00  0.00    -0.351 N 
ATOM      5  C   UNL A   1      42.222  27.620  25.524  1.00  0.00     0.271 C 
ATOM      6  O   UNL A   1      42.168  28.541  24.703  1.00  0.00    -0.267 OA
ATOM      7  H   UNL A   1      40.397  28.123  26.131  1.00  0.00     0.163 HD
BRANCH   5   8
ATOM      8  C   UNL A   1      43.385  26.704  25.601  1.00  0.00     0.151 A 
ATOM      9  N   UNL A   1      44.504  24.893  25.293  1.00  0.00    -0.231 N 
ATOM     10  N   UNL A   1      43.386  25.545  24.903  1.00  0.00    -0.162 NA
ATOM     11  C   UNL A   1      45.356  25.720  25.994  1.00  0.00     0.085 A 
ATOM     12  C   UNL A   1      44.595  26.810  26.336  1.00  0.00     0.066 A 
BRANCH   9  13
ATOM     13  C   UNL A   1      44.727  23.533  24.981  1.00  0.00     0.065 A 
ATOM     14  C   UNL A   1      45.355  20.843  24.782  1.00  0.00     0.082 A 
ATOM     15  C   UNL A   1      44.126  21.219  25.330  1.00  0.00     0.024 A 
ATOM     16  C   UNL A   1      46.242  21.803  24.274  1.00  0.00     0.024 A 
ATOM     17  C   UNL A   1      43.812  22.568  25.435  1.00  0.00     0.030 A 
ATOM     18  C   UNL A   1      45.911  23.158  24.344  1.00  0.00     0.030 A 
BRANCH  14  19
ATOM     19  S   UNL A   1      45.753  19.124  24.802  1.00  0.00     0.238 S 
ATOM     20  O   UNL A   1      44.600  18.396  25.265  1.00  0.00    -0.207 OA
ATOM     21  O   UNL A   1      47.065  18.974  25.397  1.00  0.00    -0.207 OA
BRANCH  19  22
ATOM     22  N   UNL A   1      45.947  18.707  23.188  1.00  0.00    -0.225 NA
ATOM     23  H   UNL A   1      46.506  17.855  23.122  1.00  0.00     0.137 HD
ATOM     24  H   UNL A   1      46.421  19.464  22.696  1.00  0.00     0.137 HD
ENDBRANCH  19  22
ENDBRANCH  14  19
ENDBRANCH   9  13
BRANCH  11  25
ATOM     25  C   UNL A   1      46.753  25.509  26.246  1.00  0.00     0.054 A 
ATOM     26  C   UNL A   1      47.312  24.854  27.327  1.00  0.00     0.024 A 
ATOM     27  S   UNL A   1      47.964  26.201  25.241  1.00  0.00    -0.122 S 
ATOM     28  C   UNL A   1      48.738  24.893  27.305  1.00  0.00     0.033 A 
ATOM     29  C   UNL A   1      49.198  25.590  26.218  1.00  0.00     0.094 A 
ATOM     30  Cl  UNL A   1      50.837  25.892  25.810  1.00  0.00    -0.072 Cl
ENDBRANCH  11  25
ENDBRANCH   5   8
ENDBRANCH   3   4
ENDBRANCH   2   3
ENDBRANCH   1   2
BRANCH   1  31
ATOM     31  C   UNL A   1      42.567  24.498  28.303  1.00  0.00     0.002 C 
BRANCH  31  32
ATOM     32  C   UNL A   1      43.339  23.407  29.063  1.00  0.00     0.021 C 
BRANCH  32  33
ATOM     33  C   UNL A   1      43.618  23.754  30.515  1.00  0.00     0.116 C 
BRANCH  33  34
ATOM     34  N   UNL A   1      44.971  24.278  30.716  1.00  0.00    -0.352 N 
ATOM     35  C   UNL A   1      45.416  25.583  30.617  1.00  0.00     0.251 C 
ATOM     36  H   UNL A   1      45.656  23.611  30.952  1.00  0.00     0.163 HD
ATOM     37  O   UNL A   1      46.604  25.840  30.462  1.00  0.00    -0.269 OA
BRANCH  35  38
ATOM     38  C   UNL A   1      44.428  26.668  30.721  1.00  0.00     0.039 A 
ATOM     39  C   UNL A   1      43.979  27.163  31.949  1.00  0.00     0.014 A 
ATOM     40  C   UNL A   1      43.978  27.213  29.525  1.00  0.00     0.014 A 
ATOM     41  C   UNL A   1      43.116  28.258  31.947  1.00  0.00     0.010 A 
ATOM     42  C   UNL A   1      43.340  28.415  29.533  1.00  0.00     0.010 A 
ATOM     43  C   UNL A   1      42.812  28.880  30.727  1.00  0.00    -0.014 A 
BRANCH  43  44
ATOM     44  C   UNL A   1      41.998  30.080  30.636  1.00  0.00     0.031 A 
ATOM     45  C   UNL A   1      42.784  31.318  30.424  1.00  0.00     0.074 A 
ATOM     46  C   UNL A   1      40.656  30.011  30.478  1.00  0.00     0.049 A 
ATOM     47  N   UNL A   1      42.983  32.277  31.263  1.00  0.00    -0.248 NA
ATOM     48  C   UNL A   1      43.589  31.432  29.195  1.00  0.00     0.031 C 
ATOM     49  C   UNL A   1      39.824  28.804  30.327  1.00  0.00     0.029 A 
ATOM     50  N   UNL A   1      39.749  31.013  30.313  1.00  0.00    -0.354 N 
ATOM     51  C   UNL A   1      43.730  33.232  30.575  1.00  0.00     0.074 A 
ATOM     52  C   UNL A   1      44.261  32.564  29.419  1.00  0.00     0.031 C 
ATOM     53  C   UNL A   1      38.596  29.143  29.875  1.00  0.00     0.029 A 
ATOM     54  C   UNL A   1      38.492  30.588  29.888  1.00  0.00     0.049 A 
ATOM     55  H   UNL A   1      39.965  31.959  30.479  1.00  0.00     0.167 HD
ATOM     56  C   UNL A   1      43.579  34.556  30.858  1.00  0.00     0.037 A 
ATOM     57  C   UNL A   1      37.434  31.379  29.582  1.00  0.00     0.037 A 
ATOM     58  C   UNL A   1      42.804  34.718  32.065  1.00  0.00     0.049 A 
ATOM     59  C   UNL A   1      37.672  32.685  30.230  1.00  0.00     0.074 A 
ATOM     60  C   UNL A   1      43.009  34.558  33.417  1.00  0.00     0.029 A 
ATOM     61  N   UNL A   1      41.450  34.713  31.849  1.00  0.00    -0.354 N 
ATOM     62  N   UNL A   1      37.679  32.852  31.522  1.00  0.00    -0.248 NA
ATOM     63  C   UNL A   1      38.282  33.760  29.457  1.00  0.00     0.031 C 
ATOM     64  C   UNL A   1      41.732  34.243  33.972  1.00  0.00     0.029 A 
ATOM     65  C   UNL A   1      40.778  34.273  32.955  1.00  0.00     0.049 A 
ATOM     66  H   UNL A   1      41.019  34.991  31.009  1.00  0.00     0.167 HD
ATOM     67  C   UNL A   1      38.657  33.803  31.740  1.00  0.00     0.074 A 
ATOM     68  C   UNL A   1      38.859  34.448  30.447  1.00  0.00     0.031 C 
ATOM     69  C   UNL A   1      39.432  33.753  32.861  1.00  0.00     0.037 A 
BRANCH  56  70
ATOM     70  C   UNL A   1      43.662  35.692  29.854  1.00  0.00     0.057 A 
ATOM     71  C   UNL A   1      44.509  36.782  30.141  1.00  0.00     0.134 A 
ATOM     72  C   UNL A   1      42.749  35.916  28.805  1.00  0.00     0.134 A 
ATOM     73  F   UNL A   1      45.428  36.704  31.114  1.00  0.00    -0.206 F 
ATOM     74  C   UNL A   1      44.392  38.022  29.496  1.00  0.00     0.040 A 
ATOM     75  C   UNL A   1      42.657  37.135  28.123  1.00  0.00     0.040 A 
ATOM     76  F   UNL A   1      41.830  35.017  28.440  1.00  0.00    -0.206 F 
ATOM     77  C   UNL A   1      43.454  38.205  28.490  1.00  0.00     0.006 A 
ENDBRANCH  56  70
BRANCH  57  78
ATOM     78  C   UNL A   1      36.336  31.181  28.614  1.00  0.00     0.057 A 
ATOM     79  C   UNL A   1      36.450  30.260  27.563  1.00  0.00     0.134 A 
ATOM     80  C   UNL A   1      35.045  31.656  28.888  1.00  0.00     0.134 A 
ATOM     81  F   UNL A   1      37.642  29.732  27.247  1.00  0.00    -0.206 F 
ATOM     82  C   UNL A   1      35.333  29.797  26.854  1.00  0.00     0.040 A 
ATOM     83  C   UNL A   1      33.920  31.202  28.189  1.00  0.00     0.040 A 
ATOM     84  F   UNL A   1      34.825  32.499  29.908  1.00  0.00    -0.206 F 
ATOM     85  C   UNL A   1      34.060  30.255  27.181  1.00  0.00     0.006 A 
ENDBRANCH  57  78
BRANCH  69  86
ATOM     86  C   UNL A   1      38.903  32.959  34.018  1.00  0.00     0.057 A 
ATOM     87  C   UNL A   1      39.249  31.630  34.301  1.00  0.00     0.134 A 
ATOM     88  C   UNL A   1      38.060  33.603  34.927  1.00  0.00     0.134 A 
ATOM     89  F   UNL A   1      40.109  30.957  33.528  1.00  0.00    -0.206 F 
ATOM     90  C   UNL A   1      38.747  30.962  35.421  1.00  0.00     0.040 A 
ATOM     91  C   UNL A   1      37.576  32.959  36.066  1.00  0.00     0.040 A 
ATOM     92  F   UNL A   1      37.722  34.888  34.740  1.00  0.00    -0.206 F 
ATOM     93  C   UNL A   1      37.909  31.629  36.311  1.00  0.00     0.006 A 
ENDBRANCH  69  86
ENDBRANCH  43  44
ENDBRANCH  35  38
ENDBRANCH  33  34
ENDBRANCH  32  33
ENDBRANCH  31  32
ENDBRANCH   1  31
TORSDOF 17
ENDMDL
