MODEL 1
REMARK VINA RESULT:     -11.0      0.000      0.000
REMARK SMILES C[C@H](NC(=O)NCCc1ccccc1F)C(=O)NCCCCCCNC(=O)c1ccc(-c2c3nc(c(-c4c(F)cccc4F)c4ccc([nH]4)c(-c4c(F)cccc4F)c4nc(c(-c5c(F)cccc5F)c5ccc2[nH]5)C=C4)C=C3)cc1
REMARK SMILES IDX 20 1 19 2 18 3 16 4 17 5 2 7 1 8 3 9 4 10 5 12 6 13 7 15
REMARK SMILES IDX 8 16 9 17 10 18 14 19 11 20 13 21 15 22 12 23 21 24 22 25
REMARK SMILES IDX 23 26 24 27 25 28 26 29 27 31 28 32 29 33 81 34 30 35 80 36
REMARK SMILES IDX 31 37 32 38 33 39 74 40 34 41 79 42 73 43 75 44 35 45 78 46
REMARK SMILES IDX 72 47 71 48 36 50 62 51 45 52 61 53 46 54 49 55 60 56 76 57
REMARK SMILES IDX 47 58 48 59 59 61 77 62 50 63 37 64 38 65 43 66 39 67 40 68
REMARK SMILES IDX 42 69 44 70 41 71 63 72 64 73 69 74 65 75 66 76 68 77 70 78
REMARK SMILES IDX 67 79 51 80 52 81 57 82 53 83 54 84 56 85 58 86 55 87
REMARK H PARENT 18 6 3 11 6 14 25 30 75 49 49 60
REMARK Flexibility Score: inf
ROOT
ATOM      1  C   UNL A   1      36.394  22.381  23.802  1.00  0.00     0.021 C 
ENDROOT
BRANCH   1   2
ATOM      2  C   UNL A   1      35.206  23.251  23.405  1.00  0.00     0.116 C 
BRANCH   2   3
ATOM      3  N   UNL A   1      35.062  24.420  24.244  1.00  0.00    -0.354 N 
ATOM      4  C   UNL A   1      33.982  24.860  24.950  1.00  0.00     0.242 C 
ATOM      5  O   UNL A   1      34.181  25.742  25.791  1.00  0.00    -0.273 OA
ATOM      6  H   UNL A   1      35.866  24.985  24.316  1.00  0.00     0.163 HD
BRANCH   4   7
ATOM      7  C   UNL A   1      32.582  24.237  24.774  1.00  0.00     0.170 C 
ATOM      8  C   UNL A   1      31.758  24.979  23.725  1.00  0.00     0.041 C 
BRANCH   7   9
ATOM      9  N   UNL A   1      31.850  24.108  26.032  1.00  0.00    -0.327 N 
ATOM     10  C   UNL A   1      31.225  23.052  26.579  1.00  0.00     0.315 C 
ATOM     11  H   UNL A   1      31.807  24.932  26.568  1.00  0.00     0.166 HD
ATOM     12  O   UNL A   1      30.389  23.262  27.459  1.00  0.00    -0.249 OA
ATOM     13  N   UNL A   1      31.466  21.789  26.196  1.00  0.00    -0.338 N 
ATOM     14  H   UNL A   1      30.769  21.142  26.452  1.00  0.00     0.165 HD
BRANCH  13  15
ATOM     15  C   UNL A   1      32.584  21.218  25.465  1.00  0.00     0.122 C 
BRANCH  15  16
ATOM     16  C   UNL A   1      32.155  20.368  24.264  1.00  0.00     0.060 C 
BRANCH  16  17
ATOM     17  C   UNL A   1      32.604  18.932  24.335  1.00  0.00    -0.010 A 
ATOM     18  C   UNL A   1      32.854  18.327  25.573  1.00  0.00     0.007 A 
ATOM     19  C   UNL A   1      32.799  18.178  23.172  1.00  0.00     0.126 A 
ATOM     20  C   UNL A   1      33.272  16.995  25.637  1.00  0.00     0.000 A 
ATOM     21  C   UNL A   1      33.208  16.851  23.229  1.00  0.00     0.039 A 
ATOM     22  F   UNL A   1      32.594  18.736  21.970  1.00  0.00    -0.207 F 
ATOM     23  C   UNL A   1      33.446  16.255  24.466  1.00  0.00     0.003 A 
ENDBRANCH  16  17
ENDBRANCH  15  16
ENDBRANCH  13  15
ENDBRANCH   7   9
ENDBRANCH   4   7
ENDBRANCH   2   3
ENDBRANCH   1   2
BRANCH   1  24
ATOM     24  C   UNL A   1      36.206  21.558  25.080  1.00  0.00     0.002 C 
BRANCH  24  25
ATOM     25  C   UNL A   1      36.331  20.039  24.920  1.00  0.00     0.002 C 
BRANCH  25  26
ATOM     26  C   UNL A   1      37.751  19.514  24.709  1.00  0.00     0.021 C 
BRANCH  26  27
ATOM     27  C   UNL A   1      38.785  20.048  25.690  1.00  0.00     0.116 C 
BRANCH  27  28
ATOM     28  N   UNL A   1      39.944  19.182  25.799  1.00  0.00    -0.352 N 
ATOM     29  C   UNL A   1      41.238  19.510  26.121  1.00  0.00     0.251 C 
ATOM     30  H   UNL A   1      39.781  18.228  25.616  1.00  0.00     0.163 HD
ATOM     31  O   UNL A   1      42.136  18.686  25.995  1.00  0.00    -0.269 OA
BRANCH  29  32
ATOM     32  C   UNL A   1      41.548  20.874  26.602  1.00  0.00     0.039 A 
ATOM     33  C   UNL A   1      41.593  21.107  27.979  1.00  0.00     0.014 A 
ATOM     34  C   UNL A   1      41.783  21.919  25.703  1.00  0.00     0.014 A 
ATOM     35  C   UNL A   1      41.913  22.380  28.453  1.00  0.00     0.010 A 
ATOM     36  C   UNL A   1      42.180  23.165  26.177  1.00  0.00     0.010 A 
ATOM     37  C   UNL A   1      42.232  23.414  27.557  1.00  0.00    -0.014 A 
BRANCH  37  38
ATOM     38  C   UNL A   1      42.582  24.770  28.046  1.00  0.00     0.031 A 
ATOM     39  C   UNL A   1      44.025  25.138  28.274  1.00  0.00     0.074 A 
ATOM     40  C   UNL A   1      41.607  25.663  28.308  1.00  0.00     0.049 A 
ATOM     41  N   UNL A   1      44.530  26.253  28.735  1.00  0.00    -0.248 NA
ATOM     42  C   UNL A   1      45.033  24.109  27.961  1.00  0.00     0.031 C 
ATOM     43  C   UNL A   1      40.171  25.419  28.154  1.00  0.00     0.029 A 
ATOM     44  N   UNL A   1      41.676  26.960  28.754  1.00  0.00    -0.354 N 
ATOM     45  C   UNL A   1      45.905  26.059  28.770  1.00  0.00     0.074 A 
ATOM     46  C   UNL A   1      46.156  24.701  28.343  1.00  0.00     0.031 C 
ATOM     47  C   UNL A   1      39.498  26.540  28.463  1.00  0.00     0.029 A 
ATOM     48  C   UNL A   1      40.449  27.568  28.874  1.00  0.00     0.049 A 
ATOM     49  H   UNL A   1      42.524  27.411  28.969  1.00  0.00     0.167 HD
ATOM     50  C   UNL A   1      46.875  26.945  29.096  1.00  0.00     0.037 A 
ATOM     51  C   UNL A   1      40.128  28.815  29.269  1.00  0.00     0.037 A 
ATOM     52  C   UNL A   1      46.627  28.306  29.488  1.00  0.00     0.049 A 
ATOM     53  C   UNL A   1      41.228  29.770  29.647  1.00  0.00     0.074 A 
ATOM     54  C   UNL A   1      47.547  29.287  29.814  1.00  0.00     0.029 A 
ATOM     55  N   UNL A   1      45.370  28.881  29.596  1.00  0.00    -0.354 N 
ATOM     56  N   UNL A   1      42.525  29.583  29.642  1.00  0.00    -0.248 NA
ATOM     57  C   UNL A   1      40.820  31.116  30.079  1.00  0.00     0.031 C 
ATOM     58  C   UNL A   1      46.847  30.445  30.157  1.00  0.00     0.029 A 
ATOM     59  C   UNL A   1      45.494  30.203  29.990  1.00  0.00     0.049 A 
ATOM     60  H   UNL A   1      44.520  28.420  29.419  1.00  0.00     0.167 HD
ATOM     61  C   UNL A   1      43.087  30.793  30.025  1.00  0.00     0.074 A 
ATOM     62  C   UNL A   1      41.992  31.712  30.248  1.00  0.00     0.031 C 
ATOM     63  C   UNL A   1      44.395  31.115  30.176  1.00  0.00     0.037 A 
BRANCH  50  64
ATOM     64  C   UNL A   1      48.302  26.490  29.014  1.00  0.00     0.057 A 
ATOM     65  C   UNL A   1      49.048  26.675  27.842  1.00  0.00     0.134 A 
ATOM     66  C   UNL A   1      48.904  25.778  30.059  1.00  0.00     0.134 A 
ATOM     67  F   UNL A   1      48.528  27.343  26.802  1.00  0.00    -0.206 F 
ATOM     68  C   UNL A   1      50.331  26.144  27.705  1.00  0.00     0.040 A 
ATOM     69  C   UNL A   1      50.197  25.265  29.942  1.00  0.00     0.040 A 
ATOM     70  F   UNL A   1      48.249  25.579  31.212  1.00  0.00    -0.206 F 
ATOM     71  C   UNL A   1      50.909  25.436  28.757  1.00  0.00     0.006 A 
ENDBRANCH  50  64
BRANCH  51  72
ATOM     72  C   UNL A   1      38.708  29.252  29.291  1.00  0.00     0.057 A 
ATOM     73  C   UNL A   1      38.063  29.719  28.139  1.00  0.00     0.134 A 
ATOM     74  C   UNL A   1      37.954  29.194  30.470  1.00  0.00     0.134 A 
ATOM     75  F   UNL A   1      38.728  29.807  26.978  1.00  0.00    -0.206 F 
ATOM     76  C   UNL A   1      36.725  30.116  28.160  1.00  0.00     0.040 A 
ATOM     77  C   UNL A   1      36.608  29.561  30.499  1.00  0.00     0.040 A 
ATOM     78  F   UNL A   1      38.510  28.740  31.603  1.00  0.00    -0.206 F 
ATOM     79  C   UNL A   1      35.990  30.028  29.341  1.00  0.00     0.006 A 
ENDBRANCH  51  72
BRANCH  63  80
ATOM     80  C   UNL A   1      44.729  32.531  30.544  1.00  0.00     0.057 A 
ATOM     81  C   UNL A   1      44.953  33.487  29.544  1.00  0.00     0.134 A 
ATOM     82  C   UNL A   1      44.903  32.932  31.874  1.00  0.00     0.134 A 
ATOM     83  F   UNL A   1      44.816  33.164  28.249  1.00  0.00    -0.206 F 
ATOM     84  C   UNL A   1      45.351  34.788  29.853  1.00  0.00     0.040 A 
ATOM     85  C   UNL A   1      45.272  34.239  32.197  1.00  0.00     0.040 A 
ATOM     86  F   UNL A   1      44.696  32.067  32.879  1.00  0.00    -0.206 F 
ATOM     87  C   UNL A   1      45.507  35.168  31.184  1.00  0.00     0.006 A 
ENDBRANCH  63  80
ENDBRANCH  37  38
ENDBRANCH  29  32
ENDBRANCH  27  28
ENDBRANCH  26  27
ENDBRANCH  25  26
ENDBRANCH  24  25
ENDBRANCH   1  24
TORSDOF 17
ENDMDL
MODEL 2
REMARK VINA RESULT:     -11.0      0.756      6.291
REMARK SMILES C[C@H](NC(=O)NCCc1ccccc1F)C(=O)NCCCCCCNC(=O)c1ccc(-c2c3nc(c(-c4c(F)cccc4F)c4ccc([nH]4)c(-c4c(F)cccc4F)c4nc(c(-c5c(F)cccc5F)c5ccc2[nH]5)C=C4)C=C3)cc1
REMARK SMILES IDX 20 1 19 2 18 3 16 4 17 5 2 7 1 8 3 9 4 10 5 12 6 13 7 15
REMARK SMILES IDX 8 16 9 17 10 18 14 19 11 20 13 21 15 22 12 23 21 24 22 25
REMARK SMILES IDX 23 26 24 27 25 28 26 29 27 31 28 32 29 33 81 34 30 35 80 36
REMARK SMILES IDX 31 37 32 38 33 39 74 40 34 41 79 42 73 43 75 44 35 45 78 46
REMARK SMILES IDX 72 47 71 48 36 50 62 51 45 52 61 53 46 54 49 55 60 56 76 57
REMARK SMILES IDX 47 58 48 59 59 61 77 62 50 63 37 64 38 65 43 66 39 67 40 68
REMARK SMILES IDX 42 69 44 70 41 71 63 72 64 73 69 74 65 75 66 76 68 77 70 78
REMARK SMILES IDX 67 79 51 80 52 81 57 82 53 83 54 84 56 85 58 86 55 87
REMARK H PARENT 18 6 3 11 6 14 25 30 75 49 49 60
REMARK Flexibility Score: inf
ROOT
ATOM      1  C   UNL A   1      36.514  22.555  23.789  1.00  0.00     0.021 C 
ENDROOT
BRANCH   1   2
ATOM      2  C   UNL A   1      35.148  22.936  23.229  1.00  0.00     0.116 C 
BRANCH   2   3
ATOM      3  N   UNL A   1      34.773  24.298  23.540  1.00  0.00    -0.354 N 
ATOM      4  C   UNL A   1      33.629  24.782  24.100  1.00  0.00     0.242 C 
ATOM      5  O   UNL A   1      33.649  25.951  24.499  1.00  0.00    -0.273 OA
ATOM      6  H   UNL A   1      35.448  24.979  23.313  1.00  0.00     0.163 HD
BRANCH   4   7
ATOM      7  C   UNL A   1      32.383  23.897  24.306  1.00  0.00     0.170 C 
ATOM      8  C   UNL A   1      31.275  24.237  23.312  1.00  0.00     0.041 C 
BRANCH   7   9
ATOM      9  N   UNL A   1      31.887  23.916  25.681  1.00  0.00    -0.327 N 
ATOM     10  C   UNL A   1      31.453  22.920  26.470  1.00  0.00     0.315 C 
ATOM     11  H   UNL A   1      31.869  24.807  26.098  1.00  0.00     0.166 HD
ATOM     12  O   UNL A   1      30.764  23.210  27.449  1.00  0.00    -0.249 OA
ATOM     13  N   UNL A   1      31.728  21.629  26.227  1.00  0.00    -0.338 N 
ATOM     14  H   UNL A   1      31.140  20.990  26.689  1.00  0.00     0.165 HD
BRANCH  13  15
ATOM     15  C   UNL A   1      32.748  21.020  25.391  1.00  0.00     0.122 C 
BRANCH  15  16
ATOM     16  C   UNL A   1      32.178  20.095  24.312  1.00  0.00     0.060 C 
BRANCH  16  17
ATOM     17  C   UNL A   1      32.822  18.733  24.265  1.00  0.00    -0.010 A 
ATOM     18  C   UNL A   1      33.289  18.211  23.052  1.00  0.00     0.007 A 
ATOM     19  C   UNL A   1      32.951  17.956  25.422  1.00  0.00     0.126 A 
ATOM     20  C   UNL A   1      33.884  16.947  23.011  1.00  0.00     0.000 A 
ATOM     21  C   UNL A   1      33.548  16.700  25.387  1.00  0.00     0.039 A 
ATOM     22  F   UNL A   1      32.490  18.416  26.593  1.00  0.00    -0.207 F 
ATOM     23  C   UNL A   1      34.017  16.193  24.177  1.00  0.00     0.003 A 
ENDBRANCH  16  17
ENDBRANCH  15  16
ENDBRANCH  13  15
ENDBRANCH   7   9
ENDBRANCH   4   7
ENDBRANCH   2   3
ENDBRANCH   1   2
BRANCH   1  24
ATOM     24  C   UNL A   1      36.489  21.765  25.101  1.00  0.00     0.002 C 
BRANCH  24  25
ATOM     25  C   UNL A   1      36.335  20.247  24.964  1.00  0.00     0.002 C 
BRANCH  25  26
ATOM     26  C   UNL A   1      37.642  19.456  24.890  1.00  0.00     0.021 C 
BRANCH  26  27
ATOM     27  C   UNL A   1      38.814  20.086  25.629  1.00  0.00     0.116 C 
BRANCH  27  28
ATOM     28  N   UNL A   1      39.951  19.189  25.728  1.00  0.00    -0.352 N 
ATOM     29  C   UNL A   1      41.250  19.479  26.062  1.00  0.00     0.251 C 
ATOM     30  H   UNL A   1      39.765  18.243  25.529  1.00  0.00     0.163 HD
ATOM     31  O   UNL A   1      42.128  18.635  25.927  1.00  0.00    -0.269 OA
BRANCH  29  32
ATOM     32  C   UNL A   1      41.592  20.826  26.568  1.00  0.00     0.039 A 
ATOM     33  C   UNL A   1      41.489  21.076  27.939  1.00  0.00     0.014 A 
ATOM     34  C   UNL A   1      42.002  21.840  25.697  1.00  0.00     0.014 A 
ATOM     35  C   UNL A   1      41.835  22.332  28.440  1.00  0.00     0.010 A 
ATOM     36  C   UNL A   1      42.423  23.065  26.207  1.00  0.00     0.010 A 
ATOM     37  C   UNL A   1      42.327  23.329  27.581  1.00  0.00    -0.014 A 
BRANCH  37  38
ATOM     38  C   UNL A   1      42.707  24.667  28.100  1.00  0.00     0.031 A 
ATOM     39  C   UNL A   1      41.652  25.724  28.297  1.00  0.00     0.074 A 
ATOM     40  C   UNL A   1      43.998  24.940  28.372  1.00  0.00     0.049 A 
ATOM     41  N   UNL A   1      41.788  26.961  28.699  1.00  0.00    -0.248 NA
ATOM     42  C   UNL A   1      40.263  25.348  27.980  1.00  0.00     0.031 C 
ATOM     43  C   UNL A   1      45.115  24.010  28.198  1.00  0.00     0.029 A 
ATOM     44  N   UNL A   1      44.589  26.080  28.859  1.00  0.00    -0.354 N 
ATOM     45  C   UNL A   1      40.511  27.507  28.681  1.00  0.00     0.074 A 
ATOM     46  C   UNL A   1      39.619  26.491  28.171  1.00  0.00     0.031 C 
ATOM     47  C   UNL A   1      46.249  24.602  28.609  1.00  0.00     0.029 A 
ATOM     48  C   UNL A   1      45.947  25.965  29.036  1.00  0.00     0.049 A 
ATOM     49  H   UNL A   1      44.087  26.902  29.063  1.00  0.00     0.167 HD
ATOM     50  C   UNL A   1      40.112  28.736  29.085  1.00  0.00     0.037 A 
ATOM     51  C   UNL A   1      46.846  26.857  29.494  1.00  0.00     0.037 A 
ATOM     52  C   UNL A   1      40.995  29.735  29.625  1.00  0.00     0.049 A 
ATOM     53  C   UNL A   1      46.375  28.223  29.915  1.00  0.00     0.074 A 
ATOM     54  C   UNL A   1      40.678  31.001  30.085  1.00  0.00     0.029 A 
ATOM     55  N   UNL A   1      42.362  29.578  29.786  1.00  0.00    -0.354 N 
ATOM     56  N   UNL A   1      45.159  28.713  29.924  1.00  0.00    -0.248 NA
ATOM     57  C   UNL A   1      47.400  29.160  30.399  1.00  0.00     0.031 C 
ATOM     58  C   UNL A   1      41.860  31.626  30.490  1.00  0.00     0.029 A 
ATOM     59  C   UNL A   1      42.903  30.728  30.335  1.00  0.00     0.049 A 
ATOM     60  H   UNL A   1      42.871  28.770  29.548  1.00  0.00     0.167 HD
ATOM     61  C   UNL A   1      45.267  29.992  30.453  1.00  0.00     0.074 A 
ATOM     62  C   UNL A   1      46.665  30.203  30.759  1.00  0.00     0.031 C 
ATOM     63  C   UNL A   1      44.293  30.910  30.665  1.00  0.00     0.037 A 
BRANCH  50  64
ATOM     64  C   UNL A   1      38.652  29.068  28.997  1.00  0.00     0.057 A 
ATOM     65  C   UNL A   1      38.105  29.591  27.818  1.00  0.00     0.134 A 
ATOM     66  C   UNL A   1      37.810  28.966  30.112  1.00  0.00     0.134 A 
ATOM     67  F   UNL A   1      38.857  29.720  26.716  1.00  0.00    -0.206 F 
ATOM     68  C   UNL A   1      36.779  30.025  27.761  1.00  0.00     0.040 A 
ATOM     69  C   UNL A   1      36.476  29.373  30.059  1.00  0.00     0.040 A 
ATOM     70  F   UNL A   1      38.269  28.461  31.267  1.00  0.00    -0.206 F 
ATOM     71  C   UNL A   1      35.962  29.917  28.884  1.00  0.00     0.006 A 
ENDBRANCH  50  64
BRANCH  51  72
ATOM     72  C   UNL A   1      48.278  26.481  29.619  1.00  0.00     0.057 A 
ATOM     73  C   UNL A   1      48.771  25.817  30.750  1.00  0.00     0.134 A 
ATOM     74  C   UNL A   1      49.190  26.764  28.593  1.00  0.00     0.134 A 
ATOM     75  F   UNL A   1      47.954  25.524  31.771  1.00  0.00    -0.206 F 
ATOM     76  C   UNL A   1      50.114  25.454  30.858  1.00  0.00     0.040 A 
ATOM     77  C   UNL A   1      50.529  26.381  28.675  1.00  0.00     0.040 A 
ATOM     78  F   UNL A   1      48.777  27.382  27.477  1.00  0.00    -0.206 F 
ATOM     79  C   UNL A   1      50.996  25.727  29.814  1.00  0.00     0.006 A 
ENDBRANCH  51  72
BRANCH  63  80
ATOM     80  C   UNL A   1      44.683  32.206  31.313  1.00  0.00     0.057 A 
ATOM     81  C   UNL A   1      44.642  32.339  32.708  1.00  0.00     0.134 A 
ATOM     82  C   UNL A   1      45.024  33.339  30.565  1.00  0.00     0.134 A 
ATOM     83  F   UNL A   1      44.310  31.296  33.484  1.00  0.00    -0.206 F 
ATOM     84  C   UNL A   1      44.914  33.556  33.334  1.00  0.00     0.040 A 
ATOM     85  C   UNL A   1      45.327  34.554  31.181  1.00  0.00     0.040 A 
ATOM     86  F   UNL A   1      45.089  33.276  29.226  1.00  0.00    -0.206 F 
ATOM     87  C   UNL A   1      45.263  34.667  32.570  1.00  0.00     0.006 A 
ENDBRANCH  63  80
ENDBRANCH  37  38
ENDBRANCH  29  32
ENDBRANCH  27  28
ENDBRANCH  26  27
ENDBRANCH  25  26
ENDBRANCH  24  25
ENDBRANCH   1  24
TORSDOF 17
ENDMDL
MODEL 3
REMARK VINA RESULT:     -10.9      1.827      3.760
REMARK SMILES C[C@H](NC(=O)NCCc1ccccc1F)C(=O)NCCCCCCNC(=O)c1ccc(-c2c3nc(c(-c4c(F)cccc4F)c4ccc([nH]4)c(-c4c(F)cccc4F)c4nc(c(-c5c(F)cccc5F)c5ccc2[nH]5)C=C4)C=C3)cc1
REMARK SMILES IDX 20 1 19 2 18 3 16 4 17 5 2 7 1 8 3 9 4 10 5 12 6 13 7 15
REMARK SMILES IDX 8 16 9 17 10 18 14 19 11 20 13 21 15 22 12 23 21 24 22 25
REMARK SMILES IDX 23 26 24 27 25 28 26 29 27 31 28 32 29 33 81 34 30 35 80 36
REMARK SMILES IDX 31 37 32 38 33 39 74 40 34 41 79 42 73 43 75 44 35 45 78 46
REMARK SMILES IDX 72 47 71 48 36 50 62 51 45 52 61 53 46 54 49 55 60 56 76 57
REMARK SMILES IDX 47 58 48 59 59 61 77 62 50 63 37 64 38 65 43 66 39 67 40 68
REMARK SMILES IDX 42 69 44 70 41 71 63 72 64 73 69 74 65 75 66 76 68 77 70 78
REMARK SMILES IDX 67 79 51 80 52 81 57 82 53 83 54 84 56 85 58 86 55 87
REMARK H PARENT 18 6 3 11 6 14 25 30 75 49 49 60
REMARK Flexibility Score: inf
ROOT
ATOM      1  C   UNL A   1      36.567  22.587  23.641  1.00  0.00     0.021 C 
ENDROOT
BRANCH   1   2
ATOM      2  C   UNL A   1      35.175  23.052  24.053  1.00  0.00     0.116 C 
BRANCH   2   3
ATOM      3  N   UNL A   1      34.169  22.026  23.890  1.00  0.00    -0.354 N 
ATOM      4  C   UNL A   1      33.141  21.673  24.712  1.00  0.00     0.242 C 
ATOM      5  O   UNL A   1      32.268  20.940  24.237  1.00  0.00    -0.273 OA
ATOM      6  H   UNL A   1      34.238  21.502  23.059  1.00  0.00     0.163 HD
BRANCH   4   7
ATOM      7  C   UNL A   1      33.017  22.223  26.147  1.00  0.00     0.170 C 
ATOM      8  C   UNL A   1      33.939  21.490  27.117  1.00  0.00     0.041 C 
BRANCH   7   9
ATOM      9  N   UNL A   1      31.639  22.243  26.636  1.00  0.00    -0.327 N 
ATOM     10  C   UNL A   1      30.843  23.272  26.972  1.00  0.00     0.315 C 
ATOM     11  H   UNL A   1      31.226  21.356  26.736  1.00  0.00     0.166 HD
ATOM     12  O   UNL A   1      29.863  23.042  27.680  1.00  0.00    -0.249 OA
ATOM     13  N   UNL A   1      31.083  24.533  26.579  1.00  0.00    -0.338 N 
ATOM     14  H   UNL A   1      30.614  25.222  27.103  1.00  0.00     0.165 HD
BRANCH  13  15
ATOM     15  C   UNL A   1      31.920  25.048  25.510  1.00  0.00     0.122 C 
BRANCH  15  16
ATOM     16  C   UNL A   1      33.018  25.997  26.001  1.00  0.00     0.060 C 
BRANCH  16  17
ATOM     17  C   UNL A   1      32.611  27.448  26.029  1.00  0.00    -0.010 A 
ATOM     18  C   UNL A   1      32.483  28.125  27.248  1.00  0.00     0.007 A 
ATOM     19  C   UNL A   1      32.336  28.143  24.846  1.00  0.00     0.126 A 
ATOM     20  C   UNL A   1      32.105  29.469  27.272  1.00  0.00     0.000 A 
ATOM     21  C   UNL A   1      31.965  29.482  24.863  1.00  0.00     0.039 A 
ATOM     22  F   UNL A   1      32.424  27.516  23.664  1.00  0.00    -0.207 F 
ATOM     23  C   UNL A   1      31.849  30.150  26.081  1.00  0.00     0.003 A 
ENDBRANCH  16  17
ENDBRANCH  15  16
ENDBRANCH  13  15
ENDBRANCH   7   9
ENDBRANCH   4   7
ENDBRANCH   2   3
ENDBRANCH   1   2
BRANCH   1  24
ATOM     24  C   UNL A   1      37.317  21.753  24.685  1.00  0.00     0.002 C 
BRANCH  24  25
ATOM     25  C   UNL A   1      36.926  20.274  24.764  1.00  0.00     0.002 C 
BRANCH  25  26
ATOM     26  C   UNL A   1      38.078  19.300  25.012  1.00  0.00     0.021 C 
BRANCH  26  27
ATOM     27  C   UNL A   1      39.220  19.857  25.849  1.00  0.00     0.116 C 
BRANCH  27  28
ATOM     28  N   UNL A   1      40.369  18.971  25.877  1.00  0.00    -0.352 N 
ATOM     29  C   UNL A   1      41.690  19.279  26.092  1.00  0.00     0.251 C 
ATOM     30  H   UNL A   1      40.176  18.019  25.718  1.00  0.00     0.163 HD
ATOM     31  O   UNL A   1      42.561  18.437  25.907  1.00  0.00    -0.269 OA
BRANCH  29  32
ATOM     32  C   UNL A   1      42.060  20.642  26.533  1.00  0.00     0.039 A 
ATOM     33  C   UNL A   1      42.345  21.607  25.564  1.00  0.00     0.014 A 
ATOM     34  C   UNL A   1      42.135  20.964  27.891  1.00  0.00     0.014 A 
ATOM     35  C   UNL A   1      42.668  22.906  25.959  1.00  0.00     0.010 A 
ATOM     36  C   UNL A   1      42.378  22.278  28.280  1.00  0.00     0.010 A 
ATOM     37  C   UNL A   1      42.664  23.259  27.319  1.00  0.00    -0.014 A 
BRANCH  37  38
ATOM     38  C   UNL A   1      42.997  24.638  27.754  1.00  0.00     0.031 A 
ATOM     39  C   UNL A   1      44.437  25.074  27.834  1.00  0.00     0.074 A 
ATOM     40  C   UNL A   1      42.011  25.491  28.098  1.00  0.00     0.049 A 
ATOM     41  N   UNL A   1      44.932  26.218  28.229  1.00  0.00    -0.248 NA
ATOM     42  C   UNL A   1      45.456  24.086  27.439  1.00  0.00     0.031 C 
ATOM     43  C   UNL A   1      40.581  25.179  28.088  1.00  0.00     0.029 A 
ATOM     44  N   UNL A   1      42.063  26.797  28.518  1.00  0.00    -0.354 N 
ATOM     45  C   UNL A   1      46.311  26.087  28.132  1.00  0.00     0.074 A 
ATOM     46  C   UNL A   1      46.582  24.735  27.701  1.00  0.00     0.031 C 
ATOM     47  C   UNL A   1      39.890  26.274  28.446  1.00  0.00     0.029 A 
ATOM     48  C   UNL A   1      40.827  27.351  28.749  1.00  0.00     0.049 A 
ATOM     49  H   UNL A   1      42.906  27.290  28.642  1.00  0.00     0.167 HD
ATOM     50  C   UNL A   1      47.266  27.021  28.350  1.00  0.00     0.037 A 
ATOM     51  C   UNL A   1      40.489  28.590  29.156  1.00  0.00     0.037 A 
ATOM     52  C   UNL A   1      46.994  28.377  28.746  1.00  0.00     0.049 A 
ATOM     53  C   UNL A   1      41.574  29.600  29.413  1.00  0.00     0.074 A 
ATOM     54  C   UNL A   1      47.896  29.403  28.968  1.00  0.00     0.029 A 
ATOM     55  N   UNL A   1      45.729  28.897  28.969  1.00  0.00    -0.354 N 
ATOM     56  N   UNL A   1      42.872  29.470  29.284  1.00  0.00    -0.248 NA
ATOM     57  C   UNL A   1      41.148  30.933  29.864  1.00  0.00     0.031 C 
ATOM     58  C   UNL A   1      47.179  30.535  29.362  1.00  0.00     0.029 A 
ATOM     59  C   UNL A   1      45.828  30.229  29.331  1.00  0.00     0.049 A 
ATOM     60  H   UNL A   1      44.887  28.394  28.882  1.00  0.00     0.167 HD
ATOM     61  C   UNL A   1      43.412  30.712  29.593  1.00  0.00     0.074 A 
ATOM     62  C   UNL A   1      42.302  31.585  29.910  1.00  0.00     0.031 C 
ATOM     63  C   UNL A   1      44.712  31.094  29.612  1.00  0.00     0.037 A 
BRANCH  50  64
ATOM     64  C   UNL A   1      48.698  26.630  28.135  1.00  0.00     0.057 A 
ATOM     65  C   UNL A   1      49.277  26.700  26.861  1.00  0.00     0.134 A 
ATOM     66  C   UNL A   1      49.471  26.087  29.169  1.00  0.00     0.134 A 
ATOM     67  F   UNL A   1      48.590  27.204  25.826  1.00  0.00    -0.206 F 
ATOM     68  C   UNL A   1      50.565  26.218  26.620  1.00  0.00     0.040 A 
ATOM     69  C   UNL A   1      50.770  25.627  28.944  1.00  0.00     0.040 A 
ATOM     70  F   UNL A   1      48.980  26.005  30.415  1.00  0.00    -0.206 F 
ATOM     71  C   UNL A   1      51.314  25.679  27.663  1.00  0.00     0.006 A 
ENDBRANCH  50  64
BRANCH  51  72
ATOM     72  C   UNL A   1      39.058  28.963  29.311  1.00  0.00     0.057 A 
ATOM     73  C   UNL A   1      38.379  28.790  30.524  1.00  0.00     0.134 A 
ATOM     74  C   UNL A   1      38.340  29.521  28.247  1.00  0.00     0.134 A 
ATOM     75  F   UNL A   1      39.005  28.254  31.581  1.00  0.00    -0.206 F 
ATOM     76  C   UNL A   1      37.039  29.154  30.670  1.00  0.00     0.040 A 
ATOM     77  C   UNL A   1      37.009  29.916  28.386  1.00  0.00     0.040 A 
ATOM     78  F   UNL A   1      38.939  29.728  27.065  1.00  0.00    -0.206 F 
ATOM     79  C   UNL A   1      36.353  29.728  29.601  1.00  0.00     0.006 A 
ENDBRANCH  51  72
BRANCH  63  80
ATOM     80  C   UNL A   1      45.014  32.530  29.927  1.00  0.00     0.057 A 
ATOM     81  C   UNL A   1      45.082  33.480  28.898  1.00  0.00     0.134 A 
ATOM     82  C   UNL A   1      45.311  32.960  31.225  1.00  0.00     0.134 A 
ATOM     83  F   UNL A   1      44.822  33.131  27.628  1.00  0.00    -0.206 F 
ATOM     84  C   UNL A   1      45.447  34.803  29.148  1.00  0.00     0.040 A 
ATOM     85  C   UNL A   1      45.648  34.288  31.492  1.00  0.00     0.040 A 
ATOM     86  F   UNL A   1      45.256  32.102  32.256  1.00  0.00    -0.206 F 
ATOM     87  C   UNL A   1      45.726  35.211  30.450  1.00  0.00     0.006 A 
ENDBRANCH  63  80
ENDBRANCH  37  38
ENDBRANCH  29  32
ENDBRANCH  27  28
ENDBRANCH  26  27
ENDBRANCH  25  26
ENDBRANCH  24  25
ENDBRANCH   1  24
TORSDOF 17
ENDMDL
