MODEL 1
REMARK VINA RESULT:     -11.8      0.000      0.000
REMARK SMILES C=CC[C@@]1(C(=O)NCCCCCCNC(=O)c2ccc(-c3c4nc(c(-c5c(F)cccc5F)c5ccc([nH]5)c(-c5c(F)cccc5F)c5nc(c(-c6c(F)cccc6F)c6ccc3[nH]6)C=C5)C=C4)cc2)CCCN(C(=O)c2ccc3c(c2)OCO3)C1
REMARK SMILES IDX 10 1 9 2 8 3 7 4 5 5 6 6 4 8 71 9 86 10 72 11 74 12 73 13
REMARK SMILES IDX 3 14 2 15 1 16 75 17 76 18 77 19 78 20 82 21 79 22 81 23
REMARK SMILES IDX 80 24 83 25 85 26 84 27 11 28 12 29 13 30 14 31 15 32 16 34
REMARK SMILES IDX 17 35 18 36 70 37 19 38 69 39 20 40 21 41 22 42 63 43 23 44
REMARK SMILES IDX 68 45 62 46 64 47 24 48 67 49 61 50 60 51 25 53 51 54 34 55
REMARK SMILES IDX 50 56 35 57 38 58 49 59 65 60 36 61 37 62 48 64 66 65 39 66
REMARK SMILES IDX 26 67 27 68 32 69 28 70 29 71 31 72 33 73 30 74 52 75 53 76
REMARK SMILES IDX 58 77 54 78 55 79 57 80 59 81 56 82 40 83 41 84 46 85 42 86
REMARK SMILES IDX 43 87 45 88 47 89 44 90
REMARK H PARENT 7 7 14 33 64 52 38 63
REMARK Flexibility Score: inf
ROOT
ATOM      1  C   UNL A   1      32.336  29.805  27.255  1.00  0.00     0.002 C 
ENDROOT
BRANCH   1   2
ATOM      2  C   UNL A   1      33.793  29.491  26.895  1.00  0.00     0.021 C 
BRANCH   2   3
ATOM      3  C   UNL A   1      34.033  28.038  26.478  1.00  0.00     0.116 C 
BRANCH   3   4
ATOM      4  N   UNL A   1      32.778  27.339  26.346  1.00  0.00    -0.356 N 
ATOM      5  C   UNL A   1      32.069  26.826  25.317  1.00  0.00     0.228 C 
ATOM      6  O   UNL A   1      30.955  26.409  25.658  1.00  0.00    -0.274 OA
ATOM      7  H   UNL A   1      32.331  27.203  27.212  1.00  0.00     0.163 HD
BRANCH   5   8
ATOM      8  C   UNL A   1      32.590  26.614  23.871  1.00  0.00     0.070 C 
ATOM      9  C   UNL A   1      33.549  27.665  23.260  1.00  0.00     0.021 C 
ATOM     10  C   UNL A   1      31.317  26.646  22.963  1.00  0.00     0.137 C 
ATOM     11  C   UNL A   1      32.942  29.059  23.214  1.00  0.00     0.023 C 
ATOM     12  N   UNL A   1      30.744  27.996  22.858  1.00  0.00    -0.338 N 
ATOM     13  C   UNL A   1      31.654  29.053  22.409  1.00  0.00     0.120 C 
BRANCH   8  14
ATOM     14  C   UNL A   1      33.271  25.211  23.736  1.00  0.00     0.045 C 
BRANCH  14  15
ATOM     15  C   UNL A   1      33.864  24.598  24.974  1.00  0.00    -0.034 C 
ATOM     16  C   UNL A   1      35.179  24.455  25.177  1.00  0.00     0.004 C 
ENDBRANCH  14  15
ENDBRANCH   8  14
BRANCH  12  17
ATOM     17  C   UNL A   1      29.383  28.177  23.128  1.00  0.00     0.254 C 
ATOM     18  O   UNL A   1      28.610  27.311  23.507  1.00  0.00    -0.269 OA
BRANCH  17  19
ATOM     19  C   UNL A   1      28.839  29.529  22.904  1.00  0.00     0.043 A 
ATOM     20  C   UNL A   1      29.085  30.541  23.853  1.00  0.00     0.018 A 
ATOM     21  C   UNL A   1      28.234  29.799  21.672  1.00  0.00     0.064 A 
ATOM     22  C   UNL A   1      28.781  31.869  23.540  1.00  0.00     0.051 A 
ATOM     23  C   UNL A   1      27.993  31.120  21.383  1.00  0.00     0.166 A 
ATOM     24  C   UNL A   1      28.269  32.126  22.284  1.00  0.00     0.165 A 
ATOM     25  O   UNL A   1      27.549  31.594  20.190  1.00  0.00    -0.454 OA
ATOM     26  O   UNL A   1      28.025  33.359  21.759  1.00  0.00    -0.454 OA
ATOM     27  C   UNL A   1      27.733  33.010  20.388  1.00  0.00     0.468 C 
ENDBRANCH  17  19
ENDBRANCH  12  17
ENDBRANCH   5   8
ENDBRANCH   3   4
ENDBRANCH   2   3
ENDBRANCH   1   2
BRANCH   1  28
ATOM     28  C   UNL A   1      31.636  30.787  26.312  1.00  0.00     0.002 C 
BRANCH  28  29
ATOM     29  C   UNL A   1      31.407  32.184  26.893  1.00  0.00     0.021 C 
BRANCH  29  30
ATOM     30  C   UNL A   1      32.649  33.069  26.931  1.00  0.00     0.116 C 
BRANCH  30  31
ATOM     31  N   UNL A   1      32.449  34.253  27.748  1.00  0.00    -0.352 N 
ATOM     32  C   UNL A   1      33.125  34.667  28.866  1.00  0.00     0.251 C 
ATOM     33  H   UNL A   1      31.719  34.845  27.456  1.00  0.00     0.163 HD
ATOM     34  O   UNL A   1      32.683  35.589  29.544  1.00  0.00    -0.269 OA
BRANCH  32  35
ATOM     35  C   UNL A   1      34.380  33.995  29.266  1.00  0.00     0.039 A 
ATOM     36  C   UNL A   1      35.560  34.343  28.606  1.00  0.00     0.014 A 
ATOM     37  C   UNL A   1      34.393  33.009  30.257  1.00  0.00     0.014 A 
ATOM     38  C   UNL A   1      36.761  33.733  28.970  1.00  0.00     0.010 A 
ATOM     39  C   UNL A   1      35.602  32.453  30.670  1.00  0.00     0.010 A 
ATOM     40  C   UNL A   1      36.797  32.802  30.022  1.00  0.00    -0.014 A 
BRANCH  40  41
ATOM     41  C   UNL A   1      38.086  32.202  30.447  1.00  0.00     0.031 A 
ATOM     42  C   UNL A   1      38.894  32.819  31.555  1.00  0.00     0.074 A 
ATOM     43  C   UNL A   1      38.541  31.105  29.811  1.00  0.00     0.049 A 
ATOM     44  N   UNL A   1      40.018  32.406  32.085  1.00  0.00    -0.248 NA
ATOM     45  C   UNL A   1      38.391  34.078  32.124  1.00  0.00     0.031 C 
ATOM     46  C   UNL A   1      37.883  30.453  28.677  1.00  0.00     0.029 A 
ATOM     47  N   UNL A   1      39.660  30.342  30.030  1.00  0.00    -0.354 N 
ATOM     48  C   UNL A   1      40.357  33.353  33.042  1.00  0.00     0.074 A 
ATOM     49  C   UNL A   1      39.352  34.392  32.979  1.00  0.00     0.031 C 
ATOM     50  C   UNL A   1      38.589  29.368  28.324  1.00  0.00     0.029 A 
ATOM     51  C   UNL A   1      39.761  29.262  29.188  1.00  0.00     0.049 A 
ATOM     52  H   UNL A   1      40.326  30.549  30.723  1.00  0.00     0.167 HD
ATOM     53  C   UNL A   1      41.395  33.345  33.911  1.00  0.00     0.037 A 
ATOM     54  C   UNL A   1      40.686  28.286  29.127  1.00  0.00     0.037 A 
ATOM     55  C   UNL A   1      42.383  32.299  33.982  1.00  0.00     0.049 A 
ATOM     56  C   UNL A   1      41.812  28.283  30.122  1.00  0.00     0.074 A 
ATOM     57  C   UNL A   1      43.437  32.165  34.867  1.00  0.00     0.029 A 
ATOM     58  N   UNL A   1      42.438  31.207  33.128  1.00  0.00    -0.354 N 
ATOM     59  N   UNL A   1      42.072  29.138  31.079  1.00  0.00    -0.248 NA
ATOM     60  C   UNL A   1      42.764  27.167  30.036  1.00  0.00     0.031 C 
ATOM     61  C   UNL A   1      44.159  31.017  34.520  1.00  0.00     0.029 A 
ATOM     62  C   UNL A   1      43.521  30.406  33.454  1.00  0.00     0.049 A 
ATOM     63  H   UNL A   1      41.802  31.028  32.398  1.00  0.00     0.167 HD
ATOM     64  C   UNL A   1      43.198  28.651  31.730  1.00  0.00     0.074 A 
ATOM     65  C   UNL A   1      43.562  27.416  31.065  1.00  0.00     0.031 C 
ATOM     66  C   UNL A   1      43.870  29.179  32.783  1.00  0.00     0.037 A 
BRANCH  53  67
ATOM     67  C   UNL A   1      41.516  34.506  34.858  1.00  0.00     0.057 A 
ATOM     68  C   UNL A   1      40.914  34.495  36.123  1.00  0.00     0.134 A 
ATOM     69  C   UNL A   1      42.267  35.638  34.513  1.00  0.00     0.134 A 
ATOM     70  F   UNL A   1      40.171  33.448  36.514  1.00  0.00    -0.206 F 
ATOM     71  C   UNL A   1      41.029  35.577  36.999  1.00  0.00     0.040 A 
ATOM     72  C   UNL A   1      42.414  36.713  35.391  1.00  0.00     0.040 A 
ATOM     73  F   UNL A   1      42.876  35.713  33.320  1.00  0.00    -0.206 F 
ATOM     74  C   UNL A   1      41.787  36.687  36.635  1.00  0.00     0.006 A 
ENDBRANCH  53  67
BRANCH  54  75
ATOM     75  C   UNL A   1      40.556  27.207  28.116  1.00  0.00     0.057 A 
ATOM     76  C   UNL A   1      41.219  27.284  26.886  1.00  0.00     0.134 A 
ATOM     77  C   UNL A   1      39.777  26.069  28.360  1.00  0.00     0.134 A 
ATOM     78  F   UNL A   1      41.969  28.356  26.590  1.00  0.00    -0.206 F 
ATOM     79  C   UNL A   1      41.098  26.279  25.926  1.00  0.00     0.040 A 
ATOM     80  C   UNL A   1      39.667  25.045  27.419  1.00  0.00     0.040 A 
ATOM     81  F   UNL A   1      39.126  25.931  29.524  1.00  0.00    -0.206 F 
ATOM     82  C   UNL A   1      40.324  25.151  26.195  1.00  0.00     0.006 A 
ENDBRANCH  54  75
BRANCH  66  83
ATOM     83  C   UNL A   1      45.044  28.401  33.303  1.00  0.00     0.057 A 
ATOM     84  C   UNL A   1      44.894  27.352  34.219  1.00  0.00     0.134 A 
ATOM     85  C   UNL A   1      46.342  28.695  32.865  1.00  0.00     0.134 A 
ATOM     86  F   UNL A   1      43.678  27.027  34.687  1.00  0.00    -0.206 F 
ATOM     87  C   UNL A   1      45.994  26.644  34.705  1.00  0.00     0.040 A 
ATOM     88  C   UNL A   1      47.448  27.977  33.322  1.00  0.00     0.040 A 
ATOM     89  F   UNL A   1      46.556  29.681  31.981  1.00  0.00    -0.206 F 
ATOM     90  C   UNL A   1      47.276  26.954  34.252  1.00  0.00     0.006 A 
ENDBRANCH  66  83
ENDBRANCH  40  41
ENDBRANCH  32  35
ENDBRANCH  30  31
ENDBRANCH  29  30
ENDBRANCH  28  29
ENDBRANCH   1  28
TORSDOF 17
ENDMDL
MODEL 2
REMARK VINA RESULT:     -11.8      1.135      6.164
REMARK SMILES C=CC[C@@]1(C(=O)NCCCCCCNC(=O)c2ccc(-c3c4nc(c(-c5c(F)cccc5F)c5ccc([nH]5)c(-c5c(F)cccc5F)c5nc(c(-c6c(F)cccc6F)c6ccc3[nH]6)C=C5)C=C4)cc2)CCCN(C(=O)c2ccc3c(c2)OCO3)C1
REMARK SMILES IDX 10 1 9 2 8 3 7 4 5 5 6 6 4 8 71 9 86 10 72 11 74 12 73 13
REMARK SMILES IDX 3 14 2 15 1 16 75 17 76 18 77 19 78 20 82 21 79 22 81 23
REMARK SMILES IDX 80 24 83 25 85 26 84 27 11 28 12 29 13 30 14 31 15 32 16 34
REMARK SMILES IDX 17 35 18 36 70 37 19 38 69 39 20 40 21 41 22 42 63 43 23 44
REMARK SMILES IDX 68 45 62 46 64 47 24 48 67 49 61 50 60 51 25 53 51 54 34 55
REMARK SMILES IDX 50 56 35 57 38 58 49 59 65 60 36 61 37 62 48 64 66 65 39 66
REMARK SMILES IDX 26 67 27 68 32 69 28 70 29 71 31 72 33 73 30 74 52 75 53 76
REMARK SMILES IDX 58 77 54 78 55 79 57 80 59 81 56 82 40 83 41 84 46 85 42 86
REMARK SMILES IDX 43 87 45 88 47 89 44 90
REMARK H PARENT 7 7 14 33 64 52 38 63
REMARK Flexibility Score: inf
ROOT
ATOM      1  C   UNL A   1      32.313  29.695  27.234  1.00  0.00     0.002 C 
ENDROOT
BRANCH   1   2
ATOM      2  C   UNL A   1      33.770  29.349  26.903  1.00  0.00     0.021 C 
BRANCH   2   3
ATOM      3  C   UNL A   1      33.982  27.896  26.473  1.00  0.00     0.116 C 
BRANCH   3   4
ATOM      4  N   UNL A   1      32.714  27.226  26.321  1.00  0.00    -0.356 N 
ATOM      5  C   UNL A   1      32.001  26.746  25.280  1.00  0.00     0.228 C 
ATOM      6  O   UNL A   1      30.876  26.345  25.608  1.00  0.00    -0.274 OA
ATOM      7  H   UNL A   1      32.260  27.084  27.183  1.00  0.00     0.163 HD
BRANCH   5   8
ATOM      8  C   UNL A   1      32.525  26.548  23.834  1.00  0.00     0.070 C 
ATOM      9  C   UNL A   1      33.499  27.597  23.241  1.00  0.00     0.021 C 
ATOM     10  C   UNL A   1      31.256  26.607  22.921  1.00  0.00     0.137 C 
ATOM     11  C   UNL A   1      32.908  28.998  23.213  1.00  0.00     0.023 C 
ATOM     12  N   UNL A   1      30.699  27.966  22.833  1.00  0.00    -0.338 N 
ATOM     13  C   UNL A   1      31.623  29.019  22.403  1.00  0.00     0.120 C 
BRANCH   8  14
ATOM     14  C   UNL A   1      33.192  25.139  23.681  1.00  0.00     0.045 C 
BRANCH  14  15
ATOM     15  C   UNL A   1      33.855  24.545  24.891  1.00  0.00    -0.034 C 
ATOM     16  C   UNL A   1      35.182  24.459  25.045  1.00  0.00     0.004 C 
ENDBRANCH  14  15
ENDBRANCH   8  14
BRANCH  12  17
ATOM     17  C   UNL A   1      29.339  28.158  23.099  1.00  0.00     0.254 C 
ATOM     18  O   UNL A   1      28.559  27.300  23.483  1.00  0.00    -0.269 OA
BRANCH  17  19
ATOM     19  C   UNL A   1      28.806  29.512  22.868  1.00  0.00     0.043 A 
ATOM     20  C   UNL A   1      29.067  30.530  23.806  1.00  0.00     0.018 A 
ATOM     21  C   UNL A   1      28.196  29.778  21.637  1.00  0.00     0.064 A 
ATOM     22  C   UNL A   1      28.772  31.858  23.484  1.00  0.00     0.051 A 
ATOM     23  C   UNL A   1      27.964  31.098  21.338  1.00  0.00     0.166 A 
ATOM     24  C   UNL A   1      28.254  32.109  22.229  1.00  0.00     0.165 A 
ATOM     25  O   UNL A   1      27.516  31.566  20.143  1.00  0.00    -0.454 OA
ATOM     26  O   UNL A   1      28.018  33.339  21.695  1.00  0.00    -0.454 OA
ATOM     27  C   UNL A   1      27.714  32.981  20.329  1.00  0.00     0.468 C 
ENDBRANCH  17  19
ENDBRANCH  12  17
ENDBRANCH   5   8
ENDBRANCH   3   4
ENDBRANCH   2   3
ENDBRANCH   1   2
BRANCH   1  28
ATOM     28  C   UNL A   1      31.655  30.693  26.277  1.00  0.00     0.002 C 
BRANCH  28  29
ATOM     29  C   UNL A   1      31.484  32.106  26.839  1.00  0.00     0.021 C 
BRANCH  29  30
ATOM     30  C   UNL A   1      32.784  32.887  27.004  1.00  0.00     0.116 C 
BRANCH  30  31
ATOM     31  N   UNL A   1      32.561  34.195  27.596  1.00  0.00    -0.352 N 
ATOM     32  C   UNL A   1      33.132  34.758  28.707  1.00  0.00     0.251 C 
ATOM     33  H   UNL A   1      31.902  34.759  27.131  1.00  0.00     0.163 HD
ATOM     34  O   UNL A   1      32.670  35.795  29.175  1.00  0.00    -0.269 OA
BRANCH  32  35
ATOM     35  C   UNL A   1      34.295  34.113  29.353  1.00  0.00     0.039 A 
ATOM     36  C   UNL A   1      34.062  33.211  30.393  1.00  0.00     0.014 A 
ATOM     37  C   UNL A   1      35.603  34.416  28.965  1.00  0.00     0.014 A 
ATOM     38  C   UNL A   1      35.140  32.580  31.014  1.00  0.00     0.010 A 
ATOM     39  C   UNL A   1      36.675  33.732  29.535  1.00  0.00     0.010 A 
ATOM     40  C   UNL A   1      36.453  32.815  30.574  1.00  0.00    -0.014 A 
BRANCH  40  41
ATOM     41  C   UNL A   1      37.592  32.094  31.196  1.00  0.00     0.031 A 
ATOM     42  C   UNL A   1      38.291  30.982  30.464  1.00  0.00     0.074 A 
ATOM     43  C   UNL A   1      37.981  32.431  32.441  1.00  0.00     0.049 A 
ATOM     44  N   UNL A   1      39.329  30.275  30.836  1.00  0.00    -0.248 NA
ATOM     45  C   UNL A   1      37.739  30.594  29.158  1.00  0.00     0.031 C 
ATOM     46  C   UNL A   1      37.340  33.446  33.280  1.00  0.00     0.029 A 
ATOM     47  N   UNL A   1      39.012  31.962  33.216  1.00  0.00    -0.354 N 
ATOM     48  C   UNL A   1      39.548  29.358  29.816  1.00  0.00     0.074 A 
ATOM     49  C   UNL A   1      38.501  29.559  28.838  1.00  0.00     0.031 C 
ATOM     50  C   UNL A   1      38.013  33.550  34.436  1.00  0.00     0.029 A 
ATOM     51  C   UNL A   1      39.116  32.593  34.431  1.00  0.00     0.049 A 
ATOM     52  H   UNL A   1      39.618  31.243  32.928  1.00  0.00     0.167 HD
ATOM     53  C   UNL A   1      40.545  28.450  29.693  1.00  0.00     0.037 A 
ATOM     54  C   UNL A   1      40.008  32.429  35.426  1.00  0.00     0.037 A 
ATOM     55  C   UNL A   1      41.596  28.267  30.661  1.00  0.00     0.049 A 
ATOM     56  C   UNL A   1      41.123  31.437  35.253  1.00  0.00     0.074 A 
ATOM     57  C   UNL A   1      42.687  27.418  30.600  1.00  0.00     0.029 A 
ATOM     58  N   UNL A   1      41.682  28.941  31.870  1.00  0.00    -0.354 N 
ATOM     59  N   UNL A   1      41.369  30.638  34.244  1.00  0.00    -0.248 NA
ATOM     60  C   UNL A   1      42.093  31.337  36.351  1.00  0.00     0.031 C 
ATOM     61  C   UNL A   1      43.409  27.546  31.793  1.00  0.00     0.029 A 
ATOM     62  C   UNL A   1      42.797  28.514  32.572  1.00  0.00     0.049 A 
ATOM     63  H   UNL A   1      41.044  29.624  32.182  1.00  0.00     0.167 HD
ATOM     64  C   UNL A   1      42.537  29.962  34.570  1.00  0.00     0.074 A 
ATOM     65  C   UNL A   1      42.957  30.457  35.866  1.00  0.00     0.031 C 
ATOM     66  C   UNL A   1      43.203  29.017  33.861  1.00  0.00     0.037 A 
BRANCH  53  67
ATOM     67  C   UNL A   1      40.547  27.585  28.465  1.00  0.00     0.057 A 
ATOM     68  C   UNL A   1      41.259  27.939  27.310  1.00  0.00     0.134 A 
ATOM     69  C   UNL A   1      39.852  26.368  28.444  1.00  0.00     0.134 A 
ATOM     70  F   UNL A   1      41.937  29.096  27.258  1.00  0.00    -0.206 F 
ATOM     71  C   UNL A   1      41.257  27.131  26.171  1.00  0.00     0.040 A 
ATOM     72  C   UNL A   1      39.866  25.538  27.322  1.00  0.00     0.040 A 
ATOM     73  F   UNL A   1      39.154  25.964  29.516  1.00  0.00    -0.206 F 
ATOM     74  C   UNL A   1      40.563  25.922  26.179  1.00  0.00     0.006 A 
ENDBRANCH  53  67
BRANCH  54  75
ATOM     75  C   UNL A   1      39.908  33.260  36.651  1.00  0.00     0.057 A 
ATOM     76  C   UNL A   1      39.047  32.907  37.696  1.00  0.00     0.134 A 
ATOM     77  C   UNL A   1      40.679  34.418  36.813  1.00  0.00     0.134 A 
ATOM     78  F   UNL A   1      38.273  31.816  37.594  1.00  0.00    -0.206 F 
ATOM     79  C   UNL A   1      38.939  33.685  38.850  1.00  0.00     0.040 A 
ATOM     80  C   UNL A   1      40.600  35.191  37.972  1.00  0.00     0.040 A 
ATOM     81  F   UNL A   1      41.531  34.804  35.853  1.00  0.00    -0.206 F 
ATOM     82  C   UNL A   1      39.723  34.828  38.992  1.00  0.00     0.006 A 
ENDBRANCH  54  75
BRANCH  66  83
ATOM     83  C   UNL A   1      44.473  28.485  34.457  1.00  0.00     0.057 A 
ATOM     84  C   UNL A   1      45.725  29.039  34.156  1.00  0.00     0.134 A 
ATOM     85  C   UNL A   1      44.442  27.413  35.358  1.00  0.00     0.134 A 
ATOM     86  F   UNL A   1      45.825  30.060  33.291  1.00  0.00    -0.206 F 
ATOM     87  C   UNL A   1      46.901  28.527  34.707  1.00  0.00     0.040 A 
ATOM     88  C   UNL A   1      45.608  26.910  35.938  1.00  0.00     0.040 A 
ATOM     89  F   UNL A   1      43.276  26.842  35.698  1.00  0.00    -0.206 F 
ATOM     90  C   UNL A   1      46.843  27.462  35.604  1.00  0.00     0.006 A 
ENDBRANCH  66  83
ENDBRANCH  40  41
ENDBRANCH  32  35
ENDBRANCH  30  31
ENDBRANCH  29  30
ENDBRANCH  28  29
ENDBRANCH   1  28
TORSDOF 17
ENDMDL
MODEL 3
REMARK VINA RESULT:     -11.7      1.071      2.023
REMARK SMILES C=CC[C@@]1(C(=O)NCCCCCCNC(=O)c2ccc(-c3c4nc(c(-c5c(F)cccc5F)c5ccc([nH]5)c(-c5c(F)cccc5F)c5nc(c(-c6c(F)cccc6F)c6ccc3[nH]6)C=C5)C=C4)cc2)CCCN(C(=O)c2ccc3c(c2)OCO3)C1
REMARK SMILES IDX 10 1 9 2 8 3 7 4 5 5 6 6 4 8 71 9 86 10 72 11 74 12 73 13
REMARK SMILES IDX 3 14 2 15 1 16 75 17 76 18 77 19 78 20 82 21 79 22 81 23
REMARK SMILES IDX 80 24 83 25 85 26 84 27 11 28 12 29 13 30 14 31 15 32 16 34
REMARK SMILES IDX 17 35 18 36 70 37 19 38 69 39 20 40 21 41 22 42 63 43 23 44
REMARK SMILES IDX 68 45 62 46 64 47 24 48 67 49 61 50 60 51 25 53 51 54 34 55
REMARK SMILES IDX 50 56 35 57 38 58 49 59 65 60 36 61 37 62 48 64 66 65 39 66
REMARK SMILES IDX 26 67 27 68 32 69 28 70 29 71 31 72 33 73 30 74 52 75 53 76
REMARK SMILES IDX 58 77 54 78 55 79 57 80 59 81 56 82 40 83 41 84 46 85 42 86
REMARK SMILES IDX 43 87 45 88 47 89 44 90
REMARK H PARENT 7 7 14 33 64 52 38 63
REMARK Flexibility Score: inf
ROOT
ATOM      1  C   UNL A   1      33.119  30.265  26.415  1.00  0.00     0.002 C 
ENDROOT
BRANCH   1   2
ATOM      2  C   UNL A   1      33.474  29.067  27.303  1.00  0.00     0.021 C 
BRANCH   2   3
ATOM      3  C   UNL A   1      33.616  27.747  26.541  1.00  0.00     0.116 C 
BRANCH   3   4
ATOM      4  N   UNL A   1      32.327  27.118  26.379  1.00  0.00    -0.356 N 
ATOM      5  C   UNL A   1      31.616  26.643  25.334  1.00  0.00     0.228 C 
ATOM      6  O   UNL A   1      30.473  26.289  25.649  1.00  0.00    -0.274 OA
ATOM      7  H   UNL A   1      31.854  27.010  27.235  1.00  0.00     0.163 HD
BRANCH   5   8
ATOM      8  C   UNL A   1      32.159  26.398  23.902  1.00  0.00     0.070 C 
ATOM      9  C   UNL A   1      33.194  27.389  23.315  1.00  0.00     0.021 C 
ATOM     10  C   UNL A   1      30.913  26.505  22.962  1.00  0.00     0.137 C 
ATOM     11  C   UNL A   1      32.673  28.817  23.254  1.00  0.00     0.023 C 
ATOM     12  N   UNL A   1      30.424  27.887  22.843  1.00  0.00    -0.338 N 
ATOM     13  C   UNL A   1      31.407  28.887  22.417  1.00  0.00     0.120 C 
BRANCH   8  14
ATOM     14  C   UNL A   1      32.759  24.957  23.783  1.00  0.00     0.045 C 
BRANCH  14  15
ATOM     15  C   UNL A   1      34.233  24.832  23.519  1.00  0.00    -0.034 C 
ATOM     16  C   UNL A   1      34.909  23.681  23.602  1.00  0.00     0.004 C 
ENDBRANCH  14  15
ENDBRANCH   8  14
BRANCH  12  17
ATOM     17  C   UNL A   1      29.070  28.149  23.079  1.00  0.00     0.254 C 
ATOM     18  O   UNL A   1      28.235  27.328  23.427  1.00  0.00    -0.269 OA
BRANCH  17  19
ATOM     19  C   UNL A   1      28.618  29.534  22.860  1.00  0.00     0.043 A 
ATOM     20  C   UNL A   1      28.932  30.525  23.811  1.00  0.00     0.018 A 
ATOM     21  C   UNL A   1      28.030  29.848  21.630  1.00  0.00     0.064 A 
ATOM     22  C   UNL A   1      28.717  31.871  23.501  1.00  0.00     0.051 A 
ATOM     23  C   UNL A   1      27.877  31.182  21.344  1.00  0.00     0.166 A 
ATOM     24  C   UNL A   1      28.221  32.165  22.247  1.00  0.00     0.165 A 
ATOM     25  O   UNL A   1      27.463  31.688  20.153  1.00  0.00    -0.454 OA
ATOM     26  O   UNL A   1      28.059  33.413  21.726  1.00  0.00    -0.454 OA
ATOM     27  C   UNL A   1      27.742  33.088  20.354  1.00  0.00     0.468 C 
ENDBRANCH  17  19
ENDBRANCH  12  17
ENDBRANCH   5   8
ENDBRANCH   3   4
ENDBRANCH   2   3
ENDBRANCH   1   2
BRANCH   1  28
ATOM     28  C   UNL A   1      31.656  30.710  26.487  1.00  0.00     0.002 C 
BRANCH  28  29
ATOM     29  C   UNL A   1      31.448  32.189  26.817  1.00  0.00     0.021 C 
BRANCH  29  30
ATOM     30  C   UNL A   1      32.734  32.979  27.039  1.00  0.00     0.116 C 
BRANCH  30  31
ATOM     31  N   UNL A   1      32.485  34.250  27.696  1.00  0.00    -0.352 N 
ATOM     32  C   UNL A   1      33.086  34.793  28.802  1.00  0.00     0.251 C 
ATOM     33  H   UNL A   1      31.782  34.803  27.287  1.00  0.00     0.163 HD
ATOM     34  O   UNL A   1      32.604  35.788  29.335  1.00  0.00    -0.269 OA
BRANCH  32  35
ATOM     35  C   UNL A   1      34.305  34.175  29.364  1.00  0.00     0.039 A 
ATOM     36  C   UNL A   1      34.165  33.258  30.408  1.00  0.00     0.014 A 
ATOM     37  C   UNL A   1      35.577  34.516  28.894  1.00  0.00     0.014 A 
ATOM     38  C   UNL A   1      35.298  32.651  30.951  1.00  0.00     0.010 A 
ATOM     39  C   UNL A   1      36.701  33.856  29.387  1.00  0.00     0.010 A 
ATOM     40  C   UNL A   1      36.573  32.926  30.428  1.00  0.00    -0.014 A 
BRANCH  40  41
ATOM     41  C   UNL A   1      37.769  32.231  30.968  1.00  0.00     0.031 A 
ATOM     42  C   UNL A   1      38.320  32.586  32.321  1.00  0.00     0.074 A 
ATOM     43  C   UNL A   1      38.376  31.291  30.218  1.00  0.00     0.049 A 
ATOM     44  N   UNL A   1      39.328  32.054  32.966  1.00  0.00    -0.248 NA
ATOM     45  C   UNL A   1      37.675  33.700  33.031  1.00  0.00     0.031 C 
ATOM     46  C   UNL A   1      37.978  30.905  28.862  1.00  0.00     0.029 A 
ATOM     47  N   UNL A   1      39.451  30.483  30.491  1.00  0.00    -0.354 N 
ATOM     48  C   UNL A   1      39.439  32.770  34.151  1.00  0.00     0.074 A 
ATOM     49  C   UNL A   1      38.436  33.811  34.109  1.00  0.00     0.031 C 
ATOM     50  C   UNL A   1      38.772  29.912  28.436  1.00  0.00     0.029 A 
ATOM     51  C   UNL A   1      39.751  29.607  29.476  1.00  0.00     0.049 A 
ATOM     52  H   UNL A   1      39.959  30.528  31.332  1.00  0.00     0.167 HD
ATOM     53  C   UNL A   1      40.283  32.562  35.190  1.00  0.00     0.037 A 
ATOM     54  C   UNL A   1      40.699  28.655  29.398  1.00  0.00     0.037 A 
ATOM     55  C   UNL A   1      41.268  31.512  35.234  1.00  0.00     0.049 A 
ATOM     56  C   UNL A   1      41.604  28.424  30.575  1.00  0.00     0.074 A 
ATOM     57  C   UNL A   1      42.128  31.177  36.265  1.00  0.00     0.029 A 
ATOM     58  N   UNL A   1      41.527  30.628  34.197  1.00  0.00    -0.354 N 
ATOM     59  N   UNL A   1      41.641  29.051  31.724  1.00  0.00    -0.248 NA
ATOM     60  C   UNL A   1      42.587  27.339  30.448  1.00  0.00     0.031 C 
ATOM     61  C   UNL A   1      42.939  30.120  35.835  1.00  0.00     0.029 A 
ATOM     62  C   UNL A   1      42.547  29.761  34.557  1.00  0.00     0.049 A 
ATOM     63  H   UNL A   1      41.055  30.617  33.332  1.00  0.00     0.167 HD
ATOM     64  C   UNL A   1      42.628  28.421  32.470  1.00  0.00     0.074 A 
ATOM     65  C   UNL A   1      43.155  27.352  31.645  1.00  0.00     0.031 C 
ATOM     66  C   UNL A   1      43.060  28.701  33.725  1.00  0.00     0.037 A 
BRANCH  53  67
ATOM     67  C   UNL A   1      40.177  33.491  36.366  1.00  0.00     0.057 A 
ATOM     68  C   UNL A   1      40.926  34.673  36.445  1.00  0.00     0.134 A 
ATOM     69  C   UNL A   1      39.293  33.217  37.418  1.00  0.00     0.134 A 
ATOM     70  F   UNL A   1      41.799  34.992  35.477  1.00  0.00    -0.206 F 
ATOM     71  C   UNL A   1      40.822  35.534  37.541  1.00  0.00     0.040 A 
ATOM     72  C   UNL A   1      39.160  34.084  38.504  1.00  0.00     0.040 A 
ATOM     73  F   UNL A   1      38.541  32.107  37.405  1.00  0.00    -0.206 F 
ATOM     74  C   UNL A   1      39.931  35.242  38.571  1.00  0.00     0.006 A 
ENDBRANCH  53  67
BRANCH  54  75
ATOM     75  C   UNL A   1      40.807  27.820  28.175  1.00  0.00     0.057 A 
ATOM     76  C   UNL A   1      40.115  26.609  28.064  1.00  0.00     0.134 A 
ATOM     77  C   UNL A   1      41.591  28.218  27.086  1.00  0.00     0.134 A 
ATOM     78  F   UNL A   1      39.358  26.168  29.079  1.00  0.00    -0.206 F 
ATOM     79  C   UNL A   1      40.213  25.812  26.922  1.00  0.00     0.040 A 
ATOM     80  C   UNL A   1      41.679  27.445  25.928  1.00  0.00     0.040 A 
ATOM     81  F   UNL A   1      42.269  29.374  27.127  1.00  0.00    -0.206 F 
ATOM     82  C   UNL A   1      40.993  26.234  25.846  1.00  0.00     0.006 A 
ENDBRANCH  54  75
BRANCH  66  83
ATOM     83  C   UNL A   1      44.129  27.815  34.293  1.00  0.00     0.057 A 
ATOM     84  C   UNL A   1      45.492  28.100  34.137  1.00  0.00     0.134 A 
ATOM     85  C   UNL A   1      43.789  26.668  35.022  1.00  0.00     0.134 A 
ATOM     86  F   UNL A   1      45.885  29.177  33.439  1.00  0.00    -0.206 F 
ATOM     87  C   UNL A   1      46.477  27.261  34.659  1.00  0.00     0.040 A 
ATOM     88  C   UNL A   1      44.765  25.836  35.574  1.00  0.00     0.040 A 
ATOM     89  F   UNL A   1      42.502  26.341  35.217  1.00  0.00    -0.206 F 
ATOM     90  C   UNL A   1      46.114  26.127  35.384  1.00  0.00     0.006 A 
ENDBRANCH  66  83
ENDBRANCH  40  41
ENDBRANCH  32  35
ENDBRANCH  30  31
ENDBRANCH  29  30
ENDBRANCH  28  29
ENDBRANCH   1  28
TORSDOF 17
ENDMDL
