MODEL 1
REMARK VINA RESULT:     -11.3      0.000      0.000
REMARK SMILES O=C(NCCCCCCNC(=O)c1c(S(=O)(=O)N2CCO[C@@H](CCO)C2)sc2c1CC[NH2+]C2)c1ccc(-c2c3nc(c(-c4c(F)cccc4F)c4ccc([nH]4)c(-c4c(F)cccc4F)c4nc(c(-c5c(F)cccc5F)c5ccc2[nH]5)C=C4)C=C3)cc1
REMARK SMILES IDX 8 1 7 2 6 3 5 4 4 5 3 6 1 7 2 8 34 10 35 11 87 12 36 13
REMARK SMILES IDX 86 14 37 15 38 16 39 17 80 18 40 19 85 20 79 21 81 22 41 23
REMARK SMILES IDX 84 24 78 25 77 26 42 28 68 29 51 30 67 31 52 32 55 33 66 34
REMARK SMILES IDX 82 35 53 36 54 37 65 39 83 40 56 41 43 42 44 43 49 44 45 45
REMARK SMILES IDX 46 46 48 47 50 48 47 49 69 50 70 51 75 52 71 53 72 54 74 55
REMARK SMILES IDX 76 56 73 57 57 58 58 59 63 60 59 61 60 62 62 63 64 64 61 65
REMARK SMILES IDX 9 66 10 67 11 68 12 70 13 71 14 72 29 73 27 74 28 75 30 76
REMARK SMILES IDX 33 77 31 78 32 79 15 82 16 83 17 84 18 85 19 86 26 87 20 88
REMARK SMILES IDX 22 89 21 90 23 91 24 92 25 93
REMARK H PARENT 3 9 81 27 55 38 10 69 32 80 32 81 25 94
REMARK Flexibility Score: inf
ROOT
ATOM      1  C   UNL A   1      37.428  22.875  25.161  1.00  0.00     0.021 C 
ENDROOT
BRANCH   1   2
ATOM      2  C   UNL A   1      38.606  22.898  26.136  1.00  0.00     0.002 C 
BRANCH   2   3
ATOM      3  C   UNL A   1      39.500  21.652  26.181  1.00  0.00     0.002 C 
BRANCH   3   4
ATOM      4  C   UNL A   1      40.530  21.561  27.316  1.00  0.00     0.021 C 
BRANCH   4   5
ATOM      5  C   UNL A   1      41.905  21.020  26.926  1.00  0.00     0.116 C 
BRANCH   5   6
ATOM      6  N   UNL A   1      42.473  21.648  25.753  1.00  0.00    -0.352 N 
ATOM      7  O   UNL A   1      43.313  23.048  24.275  1.00  0.00    -0.269 OA
ATOM      8  C   UNL A   1      42.806  22.924  25.395  1.00  0.00     0.251 C 
ATOM      9  H   UNL A   1      42.667  20.998  25.040  1.00  0.00     0.163 HD
BRANCH   8  10
ATOM     10  C   UNL A   1      42.603  24.150  26.222  1.00  0.00     0.039 A 
ATOM     11  C   UNL A   1      43.260  24.459  27.413  1.00  0.00     0.014 A 
ATOM     12  C   UNL A   1      41.672  25.082  25.723  1.00  0.00     0.014 A 
ATOM     13  C   UNL A   1      42.984  25.651  28.092  1.00  0.00     0.010 A 
ATOM     14  C   UNL A   1      41.403  26.278  26.391  1.00  0.00     0.010 A 
ATOM     15  C   UNL A   1      42.050  26.564  27.591  1.00  0.00    -0.014 A 
BRANCH  15  16
ATOM     16  C   UNL A   1      41.837  27.815  28.328  1.00  0.00     0.031 A 
ATOM     17  C   UNL A   1      42.870  28.890  28.204  1.00  0.00     0.074 A 
ATOM     18  C   UNL A   1      40.700  28.140  28.978  1.00  0.00     0.049 A 
ATOM     19  N   UNL A   1      43.528  29.497  29.144  1.00  0.00    -0.248 NA
ATOM     20  C   UNL A   1      43.181  29.371  26.850  1.00  0.00     0.031 C 
ATOM     21  C   UNL A   1      39.410  27.451  28.954  1.00  0.00     0.029 A 
ATOM     22  N   UNL A   1      40.454  29.249  29.742  1.00  0.00    -0.354 N 
ATOM     23  C   UNL A   1      44.239  30.524  28.524  1.00  0.00     0.074 A 
ATOM     24  C   UNL A   1      44.026  30.373  27.105  1.00  0.00     0.031 C 
ATOM     25  C   UNL A   1      38.472  28.253  29.506  1.00  0.00     0.029 A 
ATOM     26  C   UNL A   1      39.119  29.441  30.042  1.00  0.00     0.049 A 
ATOM     27  H   UNL A   1      41.165  29.855  30.050  1.00  0.00     0.167 HD
ATOM     28  C   UNL A   1      44.874  31.518  29.204  1.00  0.00     0.037 A 
ATOM     29  C   UNL A   1      38.565  30.515  30.649  1.00  0.00     0.037 A 
ATOM     30  C   UNL A   1      45.059  31.223  30.594  1.00  0.00     0.049 A 
ATOM     31  C   UNL A   1      39.621  31.265  31.364  1.00  0.00     0.074 A 
ATOM     32  C   UNL A   1      45.739  30.260  31.311  1.00  0.00     0.029 A 
ATOM     33  N   UNL A   1      44.281  31.880  31.512  1.00  0.00    -0.354 N 
ATOM     34  N   UNL A   1      40.218  30.865  32.451  1.00  0.00    -0.248 NA
ATOM     35  C   UNL A   1      40.233  32.409  30.703  1.00  0.00     0.031 C 
ATOM     36  C   UNL A   1      44.998  30.090  32.517  1.00  0.00     0.029 A 
ATOM     37  C   UNL A   1      43.899  30.945  32.440  1.00  0.00     0.049 A 
ATOM     38  H   UNL A   1      44.044  32.836  31.506  1.00  0.00     0.167 HD
ATOM     39  C   UNL A   1      41.475  31.442  32.398  1.00  0.00     0.074 A 
ATOM     40  C   UNL A   1      41.370  32.493  31.398  1.00  0.00     0.031 C 
ATOM     41  C   UNL A   1      42.557  30.832  32.963  1.00  0.00     0.037 A 
BRANCH  28  42
ATOM     42  C   UNL A   1      45.161  32.884  28.644  1.00  0.00     0.057 A 
ATOM     43  C   UNL A   1      46.485  33.330  28.488  1.00  0.00     0.134 A 
ATOM     44  C   UNL A   1      44.166  33.865  28.479  1.00  0.00     0.134 A 
ATOM     45  F   UNL A   1      47.518  32.497  28.674  1.00  0.00    -0.206 F 
ATOM     46  C   UNL A   1      46.795  34.663  28.188  1.00  0.00     0.040 A 
ATOM     47  C   UNL A   1      44.461  35.189  28.138  1.00  0.00     0.040 A 
ATOM     48  F   UNL A   1      42.874  33.597  28.719  1.00  0.00    -0.206 F 
ATOM     49  C   UNL A   1      45.781  35.596  28.006  1.00  0.00     0.006 A 
ENDBRANCH  28  42
BRANCH  29  50
ATOM     50  C   UNL A   1      37.193  31.041  30.508  1.00  0.00     0.057 A 
ATOM     51  C   UNL A   1      36.389  31.302  31.624  1.00  0.00     0.134 A 
ATOM     52  C   UNL A   1      36.722  31.524  29.275  1.00  0.00     0.134 A 
ATOM     53  F   UNL A   1      36.780  30.924  32.850  1.00  0.00    -0.206 F 
ATOM     54  C   UNL A   1      35.183  32.005  31.520  1.00  0.00     0.040 A 
ATOM     55  C   UNL A   1      35.516  32.218  29.155  1.00  0.00     0.040 A 
ATOM     56  F   UNL A   1      37.459  31.406  28.160  1.00  0.00    -0.206 F 
ATOM     57  C   UNL A   1      34.745  32.470  30.283  1.00  0.00     0.006 A 
ENDBRANCH  29  50
BRANCH  41  58
ATOM     58  C   UNL A   1      42.300  29.723  33.941  1.00  0.00     0.057 A 
ATOM     59  C   UNL A   1      42.081  28.393  33.554  1.00  0.00     0.134 A 
ATOM     60  C   UNL A   1      42.412  29.978  35.312  1.00  0.00     0.134 A 
ATOM     61  F   UNL A   1      42.069  28.042  32.262  1.00  0.00    -0.206 F 
ATOM     62  C   UNL A   1      41.924  27.371  34.495  1.00  0.00     0.040 A 
ATOM     63  C   UNL A   1      42.291  28.959  36.262  1.00  0.00     0.040 A 
ATOM     64  F   UNL A   1      42.688  31.216  35.752  1.00  0.00    -0.206 F 
ATOM     65  C   UNL A   1      42.034  27.652  35.853  1.00  0.00     0.006 A 
ENDBRANCH  41  58
ENDBRANCH  15  16
ENDBRANCH   8  10
ENDBRANCH   5   6
ENDBRANCH   4   5
ENDBRANCH   3   4
ENDBRANCH   2   3
ENDBRANCH   1   2
BRANCH   1  66
ATOM     66  C   UNL A   1      36.485  24.069  25.220  1.00  0.00     0.116 C 
BRANCH  66  67
ATOM     67  N   UNL A   1      35.296  23.865  26.020  1.00  0.00    -0.352 N 
ATOM     68  C   UNL A   1      34.046  24.424  25.887  1.00  0.00     0.253 C 
ATOM     69  H   UNL A   1      35.396  23.235  26.770  1.00  0.00     0.163 HD
ATOM     70  O   UNL A   1      33.175  24.126  26.702  1.00  0.00    -0.269 OA
BRANCH  68  71
ATOM     71  C   UNL A   1      33.818  25.450  24.871  1.00  0.00     0.074 A 
ATOM     72  C   UNL A   1      33.650  25.212  23.506  1.00  0.00     0.148 A 
ATOM     73  C   UNL A   1      33.601  26.854  25.160  1.00  0.00    -0.009 A 
ATOM     74  S   UNL A   1      33.763  26.677  22.631  1.00  0.00    -0.120 S 
ATOM     75  C   UNL A   1      33.447  27.596  24.007  1.00  0.00     0.064 A 
ATOM     76  C   UNL A   1      33.545  27.542  26.496  1.00  0.00     0.099 C 
ATOM     77  C   UNL A   1      33.070  29.043  23.951  1.00  0.00     0.308 C 
ATOM     78  C   UNL A   1      32.950  28.968  26.370  1.00  0.00     0.265 C 
ATOM     79  N   UNL A   1      33.450  29.723  25.200  1.00  0.00    -0.342 N 
ATOM     80  H   UNL A   1      34.467  29.790  25.252  1.00  0.00     0.346 HD
ATOM     81  H   UNL A   1      33.039  30.657  25.208  1.00  0.00     0.346 HD
BRANCH  72  82
ATOM     82  S   UNL A   1      33.460  23.732  22.524  1.00  0.00     0.253 S 
ATOM     83  O   UNL A   1      33.083  24.208  21.210  1.00  0.00    -0.206 OA
ATOM     84  O   UNL A   1      34.706  23.021  22.732  1.00  0.00    -0.206 OA
BRANCH  82  85
ATOM     85  N   UNL A   1      32.212  22.755  23.078  1.00  0.00    -0.192 NA
ATOM     86  C   UNL A   1      31.014  23.317  23.741  1.00  0.00     0.131 C 
ATOM     87  C   UNL A   1      32.428  21.319  23.345  1.00  0.00     0.134 C 
ATOM     88  C   UNL A   1      30.856  22.840  25.194  1.00  0.00     0.177 C 
ATOM     89  C   UNL A   1      32.413  21.070  24.860  1.00  0.00     0.135 C 
ATOM     90  O   UNL A   1      31.118  21.442  25.382  1.00  0.00    -0.375 OA
BRANCH  89  91
ATOM     91  C   UNL A   1      32.689  19.623  25.271  1.00  0.00     0.061 C 
BRANCH  91  92
ATOM     92  C   UNL A   1      33.557  18.844  24.291  1.00  0.00     0.159 C 
BRANCH  92  93
ATOM     93  O   UNL A   1      34.456  18.003  24.997  1.00  0.00    -0.396 OA
ATOM     94  H   UNL A   1      34.235  18.011  25.941  1.00  0.00     0.210 HD
ENDBRANCH  92  93
ENDBRANCH  91  92
ENDBRANCH  89  91
ENDBRANCH  82  85
ENDBRANCH  72  82
ENDBRANCH  68  71
ENDBRANCH  66  67
ENDBRANCH   1  66
TORSDOF 18
ENDMDL
MODEL 2
REMARK VINA RESULT:     -11.3      3.055      8.275
REMARK SMILES O=C(NCCCCCCNC(=O)c1c(S(=O)(=O)N2CCO[C@@H](CCO)C2)sc2c1CC[NH2+]C2)c1ccc(-c2c3nc(c(-c4c(F)cccc4F)c4ccc([nH]4)c(-c4c(F)cccc4F)c4nc(c(-c5c(F)cccc5F)c5ccc2[nH]5)C=C4)C=C3)cc1
REMARK SMILES IDX 8 1 7 2 6 3 5 4 4 5 3 6 1 7 2 8 34 10 35 11 87 12 36 13
REMARK SMILES IDX 86 14 37 15 38 16 39 17 80 18 40 19 85 20 79 21 81 22 41 23
REMARK SMILES IDX 84 24 78 25 77 26 42 28 68 29 51 30 67 31 52 32 55 33 66 34
REMARK SMILES IDX 82 35 53 36 54 37 65 39 83 40 56 41 43 42 44 43 49 44 45 45
REMARK SMILES IDX 46 46 48 47 50 48 47 49 69 50 70 51 75 52 71 53 72 54 74 55
REMARK SMILES IDX 76 56 73 57 57 58 58 59 63 60 59 61 60 62 62 63 64 64 61 65
REMARK SMILES IDX 9 66 10 67 11 68 12 70 13 71 14 72 29 73 27 74 28 75 30 76
REMARK SMILES IDX 33 77 31 78 32 79 15 82 16 83 17 84 18 85 19 86 26 87 20 88
REMARK SMILES IDX 22 89 21 90 23 91 24 92 25 93
REMARK H PARENT 3 9 81 27 55 38 10 69 32 80 32 81 25 94
REMARK Flexibility Score: inf
ROOT
ATOM      1  C   UNL A   1      34.805  28.876  26.933  1.00  0.00     0.021 C 
ENDROOT
BRANCH   1   2
ATOM      2  C   UNL A   1      34.218  30.046  27.724  1.00  0.00     0.002 C 
BRANCH   2   3
ATOM      3  C   UNL A   1      34.952  31.389  27.631  1.00  0.00     0.002 C 
BRANCH   3   4
ATOM      4  C   UNL A   1      34.125  32.663  27.851  1.00  0.00     0.021 C 
BRANCH   4   5
ATOM      5  C   UNL A   1      34.637  33.612  28.934  1.00  0.00     0.116 C 
BRANCH   5   6
ATOM      6  N   UNL A   1      34.346  33.177  30.282  1.00  0.00    -0.352 N 
ATOM      7  O   UNL A   1      34.385  32.279  32.293  1.00  0.00    -0.269 OA
ATOM      8  C   UNL A   1      34.963  32.382  31.206  1.00  0.00     0.251 C 
ATOM      9  H   UNL A   1      33.495  33.543  30.615  1.00  0.00     0.163 HD
BRANCH   8  10
ATOM     10  C   UNL A   1      36.242  31.638  31.008  1.00  0.00     0.039 A 
ATOM     11  C   UNL A   1      37.509  32.201  30.860  1.00  0.00     0.014 A 
ATOM     12  C   UNL A   1      36.142  30.232  30.997  1.00  0.00     0.014 A 
ATOM     13  C   UNL A   1      38.637  31.389  30.688  1.00  0.00     0.010 A 
ATOM     14  C   UNL A   1      37.265  29.418  30.840  1.00  0.00     0.010 A 
ATOM     15  C   UNL A   1      38.522  29.996  30.670  1.00  0.00    -0.014 A 
BRANCH  15  16
ATOM     16  C   UNL A   1      39.747  29.199  30.529  1.00  0.00     0.031 A 
ATOM     17  C   UNL A   1      40.595  28.991  31.744  1.00  0.00     0.074 A 
ATOM     18  C   UNL A   1      40.086  28.498  29.428  1.00  0.00     0.049 A 
ATOM     19  N   UNL A   1      41.854  29.253  31.911  1.00  0.00    -0.248 NA
ATOM     20  C   UNL A   1      39.951  28.376  32.915  1.00  0.00     0.031 C 
ATOM     21  C   UNL A   1      39.277  28.222  28.240  1.00  0.00     0.029 A 
ATOM     22  N   UNL A   1      41.238  27.796  29.198  1.00  0.00    -0.354 N 
ATOM     23  C   UNL A   1      42.205  28.722  33.153  1.00  0.00     0.074 A 
ATOM     24  C   UNL A   1      40.984  28.235  33.749  1.00  0.00     0.031 C 
ATOM     25  C   UNL A   1      39.882  27.260  27.509  1.00  0.00     0.029 A 
ATOM     26  C   UNL A   1      41.176  26.957  28.101  1.00  0.00     0.049 A 
ATOM     27  H   UNL A   1      42.039  27.880  29.763  1.00  0.00     0.167 HD
ATOM     28  C   UNL A   1      43.490  28.602  33.586  1.00  0.00     0.037 A 
ATOM     29  C   UNL A   1      42.097  26.044  27.719  1.00  0.00     0.037 A 
ATOM     30  C   UNL A   1      44.417  29.389  32.828  1.00  0.00     0.049 A 
ATOM     31  C   UNL A   1      43.392  26.365  28.360  1.00  0.00     0.074 A 
ATOM     32  C   UNL A   1      44.594  30.737  32.589  1.00  0.00     0.029 A 
ATOM     33  N   UNL A   1      45.260  28.750  31.957  1.00  0.00    -0.354 N 
ATOM     34  N   UNL A   1      44.153  27.374  28.045  1.00  0.00    -0.248 NA
ATOM     35  C   UNL A   1      43.750  25.676  29.592  1.00  0.00     0.031 C 
ATOM     36  C   UNL A   1      45.180  30.818  31.291  1.00  0.00     0.029 A 
ATOM     37  C   UNL A   1      45.295  29.511  30.817  1.00  0.00     0.049 A 
ATOM     38  H   UNL A   1      45.745  27.908  32.119  1.00  0.00     0.167 HD
ATOM     39  C   UNL A   1      44.829  27.686  29.212  1.00  0.00     0.074 A 
ATOM     40  C   UNL A   1      44.662  26.524  30.071  1.00  0.00     0.031 C 
ATOM     41  C   UNL A   1      45.220  28.966  29.482  1.00  0.00     0.037 A 
BRANCH  28  42
ATOM     42  C   UNL A   1      43.956  27.591  34.597  1.00  0.00     0.057 A 
ATOM     43  C   UNL A   1      44.005  26.224  34.272  1.00  0.00     0.134 A 
ATOM     44  C   UNL A   1      44.130  27.898  35.959  1.00  0.00     0.134 A 
ATOM     45  F   UNL A   1      43.800  25.808  33.014  1.00  0.00    -0.206 F 
ATOM     46  C   UNL A   1      44.212  25.232  35.239  1.00  0.00     0.040 A 
ATOM     47  C   UNL A   1      44.379  26.920  36.927  1.00  0.00     0.040 A 
ATOM     48  F   UNL A   1      43.986  29.151  36.416  1.00  0.00    -0.206 F 
ATOM     49  C   UNL A   1      44.406  25.579  36.571  1.00  0.00     0.006 A 
ENDBRANCH  28  42
BRANCH  29  50
ATOM     50  C   UNL A   1      41.890  24.793  26.963  1.00  0.00     0.057 A 
ATOM     51  C   UNL A   1      42.749  24.411  25.926  1.00  0.00     0.134 A 
ATOM     52  C   UNL A   1      40.972  23.823  27.401  1.00  0.00     0.134 A 
ATOM     53  F   UNL A   1      43.692  25.252  25.476  1.00  0.00    -0.206 F 
ATOM     54  C   UNL A   1      42.700  23.134  25.355  1.00  0.00     0.040 A 
ATOM     55  C   UNL A   1      40.905  22.548  26.833  1.00  0.00     0.040 A 
ATOM     56  F   UNL A   1      40.166  24.056  28.447  1.00  0.00    -0.206 F 
ATOM     57  C   UNL A   1      41.778  22.196  25.812  1.00  0.00     0.006 A 
ENDBRANCH  29  50
BRANCH  41  58
ATOM     58  C   UNL A   1      45.227  29.946  28.346  1.00  0.00     0.057 A 
ATOM     59  C   UNL A   1      44.088  30.654  27.933  1.00  0.00     0.134 A 
ATOM     60  C   UNL A   1      46.442  30.287  27.742  1.00  0.00     0.134 A 
ATOM     61  F   UNL A   1      42.905  30.469  28.534  1.00  0.00    -0.206 F 
ATOM     62  C   UNL A   1      44.148  31.618  26.924  1.00  0.00     0.040 A 
ATOM     63  C   UNL A   1      46.521  31.273  26.754  1.00  0.00     0.040 A 
ATOM     64  F   UNL A   1      47.584  29.698  28.133  1.00  0.00    -0.206 F 
ATOM     65  C   UNL A   1      45.369  31.934  26.334  1.00  0.00     0.006 A 
ENDBRANCH  41  58
ENDBRANCH  15  16
ENDBRANCH   8  10
ENDBRANCH   5   6
ENDBRANCH   4   5
ENDBRANCH   3   4
ENDBRANCH   2   3
ENDBRANCH   1   2
BRANCH   1  66
ATOM     66  C   UNL A   1      33.884  28.231  25.905  1.00  0.00     0.116 C 
BRANCH  66  67
ATOM     67  N   UNL A   1      32.637  27.726  26.439  1.00  0.00    -0.352 N 
ATOM     68  C   UNL A   1      31.928  26.600  26.088  1.00  0.00     0.253 C 
ATOM     69  H   UNL A   1      32.236  28.267  27.159  1.00  0.00     0.163 HD
ATOM     70  O   UNL A   1      30.866  26.367  26.662  1.00  0.00    -0.269 OA
BRANCH  68  71
ATOM     71  C   UNL A   1      32.380  25.784  24.963  1.00  0.00     0.074 A 
ATOM     72  C   UNL A   1      32.159  26.073  23.615  1.00  0.00     0.148 A 
ATOM     73  C   UNL A   1      33.239  24.623  25.086  1.00  0.00    -0.009 A 
ATOM     74  S   UNL A   1      32.530  24.712  22.649  1.00  0.00    -0.120 S 
ATOM     75  C   UNL A   1      33.475  24.028  23.864  1.00  0.00     0.064 A 
ATOM     76  C   UNL A   1      33.848  24.031  26.328  1.00  0.00     0.099 C 
ATOM     77  C   UNL A   1      34.427  22.901  23.618  1.00  0.00     0.308 C 
ATOM     78  C   UNL A   1      34.968  23.018  25.977  1.00  0.00     0.265 C 
ATOM     79  N   UNL A   1      34.632  22.121  24.850  1.00  0.00    -0.342 N 
ATOM     80  H   UNL A   1      33.778  21.608  25.071  1.00  0.00     0.346 HD
ATOM     81  H   UNL A   1      35.402  21.468  24.705  1.00  0.00     0.346 HD
BRANCH  72  82
ATOM     82  S   UNL A   1      31.490  27.484  22.748  1.00  0.00     0.253 S 
ATOM     83  O   UNL A   1      32.560  28.460  22.753  1.00  0.00    -0.206 OA
ATOM     84  O   UNL A   1      30.999  26.922  21.506  1.00  0.00    -0.206 OA
BRANCH  82  85
ATOM     85  N   UNL A   1      30.187  28.169  23.555  1.00  0.00    -0.192 NA
ATOM     86  C   UNL A   1      28.858  27.518  23.589  1.00  0.00     0.131 C 
ATOM     87  C   UNL A   1      30.156  29.612  23.869  1.00  0.00     0.134 C 
ATOM     88  C   UNL A   1      27.761  28.361  22.920  1.00  0.00     0.177 C 
ATOM     89  C   UNL A   1      29.125  30.311  22.972  1.00  0.00     0.135 C 
ATOM     90  O   UNL A   1      27.818  29.757  23.242  1.00  0.00    -0.375 OA
BRANCH  89  91
ATOM     91  C   UNL A   1      29.042  31.828  23.159  1.00  0.00     0.061 C 
BRANCH  91  92
ATOM     92  C   UNL A   1      28.321  32.562  22.036  1.00  0.00     0.159 C 
BRANCH  92  93
ATOM     93  O   UNL A   1      28.147  31.701  20.921  1.00  0.00    -0.396 OA
ATOM     94  H   UNL A   1      27.484  31.026  21.134  1.00  0.00     0.210 HD
ENDBRANCH  92  93
ENDBRANCH  91  92
ENDBRANCH  89  91
ENDBRANCH  82  85
ENDBRANCH  72  82
ENDBRANCH  68  71
ENDBRANCH  66  67
ENDBRANCH   1  66
TORSDOF 18
ENDMDL
MODEL 3
REMARK VINA RESULT:     -11.1      2.204      4.278
REMARK SMILES O=C(NCCCCCCNC(=O)c1c(S(=O)(=O)N2CCO[C@@H](CCO)C2)sc2c1CC[NH2+]C2)c1ccc(-c2c3nc(c(-c4c(F)cccc4F)c4ccc([nH]4)c(-c4c(F)cccc4F)c4nc(c(-c5c(F)cccc5F)c5ccc2[nH]5)C=C4)C=C3)cc1
REMARK SMILES IDX 8 1 7 2 6 3 5 4 4 5 3 6 1 7 2 8 34 10 35 11 87 12 36 13
REMARK SMILES IDX 86 14 37 15 38 16 39 17 80 18 40 19 85 20 79 21 81 22 41 23
REMARK SMILES IDX 84 24 78 25 77 26 42 28 68 29 51 30 67 31 52 32 55 33 66 34
REMARK SMILES IDX 82 35 53 36 54 37 65 39 83 40 56 41 43 42 44 43 49 44 45 45
REMARK SMILES IDX 46 46 48 47 50 48 47 49 69 50 70 51 75 52 71 53 72 54 74 55
REMARK SMILES IDX 76 56 73 57 57 58 58 59 63 60 59 61 60 62 62 63 64 64 61 65
REMARK SMILES IDX 9 66 10 67 11 68 12 70 13 71 14 72 29 73 27 74 28 75 30 76
REMARK SMILES IDX 33 77 31 78 32 79 15 82 16 83 17 84 18 85 19 86 26 87 20 88
REMARK SMILES IDX 22 89 21 90 23 91 24 92 25 93
REMARK H PARENT 3 9 81 27 55 38 10 69 32 80 32 81 25 94
REMARK Flexibility Score: inf
ROOT
ATOM      1  C   UNL A   1      37.830  20.325  25.020  1.00  0.00     0.021 C 
ENDROOT
BRANCH   1   2
ATOM      2  C   UNL A   1      39.154  20.648  25.713  1.00  0.00     0.002 C 
BRANCH   2   3
ATOM      3  C   UNL A   1      40.219  19.545  25.734  1.00  0.00     0.002 C 
BRANCH   3   4
ATOM      4  C   UNL A   1      41.520  19.833  26.497  1.00  0.00     0.021 C 
BRANCH   4   5
ATOM      5  C   UNL A   1      42.695  18.907  26.184  1.00  0.00     0.116 C 
BRANCH   5   6
ATOM      6  N   UNL A   1      43.568  19.399  25.140  1.00  0.00    -0.352 N 
ATOM      7  O   UNL A   1      44.870  20.604  23.836  1.00  0.00    -0.269 OA
ATOM      8  C   UNL A   1      44.135  20.602  24.829  1.00  0.00     0.251 C 
ATOM      9  H   UNL A   1      43.812  18.694  24.497  1.00  0.00     0.163 HD
BRANCH   8  10
ATOM     10  C   UNL A   1      43.935  21.884  25.568  1.00  0.00     0.039 A 
ATOM     11  C   UNL A   1      44.606  22.282  26.724  1.00  0.00     0.014 A 
ATOM     12  C   UNL A   1      42.991  22.773  25.015  1.00  0.00     0.014 A 
ATOM     13  C   UNL A   1      44.331  23.519  27.319  1.00  0.00     0.010 A 
ATOM     14  C   UNL A   1      42.724  24.013  25.598  1.00  0.00     0.010 A 
ATOM     15  C   UNL A   1      43.386  24.388  26.765  1.00  0.00    -0.014 A 
BRANCH  15  16
ATOM     16  C   UNL A   1      43.174  25.688  27.413  1.00  0.00     0.031 A 
ATOM     17  C   UNL A   1      44.184  26.766  27.173  1.00  0.00     0.074 A 
ATOM     18  C   UNL A   1      42.054  26.045  28.075  1.00  0.00     0.049 A 
ATOM     19  N   UNL A   1      44.861  27.453  28.042  1.00  0.00    -0.248 NA
ATOM     20  C   UNL A   1      44.442  27.147  25.777  1.00  0.00     0.031 C 
ATOM     21  C   UNL A   1      40.776  25.336  28.146  1.00  0.00     0.029 A 
ATOM     22  N   UNL A   1      41.814  27.205  28.760  1.00  0.00    -0.354 N 
ATOM     23  C   UNL A   1      45.534  28.441  27.322  1.00  0.00     0.074 A 
ATOM     24  C   UNL A   1      45.277  28.178  25.926  1.00  0.00     0.031 C 
ATOM     25  C   UNL A   1      39.843  26.163  28.668  1.00  0.00     0.029 A 
ATOM     26  C   UNL A   1      40.486  27.399  29.090  1.00  0.00     0.049 A 
ATOM     27  H   UNL A   1      42.523  27.844  28.997  1.00  0.00     0.167 HD
ATOM     28  C   UNL A   1      46.173  29.493  27.903  1.00  0.00     0.037 A 
ATOM     29  C   UNL A   1      39.933  28.507  29.632  1.00  0.00     0.037 A 
ATOM     30  C   UNL A   1      46.408  29.308  29.304  1.00  0.00     0.049 A 
ATOM     31  C   UNL A   1      40.998  29.325  30.252  1.00  0.00     0.074 A 
ATOM     32  C   UNL A   1      47.128  28.412  30.069  1.00  0.00     0.029 A 
ATOM     33  N   UNL A   1      45.649  30.020  30.195  1.00  0.00    -0.354 N 
ATOM     34  N   UNL A   1      41.637  29.018  31.345  1.00  0.00    -0.248 NA
ATOM     35  C   UNL A   1      41.568  30.425  29.487  1.00  0.00     0.031 C 
ATOM     36  C   UNL A   1      46.430  28.323  31.308  1.00  0.00     0.029 A 
ATOM     37  C   UNL A   1      45.314  29.154  31.204  1.00  0.00     0.049 A 
ATOM     38  H   UNL A   1      45.395  30.969  30.125  1.00  0.00     0.167 HD
ATOM     39  C   UNL A   1      42.882  29.609  31.207  1.00  0.00     0.074 A 
ATOM     40  C   UNL A   1      42.725  30.579  30.134  1.00  0.00     0.031 C 
ATOM     41  C   UNL A   1      43.992  29.060  31.779  1.00  0.00     0.037 A 
BRANCH  28  42
ATOM     42  C   UNL A   1      46.418  30.817  27.232  1.00  0.00     0.057 A 
ATOM     43  C   UNL A   1      47.717  31.341  27.135  1.00  0.00     0.134 A 
ATOM     44  C   UNL A   1      45.378  31.702  26.891  1.00  0.00     0.134 A 
ATOM     45  F   UNL A   1      48.784  30.606  27.485  1.00  0.00    -0.206 F 
ATOM     46  C   UNL A   1      47.965  32.658  26.727  1.00  0.00     0.040 A 
ATOM     47  C   UNL A   1      45.615  33.006  26.442  1.00  0.00     0.040 A 
ATOM     48  F   UNL A   1      44.090  31.364  27.056  1.00  0.00    -0.206 F 
ATOM     49  C   UNL A   1      46.912  33.493  26.373  1.00  0.00     0.006 A 
ENDBRANCH  28  42
BRANCH  29  50
ATOM     50  C   UNL A   1      38.548  29.001  29.499  1.00  0.00     0.057 A 
ATOM     51  C   UNL A   1      37.695  29.102  30.605  1.00  0.00     0.134 A 
ATOM     52  C   UNL A   1      38.104  29.609  28.312  1.00  0.00     0.134 A 
ATOM     53  F   UNL A   1      38.056  28.596  31.793  1.00  0.00    -0.206 F 
ATOM     54  C   UNL A   1      36.468  29.771  30.535  1.00  0.00     0.040 A 
ATOM     55  C   UNL A   1      36.877  30.272  28.226  1.00  0.00     0.040 A 
ATOM     56  F   UNL A   1      38.884  29.647  27.222  1.00  0.00    -0.206 F 
ATOM     57  C   UNL A   1      36.057  30.363  29.344  1.00  0.00     0.006 A 
ENDBRANCH  29  50
BRANCH  41  58
ATOM     58  C   UNL A   1      43.787  28.025  32.846  1.00  0.00     0.057 A 
ATOM     59  C   UNL A   1      43.741  26.648  32.583  1.00  0.00     0.134 A 
ATOM     60  C   UNL A   1      43.772  28.418  34.189  1.00  0.00     0.134 A 
ATOM     61  F   UNL A   1      43.860  26.179  31.334  1.00  0.00    -0.206 F 
ATOM     62  C   UNL A   1      43.629  25.707  33.610  1.00  0.00     0.040 A 
ATOM     63  C   UNL A   1      43.693  27.485  35.227  1.00  0.00     0.040 A 
ATOM     64  F   UNL A   1      43.880  29.715  34.518  1.00  0.00    -0.206 F 
ATOM     65  C   UNL A   1      43.609  26.125  34.938  1.00  0.00     0.006 A 
ENDBRANCH  41  58
ENDBRANCH  15  16
ENDBRANCH   8  10
ENDBRANCH   5   6
ENDBRANCH   4   5
ENDBRANCH   3   4
ENDBRANCH   2   3
ENDBRANCH   1   2
BRANCH   1  66
ATOM     66  C   UNL A   1      36.809  21.453  24.962  1.00  0.00     0.116 C 
BRANCH  66  67
ATOM     67  N   UNL A   1      35.975  21.578  26.139  1.00  0.00    -0.352 N 
ATOM     68  C   UNL A   1      34.616  21.408  26.269  1.00  0.00     0.253 C 
ATOM     69  H   UNL A   1      36.449  21.820  26.968  1.00  0.00     0.163 HD
ATOM     70  O   UNL A   1      34.100  21.588  27.371  1.00  0.00    -0.269 OA
BRANCH  68  71
ATOM     71  C   UNL A   1      33.803  21.149  25.082  1.00  0.00     0.074 A 
ATOM     72  C   UNL A   1      33.271  22.126  24.238  1.00  0.00     0.148 A 
ATOM     73  C   UNL A   1      33.546  19.831  24.538  1.00  0.00    -0.009 A 
ATOM     74  S   UNL A   1      32.109  21.436  23.192  1.00  0.00    -0.120 S 
ATOM     75  C   UNL A   1      32.720  19.885  23.434  1.00  0.00     0.064 A 
ATOM     76  C   UNL A   1      34.042  18.498  25.027  1.00  0.00     0.099 C 
ATOM     77  C   UNL A   1      32.372  18.726  22.554  1.00  0.00     0.308 C 
ATOM     78  C   UNL A   1      33.821  17.391  23.964  1.00  0.00     0.265 C 
ATOM     79  N   UNL A   1      32.505  17.459  23.292  1.00  0.00    -0.342 N 
ATOM     80  H   UNL A   1      31.766  17.399  23.994  1.00  0.00     0.346 HD
ATOM     81  H   UNL A   1      32.427  16.683  22.636  1.00  0.00     0.346 HD
BRANCH  72  82
ATOM     82  S   UNL A   1      33.474  23.896  24.116  1.00  0.00     0.253 S 
ATOM     83  O   UNL A   1      34.893  24.117  24.302  1.00  0.00    -0.206 OA
ATOM     84  O   UNL A   1      32.825  24.230  22.864  1.00  0.00    -0.206 OA
BRANCH  82  85
ATOM     85  N   UNL A   1      32.676  24.717  25.344  1.00  0.00    -0.192 NA
ATOM     86  C   UNL A   1      31.253  24.462  25.659  1.00  0.00     0.131 C 
ATOM     87  C   UNL A   1      33.183  26.006  25.855  1.00  0.00     0.134 C 
ATOM     88  C   UNL A   1      30.364  25.699  25.451  1.00  0.00     0.177 C 
ATOM     89  C   UNL A   1      32.257  27.141  25.392  1.00  0.00     0.135 C 
ATOM     90  O   UNL A   1      30.938  26.920  25.937  1.00  0.00    -0.375 OA
BRANCH  89  91
ATOM     91  C   UNL A   1      32.711  28.543  25.807  1.00  0.00     0.061 C 
BRANCH  91  92
ATOM     92  C   UNL A   1      33.439  28.600  27.143  1.00  0.00     0.159 C 
BRANCH  92  93
ATOM     93  O   UNL A   1      33.072  29.776  27.849  1.00  0.00    -0.396 OA
ATOM     94  H   UNL A   1      32.121  29.756  28.039  1.00  0.00     0.210 HD
ENDBRANCH  92  93
ENDBRANCH  91  92
ENDBRANCH  89  91
ENDBRANCH  82  85
ENDBRANCH  72  82
ENDBRANCH  68  71
ENDBRANCH  66  67
ENDBRANCH   1  66
TORSDOF 18
ENDMDL
