MODEL 1
REMARK VINA RESULT:     -10.7      0.000      0.000
REMARK SMILES Cc1nnc(S[C@@H](C)CCO)c(C(=O)NCCCCCCNC(=O)c2ccc(-c3c4nc(c(-c5c(F)cccc5F)c5ccc([nH]5)c(-c5c(F)cccc5F)c5nc(c(-c6c(F)cccc6F)c6ccc3[nH]6)C=C5)C=C4)cc2)c1C
REMARK SMILES IDX 17 1 16 2 15 3 13 4 14 5 12 7 1 8 2 9 3 10 79 11 4 12 80 13
REMARK SMILES IDX 5 14 6 15 7 16 8 17 9 18 10 19 11 20 18 22 19 23 20 24 21 25
REMARK SMILES IDX 22 26 23 27 24 29 25 30 26 31 78 32 27 33 77 34 28 35 29 36
REMARK SMILES IDX 30 37 71 38 31 39 76 40 70 41 72 42 32 43 75 44 69 45 68 46
REMARK SMILES IDX 33 48 59 49 42 50 58 51 43 52 46 53 57 54 73 55 44 56 45 57
REMARK SMILES IDX 56 59 74 60 47 61 34 62 35 63 40 64 36 65 37 66 39 67 41 68
REMARK SMILES IDX 38 69 60 70 61 71 66 72 62 73 63 74 65 75 67 76 64 77 48 78
REMARK SMILES IDX 49 79 54 80 50 81 51 82 53 83 55 84 52 85
REMARK H PARENT 15 6 11 21 22 28 72 47 46 58
REMARK Flexibility Score: inf
ROOT
ATOM      1  C   UNL A   1      33.369  28.829  26.984  1.00  0.00     0.021 C 
ENDROOT
BRANCH   1   2
ATOM      2  C   UNL A   1      33.746  27.554  26.243  1.00  0.00     0.116 C 
BRANCH   2   3
ATOM      3  N   UNL A   1      32.847  26.434  26.392  1.00  0.00    -0.352 N 
ATOM      4  C   UNL A   1      32.872  25.135  25.925  1.00  0.00     0.254 C 
ATOM      5  O   UNL A   1      32.158  24.358  26.553  1.00  0.00    -0.269 OA
ATOM      6  H   UNL A   1      32.054  26.638  26.939  1.00  0.00     0.163 HD
BRANCH   4   7
ATOM      7  C   UNL A   1      33.637  24.600  24.760  1.00  0.00     0.078 A 
ATOM      8  C   UNL A   1      36.777  22.585  23.759  1.00  0.00     0.069 C 
ATOM      9  C   UNL A   1      35.488  23.354  23.756  1.00  0.00     0.064 A 
ATOM     10  N   UNL A   1      34.930  23.476  22.550  1.00  0.00    -0.155 NA
ATOM     11  C   UNL A   1      34.883  23.899  24.902  1.00  0.00    -0.012 A 
ATOM     12  N   UNL A   1      33.725  24.086  22.428  1.00  0.00    -0.143 NA
ATOM     13  C   UNL A   1      35.606  23.655  26.200  1.00  0.00     0.047 C 
ATOM     14  C   UNL A   1      33.034  24.610  23.479  1.00  0.00     0.132 A 
BRANCH  14  15
ATOM     15  S   UNL A   1      31.448  24.994  22.761  1.00  0.00    -0.101 SA
BRANCH  15  16
ATOM     16  C   UNL A   1      30.673  26.580  23.239  1.00  0.00     0.052 C 
ATOM     17  C   UNL A   1      29.682  26.392  24.391  1.00  0.00     0.020 C 
BRANCH  16  18
ATOM     18  C   UNL A   1      31.557  27.830  23.264  1.00  0.00     0.043 C 
BRANCH  18  19
ATOM     19  C   UNL A   1      30.784  29.107  22.916  1.00  0.00     0.157 C 
BRANCH  19  20
ATOM     20  O   UNL A   1      30.449  29.134  21.532  1.00  0.00    -0.396 OA
ATOM     21  H   UNL A   1      31.081  28.588  21.036  1.00  0.00     0.210 HD
ENDBRANCH  19  20
ENDBRANCH  18  19
ENDBRANCH  16  18
ENDBRANCH  15  16
ENDBRANCH  14  15
ENDBRANCH   4   7
ENDBRANCH   2   3
ENDBRANCH   1   2
BRANCH   1  22
ATOM     22  C   UNL A   1      33.020  30.080  26.174  1.00  0.00     0.002 C 
BRANCH  22  23
ATOM     23  C   UNL A   1      31.594  30.635  26.251  1.00  0.00     0.002 C 
BRANCH  23  24
ATOM     24  C   UNL A   1      31.431  32.119  26.577  1.00  0.00     0.021 C 
BRANCH  24  25
ATOM     25  C   UNL A   1      32.588  32.759  27.328  1.00  0.00     0.116 C 
BRANCH  25  26
ATOM     26  N   UNL A   1      32.356  34.164  27.606  1.00  0.00    -0.352 N 
ATOM     27  C   UNL A   1      32.964  34.954  28.553  1.00  0.00     0.251 C 
ATOM     28  H   UNL A   1      31.677  34.607  27.047  1.00  0.00     0.163 HD
ATOM     29  O   UNL A   1      32.547  36.069  28.813  1.00  0.00    -0.269 OA
BRANCH  27  30
ATOM     30  C   UNL A   1      34.139  34.409  29.261  1.00  0.00     0.039 A 
ATOM     31  C   UNL A   1      33.951  33.726  30.464  1.00  0.00     0.014 A 
ATOM     32  C   UNL A   1      35.413  34.541  28.699  1.00  0.00     0.014 A 
ATOM     33  C   UNL A   1      35.048  33.136  31.091  1.00  0.00     0.010 A 
ATOM     34  C   UNL A   1      36.492  33.898  29.292  1.00  0.00     0.010 A 
ATOM     35  C   UNL A   1      36.320  33.206  30.501  1.00  0.00    -0.014 A 
BRANCH  35  36
ATOM     36  C   UNL A   1      37.504  32.622  31.170  1.00  0.00     0.031 A 
ATOM     37  C   UNL A   1      38.171  31.423  30.560  1.00  0.00     0.074 A 
ATOM     38  C   UNL A   1      37.949  33.141  32.329  1.00  0.00     0.049 A 
ATOM     39  N   UNL A   1      39.188  30.729  31.000  1.00  0.00    -0.248 NA
ATOM     40  C   UNL A   1      37.602  30.927  29.296  1.00  0.00     0.031 C 
ATOM     41  C   UNL A   1      37.368  34.291  33.024  1.00  0.00     0.029 A 
ATOM     42  N   UNL A   1      38.993  32.758  33.132  1.00  0.00    -0.354 N 
ATOM     43  C   UNL A   1      39.387  29.723  30.063  1.00  0.00     0.074 A 
ATOM     44  C   UNL A   1      38.341  29.852  29.072  1.00  0.00     0.031 C 
ATOM     45  C   UNL A   1      38.074  34.528  34.143  1.00  0.00     0.029 A 
ATOM     46  C   UNL A   1      39.132  33.530  34.260  1.00  0.00     0.049 A 
ATOM     47  H   UNL A   1      39.587  32.001  32.920  1.00  0.00     0.167 HD
ATOM     48  C   UNL A   1      40.368  28.793  30.017  1.00  0.00     0.037 A 
ATOM     49  C   UNL A   1      40.014  33.431  35.272  1.00  0.00     0.037 A 
ATOM     50  C   UNL A   1      41.400  28.663  31.010  1.00  0.00     0.049 A 
ATOM     51  C   UNL A   1      41.053  32.341  35.232  1.00  0.00     0.074 A 
ATOM     52  C   UNL A   1      42.454  27.769  31.050  1.00  0.00     0.029 A 
ATOM     53  N   UNL A   1      41.498  29.451  32.147  1.00  0.00    -0.354 N 
ATOM     54  N   UNL A   1      41.267  31.431  34.312  1.00  0.00    -0.248 NA
ATOM     55  C   UNL A   1      41.977  32.269  36.372  1.00  0.00     0.031 C 
ATOM     56  C   UNL A   1      43.160  27.981  32.239  1.00  0.00     0.029 A 
ATOM     57  C   UNL A   1      42.581  29.045  32.910  1.00  0.00     0.049 A 
ATOM     58  H   UNL A   1      40.889  30.188  32.379  1.00  0.00     0.167 HD
ATOM     59  C   UNL A   1      42.370  30.704  34.743  1.00  0.00     0.074 A 
ATOM     60  C   UNL A   1      42.790  31.291  35.999  1.00  0.00     0.031 C 
ATOM     61  C   UNL A   1      42.984  29.648  34.155  1.00  0.00     0.037 A 
BRANCH  48  62
ATOM     62  C   UNL A   1      40.361  27.845  28.853  1.00  0.00     0.057 A 
ATOM     63  C   UNL A   1      39.629  26.653  28.900  1.00  0.00     0.134 A 
ATOM     64  C   UNL A   1      41.087  28.110  27.683  1.00  0.00     0.134 A 
ATOM     65  F   UNL A   1      38.913  26.337  29.990  1.00  0.00    -0.206 F 
ATOM     66  C   UNL A   1      39.619  25.759  27.829  1.00  0.00     0.040 A 
ATOM     67  C   UNL A   1      41.061  27.239  26.593  1.00  0.00     0.040 A 
ATOM     68  F   UNL A   1      41.796  29.244  27.564  1.00  0.00    -0.206 F 
ATOM     69  C   UNL A   1      40.329  26.055  26.667  1.00  0.00     0.006 A 
ENDBRANCH  48  62
BRANCH  49  70
ATOM     70  C   UNL A   1      39.970  34.385  36.411  1.00  0.00     0.057 A 
ATOM     71  C   UNL A   1      39.303  34.074  37.601  1.00  0.00     0.134 A 
ATOM     72  C   UNL A   1      40.643  35.611  36.351  1.00  0.00     0.134 A 
ATOM     73  F   UNL A   1      38.630  32.920  37.721  1.00  0.00    -0.206 F 
ATOM     74  C   UNL A   1      39.314  34.944  38.694  1.00  0.00     0.040 A 
ATOM     75  C   UNL A   1      40.687  36.477  37.445  1.00  0.00     0.040 A 
ATOM     76  F   UNL A   1      41.317  35.957  35.244  1.00  0.00    -0.206 F 
ATOM     77  C   UNL A   1      40.019  36.143  38.621  1.00  0.00     0.006 A 
ENDBRANCH  49  70
BRANCH  61  78
ATOM     78  C   UNL A   1      44.198  29.093  34.845  1.00  0.00     0.057 A 
ATOM     79  C   UNL A   1      44.067  28.095  35.819  1.00  0.00     0.134 A 
ATOM     80  C   UNL A   1      45.490  29.555  34.564  1.00  0.00     0.134 A 
ATOM     81  F   UNL A   1      42.857  27.614  36.143  1.00  0.00    -0.206 F 
ATOM     82  C   UNL A   1      45.176  27.576  36.487  1.00  0.00     0.040 A 
ATOM     83  C   UNL A   1      46.610  29.021  35.202  1.00  0.00     0.040 A 
ATOM     84  F   UNL A   1      45.687  30.501  33.633  1.00  0.00    -0.206 F 
ATOM     85  C   UNL A   1      46.454  28.032  36.172  1.00  0.00     0.006 A 
ENDBRANCH  61  78
ENDBRANCH  35  36
ENDBRANCH  27  30
ENDBRANCH  25  26
ENDBRANCH  24  25
ENDBRANCH  23  24
ENDBRANCH  22  23
ENDBRANCH   1  22
TORSDOF 18
ENDMDL
MODEL 2
REMARK VINA RESULT:     -10.6      1.412      6.793
REMARK SMILES Cc1nnc(S[C@@H](C)CCO)c(C(=O)NCCCCCCNC(=O)c2ccc(-c3c4nc(c(-c5c(F)cccc5F)c5ccc([nH]5)c(-c5c(F)cccc5F)c5nc(c(-c6c(F)cccc6F)c6ccc3[nH]6)C=C5)C=C4)cc2)c1C
REMARK SMILES IDX 17 1 16 2 15 3 13 4 14 5 12 7 1 8 2 9 3 10 79 11 4 12 80 13
REMARK SMILES IDX 5 14 6 15 7 16 8 17 9 18 10 19 11 20 18 22 19 23 20 24 21 25
REMARK SMILES IDX 22 26 23 27 24 29 25 30 26 31 78 32 27 33 77 34 28 35 29 36
REMARK SMILES IDX 30 37 71 38 31 39 76 40 70 41 72 42 32 43 75 44 69 45 68 46
REMARK SMILES IDX 33 48 59 49 42 50 58 51 43 52 46 53 57 54 73 55 44 56 45 57
REMARK SMILES IDX 56 59 74 60 47 61 34 62 35 63 40 64 36 65 37 66 39 67 41 68
REMARK SMILES IDX 38 69 60 70 61 71 66 72 62 73 63 74 65 75 67 76 64 77 48 78
REMARK SMILES IDX 49 79 54 80 50 81 51 82 53 83 55 84 52 85
REMARK H PARENT 15 6 11 21 22 28 72 47 46 58
REMARK Flexibility Score: inf
ROOT
ATOM      1  C   UNL A   1      33.201  28.930  26.099  1.00  0.00     0.021 C 
ENDROOT
BRANCH   1   2
ATOM      2  C   UNL A   1      33.614  29.248  24.669  1.00  0.00     0.116 C 
BRANCH   2   3
ATOM      3  N   UNL A   1      33.753  28.122  23.775  1.00  0.00    -0.352 N 
ATOM      4  C   UNL A   1      32.844  27.360  23.069  1.00  0.00     0.254 C 
ATOM      5  O   UNL A   1      33.328  26.744  22.123  1.00  0.00    -0.269 OA
ATOM      6  H   UNL A   1      34.687  27.840  23.642  1.00  0.00     0.163 HD
BRANCH   4   7
ATOM      7  C   UNL A   1      31.386  27.197  23.341  1.00  0.00     0.078 A 
ATOM      8  C   UNL A   1      27.928  28.858  22.877  1.00  0.00     0.069 C 
ATOM      9  C   UNL A   1      29.050  27.917  23.207  1.00  0.00     0.064 A 
ATOM     10  N   UNL A   1      28.651  26.754  23.722  1.00  0.00    -0.155 NA
ATOM     11  C   UNL A   1      30.411  28.195  22.993  1.00  0.00    -0.012 A 
ATOM     12  N   UNL A   1      29.567  25.791  23.993  1.00  0.00    -0.143 NA
ATOM     13  C   UNL A   1      30.715  29.533  22.374  1.00  0.00     0.047 C 
ATOM     14  C   UNL A   1      30.904  25.941  23.784  1.00  0.00     0.132 A 
BRANCH  14  15
ATOM     15  S   UNL A   1      31.535  24.293  24.039  1.00  0.00    -0.101 SA
BRANCH  15  16
ATOM     16  C   UNL A   1      32.512  23.994  25.556  1.00  0.00     0.052 C 
ATOM     17  C   UNL A   1      33.781  24.848  25.580  1.00  0.00     0.020 C 
BRANCH  16  18
ATOM     18  C   UNL A   1      31.751  23.821  26.874  1.00  0.00     0.043 C 
BRANCH  18  19
ATOM     19  C   UNL A   1      30.277  23.456  26.662  1.00  0.00     0.157 C 
BRANCH  19  20
ATOM     20  O   UNL A   1      29.820  22.581  27.689  1.00  0.00    -0.396 OA
ATOM     21  H   UNL A   1      29.468  21.770  27.289  1.00  0.00     0.210 HD
ENDBRANCH  19  20
ENDBRANCH  18  19
ENDBRANCH  16  18
ENDBRANCH  15  16
ENDBRANCH  14  15
ENDBRANCH   4   7
ENDBRANCH   2   3
ENDBRANCH   1   2
BRANCH   1  22
ATOM     22  C   UNL A   1      32.218  29.864  26.809  1.00  0.00     0.002 C 
BRANCH  22  23
ATOM     23  C   UNL A   1      31.394  30.846  25.969  1.00  0.00     0.002 C 
BRANCH  23  24
ATOM     24  C   UNL A   1      31.269  32.280  26.481  1.00  0.00     0.021 C 
BRANCH  24  25
ATOM     25  C   UNL A   1      32.499  32.842  27.175  1.00  0.00     0.116 C 
BRANCH  25  26
ATOM     26  N   UNL A   1      32.304  34.206  27.628  1.00  0.00    -0.352 N 
ATOM     27  C   UNL A   1      32.963  34.868  28.637  1.00  0.00     0.251 C 
ATOM     28  H   UNL A   1      31.611  34.722  27.155  1.00  0.00     0.163 HD
ATOM     29  O   UNL A   1      32.576  35.949  29.046  1.00  0.00    -0.269 OA
BRANCH  27  30
ATOM     30  C   UNL A   1      34.154  34.227  29.227  1.00  0.00     0.039 A 
ATOM     31  C   UNL A   1      33.992  33.337  30.289  1.00  0.00     0.014 A 
ATOM     32  C   UNL A   1      35.420  34.480  28.685  1.00  0.00     0.014 A 
ATOM     33  C   UNL A   1      35.106  32.664  30.791  1.00  0.00     0.010 A 
ATOM     34  C   UNL A   1      36.516  33.761  29.144  1.00  0.00     0.010 A 
ATOM     35  C   UNL A   1      36.369  32.862  30.212  1.00  0.00    -0.014 A 
BRANCH  35  36
ATOM     36  C   UNL A   1      37.570  32.190  30.755  1.00  0.00     0.031 A 
ATOM     37  C   UNL A   1      38.220  32.741  31.993  1.00  0.00     0.074 A 
ATOM     38  C   UNL A   1      38.090  31.120  30.125  1.00  0.00     0.049 A 
ATOM     39  N   UNL A   1      39.298  32.337  32.611  1.00  0.00    -0.248 NA
ATOM     40  C   UNL A   1      37.578  33.918  32.602  1.00  0.00     0.031 C 
ATOM     41  C   UNL A   1      37.557  30.511  28.906  1.00  0.00     0.029 A 
ATOM     42  N   UNL A   1      39.194  30.363  30.422  1.00  0.00    -0.354 N 
ATOM     43  C   UNL A   1      39.458  33.202  33.686  1.00  0.00     0.074 A 
ATOM     44  C   UNL A   1      38.410  34.195  33.593  1.00  0.00     0.031 C 
ATOM     45  C   UNL A   1      38.327  29.463  28.568  1.00  0.00     0.029 A 
ATOM     46  C   UNL A   1      39.423  29.349  29.524  1.00  0.00     0.049 A 
ATOM     47  H   UNL A   1      39.767  30.529  31.205  1.00  0.00     0.167 HD
ATOM     48  C   UNL A   1      40.378  33.157  34.677  1.00  0.00     0.037 A 
ATOM     49  C   UNL A   1      40.414  28.438  29.483  1.00  0.00     0.037 A 
ATOM     50  C   UNL A   1      41.424  32.173  34.760  1.00  0.00     0.049 A 
ATOM     51  C   UNL A   1      41.467  28.454  30.559  1.00  0.00     0.074 A 
ATOM     52  C   UNL A   1      42.395  32.024  35.732  1.00  0.00     0.029 A 
ATOM     53  N   UNL A   1      41.636  31.172  33.823  1.00  0.00    -0.354 N 
ATOM     54  N   UNL A   1      41.576  29.242  31.603  1.00  0.00    -0.248 NA
ATOM     55  C   UNL A   1      42.534  27.449  30.453  1.00  0.00     0.031 C 
ATOM     56  C   UNL A   1      43.229  30.965  35.355  1.00  0.00     0.029 A 
ATOM     57  C   UNL A   1      42.741  30.418  34.180  1.00  0.00     0.049 A 
ATOM     58  H   UNL A   1      41.084  31.022  33.022  1.00  0.00     0.167 HD
ATOM     59  C   UNL A   1      42.698  28.804  32.296  1.00  0.00     0.074 A 
ATOM     60  C   UNL A   1      43.225  27.672  31.562  1.00  0.00     0.031 C 
ATOM     61  C   UNL A   1      43.245  29.291  33.437  1.00  0.00     0.037 A 
BRANCH  48  62
ATOM     62  C   UNL A   1      40.288  34.209  35.745  1.00  0.00     0.057 A 
ATOM     63  C   UNL A   1      39.514  34.002  36.893  1.00  0.00     0.134 A 
ATOM     64  C   UNL A   1      40.965  35.432  35.633  1.00  0.00     0.134 A 
ATOM     65  F   UNL A   1      38.841  32.855  37.063  1.00  0.00    -0.206 F 
ATOM     66  C   UNL A   1      39.416  34.973  37.891  1.00  0.00     0.040 A 
ATOM     67  C   UNL A   1      40.898  36.398  36.638  1.00  0.00     0.040 A 
ATOM     68  F   UNL A   1      41.738  35.688  34.567  1.00  0.00    -0.206 F 
ATOM     69  C   UNL A   1      40.116  36.172  37.769  1.00  0.00     0.006 A 
ENDBRANCH  48  62
BRANCH  49  70
ATOM     70  C   UNL A   1      40.467  27.426  28.395  1.00  0.00     0.057 A 
ATOM     71  C   UNL A   1      39.740  26.233  28.469  1.00  0.00     0.134 A 
ATOM     72  C   UNL A   1      41.207  27.658  27.230  1.00  0.00     0.134 A 
ATOM     73  F   UNL A   1      39.017  25.946  29.561  1.00  0.00    -0.206 F 
ATOM     74  C   UNL A   1      39.740  25.311  27.420  1.00  0.00     0.040 A 
ATOM     75  C   UNL A   1      41.194  26.759  26.162  1.00  0.00     0.040 A 
ATOM     76  F   UNL A   1      41.911  28.792  27.092  1.00  0.00    -0.206 F 
ATOM     77  C   UNL A   1      40.458  25.580  26.257  1.00  0.00     0.006 A 
ENDBRANCH  49  70
BRANCH  61  78
ATOM     78  C   UNL A   1      44.447  28.572  33.979  1.00  0.00     0.057 A 
ATOM     79  C   UNL A   1      44.294  27.524  34.896  1.00  0.00     0.134 A 
ATOM     80  C   UNL A   1      45.752  28.924  33.615  1.00  0.00     0.134 A 
ATOM     81  F   UNL A   1      43.071  27.142  35.296  1.00  0.00    -0.206 F 
ATOM     82  C   UNL A   1      45.394  26.853  35.430  1.00  0.00     0.040 A 
ATOM     83  C   UNL A   1      46.860  28.239  34.116  1.00  0.00     0.040 A 
ATOM     84  F   UNL A   1      45.969  29.911  32.731  1.00  0.00    -0.206 F 
ATOM     85  C   UNL A   1      46.682  27.203  35.031  1.00  0.00     0.006 A 
ENDBRANCH  61  78
ENDBRANCH  35  36
ENDBRANCH  27  30
ENDBRANCH  25  26
ENDBRANCH  24  25
ENDBRANCH  23  24
ENDBRANCH  22  23
ENDBRANCH   1  22
TORSDOF 18
ENDMDL
MODEL 3
REMARK VINA RESULT:     -10.6      1.339      6.481
REMARK SMILES Cc1nnc(S[C@@H](C)CCO)c(C(=O)NCCCCCCNC(=O)c2ccc(-c3c4nc(c(-c5c(F)cccc5F)c5ccc([nH]5)c(-c5c(F)cccc5F)c5nc(c(-c6c(F)cccc6F)c6ccc3[nH]6)C=C5)C=C4)cc2)c1C
REMARK SMILES IDX 17 1 16 2 15 3 13 4 14 5 12 7 1 8 2 9 3 10 79 11 4 12 80 13
REMARK SMILES IDX 5 14 6 15 7 16 8 17 9 18 10 19 11 20 18 22 19 23 20 24 21 25
REMARK SMILES IDX 22 26 23 27 24 29 25 30 26 31 78 32 27 33 77 34 28 35 29 36
REMARK SMILES IDX 30 37 71 38 31 39 76 40 70 41 72 42 32 43 75 44 69 45 68 46
REMARK SMILES IDX 33 48 59 49 42 50 58 51 43 52 46 53 57 54 73 55 44 56 45 57
REMARK SMILES IDX 56 59 74 60 47 61 34 62 35 63 40 64 36 65 37 66 39 67 41 68
REMARK SMILES IDX 38 69 60 70 61 71 66 72 62 73 63 74 65 75 67 76 64 77 48 78
REMARK SMILES IDX 49 79 54 80 50 81 51 82 53 83 55 84 52 85
REMARK H PARENT 15 6 11 21 22 28 72 47 46 58
REMARK Flexibility Score: inf
ROOT
ATOM      1  C   UNL A   1      32.490  28.517  26.094  1.00  0.00     0.021 C 
ENDROOT
BRANCH   1   2
ATOM      2  C   UNL A   1      31.803  27.593  27.089  1.00  0.00     0.116 C 
BRANCH   2   3
ATOM      3  N   UNL A   1      30.948  26.571  26.532  1.00  0.00    -0.352 N 
ATOM      4  C   UNL A   1      31.184  25.490  25.707  1.00  0.00     0.254 C 
ATOM      5  O   UNL A   1      30.314  24.624  25.747  1.00  0.00    -0.269 OA
ATOM      6  H   UNL A   1      30.003  26.666  26.793  1.00  0.00     0.163 HD
BRANCH   4   7
ATOM      7  C   UNL A   1      32.340  25.280  24.787  1.00  0.00     0.078 A 
ATOM      8  C   UNL A   1      35.653  23.343  24.343  1.00  0.00     0.069 C 
ATOM      9  C   UNL A   1      34.451  24.220  24.146  1.00  0.00     0.064 A 
ATOM     10  N   UNL A   1      34.389  24.799  22.946  1.00  0.00    -0.155 NA
ATOM     11  C   UNL A   1      33.450  24.426  25.111  1.00  0.00    -0.012 A 
ATOM     12  N   UNL A   1      33.312  25.556  22.621  1.00  0.00    -0.143 NA
ATOM     13  C   UNL A   1      33.630  23.683  26.408  1.00  0.00     0.047 C 
ATOM     14  C   UNL A   1      32.268  25.784  23.466  1.00  0.00     0.132 A 
BRANCH  14  15
ATOM     15  S   UNL A   1      31.067  26.571  22.410  1.00  0.00    -0.101 SA
BRANCH  15  16
ATOM     16  C   UNL A   1      30.112  27.963  23.116  1.00  0.00     0.052 C 
ATOM     17  C   UNL A   1      30.529  29.298  22.494  1.00  0.00     0.020 C 
BRANCH  16  18
ATOM     18  C   UNL A   1      28.621  27.743  23.386  1.00  0.00     0.043 C 
BRANCH  18  19
ATOM     19  C   UNL A   1      27.762  28.942  22.967  1.00  0.00     0.157 C 
BRANCH  19  20
ATOM     20  O   UNL A   1      26.381  28.591  22.945  1.00  0.00    -0.396 OA
ATOM     21  H   UNL A   1      25.846  29.393  22.828  1.00  0.00     0.210 HD
ENDBRANCH  19  20
ENDBRANCH  18  19
ENDBRANCH  16  18
ENDBRANCH  15  16
ENDBRANCH  14  15
ENDBRANCH   4   7
ENDBRANCH   2   3
ENDBRANCH   1   2
BRANCH   1  22
ATOM     22  C   UNL A   1      32.555  30.016  26.401  1.00  0.00     0.002 C 
BRANCH  22  23
ATOM     23  C   UNL A   1      31.387  30.909  25.972  1.00  0.00     0.002 C 
BRANCH  23  24
ATOM     24  C   UNL A   1      31.320  32.316  26.563  1.00  0.00     0.021 C 
BRANCH  24  25
ATOM     25  C   UNL A   1      32.614  32.840  27.164  1.00  0.00     0.116 C 
BRANCH  25  26
ATOM     26  N   UNL A   1      32.483  34.196  27.661  1.00  0.00    -0.352 N 
ATOM     27  C   UNL A   1      33.160  34.789  28.700  1.00  0.00     0.251 C 
ATOM     28  H   UNL A   1      31.825  34.764  27.197  1.00  0.00     0.163 HD
ATOM     29  O   UNL A   1      32.824  35.875  29.141  1.00  0.00    -0.269 OA
BRANCH  27  30
ATOM     30  C   UNL A   1      34.309  34.067  29.283  1.00  0.00     0.039 A 
ATOM     31  C   UNL A   1      34.075  33.074  30.234  1.00  0.00     0.014 A 
ATOM     32  C   UNL A   1      35.606  34.352  28.842  1.00  0.00     0.014 A 
ATOM     33  C   UNL A   1      35.150  32.331  30.722  1.00  0.00     0.010 A 
ATOM     34  C   UNL A   1      36.665  33.569  29.281  1.00  0.00     0.010 A 
ATOM     35  C   UNL A   1      36.447  32.565  30.237  1.00  0.00    -0.014 A 
BRANCH  35  36
ATOM     36  C   UNL A   1      37.606  31.816  30.771  1.00  0.00     0.031 A 
ATOM     37  C   UNL A   1      38.100  32.124  32.156  1.00  0.00     0.074 A 
ATOM     38  C   UNL A   1      38.229  30.899  30.008  1.00  0.00     0.049 A 
ATOM     39  N   UNL A   1      39.120  31.622  32.801  1.00  0.00    -0.248 NA
ATOM     40  C   UNL A   1      37.355  33.148  32.906  1.00  0.00     0.031 C 
ATOM     41  C   UNL A   1      37.851  30.533  28.642  1.00  0.00     0.029 A 
ATOM     42  N   UNL A   1      39.321  30.114  30.274  1.00  0.00    -0.354 N 
ATOM     43  C   UNL A   1      39.133  32.262  34.034  1.00  0.00     0.074 A 
ATOM     44  C   UNL A   1      38.066  33.238  34.018  1.00  0.00     0.031 C 
ATOM     45  C   UNL A   1      38.690  29.583  28.196  1.00  0.00     0.029 A 
ATOM     46  C   UNL A   1      39.682  29.299  29.229  1.00  0.00     0.049 A 
ATOM     47  H   UNL A   1      39.801  30.132  31.134  1.00  0.00     0.167 HD
ATOM     48  C   UNL A   1      39.943  32.037  35.094  1.00  0.00     0.037 A 
ATOM     49  C   UNL A   1      40.703  28.429  29.122  1.00  0.00     0.037 A 
ATOM     50  C   UNL A   1      41.009  31.070  35.101  1.00  0.00     0.049 A 
ATOM     51  C   UNL A   1      41.635  28.249  30.293  1.00  0.00     0.074 A 
ATOM     52  C   UNL A   1      41.876  30.748  36.128  1.00  0.00     0.029 A 
ATOM     53  N   UNL A   1      41.356  30.277  34.018  1.00  0.00    -0.354 N 
ATOM     54  N   UNL A   1      41.603  28.818  31.475  1.00  0.00    -0.248 NA
ATOM     55  C   UNL A   1      42.742  27.300  30.114  1.00  0.00     0.031 C 
ATOM     56  C   UNL A   1      42.783  29.796  35.650  1.00  0.00     0.029 A 
ATOM     57  C   UNL A   1      42.443  29.483  34.344  1.00  0.00     0.049 A 
ATOM     58  H   UNL A   1      40.898  30.278  33.147  1.00  0.00     0.167 HD
ATOM     59  C   UNL A   1      42.660  28.270  32.190  1.00  0.00     0.074 A 
ATOM     60  C   UNL A   1      43.303  27.312  31.315  1.00  0.00     0.031 C 
ATOM     61  C   UNL A   1      43.064  28.531  33.458  1.00  0.00     0.037 A 
BRANCH  48  62
ATOM     62  C   UNL A   1      39.702  32.857  36.328  1.00  0.00     0.057 A 
ATOM     63  C   UNL A   1      40.423  34.034  36.561  1.00  0.00     0.134 A 
ATOM     64  C   UNL A   1      38.759  32.476  37.293  1.00  0.00     0.134 A 
ATOM     65  F   UNL A   1      41.342  34.456  35.679  1.00  0.00    -0.206 F 
ATOM     66  C   UNL A   1      40.215  34.803  37.707  1.00  0.00     0.040 A 
ATOM     67  C   UNL A   1      38.521  33.253  38.428  1.00  0.00     0.040 A 
ATOM     68  F   UNL A   1      38.021  31.368  37.124  1.00  0.00    -0.206 F 
ATOM     69  C   UNL A   1      39.255  34.418  38.641  1.00  0.00     0.006 A 
ENDBRANCH  48  62
BRANCH  49  70
ATOM     70  C   UNL A   1      40.909  27.651  27.873  1.00  0.00     0.057 A 
ATOM     71  C   UNL A   1      41.689  28.146  26.822  1.00  0.00     0.134 A 
ATOM     72  C   UNL A   1      40.370  26.368  27.726  1.00  0.00     0.134 A 
ATOM     73  F   UNL A   1      42.228  29.372  26.896  1.00  0.00    -0.206 F 
ATOM     74  C   UNL A   1      41.934  27.389  25.674  1.00  0.00     0.040 A 
ATOM     75  C   UNL A   1      40.630  25.589  26.596  1.00  0.00     0.040 A 
ATOM     76  F   UNL A   1      39.628  25.831  28.706  1.00  0.00    -0.206 F 
ATOM     77  C   UNL A   1      41.414  26.102  25.566  1.00  0.00     0.006 A 
ENDBRANCH  49  70
BRANCH  61  78
ATOM     78  C   UNL A   1      44.227  27.737  33.982  1.00  0.00     0.057 A 
ATOM     79  C   UNL A   1      45.532  28.235  33.873  1.00  0.00     0.134 A 
ATOM     80  C   UNL A   1      44.063  26.478  34.572  1.00  0.00     0.134 A 
ATOM     81  F   UNL A   1      45.761  29.430  33.308  1.00  0.00    -0.206 F 
ATOM     82  C   UNL A   1      46.631  27.510  34.334  1.00  0.00     0.040 A 
ATOM     83  C   UNL A   1      45.151  25.758  35.067  1.00  0.00     0.040 A 
ATOM     84  F   UNL A   1      42.838  25.950  34.719  1.00  0.00    -0.206 F 
ATOM     85  C   UNL A   1      46.441  26.271  34.943  1.00  0.00     0.006 A 
ENDBRANCH  61  78
ENDBRANCH  35  36
ENDBRANCH  27  30
ENDBRANCH  25  26
ENDBRANCH  24  25
ENDBRANCH  23  24
ENDBRANCH  22  23
ENDBRANCH   1  22
TORSDOF 18
ENDMDL
