MODEL 1
REMARK VINA RESULT:      -9.1      0.000      0.000
REMARK SMILES O=CN1CCC[C@@H](C(=O)NCCCCCCNC(=O)c2ccc(-c3c4nc(c(-c5c(F)cccc5F)c5ccc([nH]5)c(-c5c(F)cccc5F)c5nc(c(-c6c(F)cccc6F)c6ccc3[nH]6)C=C5)C=C4)cc2)C1
REMARK SMILES IDX 14 1 13 2 12 3 11 4 10 5 8 6 9 7 7 9 3 10 4 11 74 12 5 13
REMARK SMILES IDX 6 14 2 15 1 16 15 17 16 18 17 19 18 20 19 22 20 23 21 24
REMARK SMILES IDX 73 25 22 26 72 27 23 28 24 29 25 30 66 31 26 32 71 33 65 34
REMARK SMILES IDX 67 35 27 36 70 37 64 38 63 39 28 41 54 42 37 43 53 44 38 45
REMARK SMILES IDX 41 46 52 47 68 48 39 49 40 50 51 52 69 53 42 54 29 55 30 56
REMARK SMILES IDX 35 57 31 58 32 59 34 60 36 61 33 62 55 63 56 64 61 65 57 66
REMARK SMILES IDX 58 67 60 68 62 69 59 70 43 71 44 72 49 73 45 74 46 75 48 76
REMARK SMILES IDX 50 77 47 78
REMARK H PARENT 10 8 17 21 67 40 41 51
REMARK Flexibility Score: inf
ROOT
ATOM      1  C   UNL A   1      44.727  20.092  24.585  1.00  0.00     0.002 C 
ENDROOT
BRANCH   1   2
ATOM      2  C   UNL A   1      45.968  20.880  25.020  1.00  0.00     0.002 C 
BRANCH   2   3
ATOM      3  C   UNL A   1      45.694  22.207  25.743  1.00  0.00     0.021 C 
BRANCH   3   4
ATOM      4  C   UNL A   1      45.970  23.452  24.901  1.00  0.00     0.116 C 
BRANCH   4   5
ATOM      5  N   UNL A   1      44.817  24.326  24.828  1.00  0.00    -0.356 N 
ATOM      6  C   UNL A   1      44.571  25.609  25.172  1.00  0.00     0.224 C 
ATOM      7  O   UNL A   1      43.411  25.992  24.969  1.00  0.00    -0.275 OA
ATOM      8  H   UNL A   1      44.031  23.882  24.438  1.00  0.00     0.163 HD
BRANCH   6   9
ATOM      9  C   UNL A   1      45.571  26.587  25.789  1.00  0.00     0.098 C 
ATOM     10  N   UNL A   1      47.651  27.832  25.259  1.00  0.00    -0.344 N 
ATOM     11  C   UNL A   1      47.223  29.024  25.973  1.00  0.00     0.119 C 
ATOM     12  C   UNL A   1      46.606  26.961  24.717  1.00  0.00     0.132 C 
ATOM     13  C   UNL A   1      46.235  28.662  27.073  1.00  0.00     0.022 C 
ATOM     14  C   UNL A   1      45.073  27.839  26.510  1.00  0.00     0.017 C 
BRANCH  10  15
ATOM     15  C   UNL A   1      48.984  27.572  25.031  1.00  0.00     0.339 C 
ATOM     16  O   UNL A   1      49.905  28.376  25.135  1.00  0.00    -0.279 OA
ENDBRANCH  10  15
ENDBRANCH   6   9
ENDBRANCH   4   5
ENDBRANCH   3   4
ENDBRANCH   2   3
ENDBRANCH   1   2
BRANCH   1  17
ATOM     17  C   UNL A   1      44.577  18.698  25.200  1.00  0.00     0.021 C 
BRANCH  17  18
ATOM     18  C   UNL A   1      43.598  18.608  26.367  1.00  0.00     0.116 C 
BRANCH  18  19
ATOM     19  N   UNL A   1      42.214  18.541  25.924  1.00  0.00    -0.352 N 
ATOM     20  C   UNL A   1      41.201  19.454  26.074  1.00  0.00     0.251 C 
ATOM     21  H   UNL A   1      41.968  17.717  25.446  1.00  0.00     0.163 HD
ATOM     22  O   UNL A   1      40.050  19.143  25.775  1.00  0.00    -0.269 OA
BRANCH  20  23
ATOM     23  C   UNL A   1      41.476  20.806  26.610  1.00  0.00     0.039 A 
ATOM     24  C   UNL A   1      41.361  21.018  27.988  1.00  0.00     0.014 A 
ATOM     25  C   UNL A   1      41.802  21.872  25.767  1.00  0.00     0.014 A 
ATOM     26  C   UNL A   1      41.621  22.281  28.524  1.00  0.00     0.010 A 
ATOM     27  C   UNL A   1      42.121  23.117  26.308  1.00  0.00     0.010 A 
ATOM     28  C   UNL A   1      42.027  23.335  27.691  1.00  0.00    -0.014 A 
BRANCH  28  29
ATOM     29  C   UNL A   1      42.345  24.675  28.249  1.00  0.00     0.031 A 
ATOM     30  C   UNL A   1      43.731  24.980  28.743  1.00  0.00     0.074 A 
ATOM     31  C   UNL A   1      41.372  25.599  28.361  1.00  0.00     0.049 A 
ATOM     32  N   UNL A   1      44.183  26.067  29.318  1.00  0.00    -0.248 NA
ATOM     33  C   UNL A   1      44.736  23.916  28.597  1.00  0.00     0.031 C 
ATOM     34  C   UNL A   1      39.976  25.412  27.956  1.00  0.00     0.029 A 
ATOM     35  N   UNL A   1      41.406  26.877  28.857  1.00  0.00    -0.354 N 
ATOM     36  C   UNL A   1      45.516  25.811  29.616  1.00  0.00     0.074 A 
ATOM     37  C   UNL A   1      45.787  24.452  29.199  1.00  0.00     0.031 C 
ATOM     38  C   UNL A   1      39.293  26.542  28.204  1.00  0.00     0.029 A 
ATOM     39  C   UNL A   1      40.192  27.520  28.810  1.00  0.00     0.049 A 
ATOM     40  H   UNL A   1      42.223  27.296  29.213  1.00  0.00     0.167 HD
ATOM     41  C   UNL A   1      46.435  26.639  30.166  1.00  0.00     0.037 A 
ATOM     42  C   UNL A   1      39.842  28.756  29.213  1.00  0.00     0.037 A 
ATOM     43  C   UNL A   1      46.175  28.001  30.550  1.00  0.00     0.049 A 
ATOM     44  C   UNL A   1      40.884  29.661  29.808  1.00  0.00     0.074 A 
ATOM     45  C   UNL A   1      47.057  28.937  31.062  1.00  0.00     0.029 A 
ATOM     46  N   UNL A   1      44.939  28.623  30.461  1.00  0.00    -0.354 N 
ATOM     47  N   UNL A   1      42.154  29.424  30.030  1.00  0.00    -0.248 NA
ATOM     48  C   UNL A   1      40.447  31.007  30.202  1.00  0.00     0.031 C 
ATOM     49  C   UNL A   1      46.347  30.116  31.313  1.00  0.00     0.029 A 
ATOM     50  C   UNL A   1      45.032  29.926  30.921  1.00  0.00     0.049 A 
ATOM     51  H   UNL A   1      44.117  28.201  30.120  1.00  0.00     0.167 HD
ATOM     52  C   UNL A   1      42.673  30.598  30.561  1.00  0.00     0.074 A 
ATOM     53  C   UNL A   1      41.582  31.548  30.619  1.00  0.00     0.031 C 
ATOM     54  C   UNL A   1      43.940  30.864  30.963  1.00  0.00     0.037 A 
BRANCH  41  55
ATOM     55  C   UNL A   1      47.816  26.092  30.381  1.00  0.00     0.057 A 
ATOM     56  C   UNL A   1      48.252  25.665  31.642  1.00  0.00     0.134 A 
ATOM     57  C   UNL A   1      48.710  25.961  29.311  1.00  0.00     0.134 A 
ATOM     58  F   UNL A   1      47.449  25.775  32.712  1.00  0.00    -0.206 F 
ATOM     59  C   UNL A   1      49.534  25.151  31.836  1.00  0.00     0.040 A 
ATOM     60  C   UNL A   1      49.986  25.426  29.487  1.00  0.00     0.040 A 
ATOM     61  F   UNL A   1      48.354  26.346  28.076  1.00  0.00    -0.206 F 
ATOM     62  C   UNL A   1      50.404  25.024  30.754  1.00  0.00     0.006 A 
ENDBRANCH  41  55
BRANCH  42  63
ATOM     63  C   UNL A   1      38.447  29.224  29.037  1.00  0.00     0.057 A 
ATOM     64  C   UNL A   1      37.542  29.211  30.106  1.00  0.00     0.134 A 
ATOM     65  C   UNL A   1      37.980  29.689  27.802  1.00  0.00     0.134 A 
ATOM     66  F   UNL A   1      37.927  28.757  31.308  1.00  0.00    -0.206 F 
ATOM     67  C   UNL A   1      36.220  29.629  29.951  1.00  0.00     0.040 A 
ATOM     68  C   UNL A   1      36.667  30.132  27.638  1.00  0.00     0.040 A 
ATOM     69  F   UNL A   1      38.800  29.733  26.742  1.00  0.00    -0.206 F 
ATOM     70  C   UNL A   1      35.781  30.097  28.713  1.00  0.00     0.006 A 
ENDBRANCH  42  63
BRANCH  54  71
ATOM     71  C   UNL A   1      44.222  32.247  31.466  1.00  0.00     0.057 A 
ATOM     72  C   UNL A   1      44.593  33.286  30.605  1.00  0.00     0.134 A 
ATOM     73  C   UNL A   1      44.082  32.551  32.827  1.00  0.00     0.134 A 
ATOM     74  F   UNL A   1      44.757  33.055  29.293  1.00  0.00    -0.206 F 
ATOM     75  C   UNL A   1      44.835  34.575  31.081  1.00  0.00     0.040 A 
ATOM     76  C   UNL A   1      44.299  33.842  33.311  1.00  0.00     0.040 A 
ATOM     77  F   UNL A   1      43.721  31.602  33.704  1.00  0.00    -0.206 F 
ATOM     78  C   UNL A   1      44.682  34.856  32.437  1.00  0.00     0.006 A 
ENDBRANCH  54  71
ENDBRANCH  28  29
ENDBRANCH  20  23
ENDBRANCH  18  19
ENDBRANCH  17  18
ENDBRANCH   1  17
TORSDOF 14
ENDMDL
MODEL 2
REMARK VINA RESULT:      -8.8      4.240     10.442
REMARK SMILES O=CN1CCC[C@@H](C(=O)NCCCCCCNC(=O)c2ccc(-c3c4nc(c(-c5c(F)cccc5F)c5ccc([nH]5)c(-c5c(F)cccc5F)c5nc(c(-c6c(F)cccc6F)c6ccc3[nH]6)C=C5)C=C4)cc2)C1
REMARK SMILES IDX 14 1 13 2 12 3 11 4 10 5 8 6 9 7 7 9 3 10 4 11 74 12 5 13
REMARK SMILES IDX 6 14 2 15 1 16 15 17 16 18 17 19 18 20 19 22 20 23 21 24
REMARK SMILES IDX 73 25 22 26 72 27 23 28 24 29 25 30 66 31 26 32 71 33 65 34
REMARK SMILES IDX 67 35 27 36 70 37 64 38 63 39 28 41 54 42 37 43 53 44 38 45
REMARK SMILES IDX 41 46 52 47 68 48 39 49 40 50 51 52 69 53 42 54 29 55 30 56
REMARK SMILES IDX 35 57 31 58 32 59 34 60 36 61 33 62 55 63 56 64 61 65 57 66
REMARK SMILES IDX 58 67 60 68 62 69 59 70 43 71 44 72 49 73 45 74 46 75 48 76
REMARK SMILES IDX 50 77 47 78
REMARK H PARENT 10 8 17 21 67 40 41 51
REMARK Flexibility Score: inf
ROOT
ATOM      1  C   UNL A   1      36.964  33.947  28.956  1.00  0.00     0.002 C 
ENDROOT
BRANCH   1   2
ATOM      2  C   UNL A   1      38.005  32.961  29.501  1.00  0.00     0.002 C 
BRANCH   2   3
ATOM      3  C   UNL A   1      37.777  32.481  30.941  1.00  0.00     0.021 C 
BRANCH   3   4
ATOM      4  C   UNL A   1      37.783  33.597  31.985  1.00  0.00     0.116 C 
BRANCH   4   5
ATOM      5  N   UNL A   1      36.814  33.363  33.038  1.00  0.00    -0.356 N 
ATOM      6  C   UNL A   1      35.667  33.961  33.427  1.00  0.00     0.224 C 
ATOM      7  O   UNL A   1      35.129  33.462  34.424  1.00  0.00    -0.275 OA
ATOM      8  H   UNL A   1      37.047  32.589  33.600  1.00  0.00     0.163 HD
BRANCH   6   9
ATOM      9  C   UNL A   1      35.013  35.175  32.768  1.00  0.00     0.098 C 
ATOM     10  N   UNL A   1      33.381  35.784  31.000  1.00  0.00    -0.344 N 
ATOM     11  C   UNL A   1      32.808  36.868  31.780  1.00  0.00     0.119 C 
ATOM     12  C   UNL A   1      33.990  34.674  31.736  1.00  0.00     0.132 C 
ATOM     13  C   UNL A   1      33.829  37.409  32.772  1.00  0.00     0.022 C 
ATOM     14  C   UNL A   1      34.404  36.280  33.630  1.00  0.00     0.017 C 
BRANCH  10  15
ATOM     15  C   UNL A   1      33.285  35.759  29.627  1.00  0.00     0.339 C 
ATOM     16  O   UNL A   1      32.419  36.309  28.954  1.00  0.00    -0.279 OA
ENDBRANCH  10  15
ENDBRANCH   6   9
ENDBRANCH   4   5
ENDBRANCH   3   4
ENDBRANCH   2   3
ENDBRANCH   1   2
BRANCH   1  17
ATOM     17  C   UNL A   1      35.705  33.316  28.355  1.00  0.00     0.021 C 
BRANCH  17  18
ATOM     18  C   UNL A   1      34.907  32.431  29.308  1.00  0.00     0.116 C 
BRANCH  18  19
ATOM     19  N   UNL A   1      34.240  31.337  28.620  1.00  0.00    -0.352 N 
ATOM     20  C   UNL A   1      34.769  30.201  28.061  1.00  0.00     0.251 C 
ATOM     21  H   UNL A   1      33.263  31.425  28.544  1.00  0.00     0.163 HD
ATOM     22  O   UNL A   1      34.059  29.471  27.373  1.00  0.00    -0.269 OA
BRANCH  20  23
ATOM     23  C   UNL A   1      36.193  29.854  28.261  1.00  0.00     0.039 A 
ATOM     24  C   UNL A   1      36.589  29.327  29.496  1.00  0.00     0.014 A 
ATOM     25  C   UNL A   1      37.147  30.078  27.264  1.00  0.00     0.014 A 
ATOM     26  C   UNL A   1      37.925  28.982  29.712  1.00  0.00     0.010 A 
ATOM     27  C   UNL A   1      38.468  29.678  27.458  1.00  0.00     0.010 A 
ATOM     28  C   UNL A   1      38.871  29.132  28.687  1.00  0.00    -0.014 A 
BRANCH  28  29
ATOM     29  C   UNL A   1      40.288  28.734  28.887  1.00  0.00     0.031 A 
ATOM     30  C   UNL A   1      41.272  29.707  29.476  1.00  0.00     0.074 A 
ATOM     31  C   UNL A   1      40.702  27.517  28.489  1.00  0.00     0.049 A 
ATOM     32  N   UNL A   1      42.559  29.565  29.670  1.00  0.00    -0.248 NA
ATOM     33  C   UNL A   1      40.745  31.020  29.877  1.00  0.00     0.031 C 
ATOM     34  C   UNL A   1      39.856  26.496  27.865  1.00  0.00     0.029 A 
ATOM     35  N   UNL A   1      41.943  26.933  28.540  1.00  0.00    -0.354 N 
ATOM     36  C   UNL A   1      42.998  30.774  30.197  1.00  0.00     0.074 A 
ATOM     37  C   UNL A   1      41.849  31.652  30.251  1.00  0.00     0.031 C 
ATOM     38  C   UNL A   1      40.599  25.407  27.609  1.00  0.00     0.029 A 
ATOM     39  C   UNL A   1      41.976  25.661  28.022  1.00  0.00     0.049 A 
ATOM     40  H   UNL A   1      42.735  27.384  28.913  1.00  0.00     0.167 HD
ATOM     41  C   UNL A   1      44.239  31.115  30.617  1.00  0.00     0.037 A 
ATOM     42  C   UNL A   1      43.001  24.798  27.891  1.00  0.00     0.037 A 
ATOM     43  C   UNL A   1      45.375  30.231  30.594  1.00  0.00     0.049 A 
ATOM     44  C   UNL A   1      44.367  25.195  28.379  1.00  0.00     0.074 A 
ATOM     45  C   UNL A   1      46.660  30.466  31.052  1.00  0.00     0.029 A 
ATOM     46  N   UNL A   1      45.361  28.941  30.086  1.00  0.00    -0.354 N 
ATOM     47  N   UNL A   1      44.753  26.320  28.927  1.00  0.00    -0.248 NA
ATOM     48  C   UNL A   1      45.437  24.198  28.234  1.00  0.00     0.031 C 
ATOM     49  C   UNL A   1      47.432  29.329  30.792  1.00  0.00     0.029 A 
ATOM     50  C   UNL A   1      46.618  28.372  30.208  1.00  0.00     0.049 A 
ATOM     51  H   UNL A   1      44.573  28.495  29.698  1.00  0.00     0.167 HD
ATOM     52  C   UNL A   1      46.101  26.158  29.220  1.00  0.00     0.074 A 
ATOM     53  C   UNL A   1      46.463  24.822  28.796  1.00  0.00     0.031 C 
ATOM     54  C   UNL A   1      46.960  27.037  29.791  1.00  0.00     0.037 A 
BRANCH  41  55
ATOM     55  C   UNL A   1      44.432  32.506  31.145  1.00  0.00     0.057 A 
ATOM     56  C   UNL A   1      44.795  33.569  30.307  1.00  0.00     0.134 A 
ATOM     57  C   UNL A   1      44.221  32.794  32.500  1.00  0.00     0.134 A 
ATOM     58  F   UNL A   1      45.025  33.357  29.002  1.00  0.00    -0.206 F 
ATOM     59  C   UNL A   1      44.967  34.862  30.802  1.00  0.00     0.040 A 
ATOM     60  C   UNL A   1      44.364  34.088  33.001  1.00  0.00     0.040 A 
ATOM     61  F   UNL A   1      43.865  31.824  33.355  1.00  0.00    -0.206 F 
ATOM     62  C   UNL A   1      44.745  35.126  32.153  1.00  0.00     0.006 A 
ENDBRANCH  41  55
BRANCH  42  63
ATOM     63  C   UNL A   1      42.769  23.458  27.302  1.00  0.00     0.057 A 
ATOM     64  C   UNL A   1      42.401  22.371  28.104  1.00  0.00     0.134 A 
ATOM     65  C   UNL A   1      42.911  23.227  25.928  1.00  0.00     0.134 A 
ATOM     66  F   UNL A   1      42.268  22.528  29.430  1.00  0.00    -0.206 F 
ATOM     67  C   UNL A   1      42.199  21.100  27.567  1.00  0.00     0.040 A 
ATOM     68  C   UNL A   1      42.690  21.966  25.373  1.00  0.00     0.040 A 
ATOM     69  F   UNL A   1      43.254  24.229  25.106  1.00  0.00    -0.206 F 
ATOM     70  C   UNL A   1      42.338  20.896  26.195  1.00  0.00     0.006 A 
ENDBRANCH  42  63
BRANCH  54  71
ATOM     71  C   UNL A   1      48.365  26.569  30.021  1.00  0.00     0.057 A 
ATOM     72  C   UNL A   1      49.379  26.781  29.079  1.00  0.00     0.134 A 
ATOM     73  C   UNL A   1      48.716  25.932  31.219  1.00  0.00     0.134 A 
ATOM     74  F   UNL A   1      49.104  27.373  27.906  1.00  0.00    -0.206 F 
ATOM     75  C   UNL A   1      50.688  26.358  29.311  1.00  0.00     0.040 A 
ATOM     76  C   UNL A   1      50.026  25.526  31.471  1.00  0.00     0.040 A 
ATOM     77  F   UNL A   1      47.792  25.706  32.166  1.00  0.00    -0.206 F 
ATOM     78  C   UNL A   1      51.015  25.734  30.514  1.00  0.00     0.006 A 
ENDBRANCH  54  71
ENDBRANCH  28  29
ENDBRANCH  20  23
ENDBRANCH  18  19
ENDBRANCH  17  18
ENDBRANCH   1  17
TORSDOF 14
ENDMDL
MODEL 3
REMARK VINA RESULT:      -8.8      3.901      7.153
REMARK SMILES O=CN1CCC[C@@H](C(=O)NCCCCCCNC(=O)c2ccc(-c3c4nc(c(-c5c(F)cccc5F)c5ccc([nH]5)c(-c5c(F)cccc5F)c5nc(c(-c6c(F)cccc6F)c6ccc3[nH]6)C=C5)C=C4)cc2)C1
REMARK SMILES IDX 14 1 13 2 12 3 11 4 10 5 8 6 9 7 7 9 3 10 4 11 74 12 5 13
REMARK SMILES IDX 6 14 2 15 1 16 15 17 16 18 17 19 18 20 19 22 20 23 21 24
REMARK SMILES IDX 73 25 22 26 72 27 23 28 24 29 25 30 66 31 26 32 71 33 65 34
REMARK SMILES IDX 67 35 27 36 70 37 64 38 63 39 28 41 54 42 37 43 53 44 38 45
REMARK SMILES IDX 41 46 52 47 68 48 39 49 40 50 51 52 69 53 42 54 29 55 30 56
REMARK SMILES IDX 35 57 31 58 32 59 34 60 36 61 33 62 55 63 56 64 61 65 57 66
REMARK SMILES IDX 58 67 60 68 62 69 59 70 43 71 44 72 49 73 45 74 46 75 48 76
REMARK SMILES IDX 50 77 47 78
REMARK H PARENT 10 8 17 21 67 40 41 51
REMARK Flexibility Score: inf
ROOT
ATOM      1  C   UNL A   1      36.626  19.938  25.001  1.00  0.00     0.002 C 
ENDROOT
BRANCH   1   2
ATOM      2  C   UNL A   1      36.661  21.445  24.722  1.00  0.00     0.002 C 
BRANCH   2   3
ATOM      3  C   UNL A   1      35.598  22.282  25.449  1.00  0.00     0.021 C 
BRANCH   3   4
ATOM      4  C   UNL A   1      34.788  21.506  26.487  1.00  0.00     0.116 C 
BRANCH   4   5
ATOM      5  N   UNL A   1      33.380  21.450  26.147  1.00  0.00    -0.356 N 
ATOM      6  C   UNL A   1      32.608  20.614  25.421  1.00  0.00     0.224 C 
ATOM      7  O   UNL A   1      31.415  20.937  25.344  1.00  0.00    -0.275 OA
ATOM      8  H   UNL A   1      32.869  22.196  26.536  1.00  0.00     0.163 HD
BRANCH   6   9
ATOM      9  C   UNL A   1      33.076  19.353  24.695  1.00  0.00     0.098 C 
ATOM     10  N   UNL A   1      33.411  16.919  25.047  1.00  0.00    -0.344 N 
ATOM     11  C   UNL A   1      32.934  16.573  23.719  1.00  0.00     0.119 C 
ATOM     12  C   UNL A   1      32.903  18.156  25.644  1.00  0.00     0.132 C 
ATOM     13  C   UNL A   1      33.147  17.732  22.755  1.00  0.00     0.022 C 
ATOM     14  C   UNL A   1      32.528  19.018  23.309  1.00  0.00     0.017 C 
BRANCH  10  15
ATOM     15  C   UNL A   1      34.246  16.080  25.751  1.00  0.00     0.339 C 
ATOM     16  O   UNL A   1      34.822  15.093  25.304  1.00  0.00    -0.279 OA
ENDBRANCH  10  15
ENDBRANCH   6   9
ENDBRANCH   4   5
ENDBRANCH   3   4
ENDBRANCH   2   3
ENDBRANCH   1   2
BRANCH   1  17
ATOM     17  C   UNL A   1      37.969  19.211  24.884  1.00  0.00     0.021 C 
BRANCH  17  18
ATOM     18  C   UNL A   1      39.088  19.776  25.755  1.00  0.00     0.116 C 
BRANCH  18  19
ATOM     19  N   UNL A   1      40.228  18.878  25.843  1.00  0.00    -0.352 N 
ATOM     20  C   UNL A   1      41.554  19.162  26.050  1.00  0.00     0.251 C 
ATOM     21  H   UNL A   1      40.016  17.922  25.737  1.00  0.00     0.163 HD
ATOM     22  O   UNL A   1      42.395  18.274  25.926  1.00  0.00    -0.269 OA
BRANCH  20  23
ATOM     23  C   UNL A   1      41.986  20.531  26.405  1.00  0.00     0.039 A 
ATOM     24  C   UNL A   1      42.229  21.447  25.376  1.00  0.00     0.014 A 
ATOM     25  C   UNL A   1      42.194  20.909  27.735  1.00  0.00     0.014 A 
ATOM     26  C   UNL A   1      42.632  22.750  25.680  1.00  0.00     0.010 A 
ATOM     27  C   UNL A   1      42.537  22.226  28.042  1.00  0.00     0.010 A 
ATOM     28  C   UNL A   1      42.765  23.157  27.016  1.00  0.00    -0.014 A 
BRANCH  28  29
ATOM     29  C   UNL A   1      43.154  24.549  27.359  1.00  0.00     0.031 A 
ATOM     30  C   UNL A   1      44.595  24.972  27.287  1.00  0.00     0.074 A 
ATOM     31  C   UNL A   1      42.218  25.418  27.786  1.00  0.00     0.049 A 
ATOM     32  N   UNL A   1      45.136  26.121  27.605  1.00  0.00    -0.248 NA
ATOM     33  C   UNL A   1      45.559  23.963  26.820  1.00  0.00     0.031 C 
ATOM     34  C   UNL A   1      40.793  25.119  27.940  1.00  0.00     0.029 A 
ATOM     35  N   UNL A   1      42.328  26.727  28.180  1.00  0.00    -0.354 N 
ATOM     36  C   UNL A   1      46.501  25.968  27.394  1.00  0.00     0.074 A 
ATOM     37  C   UNL A   1      46.710  24.603  26.964  1.00  0.00     0.031 C 
ATOM     38  C   UNL A   1      40.159  26.219  28.378  1.00  0.00     0.029 A 
ATOM     39  C   UNL A   1      41.134  27.290  28.563  1.00  0.00     0.049 A 
ATOM     40  H   UNL A   1      43.182  27.218  28.188  1.00  0.00     0.167 HD
ATOM     41  C   UNL A   1      47.487  26.887  27.527  1.00  0.00     0.037 A 
ATOM     42  C   UNL A   1      40.857  28.527  29.015  1.00  0.00     0.037 A 
ATOM     43  C   UNL A   1      47.275  28.254  27.923  1.00  0.00     0.049 A 
ATOM     44  C   UNL A   1      41.967  29.533  29.140  1.00  0.00     0.074 A 
ATOM     45  C   UNL A   1      48.204  29.275  28.029  1.00  0.00     0.029 A 
ATOM     46  N   UNL A   1      46.047  28.792  28.276  1.00  0.00    -0.354 N 
ATOM     47  N   UNL A   1      43.244  29.389  28.882  1.00  0.00    -0.248 NA
ATOM     48  C   UNL A   1      41.596  30.874  29.612  1.00  0.00     0.031 C 
ATOM     49  C   UNL A   1      47.542  30.423  28.477  1.00  0.00     0.029 A 
ATOM     50  C   UNL A   1      46.195  30.127  28.613  1.00  0.00     0.049 A 
ATOM     51  H   UNL A   1      45.195  28.298  28.284  1.00  0.00     0.167 HD
ATOM     52  C   UNL A   1      43.823  30.627  29.131  1.00  0.00     0.074 A 
ATOM     53  C   UNL A   1      42.757  31.511  29.553  1.00  0.00     0.031 C 
ATOM     54  C   UNL A   1      45.123  30.997  29.020  1.00  0.00     0.037 A 
BRANCH  41  55
ATOM     55  C   UNL A   1      48.890  26.442  27.233  1.00  0.00     0.057 A 
ATOM     56  C   UNL A   1      49.431  26.514  25.943  1.00  0.00     0.134 A 
ATOM     57  C   UNL A   1      49.720  25.966  28.256  1.00  0.00     0.134 A 
ATOM     58  F   UNL A   1      48.684  26.949  24.916  1.00  0.00    -0.206 F 
ATOM     59  C   UNL A   1      50.738  26.106  25.675  1.00  0.00     0.040 A 
ATOM     60  C   UNL A   1      51.036  25.578  28.006  1.00  0.00     0.040 A 
ATOM     61  F   UNL A   1      49.266  25.876  29.515  1.00  0.00    -0.206 F 
ATOM     62  C   UNL A   1      51.547  25.641  26.711  1.00  0.00     0.006 A 
ENDBRANCH  41  55
BRANCH  42  63
ATOM     63  C   UNL A   1      39.462  28.896  29.354  1.00  0.00     0.057 A 
ATOM     64  C   UNL A   1      38.968  28.731  30.654  1.00  0.00     0.134 A 
ATOM     65  C   UNL A   1      38.587  29.416  28.392  1.00  0.00     0.134 A 
ATOM     66  F   UNL A   1      39.754  28.219  31.613  1.00  0.00    -0.206 F 
ATOM     67  C   UNL A   1      37.651  29.054  30.982  1.00  0.00     0.040 A 
ATOM     68  C   UNL A   1      37.275  29.765  28.712  1.00  0.00     0.040 A 
ATOM     69  F   UNL A   1      39.004  29.604  27.131  1.00  0.00    -0.206 F 
ATOM     70  C   UNL A   1      36.801  29.579  30.009  1.00  0.00     0.006 A 
ENDBRANCH  42  63
BRANCH  54  71
ATOM     71  C   UNL A   1      45.456  32.426  29.324  1.00  0.00     0.057 A 
ATOM     72  C   UNL A   1      45.384  33.426  28.346  1.00  0.00     0.134 A 
ATOM     73  C   UNL A   1      45.815  32.813  30.622  1.00  0.00     0.134 A 
ATOM     74  F   UNL A   1      45.059  33.117  27.081  1.00  0.00    -0.206 F 
ATOM     75  C   UNL A   1      45.678  34.757  28.643  1.00  0.00     0.040 A 
ATOM     76  C   UNL A   1      46.088  34.144  30.936  1.00  0.00     0.040 A 
ATOM     77  F   UNL A   1      45.894  31.904  31.606  1.00  0.00    -0.206 F 
ATOM     78  C   UNL A   1      46.025  35.120  29.944  1.00  0.00     0.006 A 
ENDBRANCH  54  71
ENDBRANCH  28  29
ENDBRANCH  20  23
ENDBRANCH  18  19
ENDBRANCH  17  18
ENDBRANCH   1  17
TORSDOF 14
ENDMDL
