MODEL 1
REMARK VINA RESULT:     -10.7      0.000      0.000
REMARK SMILES CC[C@@H](C)[C@@H](C(=O)NCCCCCCNC(=O)c1ccc(-c2c3nc(c(-c4c(F)cccc4F)c4ccc([nH]4)c(-c4c(F)cccc4F)c4nc(c(-c5c(F)cccc5F)c5ccc2[nH]5)C=C4)C=C3)cc1)S(=O)(=O)c1ccc(OC)cc1
REMARK SMILES IDX 11 1 10 2 9 3 8 4 6 5 7 6 5 8 3 9 4 10 2 11 1 12 72 13 73 14
REMARK SMILES IDX 74 15 75 16 76 17 82 18 77 19 81 20 78 21 79 22 80 23 12 24
REMARK SMILES IDX 13 25 14 26 15 27 16 28 17 30 18 31 19 32 71 33 20 34 70 35
REMARK SMILES IDX 21 36 22 37 23 38 64 39 24 40 69 41 63 42 65 43 25 44 68 45
REMARK SMILES IDX 62 46 61 47 26 49 52 50 35 51 51 52 36 53 39 54 50 55 66 56
REMARK SMILES IDX 37 57 38 58 49 60 67 61 40 62 27 63 28 64 33 65 29 66 30 67
REMARK SMILES IDX 32 68 34 69 31 70 53 71 54 72 59 73 55 74 56 75 58 76 60 77
REMARK SMILES IDX 57 78 41 79 42 80 47 81 43 82 44 83 46 84 48 85 45 86
REMARK H PARENT 8 7 15 29 65 48 39 59
REMARK Flexibility Score: inf
ROOT
ATOM      1  C   UNL A   1      34.901  20.620  24.809  1.00  0.00     0.002 C 
ENDROOT
BRANCH   1   2
ATOM      2  C   UNL A   1      33.592  20.129  25.428  1.00  0.00     0.021 C 
BRANCH   2   3
ATOM      3  C   UNL A   1      32.339  20.925  25.021  1.00  0.00     0.116 C 
BRANCH   3   4
ATOM      4  N   UNL A   1      31.892  21.725  26.145  1.00  0.00    -0.355 N 
ATOM      5  C   UNL A   1      32.118  23.040  26.440  1.00  0.00     0.239 C 
ATOM      6  O   UNL A   1      32.187  23.296  27.643  1.00  0.00    -0.274 OA
ATOM      7  H   UNL A   1      31.336  21.243  26.801  1.00  0.00     0.163 HD
BRANCH   5   8
ATOM      8  C   UNL A   1      32.263  24.115  25.356  1.00  0.00     0.205 C 
BRANCH   8   9
ATOM      9  C   UNL A   1      33.553  24.999  25.456  1.00  0.00     0.014 C 
ATOM     10  C   UNL A   1      33.967  25.613  24.109  1.00  0.00     0.009 C 
BRANCH   9  11
ATOM     11  C   UNL A   1      34.753  24.205  26.003  1.00  0.00     0.002 C 
ATOM     12  C   UNL A   1      35.927  24.003  25.057  1.00  0.00     0.004 C 
ENDBRANCH   9  11
ENDBRANCH   8   9
BRANCH   8  13
ATOM     13  S   UNL A   1      30.700  25.064  25.424  1.00  0.00     0.190 S 
ATOM     14  O   UNL A   1      30.080  25.078  24.107  1.00  0.00    -0.223 OA
ATOM     15  O   UNL A   1      29.914  24.552  26.531  1.00  0.00    -0.223 OA
BRANCH  13  16
ATOM     16  C   UNL A   1      31.111  26.768  25.789  1.00  0.00     0.068 A 
ATOM     17  C   UNL A   1      31.478  27.131  27.086  1.00  0.00     0.024 A 
ATOM     18  C   UNL A   1      31.083  27.733  24.779  1.00  0.00     0.024 A 
ATOM     19  C   UNL A   1      31.909  28.437  27.340  1.00  0.00     0.048 A 
ATOM     20  C   UNL A   1      31.542  29.029  25.033  1.00  0.00     0.048 A 
ATOM     21  C   UNL A   1      31.976  29.381  26.311  1.00  0.00     0.118 A 
BRANCH  21  22
ATOM     22  O   UNL A   1      32.463  30.606  26.680  1.00  0.00    -0.497 OA
ATOM     23  C   UNL A   1      31.559  31.701  26.608  1.00  0.00     0.278 C 
ENDBRANCH  21  22
ENDBRANCH  13  16
ENDBRANCH   8  13
ENDBRANCH   5   8
ENDBRANCH   3   4
ENDBRANCH   2   3
ENDBRANCH   1   2
BRANCH   1  24
ATOM     24  C   UNL A   1      36.085  19.670  24.981  1.00  0.00     0.002 C 
BRANCH  24  25
ATOM     25  C   UNL A   1      37.439  20.238  24.550  1.00  0.00     0.021 C 
BRANCH  25  26
ATOM     26  C   UNL A   1      38.425  20.488  25.688  1.00  0.00     0.116 C 
BRANCH  26  27
ATOM     27  N   UNL A   1      39.475  19.482  25.729  1.00  0.00    -0.352 N 
ATOM     28  C   UNL A   1      40.811  19.631  26.003  1.00  0.00     0.251 C 
ATOM     29  H   UNL A   1      39.185  18.563  25.532  1.00  0.00     0.163 HD
ATOM     30  O   UNL A   1      41.597  18.720  25.763  1.00  0.00    -0.269 OA
BRANCH  28  31
ATOM     31  C   UNL A   1      41.305  20.898  26.580  1.00  0.00     0.039 A 
ATOM     32  C   UNL A   1      41.967  21.807  25.752  1.00  0.00     0.014 A 
ATOM     33  C   UNL A   1      41.129  21.178  27.938  1.00  0.00     0.014 A 
ATOM     34  C   UNL A   1      42.402  23.026  26.275  1.00  0.00     0.010 A 
ATOM     35  C   UNL A   1      41.497  22.422  28.441  1.00  0.00     0.010 A 
ATOM     36  C   UNL A   1      42.143  23.356  27.617  1.00  0.00    -0.014 A 
BRANCH  36  37
ATOM     37  C   UNL A   1      42.540  24.675  28.172  1.00  0.00     0.031 A 
ATOM     38  C   UNL A   1      41.510  25.753  28.372  1.00  0.00     0.074 A 
ATOM     39  C   UNL A   1      43.838  24.923  28.436  1.00  0.00     0.049 A 
ATOM     40  N   UNL A   1      41.673  26.985  28.783  1.00  0.00    -0.248 NA
ATOM     41  C   UNL A   1      40.118  25.411  28.040  1.00  0.00     0.031 C 
ATOM     42  C   UNL A   1      44.937  23.977  28.239  1.00  0.00     0.029 A 
ATOM     43  N   UNL A   1      44.455  26.050  28.919  1.00  0.00    -0.354 N 
ATOM     44  C   UNL A   1      40.411  27.566  28.746  1.00  0.00     0.074 A 
ATOM     45  C   UNL A   1      39.503  26.569  28.222  1.00  0.00     0.031 C 
ATOM     46  C   UNL A   1      46.089  24.555  28.615  1.00  0.00     0.029 A 
ATOM     47  C   UNL A   1      45.817  25.925  29.041  1.00  0.00     0.049 A 
ATOM     48  H   UNL A   1      43.966  26.873  29.154  1.00  0.00     0.167 HD
ATOM     49  C   UNL A   1      40.040  28.810  29.133  1.00  0.00     0.037 A 
ATOM     50  C   UNL A   1      46.744  26.814  29.441  1.00  0.00     0.037 A 
ATOM     51  C   UNL A   1      40.944  29.789  29.676  1.00  0.00     0.049 A 
ATOM     52  C   UNL A   1      46.306  28.191  29.862  1.00  0.00     0.074 A 
ATOM     53  C   UNL A   1      40.654  31.053  30.161  1.00  0.00     0.029 A 
ATOM     54  N   UNL A   1      42.314  29.617  29.803  1.00  0.00    -0.354 N 
ATOM     55  N   UNL A   1      45.098  28.700  29.893  1.00  0.00    -0.248 NA
ATOM     56  C   UNL A   1      47.359  29.112  30.311  1.00  0.00     0.031 C 
ATOM     57  C   UNL A   1      41.856  31.666  30.530  1.00  0.00     0.029 A 
ATOM     58  C   UNL A   1      42.887  30.762  30.332  1.00  0.00     0.049 A 
ATOM     59  H   UNL A   1      42.806  28.802  29.555  1.00  0.00     0.167 HD
ATOM     60  C   UNL A   1      45.241  29.989  30.391  1.00  0.00     0.074 A 
ATOM     61  C   UNL A   1      46.652  30.177  30.663  1.00  0.00     0.031 C 
ATOM     62  C   UNL A   1      44.291  30.932  30.605  1.00  0.00     0.037 A 
BRANCH  49  63
ATOM     63  C   UNL A   1      38.593  29.183  28.985  1.00  0.00     0.057 A 
ATOM     64  C   UNL A   1      37.693  29.107  30.057  1.00  0.00     0.134 A 
ATOM     65  C   UNL A   1      38.103  29.667  27.765  1.00  0.00     0.134 A 
ATOM     66  F   UNL A   1      38.094  28.642  31.248  1.00  0.00    -0.206 F 
ATOM     67  C   UNL A   1      36.354  29.476  29.914  1.00  0.00     0.040 A 
ATOM     68  C   UNL A   1      36.772  30.067  27.618  1.00  0.00     0.040 A 
ATOM     69  F   UNL A   1      38.910  29.773  26.699  1.00  0.00    -0.206 F 
ATOM     70  C   UNL A   1      35.893  29.965  28.693  1.00  0.00     0.006 A 
ENDBRANCH  49  63
BRANCH  50  71
ATOM     71  C   UNL A   1      48.179  26.430  29.478  1.00  0.00     0.057 A 
ATOM     72  C   UNL A   1      49.014  26.641  28.375  1.00  0.00     0.134 A 
ATOM     73  C   UNL A   1      48.746  25.833  30.611  1.00  0.00     0.134 A 
ATOM     74  F   UNL A   1      48.525  27.193  27.255  1.00  0.00    -0.206 F 
ATOM     75  C   UNL A   1      50.353  26.250  28.386  1.00  0.00     0.040 A 
ATOM     76  C   UNL A   1      50.091  25.463  30.646  1.00  0.00     0.040 A 
ATOM     77  F   UNL A   1      48.002  25.613  31.704  1.00  0.00    -0.206 F 
ATOM     78  C   UNL A   1      50.896  25.663  29.527  1.00  0.00     0.006 A 
ENDBRANCH  50  71
BRANCH  62  79
ATOM     79  C   UNL A   1      44.738  32.237  31.197  1.00  0.00     0.057 A 
ATOM     80  C   UNL A   1      45.106  33.327  30.399  1.00  0.00     0.134 A 
ATOM     81  C   UNL A   1      44.759  32.417  32.587  1.00  0.00     0.134 A 
ATOM     82  F   UNL A   1      45.120  33.217  29.062  1.00  0.00    -0.206 F 
ATOM     83  C   UNL A   1      45.504  34.542  30.962  1.00  0.00     0.040 A 
ATOM     84  C   UNL A   1      45.125  33.635  33.160  1.00  0.00     0.040 A 
ATOM     85  F   UNL A   1      44.408  31.416  33.409  1.00  0.00    -0.206 F 
ATOM     86  C   UNL A   1      45.506  34.699  32.347  1.00  0.00     0.006 A 
ENDBRANCH  62  79
ENDBRANCH  36  37
ENDBRANCH  28  31
ENDBRANCH  26  27
ENDBRANCH  25  26
ENDBRANCH  24  25
ENDBRANCH   1  24
TORSDOF 18
ENDMDL
MODEL 2
REMARK VINA RESULT:     -10.6      4.002      9.422
REMARK SMILES CC[C@@H](C)[C@@H](C(=O)NCCCCCCNC(=O)c1ccc(-c2c3nc(c(-c4c(F)cccc4F)c4ccc([nH]4)c(-c4c(F)cccc4F)c4nc(c(-c5c(F)cccc5F)c5ccc2[nH]5)C=C4)C=C3)cc1)S(=O)(=O)c1ccc(OC)cc1
REMARK SMILES IDX 11 1 10 2 9 3 8 4 6 5 7 6 5 8 3 9 4 10 2 11 1 12 72 13 73 14
REMARK SMILES IDX 74 15 75 16 76 17 82 18 77 19 81 20 78 21 79 22 80 23 12 24
REMARK SMILES IDX 13 25 14 26 15 27 16 28 17 30 18 31 19 32 71 33 20 34 70 35
REMARK SMILES IDX 21 36 22 37 23 38 64 39 24 40 69 41 63 42 65 43 25 44 68 45
REMARK SMILES IDX 62 46 61 47 26 49 52 50 35 51 51 52 36 53 39 54 50 55 66 56
REMARK SMILES IDX 37 57 38 58 49 60 67 61 40 62 27 63 28 64 33 65 29 66 30 67
REMARK SMILES IDX 32 68 34 69 31 70 53 71 54 72 59 73 55 74 56 75 58 76 60 77
REMARK SMILES IDX 57 78 41 79 42 80 47 81 43 82 44 83 46 84 48 85 45 86
REMARK H PARENT 8 7 15 29 65 48 39 59
REMARK Flexibility Score: inf
ROOT
ATOM      1  C   UNL A   1      32.463  29.924  26.722  1.00  0.00     0.002 C 
ENDROOT
BRANCH   1   2
ATOM      2  C   UNL A   1      31.795  28.769  27.469  1.00  0.00     0.021 C 
BRANCH   2   3
ATOM      3  C   UNL A   1      32.116  27.367  26.922  1.00  0.00     0.116 C 
BRANCH   3   4
ATOM      4  N   UNL A   1      30.879  26.681  26.603  1.00  0.00    -0.355 N 
ATOM      5  C   UNL A   1      30.573  25.845  25.566  1.00  0.00     0.239 C 
ATOM      6  O   UNL A   1      29.405  25.906  25.179  1.00  0.00    -0.274 OA
ATOM      7  H   UNL A   1      30.140  26.844  27.235  1.00  0.00     0.163 HD
BRANCH   5   8
ATOM      8  C   UNL A   1      31.602  24.894  24.943  1.00  0.00     0.205 C 
BRANCH   8   9
ATOM      9  C   UNL A   1      31.369  24.550  23.431  1.00  0.00     0.014 C 
ATOM     10  C   UNL A   1      32.452  23.627  22.850  1.00  0.00     0.009 C 
BRANCH   9  11
ATOM     11  C   UNL A   1      31.305  25.816  22.558  1.00  0.00     0.002 C 
ATOM     12  C   UNL A   1      32.602  26.592  22.384  1.00  0.00     0.004 C 
ENDBRANCH   9  11
ENDBRANCH   8   9
BRANCH   8  13
ATOM     13  S   UNL A   1      31.624  23.435  26.047  1.00  0.00     0.190 S 
ATOM     14  O   UNL A   1      31.427  23.863  27.424  1.00  0.00    -0.223 OA
ATOM     15  O   UNL A   1      30.700  22.454  25.509  1.00  0.00    -0.223 OA
BRANCH  13  16
ATOM     16  C   UNL A   1      33.268  22.727  25.986  1.00  0.00     0.068 A 
ATOM     17  C   UNL A   1      33.434  21.389  25.625  1.00  0.00     0.024 A 
ATOM     18  C   UNL A   1      34.385  23.512  26.278  1.00  0.00     0.024 A 
ATOM     19  C   UNL A   1      34.725  20.873  25.466  1.00  0.00     0.048 A 
ATOM     20  C   UNL A   1      35.673  22.999  26.090  1.00  0.00     0.048 A 
ATOM     21  C   UNL A   1      35.847  21.682  25.664  1.00  0.00     0.118 A 
BRANCH  21  22
ATOM     22  O   UNL A   1      37.049  21.073  25.427  1.00  0.00    -0.497 OA
ATOM     23  C   UNL A   1      38.216  21.861  25.623  1.00  0.00     0.278 C 
ENDBRANCH  21  22
ENDBRANCH  13  16
ENDBRANCH   8  13
ENDBRANCH   5   8
ENDBRANCH   3   4
ENDBRANCH   2   3
ENDBRANCH   1   2
BRANCH   1  24
ATOM     24  C   UNL A   1      31.502  30.828  25.951  1.00  0.00     0.002 C 
BRANCH  24  25
ATOM     25  C   UNL A   1      31.298  32.220  26.553  1.00  0.00     0.021 C 
BRANCH  25  26
ATOM     26  C   UNL A   1      32.522  32.806  27.250  1.00  0.00     0.116 C 
BRANCH  26  27
ATOM     27  N   UNL A   1      32.335  34.208  27.591  1.00  0.00    -0.352 N 
ATOM     28  C   UNL A   1      32.957  34.958  28.556  1.00  0.00     0.251 C 
ATOM     29  H   UNL A   1      31.666  34.686  27.052  1.00  0.00     0.163 HD
ATOM     30  O   UNL A   1      32.514  36.059  28.867  1.00  0.00    -0.269 OA
BRANCH  28  31
ATOM     31  C   UNL A   1      34.162  34.433  29.231  1.00  0.00     0.039 A 
ATOM     32  C   UNL A   1      34.027  33.823  30.480  1.00  0.00     0.014 A 
ATOM     33  C   UNL A   1      35.422  34.557  28.639  1.00  0.00     0.014 A 
ATOM     34  C   UNL A   1      35.151  33.285  31.110  1.00  0.00     0.010 A 
ATOM     35  C   UNL A   1      36.528  33.957  29.233  1.00  0.00     0.010 A 
ATOM     36  C   UNL A   1      36.405  33.320  30.478  1.00  0.00    -0.014 A 
BRANCH  36  37
ATOM     37  C   UNL A   1      37.598  32.694  31.103  1.00  0.00     0.031 A 
ATOM     38  C   UNL A   1      38.233  31.483  30.477  1.00  0.00     0.074 A 
ATOM     39  C   UNL A   1      38.069  33.178  32.269  1.00  0.00     0.049 A 
ATOM     40  N   UNL A   1      39.237  30.761  30.907  1.00  0.00    -0.248 NA
ATOM     41  C   UNL A   1      37.646  31.003  29.216  1.00  0.00     0.031 C 
ATOM     42  C   UNL A   1      37.511  34.317  33.000  1.00  0.00     0.029 A 
ATOM     43  N   UNL A   1      39.121  32.768  33.049  1.00  0.00    -0.354 N 
ATOM     44  C   UNL A   1      39.391  29.738  29.980  1.00  0.00     0.074 A 
ATOM     45  C   UNL A   1      38.346  29.901  28.993  1.00  0.00     0.031 C 
ATOM     46  C   UNL A   1      38.235  34.526  34.110  1.00  0.00     0.029 A 
ATOM     47  C   UNL A   1      39.283  33.513  34.192  1.00  0.00     0.049 A 
ATOM     48  H   UNL A   1      39.703  32.009  32.813  1.00  0.00     0.167 HD
ATOM     49  C   UNL A   1      40.332  28.764  29.942  1.00  0.00     0.037 A 
ATOM     50  C   UNL A   1      40.170  33.388  35.197  1.00  0.00     0.037 A 
ATOM     51  C   UNL A   1      41.384  28.621  30.913  1.00  0.00     0.049 A 
ATOM     52  C   UNL A   1      41.202  32.295  35.133  1.00  0.00     0.074 A 
ATOM     53  C   UNL A   1      42.425  27.709  30.927  1.00  0.00     0.029 A 
ATOM     54  N   UNL A   1      41.528  29.409  32.046  1.00  0.00    -0.354 N 
ATOM     55  N   UNL A   1      41.382  31.381  34.211  1.00  0.00    -0.248 NA
ATOM     56  C   UNL A   1      42.158  32.222  36.247  1.00  0.00     0.031 C 
ATOM     57  C   UNL A   1      43.167  27.910  32.095  1.00  0.00     0.029 A 
ATOM     58  C   UNL A   1      42.624  28.984  32.780  1.00  0.00     0.049 A 
ATOM     59  H   UNL A   1      40.939  30.157  32.292  1.00  0.00     0.167 HD
ATOM     60  C   UNL A   1      42.488  30.644  34.616  1.00  0.00     0.074 A 
ATOM     61  C   UNL A   1      42.945  31.228  35.861  1.00  0.00     0.031 C 
ATOM     62  C   UNL A   1      43.072  29.581  34.013  1.00  0.00     0.037 A 
BRANCH  49  63
ATOM     63  C   UNL A   1      40.267  27.775  28.814  1.00  0.00     0.057 A 
ATOM     64  C   UNL A   1      40.968  27.971  27.616  1.00  0.00     0.134 A 
ATOM     65  C   UNL A   1      39.530  26.591  28.944  1.00  0.00     0.134 A 
ATOM     66  F   UNL A   1      41.683  29.088  27.421  1.00  0.00    -0.206 F 
ATOM     67  C   UNL A   1      40.918  27.036  26.579  1.00  0.00     0.040 A 
ATOM     68  C   UNL A   1      39.497  25.635  27.926  1.00  0.00     0.040 A 
ATOM     69  F   UNL A   1      38.841  26.337  30.066  1.00  0.00    -0.206 F 
ATOM     70  C   UNL A   1      40.187  25.860  26.738  1.00  0.00     0.006 A 
ENDBRANCH  49  63
BRANCH  50  71
ATOM     71  C   UNL A   1      40.133  34.332  36.345  1.00  0.00     0.057 A 
ATOM     72  C   UNL A   1      39.420  34.027  37.509  1.00  0.00     0.134 A 
ATOM     73  C   UNL A   1      40.799  35.563  36.299  1.00  0.00     0.134 A 
ATOM     74  F   UNL A   1      38.748  32.871  37.607  1.00  0.00    -0.206 F 
ATOM     75  C   UNL A   1      39.348  34.922  38.578  1.00  0.00     0.040 A 
ATOM     76  C   UNL A   1      40.759  36.455  37.371  1.00  0.00     0.040 A 
ATOM     77  F   UNL A   1      41.507  35.910  35.215  1.00  0.00    -0.206 F 
ATOM     78  C   UNL A   1      40.023  36.139  38.511  1.00  0.00     0.006 A 
ENDBRANCH  50  71
BRANCH  62  79
ATOM     79  C   UNL A   1      44.293  29.003  34.668  1.00  0.00     0.057 A 
ATOM     80  C   UNL A   1      45.581  29.473  34.384  1.00  0.00     0.134 A 
ATOM     81  C   UNL A   1      44.171  27.989  35.629  1.00  0.00     0.134 A 
ATOM     82  F   UNL A   1      45.767  30.432  33.465  1.00  0.00    -0.206 F 
ATOM     83  C   UNL A   1      46.707  28.938  35.013  1.00  0.00     0.040 A 
ATOM     84  C   UNL A   1      45.287  27.469  36.286  1.00  0.00     0.040 A 
ATOM     85  F   UNL A   1      42.965  27.501  35.955  1.00  0.00    -0.206 F 
ATOM     86  C   UNL A   1      46.560  27.938  35.973  1.00  0.00     0.006 A 
ENDBRANCH  62  79
ENDBRANCH  36  37
ENDBRANCH  28  31
ENDBRANCH  26  27
ENDBRANCH  25  26
ENDBRANCH  24  25
ENDBRANCH   1  24
TORSDOF 18
ENDMDL
MODEL 3
REMARK VINA RESULT:     -10.6      4.158      8.994
REMARK SMILES CC[C@@H](C)[C@@H](C(=O)NCCCCCCNC(=O)c1ccc(-c2c3nc(c(-c4c(F)cccc4F)c4ccc([nH]4)c(-c4c(F)cccc4F)c4nc(c(-c5c(F)cccc5F)c5ccc2[nH]5)C=C4)C=C3)cc1)S(=O)(=O)c1ccc(OC)cc1
REMARK SMILES IDX 11 1 10 2 9 3 8 4 6 5 7 6 5 8 3 9 4 10 2 11 1 12 72 13 73 14
REMARK SMILES IDX 74 15 75 16 76 17 82 18 77 19 81 20 78 21 79 22 80 23 12 24
REMARK SMILES IDX 13 25 14 26 15 27 16 28 17 30 18 31 19 32 71 33 20 34 70 35
REMARK SMILES IDX 21 36 22 37 23 38 64 39 24 40 69 41 63 42 65 43 25 44 68 45
REMARK SMILES IDX 62 46 61 47 26 49 52 50 35 51 51 52 36 53 39 54 50 55 66 56
REMARK SMILES IDX 37 57 38 58 49 60 67 61 40 62 27 63 28 64 33 65 29 66 30 67
REMARK SMILES IDX 32 68 34 69 31 70 53 71 54 72 59 73 55 74 56 75 58 76 60 77
REMARK SMILES IDX 57 78 41 79 42 80 47 81 43 82 44 83 46 84 48 85 45 86
REMARK H PARENT 8 7 15 29 65 48 39 59
REMARK Flexibility Score: inf
ROOT
ATOM      1  C   UNL A   1      32.848  29.783  26.045  1.00  0.00     0.002 C 
ENDROOT
BRANCH   1   2
ATOM      2  C   UNL A   1      32.851  28.782  27.200  1.00  0.00     0.021 C 
BRANCH   2   3
ATOM      3  C   UNL A   1      32.511  27.333  26.809  1.00  0.00     0.116 C 
BRANCH   3   4
ATOM      4  N   UNL A   1      33.562  26.806  25.960  1.00  0.00    -0.355 N 
ATOM      5  C   UNL A   1      33.526  25.815  25.019  1.00  0.00     0.239 C 
ATOM      6  O   UNL A   1      34.566  25.163  24.913  1.00  0.00    -0.274 OA
ATOM      7  H   UNL A   1      34.443  27.229  26.080  1.00  0.00     0.163 HD
BRANCH   5   8
ATOM      8  C   UNL A   1      32.289  25.545  24.154  1.00  0.00     0.205 C 
BRANCH   8   9
ATOM      9  C   UNL A   1      32.096  24.055  23.705  1.00  0.00     0.014 C 
ATOM     10  C   UNL A   1      30.660  23.743  23.254  1.00  0.00     0.009 C 
BRANCH   9  11
ATOM     11  C   UNL A   1      32.467  23.066  24.824  1.00  0.00     0.002 C 
ATOM     12  C   UNL A   1      33.323  21.873  24.425  1.00  0.00     0.004 C 
ENDBRANCH   9  11
ENDBRANCH   8   9
BRANCH   8  13
ATOM     13  S   UNL A   1      32.416  26.733  22.768  1.00  0.00     0.190 S 
ATOM     14  O   UNL A   1      33.564  27.603  22.976  1.00  0.00    -0.223 OA
ATOM     15  O   UNL A   1      32.358  25.982  21.528  1.00  0.00    -0.223 OA
BRANCH  13  16
ATOM     16  C   UNL A   1      30.978  27.799  22.828  1.00  0.00     0.068 A 
ATOM     17  C   UNL A   1      31.049  29.090  22.303  1.00  0.00     0.024 A 
ATOM     18  C   UNL A   1      29.780  27.338  23.380  1.00  0.00     0.024 A 
ATOM     19  C   UNL A   1      29.894  29.876  22.248  1.00  0.00     0.048 A 
ATOM     20  C   UNL A   1      28.622  28.118  23.295  1.00  0.00     0.048 A 
ATOM     21  C   UNL A   1      28.670  29.383  22.711  1.00  0.00     0.118 A 
BRANCH  21  22
ATOM     22  O   UNL A   1      27.608  30.230  22.553  1.00  0.00    -0.497 OA
ATOM     23  C   UNL A   1      27.509  31.311  23.472  1.00  0.00     0.278 C 
ENDBRANCH  21  22
ENDBRANCH  13  16
ENDBRANCH   8  13
ENDBRANCH   5   8
ENDBRANCH   3   4
ENDBRANCH   2   3
ENDBRANCH   1   2
BRANCH   1  24
ATOM     24  C   UNL A   1      31.508  30.474  25.800  1.00  0.00     0.002 C 
BRANCH  24  25
ATOM     25  C   UNL A   1      31.346  31.835  26.482  1.00  0.00     0.021 C 
BRANCH  25  26
ATOM     26  C   UNL A   1      32.623  32.404  27.095  1.00  0.00     0.116 C 
BRANCH  26  27
ATOM     27  N   UNL A   1      32.478  33.806  27.450  1.00  0.00    -0.352 N 
ATOM     28  C   UNL A   1      33.109  34.524  28.435  1.00  0.00     0.251 C 
ATOM     29  H   UNL A   1      31.834  34.314  26.906  1.00  0.00     0.163 HD
ATOM     30  O   UNL A   1      32.698  35.636  28.751  1.00  0.00    -0.269 OA
BRANCH  28  31
ATOM     31  C   UNL A   1      34.285  33.950  29.122  1.00  0.00     0.039 A 
ATOM     32  C   UNL A   1      34.085  32.992  30.119  1.00  0.00     0.014 A 
ATOM     33  C   UNL A   1      35.577  34.368  28.793  1.00  0.00     0.014 A 
ATOM     34  C   UNL A   1      35.189  32.411  30.748  1.00  0.00     0.010 A 
ATOM     35  C   UNL A   1      36.676  33.736  29.368  1.00  0.00     0.010 A 
ATOM     36  C   UNL A   1      36.493  32.756  30.355  1.00  0.00    -0.014 A 
BRANCH  36  37
ATOM     37  C   UNL A   1      37.677  32.100  30.966  1.00  0.00     0.031 A 
ATOM     38  C   UNL A   1      38.395  31.001  30.232  1.00  0.00     0.074 A 
ATOM     39  C   UNL A   1      38.065  32.450  32.208  1.00  0.00     0.049 A 
ATOM     40  N   UNL A   1      39.405  30.268  30.627  1.00  0.00    -0.248 NA
ATOM     41  C   UNL A   1      37.898  30.663  28.890  1.00  0.00     0.031 C 
ATOM     42  C   UNL A   1      37.420  33.466  33.041  1.00  0.00     0.029 A 
ATOM     43  N   UNL A   1      39.090  31.982  32.991  1.00  0.00    -0.354 N 
ATOM     44  C   UNL A   1      39.652  29.376  29.590  1.00  0.00     0.074 A 
ATOM     45  C   UNL A   1      38.655  29.624  28.573  1.00  0.00     0.031 C 
ATOM     46  C   UNL A   1      38.075  33.559  34.209  1.00  0.00     0.029 A 
ATOM     47  C   UNL A   1      39.160  32.582  34.225  1.00  0.00     0.049 A 
ATOM     48  H   UNL A   1      39.716  31.281  32.697  1.00  0.00     0.167 HD
ATOM     49  C   UNL A   1      40.635  28.449  29.487  1.00  0.00     0.037 A 
ATOM     50  C   UNL A   1      39.997  32.364  35.256  1.00  0.00     0.037 A 
ATOM     51  C   UNL A   1      41.640  28.223  30.492  1.00  0.00     0.049 A 
ATOM     52  C   UNL A   1      41.077  31.326  35.118  1.00  0.00     0.074 A 
ATOM     53  C   UNL A   1      42.717  27.354  30.453  1.00  0.00     0.029 A 
ATOM     54  N   UNL A   1      41.689  28.866  31.721  1.00  0.00    -0.354 N 
ATOM     55  N   UNL A   1      41.344  30.543  34.101  1.00  0.00    -0.248 NA
ATOM     56  C   UNL A   1      41.975  31.147  36.267  1.00  0.00     0.031 C 
ATOM     57  C   UNL A   1      43.387  27.432  31.678  1.00  0.00     0.029 A 
ATOM     58  C   UNL A   1      42.762  28.392  32.458  1.00  0.00     0.049 A 
ATOM     59  H   UNL A   1      41.056  29.555  32.022  1.00  0.00     0.167 HD
ATOM     60  C   UNL A   1      42.458  29.801  34.475  1.00  0.00     0.074 A 
ATOM     61  C   UNL A   1      42.823  30.239  35.807  1.00  0.00     0.031 C 
ATOM     62  C   UNL A   1      43.118  28.843  33.779  1.00  0.00     0.037 A 
BRANCH  49  63
ATOM     63  C   UNL A   1      40.673  27.609  28.243  1.00  0.00     0.057 A 
ATOM     64  C   UNL A   1      41.403  27.994  27.110  1.00  0.00     0.134 A 
ATOM     65  C   UNL A   1      40.007  26.378  28.193  1.00  0.00     0.134 A 
ATOM     66  F   UNL A   1      42.054  29.165  27.087  1.00  0.00    -0.206 F 
ATOM     67  C   UNL A   1      41.449  27.196  25.964  1.00  0.00     0.040 A 
ATOM     68  C   UNL A   1      40.070  25.558  27.064  1.00  0.00     0.040 A 
ATOM     69  F   UNL A   1      39.295  25.944  29.243  1.00  0.00    -0.206 F 
ATOM     70  C   UNL A   1      40.787  25.970  25.943  1.00  0.00     0.006 A 
ENDBRANCH  49  63
BRANCH  50  71
ATOM     71  C   UNL A   1      39.859  33.153  36.508  1.00  0.00     0.057 A 
ATOM     72  C   UNL A   1      38.989  32.748  37.527  1.00  0.00     0.134 A 
ATOM     73  C   UNL A   1      40.582  34.335  36.710  1.00  0.00     0.134 A 
ATOM     74  F   UNL A   1      38.256  31.634  37.386  1.00  0.00    -0.206 F 
ATOM     75  C   UNL A   1      38.824  33.502  38.690  1.00  0.00     0.040 A 
ATOM     76  C   UNL A   1      40.448  35.083  37.880  1.00  0.00     0.040 A 
ATOM     77  F   UNL A   1      41.439  34.772  35.776  1.00  0.00    -0.206 F 
ATOM     78  C   UNL A   1      39.559  34.672  38.870  1.00  0.00     0.006 A 
ENDBRANCH  50  71
BRANCH  62  79
ATOM     79  C   UNL A   1      44.327  28.232  34.427  1.00  0.00     0.057 A 
ATOM     80  C   UNL A   1      45.601  28.799  34.306  1.00  0.00     0.134 A 
ATOM     81  C   UNL A   1      44.203  27.081  35.218  1.00  0.00     0.134 A 
ATOM     82  F   UNL A   1      45.790  29.893  33.553  1.00  0.00    -0.206 F 
ATOM     83  C   UNL A   1      46.714  28.230  34.929  1.00  0.00     0.040 A 
ATOM     84  C   UNL A   1      45.302  26.522  35.869  1.00  0.00     0.040 A 
ATOM     85  F   UNL A   1      43.008  26.494  35.384  1.00  0.00    -0.206 F 
ATOM     86  C   UNL A   1      46.564  27.091  35.719  1.00  0.00     0.006 A 
ENDBRANCH  62  79
ENDBRANCH  36  37
ENDBRANCH  28  31
ENDBRANCH  26  27
ENDBRANCH  25  26
ENDBRANCH  24  25
ENDBRANCH   1  24
TORSDOF 18
ENDMDL
