MODEL 1
REMARK VINA RESULT:     -13.4      0.000      0.000
REMARK SMILES O=C(NCCCCCCNC(=O)c1ccc(-c2c3nc(c(-c4c(F)cccc4F)c4ccc([nH]4)c(-c4c(F)cccc4F)c4nc(c(-c5c(F)cccc5F)c5ccc2[nH]5)C=C4)C=C3)cc1)c1ccc(NC(=O)[C@@H]2CC=CC[C@H]2C(=O)Nc2cccc([N+](=O)[O-])c2)cc1
REMARK SMILES IDX 5 1 4 2 3 3 1 4 2 5 67 7 68 8 93 9 69 10 92 11 70 12 71 13
REMARK SMILES IDX 72 14 73 16 74 17 75 18 79 19 76 20 78 21 77 22 80 23 81 24
REMARK SMILES IDX 82 25 83 27 84 28 91 29 85 30 87 31 86 32 88 33 89 34 90 35
REMARK SMILES IDX 6 36 7 37 8 38 9 39 10 40 11 41 12 43 13 44 14 45 66 46
REMARK SMILES IDX 15 47 65 48 16 49 17 50 18 51 59 52 19 53 64 54 58 55 60 56
REMARK SMILES IDX 20 57 63 58 57 59 56 60 21 62 47 63 30 64 46 65 31 66 34 67
REMARK SMILES IDX 45 68 61 69 32 70 33 71 44 73 62 74 35 75 22 76 23 77 28 78
REMARK SMILES IDX 24 79 25 80 27 81 29 82 26 83 48 84 49 85 54 86 50 87 51 88
REMARK SMILES IDX 53 89 55 90 52 91 36 92 37 93 42 94 38 95 39 96 41 97 43 98
REMARK SMILES IDX 40 99
REMARK H PARENT 3 6 71 15 82 26 10 42 60 61 34 72
REMARK Flexibility Score: inf
ROOT
ATOM      1  C   UNL A   1      32.780  28.950  25.204  1.00  0.00     0.021 C 
ENDROOT
BRANCH   1   2
ATOM      2  C   UNL A   1      32.832  29.320  23.729  1.00  0.00     0.116 C 
BRANCH   2   3
ATOM      3  N   UNL A   1      31.508  29.460  23.132  1.00  0.00    -0.352 N 
ATOM      4  O   UNL A   1      29.677  28.732  22.001  1.00  0.00    -0.269 OA
ATOM      5  C   UNL A   1      30.714  28.471  22.590  1.00  0.00     0.251 C 
ATOM      6  H   UNL A   1      31.136  30.371  23.113  1.00  0.00     0.163 HD
BRANCH   5   7
ATOM      7  C   UNL A   1      31.166  27.074  22.733  1.00  0.00     0.039 A 
ATOM      8  C   UNL A   1      32.118  26.583  21.847  1.00  0.00     0.016 A 
ATOM      9  C   UNL A   1      30.573  26.229  23.666  1.00  0.00     0.016 A 
ATOM     10  C   UNL A   1      32.350  25.216  21.781  1.00  0.00     0.027 A 
ATOM     11  C   UNL A   1      30.867  24.861  23.629  1.00  0.00     0.027 A 
ATOM     12  C   UNL A   1      31.721  24.333  22.646  1.00  0.00     0.041 A 
BRANCH  12  13
ATOM     13  N   UNL A   1      31.909  22.946  22.639  1.00  0.00    -0.326 N 
ATOM     14  C   UNL A   1      32.772  22.077  23.220  1.00  0.00     0.228 C 
ATOM     15  H   UNL A   1      31.251  22.488  22.069  1.00  0.00     0.169 HD
ATOM     16  O   UNL A   1      32.499  20.875  23.072  1.00  0.00    -0.274 OA
BRANCH  14  17
ATOM     17  C   UNL A   1      34.078  22.425  23.932  1.00  0.00     0.095 C 
ATOM     18  C   UNL A   1      35.054  23.312  23.148  1.00  0.00     0.041 C 
ATOM     19  C   UNL A   1      34.635  21.244  24.742  1.00  0.00     0.095 C 
ATOM     20  C   UNL A   1      36.510  22.985  23.324  1.00  0.00    -0.030 C 
ATOM     21  C   UNL A   1      36.116  21.322  25.143  1.00  0.00     0.041 C 
ATOM     22  C   UNL A   1      36.982  22.097  24.206  1.00  0.00    -0.030 C 
BRANCH  19  23
ATOM     23  C   UNL A   1      33.758  20.862  25.955  1.00  0.00     0.228 C 
ATOM     24  O   UNL A   1      33.486  21.741  26.785  1.00  0.00    -0.274 OA
ATOM     25  N   UNL A   1      33.146  19.646  26.126  1.00  0.00    -0.326 N 
ATOM     26  H   UNL A   1      32.498  19.619  26.867  1.00  0.00     0.169 HD
BRANCH  25  27
ATOM     27  C   UNL A   1      33.279  18.434  25.432  1.00  0.00     0.048 A 
ATOM     28  C   UNL A   1      34.132  18.385  24.328  1.00  0.00     0.026 A 
ATOM     29  C   UNL A   1      32.568  17.293  25.784  1.00  0.00     0.111 A 
ATOM     30  C   UNL A   1      34.403  17.163  23.700  1.00  0.00     0.009 A 
ATOM     31  C   UNL A   1      32.886  16.059  25.207  1.00  0.00     0.271 A 
ATOM     32  C   UNL A   1      33.814  15.986  24.167  1.00  0.00     0.086 A 
BRANCH  31  33
ATOM     33  N   UNL A   1      32.277  14.836  25.743  1.00  0.00     0.062 N 
ATOM     34  O   UNL A   1      31.778  14.890  26.876  1.00  0.00    -0.258 OA
ATOM     35  O   UNL A   1      32.265  13.832  25.017  1.00  0.00    -0.258 OA
ENDBRANCH  31  33
ENDBRANCH  25  27
ENDBRANCH  19  23
ENDBRANCH  14  17
ENDBRANCH  12  13
ENDBRANCH   5   7
ENDBRANCH   2   3
ENDBRANCH   1   2
BRANCH   1  36
ATOM     36  C   UNL A   1      32.708  30.142  26.157  1.00  0.00     0.002 C 
BRANCH  36  37
ATOM     37  C   UNL A   1      31.320  30.771  26.314  1.00  0.00     0.002 C 
BRANCH  37  38
ATOM     38  C   UNL A   1      31.297  32.290  26.501  1.00  0.00     0.021 C 
BRANCH  38  39
ATOM     39  C   UNL A   1      32.553  32.893  27.127  1.00  0.00     0.116 C 
BRANCH  39  40
ATOM     40  N   UNL A   1      32.343  34.241  27.627  1.00  0.00    -0.352 N 
ATOM     41  C   UNL A   1      32.999  34.919  28.624  1.00  0.00     0.251 C 
ATOM     42  H   UNL A   1      31.620  34.743  27.185  1.00  0.00     0.163 HD
ATOM     43  O   UNL A   1      32.589  36.015  28.993  1.00  0.00    -0.269 OA
BRANCH  41  44
ATOM     44  C   UNL A   1      34.183  34.320  29.277  1.00  0.00     0.039 A 
ATOM     45  C   UNL A   1      33.990  33.528  30.412  1.00  0.00     0.014 A 
ATOM     46  C   UNL A   1      35.472  34.547  28.790  1.00  0.00     0.014 A 
ATOM     47  C   UNL A   1      35.084  32.912  31.023  1.00  0.00     0.010 A 
ATOM     48  C   UNL A   1      36.556  33.884  29.363  1.00  0.00     0.010 A 
ATOM     49  C   UNL A   1      36.372  33.058  30.484  1.00  0.00    -0.014 A 
BRANCH  49  50
ATOM     50  C   UNL A   1      37.537  32.353  31.075  1.00  0.00     0.031 A 
ATOM     51  C   UNL A   1      38.177  32.870  32.331  1.00  0.00     0.074 A 
ATOM     52  C   UNL A   1      38.056  31.282  30.445  1.00  0.00     0.049 A 
ATOM     53  N   UNL A   1      39.249  32.442  32.950  1.00  0.00    -0.248 NA
ATOM     54  C   UNL A   1      37.545  34.039  32.964  1.00  0.00     0.031 C 
ATOM     55  C   UNL A   1      37.552  30.708  29.195  1.00  0.00     0.029 A 
ATOM     56  N   UNL A   1      39.132  30.493  30.762  1.00  0.00    -0.354 N 
ATOM     57  C   UNL A   1      39.423  33.290  34.035  1.00  0.00     0.074 A 
ATOM     58  C   UNL A   1      38.379  34.289  33.963  1.00  0.00     0.031 C 
ATOM     59  C   UNL A   1      38.312  29.654  28.858  1.00  0.00     0.029 A 
ATOM     60  C   UNL A   1      39.373  29.496  29.848  1.00  0.00     0.049 A 
ATOM     61  H   UNL A   1      39.681  30.629  31.568  1.00  0.00     0.167 HD
ATOM     62  C   UNL A   1      40.356  33.230  35.016  1.00  0.00     0.037 A 
ATOM     63  C   UNL A   1      40.345  28.565  29.808  1.00  0.00     0.037 A 
ATOM     64  C   UNL A   1      41.383  32.225  35.099  1.00  0.00     0.049 A 
ATOM     65  C   UNL A   1      41.365  28.516  30.910  1.00  0.00     0.074 A 
ATOM     66  C   UNL A   1      42.351  32.060  36.075  1.00  0.00     0.029 A 
ATOM     67  N   UNL A   1      41.572  31.211  34.172  1.00  0.00    -0.354 N 
ATOM     68  N   UNL A   1      41.490  29.299  31.954  1.00  0.00    -0.248 NA
ATOM     69  C   UNL A   1      42.374  27.450  30.833  1.00  0.00     0.031 C 
ATOM     70  C   UNL A   1      43.145  30.963  35.722  1.00  0.00     0.029 A 
ATOM     71  C   UNL A   1      42.648  30.424  34.547  1.00  0.00     0.049 A 
ATOM     72  H   UNL A   1      41.023  31.074  33.367  1.00  0.00     0.167 HD
ATOM     73  C   UNL A   1      42.574  28.807  32.669  1.00  0.00     0.074 A 
ATOM     74  C   UNL A   1      43.063  27.650  31.948  1.00  0.00     0.031 C 
ATOM     75  C   UNL A   1      43.117  29.273  33.820  1.00  0.00     0.037 A 
BRANCH  62  76
ATOM     76  C   UNL A   1      40.299  34.280  36.086  1.00  0.00     0.057 A 
ATOM     77  C   UNL A   1      41.028  35.472  35.985  1.00  0.00     0.134 A 
ATOM     78  C   UNL A   1      39.481  34.116  37.210  1.00  0.00     0.134 A 
ATOM     79  F   UNL A   1      41.840  35.685  34.938  1.00  0.00    -0.206 F 
ATOM     80  C   UNL A   1      40.965  36.453  36.976  1.00  0.00     0.040 A 
ATOM     81  C   UNL A   1      39.390  35.099  38.196  1.00  0.00     0.040 A 
ATOM     82  F   UNL A   1      38.751  33.000  37.366  1.00  0.00    -0.206 F 
ATOM     83  C   UNL A   1      40.139  36.270  38.084  1.00  0.00     0.006 A 
ENDBRANCH  62  76
BRANCH  63  84
ATOM     84  C   UNL A   1      40.391  27.591  28.689  1.00  0.00     0.057 A 
ATOM     85  C   UNL A   1      39.656  26.400  28.738  1.00  0.00     0.134 A 
ATOM     86  C   UNL A   1      41.171  27.822  27.551  1.00  0.00     0.134 A 
ATOM     87  F   UNL A   1      38.904  26.116  29.811  1.00  0.00    -0.206 F 
ATOM     88  C   UNL A   1      39.712  25.465  27.705  1.00  0.00     0.040 A 
ATOM     89  C   UNL A   1      41.218  26.906  26.499  1.00  0.00     0.040 A 
ATOM     90  F   UNL A   1      41.892  28.947  27.440  1.00  0.00    -0.206 F 
ATOM     91  C   UNL A   1      40.492  25.719  26.578  1.00  0.00     0.006 A 
ENDBRANCH  63  84
BRANCH  75  92
ATOM     92  C   UNL A   1      44.281  28.515  34.384  1.00  0.00     0.057 A 
ATOM     93  C   UNL A   1      45.604  28.860  34.077  1.00  0.00     0.134 A 
ATOM     94  C   UNL A   1      44.078  27.451  35.271  1.00  0.00     0.134 A 
ATOM     95  F   UNL A   1      45.864  29.861  33.223  1.00  0.00    -0.206 F 
ATOM     96  C   UNL A   1      46.683  28.161  34.620  1.00  0.00     0.040 A 
ATOM     97  C   UNL A   1      45.148  26.759  35.838  1.00  0.00     0.040 A 
ATOM     98  F   UNL A   1      42.836  27.075  35.610  1.00  0.00    -0.206 F 
ATOM     99  C   UNL A   1      46.457  27.111  35.508  1.00  0.00     0.006 A 
ENDBRANCH  75  92
ENDBRANCH  49  50
ENDBRANCH  41  44
ENDBRANCH  39  40
ENDBRANCH  38  39
ENDBRANCH  37  38
ENDBRANCH  36  37
ENDBRANCH   1  36
TORSDOF 18
ENDMDL
MODEL 2
REMARK VINA RESULT:     -13.2      2.227      3.447
REMARK SMILES O=C(NCCCCCCNC(=O)c1ccc(-c2c3nc(c(-c4c(F)cccc4F)c4ccc([nH]4)c(-c4c(F)cccc4F)c4nc(c(-c5c(F)cccc5F)c5ccc2[nH]5)C=C4)C=C3)cc1)c1ccc(NC(=O)[C@@H]2CC=CC[C@H]2C(=O)Nc2cccc([N+](=O)[O-])c2)cc1
REMARK SMILES IDX 5 1 4 2 3 3 1 4 2 5 67 7 68 8 93 9 69 10 92 11 70 12 71 13
REMARK SMILES IDX 72 14 73 16 74 17 75 18 79 19 76 20 78 21 77 22 80 23 81 24
REMARK SMILES IDX 82 25 83 27 84 28 91 29 85 30 87 31 86 32 88 33 89 34 90 35
REMARK SMILES IDX 6 36 7 37 8 38 9 39 10 40 11 41 12 43 13 44 14 45 66 46
REMARK SMILES IDX 15 47 65 48 16 49 17 50 18 51 59 52 19 53 64 54 58 55 60 56
REMARK SMILES IDX 20 57 63 58 57 59 56 60 21 62 47 63 30 64 46 65 31 66 34 67
REMARK SMILES IDX 45 68 61 69 32 70 33 71 44 73 62 74 35 75 22 76 23 77 28 78
REMARK SMILES IDX 24 79 25 80 27 81 29 82 26 83 48 84 49 85 54 86 50 87 51 88
REMARK SMILES IDX 53 89 55 90 52 91 36 92 37 93 42 94 38 95 39 96 41 97 43 98
REMARK SMILES IDX 40 99
REMARK H PARENT 3 6 71 15 82 26 10 42 60 61 34 72
REMARK Flexibility Score: inf
ROOT
ATOM      1  C   UNL A   1      32.926  29.316  24.751  1.00  0.00     0.021 C 
ENDROOT
BRANCH   1   2
ATOM      2  C   UNL A   1      31.429  29.245  25.016  1.00  0.00     0.116 C 
BRANCH   2   3
ATOM      3  N   UNL A   1      30.628  29.516  23.828  1.00  0.00    -0.352 N 
ATOM      4  O   UNL A   1      29.774  29.049  21.776  1.00  0.00    -0.269 OA
ATOM      5  C   UNL A   1      30.350  28.664  22.780  1.00  0.00     0.251 C 
ATOM      6  H   UNL A   1      30.239  30.418  23.766  1.00  0.00     0.163 HD
BRANCH   5   7
ATOM      7  C   UNL A   1      30.787  27.260  22.903  1.00  0.00     0.039 A 
ATOM      8  C   UNL A   1      31.859  26.821  22.136  1.00  0.00     0.016 A 
ATOM      9  C   UNL A   1      30.072  26.362  23.691  1.00  0.00     0.016 A 
ATOM     10  C   UNL A   1      32.108  25.460  22.025  1.00  0.00     0.027 A 
ATOM     11  C   UNL A   1      30.378  24.998  23.617  1.00  0.00     0.027 A 
ATOM     12  C   UNL A   1      31.367  24.529  22.737  1.00  0.00     0.041 A 
BRANCH  12  13
ATOM     13  N   UNL A   1      31.564  23.144  22.676  1.00  0.00    -0.326 N 
ATOM     14  C   UNL A   1      32.446  22.261  23.204  1.00  0.00     0.228 C 
ATOM     15  H   UNL A   1      30.895  22.702  22.105  1.00  0.00     0.169 HD
ATOM     16  O   UNL A   1      32.177  21.064  23.020  1.00  0.00    -0.274 OA
BRANCH  14  17
ATOM     17  C   UNL A   1      33.766  22.593  23.898  1.00  0.00     0.095 C 
ATOM     18  C   UNL A   1      34.721  23.508  23.120  1.00  0.00     0.041 C 
ATOM     19  C   UNL A   1      34.345  21.390  24.659  1.00  0.00     0.095 C 
ATOM     20  C   UNL A   1      36.182  23.182  23.254  1.00  0.00    -0.030 C 
ATOM     21  C   UNL A   1      35.835  21.462  25.029  1.00  0.00     0.041 C 
ATOM     22  C   UNL A   1      36.676  22.269  24.097  1.00  0.00    -0.030 C 
BRANCH  19  23
ATOM     23  C   UNL A   1      33.497  20.967  25.878  1.00  0.00     0.228 C 
ATOM     24  O   UNL A   1      33.170  21.836  26.698  1.00  0.00    -0.274 OA
ATOM     25  N   UNL A   1      32.965  19.715  26.065  1.00  0.00    -0.326 N 
ATOM     26  H   UNL A   1      32.322  19.655  26.808  1.00  0.00     0.169 HD
BRANCH  25  27
ATOM     27  C   UNL A   1      33.176  18.506  25.386  1.00  0.00     0.048 A 
ATOM     28  C   UNL A   1      33.919  18.523  24.203  1.00  0.00     0.026 A 
ATOM     29  C   UNL A   1      32.646  17.301  25.830  1.00  0.00     0.111 A 
ATOM     30  C   UNL A   1      34.273  17.322  23.576  1.00  0.00     0.009 A 
ATOM     31  C   UNL A   1      33.053  16.096  25.249  1.00  0.00     0.271 A 
ATOM     32  C   UNL A   1      33.879  16.099  24.124  1.00  0.00     0.086 A 
BRANCH  31  33
ATOM     33  N   UNL A   1      32.651  14.827  25.868  1.00  0.00     0.062 N 
ATOM     34  O   UNL A   1      33.269  13.805  25.539  1.00  0.00    -0.258 OA
ATOM     35  O   UNL A   1      31.741  14.858  26.708  1.00  0.00    -0.258 OA
ENDBRANCH  31  33
ENDBRANCH  25  27
ENDBRANCH  19  23
ENDBRANCH  14  17
ENDBRANCH  12  13
ENDBRANCH   5   7
ENDBRANCH   2   3
ENDBRANCH   1   2
BRANCH   1  36
ATOM     36  C   UNL A   1      33.766  28.346  25.582  1.00  0.00     0.002 C 
BRANCH  36  37
ATOM     37  C   UNL A   1      34.366  28.933  26.863  1.00  0.00     0.002 C 
BRANCH  37  38
ATOM     38  C   UNL A   1      33.718  30.225  27.368  1.00  0.00     0.021 C 
BRANCH  38  39
ATOM     39  C   UNL A   1      34.687  31.356  27.706  1.00  0.00     0.116 C 
BRANCH  39  40
ATOM     40  N   UNL A   1      34.334  32.053  28.932  1.00  0.00    -0.352 N 
ATOM     41  C   UNL A   1      34.961  32.053  30.153  1.00  0.00     0.251 C 
ATOM     42  H   UNL A   1      33.523  32.609  28.879  1.00  0.00     0.163 HD
ATOM     43  O   UNL A   1      34.436  32.608  31.112  1.00  0.00    -0.269 OA
BRANCH  41  44
ATOM     44  C   UNL A   1      36.257  31.360  30.324  1.00  0.00     0.039 A 
ATOM     45  C   UNL A   1      37.412  31.975  29.833  1.00  0.00     0.014 A 
ATOM     46  C   UNL A   1      36.336  30.112  30.947  1.00  0.00     0.014 A 
ATOM     47  C   UNL A   1      38.655  31.367  30.021  1.00  0.00     0.010 A 
ATOM     48  C   UNL A   1      37.582  29.536  31.188  1.00  0.00     0.010 A 
ATOM     49  C   UNL A   1      38.753  30.158  30.729  1.00  0.00    -0.014 A 
BRANCH  49  50
ATOM     50  C   UNL A   1      40.072  29.534  31.002  1.00  0.00     0.031 A 
ATOM     51  C   UNL A   1      40.901  29.995  32.167  1.00  0.00     0.074 A 
ATOM     52  C   UNL A   1      40.550  28.596  30.164  1.00  0.00     0.049 A 
ATOM     53  N   UNL A   1      42.109  29.632  32.518  1.00  0.00    -0.248 NA
ATOM     54  C   UNL A   1      40.303  31.018  33.041  1.00  0.00     0.031 C 
ATOM     55  C   UNL A   1      39.861  28.093  28.973  1.00  0.00     0.029 A 
ATOM     56  N   UNL A   1      41.736  27.905  30.177  1.00  0.00    -0.354 N 
ATOM     57  C   UNL A   1      42.419  30.385  33.643  1.00  0.00     0.074 A 
ATOM     58  C   UNL A   1      41.293  31.262  33.887  1.00  0.00     0.031 C 
ATOM     59  C   UNL A   1      40.632  27.169  28.378  1.00  0.00     0.029 A 
ATOM     60  C   UNL A   1      41.879  27.036  29.123  1.00  0.00     0.049 A 
ATOM     61  H   UNL A   1      42.420  28.023  30.876  1.00  0.00     0.167 HD
ATOM     62  C   UNL A   1      43.530  30.335  34.415  1.00  0.00     0.037 A 
ATOM     63  C   UNL A   1      42.905  26.229  28.791  1.00  0.00     0.037 A 
ATOM     64  C   UNL A   1      44.640  29.449  34.185  1.00  0.00     0.049 A 
ATOM     65  C   UNL A   1      44.124  26.187  29.668  1.00  0.00     0.074 A 
ATOM     66  C   UNL A   1      45.795  29.299  34.934  1.00  0.00     0.029 A 
ATOM     67  N   UNL A   1      44.732  28.558  33.126  1.00  0.00    -0.354 N 
ATOM     68  N   UNL A   1      44.384  26.875  30.753  1.00  0.00    -0.248 NA
ATOM     69  C   UNL A   1      45.191  25.255  29.277  1.00  0.00     0.031 C 
ATOM     70  C   UNL A   1      46.599  28.339  34.311  1.00  0.00     0.029 A 
ATOM     71  C   UNL A   1      45.929  27.865  33.196  1.00  0.00     0.049 A 
ATOM     72  H   UNL A   1      44.048  28.439  32.428  1.00  0.00     0.167 HD
ATOM     73  C   UNL A   1      45.629  26.440  31.188  1.00  0.00     0.074 A 
ATOM     74  C   UNL A   1      46.068  25.422  30.257  1.00  0.00     0.031 C 
ATOM     75  C   UNL A   1      46.347  26.850  32.263  1.00  0.00     0.037 A 
BRANCH  62  76
ATOM     76  C   UNL A   1      43.592  31.262  35.593  1.00  0.00     0.057 A 
ATOM     77  C   UNL A   1      43.048  30.909  36.836  1.00  0.00     0.134 A 
ATOM     78  C   UNL A   1      44.229  32.505  35.497  1.00  0.00     0.134 A 
ATOM     79  F   UNL A   1      42.413  29.737  36.990  1.00  0.00    -0.206 F 
ATOM     80  C   UNL A   1      43.116  31.768  37.933  1.00  0.00     0.040 A 
ATOM     81  C   UNL A   1      44.326  33.363  36.593  1.00  0.00     0.040 A 
ATOM     82  F   UNL A   1      44.776  32.903  34.337  1.00  0.00    -0.206 F 
ATOM     83  C   UNL A   1      43.762  32.997  37.815  1.00  0.00     0.006 A 
ENDBRANCH  62  76
BRANCH  63  84
ATOM     84  C   UNL A   1      42.815  25.380  27.577  1.00  0.00     0.057 A 
ATOM     85  C   UNL A   1      42.258  24.096  27.634  1.00  0.00     0.134 A 
ATOM     86  C   UNL A   1      43.287  25.825  26.338  1.00  0.00     0.134 A 
ATOM     87  F   UNL A   1      41.806  23.608  28.797  1.00  0.00    -0.206 F 
ATOM     88  C   UNL A   1      42.192  23.279  26.505  1.00  0.00     0.040 A 
ATOM     89  C   UNL A   1      43.206  25.028  25.195  1.00  0.00     0.040 A 
ATOM     90  F   UNL A   1      43.825  27.048  26.217  1.00  0.00    -0.206 F 
ATOM     91  C   UNL A   1      42.663  23.747  25.280  1.00  0.00     0.006 A 
ENDBRANCH  63  84
BRANCH  75  92
ATOM     92  C   UNL A   1      47.664  26.177  32.503  1.00  0.00     0.057 A 
ATOM     93  C   UNL A   1      48.839  26.610  31.876  1.00  0.00     0.134 A 
ATOM     94  C   UNL A   1      47.766  25.106  33.400  1.00  0.00     0.134 A 
ATOM     95  F   UNL A   1      48.805  27.622  30.996  1.00  0.00    -0.206 F 
ATOM     96  C   UNL A   1      50.065  25.990  32.118  1.00  0.00     0.040 A 
ATOM     97  C   UNL A   1      48.989  24.492  33.668  1.00  0.00     0.040 A 
ATOM     98  F   UNL A   1      46.678  24.648  34.039  1.00  0.00    -0.206 F 
ATOM     99  C   UNL A   1      50.144  24.932  33.022  1.00  0.00     0.006 A 
ENDBRANCH  75  92
ENDBRANCH  49  50
ENDBRANCH  41  44
ENDBRANCH  39  40
ENDBRANCH  38  39
ENDBRANCH  37  38
ENDBRANCH  36  37
ENDBRANCH   1  36
TORSDOF 18
ENDMDL
MODEL 3
REMARK VINA RESULT:     -12.7      4.454      5.967
REMARK SMILES O=C(NCCCCCCNC(=O)c1ccc(-c2c3nc(c(-c4c(F)cccc4F)c4ccc([nH]4)c(-c4c(F)cccc4F)c4nc(c(-c5c(F)cccc5F)c5ccc2[nH]5)C=C4)C=C3)cc1)c1ccc(NC(=O)[C@@H]2CC=CC[C@H]2C(=O)Nc2cccc([N+](=O)[O-])c2)cc1
REMARK SMILES IDX 5 1 4 2 3 3 1 4 2 5 67 7 68 8 93 9 69 10 92 11 70 12 71 13
REMARK SMILES IDX 72 14 73 16 74 17 75 18 79 19 76 20 78 21 77 22 80 23 81 24
REMARK SMILES IDX 82 25 83 27 84 28 91 29 85 30 87 31 86 32 88 33 89 34 90 35
REMARK SMILES IDX 6 36 7 37 8 38 9 39 10 40 11 41 12 43 13 44 14 45 66 46
REMARK SMILES IDX 15 47 65 48 16 49 17 50 18 51 59 52 19 53 64 54 58 55 60 56
REMARK SMILES IDX 20 57 63 58 57 59 56 60 21 62 47 63 30 64 46 65 31 66 34 67
REMARK SMILES IDX 45 68 61 69 32 70 33 71 44 73 62 74 35 75 22 76 23 77 28 78
REMARK SMILES IDX 24 79 25 80 27 81 29 82 26 83 48 84 49 85 54 86 50 87 51 88
REMARK SMILES IDX 53 89 55 90 52 91 36 92 37 93 42 94 38 95 39 96 41 97 43 98
REMARK SMILES IDX 40 99
REMARK H PARENT 3 6 71 15 82 26 10 42 60 61 34 72
REMARK Flexibility Score: inf
ROOT
ATOM      1  C   UNL A   1      34.217  31.291  27.515  1.00  0.00     0.021 C 
ENDROOT
BRANCH   1   2
ATOM      2  C   UNL A   1      33.445  30.211  26.770  1.00  0.00     0.116 C 
BRANCH   2   3
ATOM      3  N   UNL A   1      32.513  29.487  27.625  1.00  0.00    -0.352 N 
ATOM      4  O   UNL A   1      31.045  27.825  28.120  1.00  0.00    -0.269 OA
ATOM      5  C   UNL A   1      31.910  28.270  27.383  1.00  0.00     0.251 C 
ATOM      6  H   UNL A   1      32.285  29.918  28.480  1.00  0.00     0.163 HD
BRANCH   5   7
ATOM      7  C   UNL A   1      32.337  27.519  26.187  1.00  0.00     0.039 A 
ATOM      8  C   UNL A   1      31.407  27.270  25.184  1.00  0.00     0.016 A 
ATOM      9  C   UNL A   1      33.615  26.975  26.110  1.00  0.00     0.016 A 
ATOM     10  C   UNL A   1      31.701  26.342  24.194  1.00  0.00     0.027 A 
ATOM     11  C   UNL A   1      33.917  26.090  25.068  1.00  0.00     0.027 A 
ATOM     12  C   UNL A   1      32.940  25.723  24.129  1.00  0.00     0.041 A 
BRANCH  12  13
ATOM     13  N   UNL A   1      33.305  24.781  23.160  1.00  0.00    -0.326 N 
ATOM     14  C   UNL A   1      34.017  23.627  23.142  1.00  0.00     0.228 C 
ATOM     15  H   UNL A   1      32.961  25.017  22.269  1.00  0.00     0.169 HD
ATOM     16  O   UNL A   1      33.981  22.995  22.075  1.00  0.00    -0.274 OA
BRANCH  14  17
ATOM     17  C   UNL A   1      34.924  23.096  24.251  1.00  0.00     0.095 C 
ATOM     18  C   UNL A   1      36.386  23.559  24.199  1.00  0.00     0.041 C 
ATOM     19  C   UNL A   1      34.621  21.632  24.603  1.00  0.00     0.095 C 
ATOM     20  C   UNL A   1      37.405  22.529  24.598  1.00  0.00    -0.030 C 
ATOM     21  C   UNL A   1      35.710  20.870  25.373  1.00  0.00     0.041 C 
ATOM     22  C   UNL A   1      37.105  21.332  25.114  1.00  0.00    -0.030 C 
BRANCH  19  23
ATOM     23  C   UNL A   1      33.239  21.432  25.265  1.00  0.00     0.228 C 
ATOM     24  O   UNL A   1      32.758  22.369  25.918  1.00  0.00    -0.274 OA
ATOM     25  N   UNL A   1      32.436  20.334  25.084  1.00  0.00    -0.326 N 
ATOM     26  H   UNL A   1      31.527  20.433  25.447  1.00  0.00     0.169 HD
BRANCH  25  27
ATOM     27  C   UNL A   1      32.682  19.095  24.474  1.00  0.00     0.048 A 
ATOM     28  C   UNL A   1      32.408  18.952  23.112  1.00  0.00     0.026 A 
ATOM     29  C   UNL A   1      33.156  17.997  25.183  1.00  0.00     0.111 A 
ATOM     30  C   UNL A   1      32.775  17.781  22.438  1.00  0.00     0.009 A 
ATOM     31  C   UNL A   1      33.588  16.853  24.504  1.00  0.00     0.271 A 
ATOM     32  C   UNL A   1      33.408  16.743  23.124  1.00  0.00     0.086 A 
BRANCH  31  33
ATOM     33  N   UNL A   1      34.281  15.795  25.248  1.00  0.00     0.062 N 
ATOM     34  O   UNL A   1      35.387  16.064  25.737  1.00  0.00    -0.258 OA
ATOM     35  O   UNL A   1      33.704  14.705  25.372  1.00  0.00    -0.258 OA
ENDBRANCH  31  33
ENDBRANCH  25  27
ENDBRANCH  19  23
ENDBRANCH  14  17
ENDBRANCH  12  13
ENDBRANCH   5   7
ENDBRANCH   2   3
ENDBRANCH   1   2
BRANCH   1  36
ATOM     36  C   UNL A   1      35.521  30.815  28.153  1.00  0.00     0.002 C 
BRANCH  36  37
ATOM     37  C   UNL A   1      35.719  31.219  29.617  1.00  0.00     0.002 C 
BRANCH  37  38
ATOM     38  C   UNL A   1      34.810  32.342  30.124  1.00  0.00     0.021 C 
BRANCH  38  39
ATOM     39  C   UNL A   1      35.370  33.754  29.980  1.00  0.00     0.116 C 
BRANCH  39  40
ATOM     40  N   UNL A   1      35.781  34.331  31.249  1.00  0.00    -0.352 N 
ATOM     41  C   UNL A   1      36.942  34.152  31.959  1.00  0.00     0.251 C 
ATOM     42  H   UNL A   1      35.128  34.940  31.663  1.00  0.00     0.163 HD
ATOM     43  O   UNL A   1      37.053  34.629  33.084  1.00  0.00    -0.269 OA
BRANCH  41  44
ATOM     44  C   UNL A   1      38.052  33.362  31.384  1.00  0.00     0.039 A 
ATOM     45  C   UNL A   1      38.433  33.611  30.062  1.00  0.00     0.014 A 
ATOM     46  C   UNL A   1      38.703  32.376  32.129  1.00  0.00     0.014 A 
ATOM     47  C   UNL A   1      39.508  32.912  29.507  1.00  0.00     0.010 A 
ATOM     48  C   UNL A   1      39.813  31.723  31.595  1.00  0.00     0.010 A 
ATOM     49  C   UNL A   1      40.227  31.987  30.279  1.00  0.00    -0.014 A 
BRANCH  49  50
ATOM     50  C   UNL A   1      41.417  31.289  29.731  1.00  0.00     0.031 A 
ATOM     51  C   UNL A   1      42.712  32.029  29.550  1.00  0.00     0.074 A 
ATOM     52  C   UNL A   1      41.312  30.006  29.336  1.00  0.00     0.049 A 
ATOM     53  N   UNL A   1      43.832  31.617  29.012  1.00  0.00    -0.248 NA
ATOM     54  C   UNL A   1      42.747  33.425  30.015  1.00  0.00     0.031 C 
ATOM     55  C   UNL A   1      40.098  29.191  29.418  1.00  0.00     0.029 A 
ATOM     56  N   UNL A   1      42.239  29.165  28.773  1.00  0.00    -0.354 N 
ATOM     57  C   UNL A   1      44.698  32.700  29.064  1.00  0.00     0.074 A 
ATOM     58  C   UNL A   1      43.960  33.804  29.639  1.00  0.00     0.031 C 
ATOM     59  C   UNL A   1      40.359  27.966  28.934  1.00  0.00     0.029 A 
ATOM     60  C   UNL A   1      41.745  27.918  28.479  1.00  0.00     0.049 A 
ATOM     61  H   UNL A   1      43.171  29.431  28.597  1.00  0.00     0.167 HD
ATOM     62  C   UNL A   1      45.998  32.764  28.687  1.00  0.00     0.037 A 
ATOM     63  C   UNL A   1      42.339  26.858  27.899  1.00  0.00     0.037 A 
ATOM     64  C   UNL A   1      46.738  31.662  28.133  1.00  0.00     0.049 A 
ATOM     65  C   UNL A   1      43.783  26.953  27.495  1.00  0.00     0.074 A 
ATOM     66  C   UNL A   1      48.069  31.619  27.755  1.00  0.00     0.029 A 
ATOM     67  N   UNL A   1      46.211  30.404  27.882  1.00  0.00    -0.354 N 
ATOM     68  N   UNL A   1      44.602  27.972  27.591  1.00  0.00    -0.248 NA
ATOM     69  C   UNL A   1      44.388  25.749  26.907  1.00  0.00     0.031 C 
ATOM     70  C   UNL A   1      48.339  30.344  27.247  1.00  0.00     0.029 A 
ATOM     71  C   UNL A   1      47.187  29.582  27.344  1.00  0.00     0.049 A 
ATOM     72  H   UNL A   1      45.280  30.136  28.060  1.00  0.00     0.167 HD
ATOM     73  C   UNL A   1      45.822  27.526  27.101  1.00  0.00     0.074 A 
ATOM     74  C   UNL A   1      45.640  26.140  26.719  1.00  0.00     0.031 C 
ATOM     75  C   UNL A   1      46.990  28.203  26.975  1.00  0.00     0.037 A 
BRANCH  62  76
ATOM     76  C   UNL A   1      46.704  34.074  28.873  1.00  0.00     0.057 A 
ATOM     77  C   UNL A   1      46.714  35.053  27.871  1.00  0.00     0.134 A 
ATOM     78  C   UNL A   1      47.352  34.376  30.078  1.00  0.00     0.134 A 
ATOM     79  F   UNL A   1      46.123  34.820  26.689  1.00  0.00    -0.206 F 
ATOM     80  C   UNL A   1      47.363  36.276  28.050  1.00  0.00     0.040 A 
ATOM     81  C   UNL A   1      47.983  35.605  30.279  1.00  0.00     0.040 A 
ATOM     82  F   UNL A   1      47.376  33.486  31.081  1.00  0.00    -0.206 F 
ATOM     83  C   UNL A   1      47.995  36.557  29.259  1.00  0.00     0.006 A 
ENDBRANCH  62  76
BRANCH  63  84
ATOM     84  C   UNL A   1      41.571  25.607  27.680  1.00  0.00     0.057 A 
ATOM     85  C   UNL A   1      41.761  24.491  28.504  1.00  0.00     0.134 A 
ATOM     86  C   UNL A   1      40.639  25.495  26.643  1.00  0.00     0.134 A 
ATOM     87  F   UNL A   1      42.654  24.533  29.502  1.00  0.00    -0.206 F 
ATOM     88  C   UNL A   1      41.064  23.301  28.291  1.00  0.00     0.040 A 
ATOM     89  C   UNL A   1      39.917  24.318  26.434  1.00  0.00     0.040 A 
ATOM     90  F   UNL A   1      40.407  26.532  25.824  1.00  0.00    -0.206 F 
ATOM     91  C   UNL A   1      40.135  23.214  27.256  1.00  0.00     0.006 A 
ENDBRANCH  63  84
BRANCH  75  92
ATOM     92  C   UNL A   1      48.164  27.449  26.431  1.00  0.00     0.057 A 
ATOM     93  C   UNL A   1      49.084  26.808  27.272  1.00  0.00     0.134 A 
ATOM     94  C   UNL A   1      48.359  27.331  25.049  1.00  0.00     0.134 A 
ATOM     95  F   UNL A   1      48.960  26.895  28.604  1.00  0.00    -0.206 F 
ATOM     96  C   UNL A   1      50.165  26.092  26.756  1.00  0.00     0.040 A 
ATOM     97  C   UNL A   1      49.423  26.599  24.521  1.00  0.00     0.040 A 
ATOM     98  F   UNL A   1      47.510  27.915  24.190  1.00  0.00    -0.206 F 
ATOM     99  C   UNL A   1      50.333  25.981  25.378  1.00  0.00     0.006 A 
ENDBRANCH  75  92
ENDBRANCH  49  50
ENDBRANCH  41  44
ENDBRANCH  39  40
ENDBRANCH  38  39
ENDBRANCH  37  38
ENDBRANCH  36  37
ENDBRANCH   1  36
TORSDOF 18
ENDMDL
