MODEL 1
REMARK VINA RESULT:     -10.9      0.000      0.000
REMARK SMILES O=C(COc1ccc(/C=C/C(=O)c2ccc(F)cc2F)cc1[N+](=O)[O-])NCCCCCCNC(=O)c1ccc(-c2c3nc(c(-c4c(F)cccc4F)c4ccc([nH]4)c(-c4c(F)cccc4F)c4nc(c(-c5c(F)cccc5F)c5ccc2[nH]5)C=C4)C=C3)cc1
REMARK SMILES IDX 28 1 27 2 26 3 1 4 2 5 3 7 4 8 5 9 6 10 22 11 7 12 21 13
REMARK SMILES IDX 8 14 23 15 24 16 25 17 9 18 10 19 11 20 12 21 13 22 14 23
REMARK SMILES IDX 19 24 15 25 18 26 20 27 16 28 17 29 29 30 30 31 31 32 32 33
REMARK SMILES IDX 33 34 34 35 35 37 36 38 37 39 89 40 38 41 88 42 39 43 40 44
REMARK SMILES IDX 41 45 82 46 42 47 87 48 81 49 83 50 43 51 86 52 80 53 79 54
REMARK SMILES IDX 44 56 70 57 53 58 69 59 54 60 57 61 68 62 84 63 55 64 56 65
REMARK SMILES IDX 67 67 85 68 58 69 45 70 46 71 51 72 47 73 48 74 50 75 52 76
REMARK SMILES IDX 49 77 71 78 72 79 77 80 73 81 74 82 76 83 78 84 75 85 59 86
REMARK SMILES IDX 60 87 65 88 61 89 62 90 64 91 66 92 63 93
REMARK H PARENT 26 6 33 36 83 55 57 66
REMARK Flexibility Score: inf
ROOT
ATOM      1  C   UNL A   1      34.903  22.102  24.377  1.00  0.00     0.021 C 
ENDROOT
BRANCH   1   2
ATOM      2  C   UNL A   1      33.453  22.088  24.851  1.00  0.00     0.116 C 
BRANCH   2   3
ATOM      3  N   UNL A   1      33.000  23.366  25.365  1.00  0.00    -0.353 N 
ATOM      4  O   UNL A   1      30.749  22.881  25.436  1.00  0.00    -0.271 OA
ATOM      5  C   UNL A   1      31.690  23.618  25.713  1.00  0.00     0.257 C 
ATOM      6  H   UNL A   1      33.659  24.089  25.470  1.00  0.00     0.163 HD
BRANCH   5   7
ATOM      7  C   UNL A   1      31.496  24.928  26.484  1.00  0.00     0.329 C 
BRANCH   7   8
ATOM      8  O   UNL A   1      31.376  26.063  25.615  1.00  0.00    -0.477 OA
BRANCH   8   9
ATOM      9  C   UNL A   1      32.130  27.125  26.035  1.00  0.00     0.197 A 
ATOM     10  C   UNL A   1      31.623  27.942  27.049  1.00  0.00     0.054 A 
ATOM     11  C   UNL A   1      33.333  27.488  25.431  1.00  0.00     0.311 A 
ATOM     12  C   UNL A   1      32.334  29.079  27.467  1.00  0.00     0.012 A 
ATOM     13  C   UNL A   1      34.068  28.596  25.861  1.00  0.00     0.098 A 
ATOM     14  C   UNL A   1      33.561  29.408  26.877  1.00  0.00    -0.018 A 
BRANCH  11  15
ATOM     15  N   UNL A   1      33.832  26.792  24.270  1.00  0.00     0.066 N 
ATOM     16  O   UNL A   1      34.389  25.702  24.462  1.00  0.00    -0.258 OA
ATOM     17  O   UNL A   1      33.717  27.360  23.175  1.00  0.00    -0.258 OA
ENDBRANCH  11  15
BRANCH  14  18
ATOM     18  C   UNL A   1      34.363  30.577  27.244  1.00  0.00     0.012 C 
ATOM     19  C   UNL A   1      33.890  31.625  27.933  1.00  0.00     0.053 C 
BRANCH  19  20
ATOM     20  C   UNL A   1      34.695  32.859  28.127  1.00  0.00     0.188 C 
ATOM     21  O   UNL A   1      34.423  33.876  27.498  1.00  0.00    -0.289 OA
BRANCH  20  22
ATOM     22  C   UNL A   1      35.825  32.859  29.085  1.00  0.00     0.058 A 
ATOM     23  C   UNL A   1      37.133  32.899  28.586  1.00  0.00     0.018 A 
ATOM     24  C   UNL A   1      35.616  32.796  30.468  1.00  0.00     0.137 A 
ATOM     25  C   UNL A   1      38.212  32.920  29.473  1.00  0.00     0.040 A 
ATOM     26  C   UNL A   1      36.688  32.815  31.353  1.00  0.00     0.079 A 
ATOM     27  F   UNL A   1      34.379  32.709  30.976  1.00  0.00    -0.206 F 
ATOM     28  C   UNL A   1      37.979  32.884  30.845  1.00  0.00     0.126 A 
ATOM     29  F   UNL A   1      39.017  32.910  31.691  1.00  0.00    -0.207 F 
ENDBRANCH  20  22
ENDBRANCH  19  20
ENDBRANCH  14  18
ENDBRANCH   8   9
ENDBRANCH   7   8
ENDBRANCH   5   7
ENDBRANCH   2   3
ENDBRANCH   1   2
BRANCH   1  30
ATOM     30  C   UNL A   1      35.796  20.970  24.898  1.00  0.00     0.002 C 
BRANCH  30  31
ATOM     31  C   UNL A   1      37.292  21.069  24.588  1.00  0.00     0.002 C 
BRANCH  31  32
ATOM     32  C   UNL A   1      38.146  19.852  24.944  1.00  0.00     0.021 C 
BRANCH  32  33
ATOM     33  C   UNL A   1      39.180  20.057  26.047  1.00  0.00     0.116 C 
BRANCH  33  34
ATOM     34  N   UNL A   1      40.320  19.159  25.951  1.00  0.00    -0.352 N 
ATOM     35  C   UNL A   1      41.660  19.427  26.097  1.00  0.00     0.251 C 
ATOM     36  H   UNL A   1      40.098  18.221  25.753  1.00  0.00     0.163 HD
ATOM     37  O   UNL A   1      42.486  18.539  25.901  1.00  0.00    -0.269 OA
BRANCH  35  38
ATOM     38  C   UNL A   1      42.123  20.789  26.451  1.00  0.00     0.039 A 
ATOM     39  C   UNL A   1      42.378  21.696  25.417  1.00  0.00     0.014 A 
ATOM     40  C   UNL A   1      42.319  21.175  27.779  1.00  0.00     0.014 A 
ATOM     41  C   UNL A   1      42.756  23.008  25.715  1.00  0.00     0.010 A 
ATOM     42  C   UNL A   1      42.639  22.500  28.078  1.00  0.00     0.010 A 
ATOM     43  C   UNL A   1      42.854  23.430  27.051  1.00  0.00    -0.014 A 
BRANCH  43  44
ATOM     44  C   UNL A   1      43.159  24.843  27.389  1.00  0.00     0.031 A 
ATOM     45  C   UNL A   1      44.557  25.375  27.248  1.00  0.00     0.074 A 
ATOM     46  C   UNL A   1      42.190  25.631  27.893  1.00  0.00     0.049 A 
ATOM     47  N   UNL A   1      45.031  26.552  27.571  1.00  0.00    -0.248 NA
ATOM     48  C   UNL A   1      45.561  24.454  26.691  1.00  0.00     0.031 C 
ATOM     49  C   UNL A   1      40.802  25.225  28.123  1.00  0.00     0.029 A 
ATOM     50  N   UNL A   1      42.229  26.935  28.318  1.00  0.00    -0.354 N 
ATOM     51  C   UNL A   1      46.388  26.507  27.277  1.00  0.00     0.074 A 
ATOM     52  C   UNL A   1      46.668  25.176  26.782  1.00  0.00     0.031 C 
ATOM     53  C   UNL A   1      40.120  26.262  28.633  1.00  0.00     0.029 A 
ATOM     54  C   UNL A   1      41.026  27.395  28.796  1.00  0.00     0.049 A 
ATOM     55  H   UNL A   1      43.042  27.489  28.285  1.00  0.00     0.167 HD
ATOM     56  C   UNL A   1      47.311  27.492  27.392  1.00  0.00     0.037 A 
ATOM     57  C   UNL A   1      40.692  28.592  29.313  1.00  0.00     0.037 A 
ATOM     58  C   UNL A   1      47.030  28.825  27.854  1.00  0.00     0.049 A 
ATOM     59  C   UNL A   1      41.732  29.670  29.419  1.00  0.00     0.074 A 
ATOM     60  C   UNL A   1      47.889  29.907  27.945  1.00  0.00     0.029 A 
ATOM     61  N   UNL A   1      45.792  29.259  28.302  1.00  0.00    -0.354 N 
ATOM     62  N   UNL A   1      42.998  29.632  29.083  1.00  0.00    -0.248 NA
ATOM     63  C   UNL A   1      41.296  30.960  29.974  1.00  0.00     0.031 C 
ATOM     64  C   UNL A   1      47.177  30.989  28.475  1.00  0.00     0.029 A 
ATOM     65  C   UNL A   1      45.867  30.588  28.684  1.00  0.00     0.049 A 
ATOM     66  H   UNL A   1      44.979  28.705  28.343  1.00  0.00     0.167 HD
ATOM     67  C   UNL A   1      43.503  30.894  29.361  1.00  0.00     0.074 A 
ATOM     68  C   UNL A   1      42.405  31.681  29.885  1.00  0.00     0.031 C 
ATOM     69  C   UNL A   1      44.765  31.359  29.197  1.00  0.00     0.037 A 
BRANCH  56  70
ATOM     70  C   UNL A   1      48.722  27.159  27.005  1.00  0.00     0.057 A 
ATOM     71  C   UNL A   1      49.164  27.258  25.681  1.00  0.00     0.134 A 
ATOM     72  C   UNL A   1      49.656  26.767  27.972  1.00  0.00     0.134 A 
ATOM     73  F   UNL A   1      48.315  27.618  24.705  1.00  0.00    -0.206 F 
ATOM     74  C   UNL A   1      50.480  26.956  25.326  1.00  0.00     0.040 A 
ATOM     75  C   UNL A   1      50.980  26.484  27.634  1.00  0.00     0.040 A 
ATOM     76  F   UNL A   1      49.298  26.658  29.261  1.00  0.00    -0.206 F 
ATOM     77  C   UNL A   1      51.393  26.572  26.306  1.00  0.00     0.006 A 
ENDBRANCH  56  70
BRANCH  57  78
ATOM     78  C   UNL A   1      39.297  28.844  29.751  1.00  0.00     0.057 A 
ATOM     79  C   UNL A   1      38.934  28.722  31.096  1.00  0.00     0.134 A 
ATOM     80  C   UNL A   1      38.298  29.208  28.840  1.00  0.00     0.134 A 
ATOM     81  F   UNL A   1      39.845  28.356  32.010  1.00  0.00    -0.206 F 
ATOM     82  C   UNL A   1      37.623  28.941  31.521  1.00  0.00     0.040 A 
ATOM     83  C   UNL A   1      36.987  29.448  29.254  1.00  0.00     0.040 A 
ATOM     84  F   UNL A   1      38.587  29.345  27.538  1.00  0.00    -0.206 F 
ATOM     85  C   UNL A   1      36.646  29.309  30.599  1.00  0.00     0.006 A 
ENDBRANCH  57  78
BRANCH  69  86
ATOM     86  C   UNL A   1      45.018  32.792  29.559  1.00  0.00     0.057 A 
ATOM     87  C   UNL A   1      45.472  33.161  30.831  1.00  0.00     0.134 A 
ATOM     88  C   UNL A   1      44.839  33.809  28.613  1.00  0.00     0.134 A 
ATOM     89  F   UNL A   1      45.648  32.234  31.785  1.00  0.00    -0.206 F 
ATOM     90  C   UNL A   1      45.723  34.494  31.155  1.00  0.00     0.040 A 
ATOM     91  C   UNL A   1      45.106  35.144  28.919  1.00  0.00     0.040 A 
ATOM     92  F   UNL A   1      44.411  33.520  27.375  1.00  0.00    -0.206 F 
ATOM     93  C   UNL A   1      45.546  35.490  30.195  1.00  0.00     0.006 A 
ENDBRANCH  69  86
ENDBRANCH  43  44
ENDBRANCH  35  38
ENDBRANCH  33  34
ENDBRANCH  32  33
ENDBRANCH  31  32
ENDBRANCH  30  31
ENDBRANCH   1  30
TORSDOF 19
ENDMDL
MODEL 2
REMARK VINA RESULT:     -10.8      3.810     10.223
REMARK SMILES O=C(COc1ccc(/C=C/C(=O)c2ccc(F)cc2F)cc1[N+](=O)[O-])NCCCCCCNC(=O)c1ccc(-c2c3nc(c(-c4c(F)cccc4F)c4ccc([nH]4)c(-c4c(F)cccc4F)c4nc(c(-c5c(F)cccc5F)c5ccc2[nH]5)C=C4)C=C3)cc1
REMARK SMILES IDX 28 1 27 2 26 3 1 4 2 5 3 7 4 8 5 9 6 10 22 11 7 12 21 13
REMARK SMILES IDX 8 14 23 15 24 16 25 17 9 18 10 19 11 20 12 21 13 22 14 23
REMARK SMILES IDX 19 24 15 25 18 26 20 27 16 28 17 29 29 30 30 31 31 32 32 33
REMARK SMILES IDX 33 34 34 35 35 37 36 38 37 39 89 40 38 41 88 42 39 43 40 44
REMARK SMILES IDX 41 45 82 46 42 47 87 48 81 49 83 50 43 51 86 52 80 53 79 54
REMARK SMILES IDX 44 56 70 57 53 58 69 59 54 60 57 61 68 62 84 63 55 64 56 65
REMARK SMILES IDX 67 67 85 68 58 69 45 70 46 71 51 72 47 73 48 74 50 75 52 76
REMARK SMILES IDX 49 77 71 78 72 79 77 80 73 81 74 82 76 83 78 84 75 85 59 86
REMARK SMILES IDX 60 87 65 88 61 89 62 90 64 91 66 92 63 93
REMARK H PARENT 26 6 33 36 83 55 57 66
REMARK Flexibility Score: inf
ROOT
ATOM      1  C   UNL A   1      33.591  28.982  25.574  1.00  0.00     0.021 C 
ENDROOT
BRANCH   1   2
ATOM      2  C   UNL A   1      32.872  27.820  24.895  1.00  0.00     0.116 C 
BRANCH   2   3
ATOM      3  N   UNL A   1      33.238  26.522  25.430  1.00  0.00    -0.353 N 
ATOM      4  O   UNL A   1      31.269  26.092  26.547  1.00  0.00    -0.271 OA
ATOM      5  C   UNL A   1      32.361  25.719  26.127  1.00  0.00     0.257 C 
ATOM      6  H   UNL A   1      34.156  26.199  25.287  1.00  0.00     0.163 HD
BRANCH   5   7
ATOM      7  C   UNL A   1      32.874  24.293  26.352  1.00  0.00     0.329 C 
BRANCH   7   8
ATOM      8  O   UNL A   1      33.392  23.701  25.153  1.00  0.00    -0.477 OA
BRANCH   8   9
ATOM      9  C   UNL A   1      34.670  23.237  25.310  1.00  0.00     0.197 A 
ATOM     10  C   UNL A   1      35.730  24.125  25.110  1.00  0.00     0.054 A 
ATOM     11  C   UNL A   1      34.966  21.897  25.561  1.00  0.00     0.311 A 
ATOM     12  C   UNL A   1      37.059  23.676  25.198  1.00  0.00     0.012 A 
ATOM     13  C   UNL A   1      36.282  21.445  25.686  1.00  0.00     0.098 A 
ATOM     14  C   UNL A   1      37.339  22.335  25.490  1.00  0.00    -0.018 A 
BRANCH  11  15
ATOM     15  N   UNL A   1      33.930  20.895  25.611  1.00  0.00     0.066 N 
ATOM     16  O   UNL A   1      33.599  20.371  24.539  1.00  0.00    -0.258 OA
ATOM     17  O   UNL A   1      33.409  20.672  26.713  1.00  0.00    -0.258 OA
ENDBRANCH  11  15
BRANCH  14  18
ATOM     18  C   UNL A   1      38.690  21.781  25.592  1.00  0.00     0.012 C 
ATOM     19  C   UNL A   1      39.516  22.003  26.625  1.00  0.00     0.053 C 
BRANCH  19  20
ATOM     20  C   UNL A   1      40.935  21.563  26.599  1.00  0.00     0.188 C 
ATOM     21  O   UNL A   1      41.226  20.450  26.173  1.00  0.00    -0.289 OA
BRANCH  20  22
ATOM     22  C   UNL A   1      41.999  22.472  27.084  1.00  0.00     0.058 A 
ATOM     23  C   UNL A   1      42.010  22.836  28.437  1.00  0.00     0.018 A 
ATOM     24  C   UNL A   1      42.971  22.993  26.222  1.00  0.00     0.137 A 
ATOM     25  C   UNL A   1      43.016  23.678  28.919  1.00  0.00     0.040 A 
ATOM     26  C   UNL A   1      43.972  23.832  26.699  1.00  0.00     0.079 A 
ATOM     27  F   UNL A   1      42.961  22.703  24.913  1.00  0.00    -0.206 F 
ATOM     28  C   UNL A   1      43.989  24.161  28.048  1.00  0.00     0.126 A 
ATOM     29  F   UNL A   1      44.953  24.962  28.517  1.00  0.00    -0.207 F 
ENDBRANCH  20  22
ENDBRANCH  19  20
ENDBRANCH  14  18
ENDBRANCH   8   9
ENDBRANCH   7   8
ENDBRANCH   5   7
ENDBRANCH   2   3
ENDBRANCH   1   2
BRANCH   1  30
ATOM     30  C   UNL A   1      32.821  29.695  26.691  1.00  0.00     0.002 C 
BRANCH  30  31
ATOM     31  C   UNL A   1      31.522  30.403  26.296  1.00  0.00     0.002 C 
BRANCH  31  32
ATOM     32  C   UNL A   1      31.420  31.889  26.640  1.00  0.00     0.021 C 
BRANCH  32  33
ATOM     33  C   UNL A   1      32.714  32.563  27.086  1.00  0.00     0.116 C 
BRANCH  33  34
ATOM     34  N   UNL A   1      32.518  33.901  27.622  1.00  0.00    -0.352 N 
ATOM     35  C   UNL A   1      33.218  34.562  28.603  1.00  0.00     0.251 C 
ATOM     36  H   UNL A   1      31.775  34.407  27.223  1.00  0.00     0.163 HD
ATOM     37  O   UNL A   1      32.847  35.672  28.976  1.00  0.00    -0.269 OA
BRANCH  35  38
ATOM     38  C   UNL A   1      34.393  33.931  29.247  1.00  0.00     0.039 A 
ATOM     39  C   UNL A   1      34.175  32.971  30.240  1.00  0.00     0.014 A 
ATOM     40  C   UNL A   1      35.699  34.282  28.893  1.00  0.00     0.014 A 
ATOM     41  C   UNL A   1      35.260  32.310  30.824  1.00  0.00     0.010 A 
ATOM     42  C   UNL A   1      36.778  33.581  29.433  1.00  0.00     0.010 A 
ATOM     43  C   UNL A   1      36.569  32.585  30.398  1.00  0.00    -0.014 A 
BRANCH  43  44
ATOM     44  C   UNL A   1      37.727  31.827  30.936  1.00  0.00     0.031 A 
ATOM     45  C   UNL A   1      38.301  32.167  32.282  1.00  0.00     0.074 A 
ATOM     46  C   UNL A   1      38.309  30.876  30.179  1.00  0.00     0.049 A 
ATOM     47  N   UNL A   1      39.356  31.673  32.879  1.00  0.00    -0.248 NA
ATOM     48  C   UNL A   1      37.611  33.216  33.049  1.00  0.00     0.031 C 
ATOM     49  C   UNL A   1      37.879  30.481  28.837  1.00  0.00     0.029 A 
ATOM     50  N   UNL A   1      39.399  30.081  30.426  1.00  0.00    -0.354 N 
ATOM     51  C   UNL A   1      39.469  32.364  34.079  1.00  0.00     0.074 A 
ATOM     52  C   UNL A   1      38.395  33.334  34.110  1.00  0.00     0.031 C 
ATOM     53  C   UNL A   1      38.687  29.508  28.386  1.00  0.00     0.029 A 
ATOM     54  C   UNL A   1      39.709  29.234  29.391  1.00  0.00     0.049 A 
ATOM     55  H   UNL A   1      39.912  30.114  31.266  1.00  0.00     0.167 HD
ATOM     56  C   UNL A   1      40.374  32.192  35.073  1.00  0.00     0.037 A 
ATOM     57  C   UNL A   1      40.708  28.340  29.262  1.00  0.00     0.037 A 
ATOM     58  C   UNL A   1      41.422  31.207  35.060  1.00  0.00     0.049 A 
ATOM     59  C   UNL A   1      41.692  28.161  30.382  1.00  0.00     0.074 A 
ATOM     60  C   UNL A   1      42.347  30.917  36.049  1.00  0.00     0.029 A 
ATOM     61  N   UNL A   1      41.685  30.349  34.004  1.00  0.00    -0.354 N 
ATOM     62  N   UNL A   1      41.751  28.781  31.535  1.00  0.00    -0.248 NA
ATOM     63  C   UNL A   1      42.746  27.155  30.186  1.00  0.00     0.031 C 
ATOM     64  C   UNL A   1      43.188  29.903  35.579  1.00  0.00     0.029 A 
ATOM     65  C   UNL A   1      42.767  29.540  34.311  1.00  0.00     0.049 A 
ATOM     66  H   UNL A   1      41.179  30.319  33.160  1.00  0.00     0.167 HD
ATOM     67  C   UNL A   1      42.829  28.226  32.210  1.00  0.00     0.074 A 
ATOM     68  C   UNL A   1      43.391  27.211  31.342  1.00  0.00     0.031 C 
ATOM     69  C   UNL A   1      43.310  28.530  33.440  1.00  0.00     0.037 A 
BRANCH  56  70
ATOM     70  C   UNL A   1      40.262  33.094  36.267  1.00  0.00     0.057 A 
ATOM     71  C   UNL A   1      41.040  34.251  36.389  1.00  0.00     0.134 A 
ATOM     72  C   UNL A   1      39.345  32.819  37.288  1.00  0.00     0.134 A 
ATOM     73  F   UNL A   1      41.946  34.564  35.449  1.00  0.00    -0.206 F 
ATOM     74  C   UNL A   1      40.927  35.092  37.497  1.00  0.00     0.040 A 
ATOM     75  C   UNL A   1      39.206  33.664  38.390  1.00  0.00     0.040 A 
ATOM     76  F   UNL A   1      38.564  31.728  37.228  1.00  0.00    -0.206 F 
ATOM     77  C   UNL A   1      40.004  34.801  38.499  1.00  0.00     0.006 A 
ENDBRANCH  56  70
BRANCH  57  78
ATOM     78  C   UNL A   1      40.816  27.526  28.027  1.00  0.00     0.057 A 
ATOM     79  C   UNL A   1      40.091  26.338  27.885  1.00  0.00     0.134 A 
ATOM     80  C   UNL A   1      41.642  27.912  26.965  1.00  0.00     0.134 A 
ATOM     81  F   UNL A   1      39.298  25.909  28.878  1.00  0.00    -0.206 F 
ATOM     82  C   UNL A   1      40.193  25.553  26.735  1.00  0.00     0.040 A 
ATOM     83  C   UNL A   1      41.739  27.147  25.802  1.00  0.00     0.040 A 
ATOM     84  F   UNL A   1      42.358  29.043  27.041  1.00  0.00    -0.206 F 
ATOM     85  C   UNL A   1      41.016  25.960  25.687  1.00  0.00     0.006 A 
ENDBRANCH  57  78
BRANCH  69  86
ATOM     86  C   UNL A   1      44.483  27.736  33.931  1.00  0.00     0.057 A 
ATOM     87  C   UNL A   1      45.799  28.176  33.745  1.00  0.00     0.134 A 
ATOM     88  C   UNL A   1      44.291  26.536  34.628  1.00  0.00     0.134 A 
ATOM     89  F   UNL A   1      46.048  29.310  33.072  1.00  0.00    -0.206 F 
ATOM     90  C   UNL A   1      46.885  27.441  34.221  1.00  0.00     0.040 A 
ATOM     91  C   UNL A   1      45.369  25.803  35.126  1.00  0.00     0.040 A 
ATOM     92  F   UNL A   1      43.054  26.064  34.842  1.00  0.00    -0.206 F 
ATOM     93  C   UNL A   1      46.671  26.254  34.919  1.00  0.00     0.006 A 
ENDBRANCH  69  86
ENDBRANCH  43  44
ENDBRANCH  35  38
ENDBRANCH  33  34
ENDBRANCH  32  33
ENDBRANCH  31  32
ENDBRANCH  30  31
ENDBRANCH   1  30
TORSDOF 19
ENDMDL
MODEL 3
REMARK VINA RESULT:     -10.8      3.639      9.644
REMARK SMILES O=C(COc1ccc(/C=C/C(=O)c2ccc(F)cc2F)cc1[N+](=O)[O-])NCCCCCCNC(=O)c1ccc(-c2c3nc(c(-c4c(F)cccc4F)c4ccc([nH]4)c(-c4c(F)cccc4F)c4nc(c(-c5c(F)cccc5F)c5ccc2[nH]5)C=C4)C=C3)cc1
REMARK SMILES IDX 28 1 27 2 26 3 1 4 2 5 3 7 4 8 5 9 6 10 22 11 7 12 21 13
REMARK SMILES IDX 8 14 23 15 24 16 25 17 9 18 10 19 11 20 12 21 13 22 14 23
REMARK SMILES IDX 19 24 15 25 18 26 20 27 16 28 17 29 29 30 30 31 31 32 32 33
REMARK SMILES IDX 33 34 34 35 35 37 36 38 37 39 89 40 38 41 88 42 39 43 40 44
REMARK SMILES IDX 41 45 82 46 42 47 87 48 81 49 83 50 43 51 86 52 80 53 79 54
REMARK SMILES IDX 44 56 70 57 53 58 69 59 54 60 57 61 68 62 84 63 55 64 56 65
REMARK SMILES IDX 67 67 85 68 58 69 45 70 46 71 51 72 47 73 48 74 50 75 52 76
REMARK SMILES IDX 49 77 71 78 72 79 77 80 73 81 74 82 76 83 78 84 75 85 59 86
REMARK SMILES IDX 60 87 65 88 61 89 62 90 64 91 66 92 63 93
REMARK H PARENT 26 6 33 36 83 55 57 66
REMARK Flexibility Score: inf
ROOT
ATOM      1  C   UNL A   1      33.426  28.436  26.015  1.00  0.00     0.021 C 
ENDROOT
BRANCH   1   2
ATOM      2  C   UNL A   1      32.497  27.333  25.517  1.00  0.00     0.116 C 
BRANCH   2   3
ATOM      3  N   UNL A   1      32.928  26.000  25.892  1.00  0.00    -0.353 N 
ATOM      4  O   UNL A   1      30.921  25.267  26.754  1.00  0.00    -0.271 OA
ATOM      5  C   UNL A   1      32.070  25.041  26.386  1.00  0.00     0.257 C 
ATOM      6  H   UNL A   1      33.879  25.770  25.788  1.00  0.00     0.163 HD
BRANCH   5   7
ATOM      7  C   UNL A   1      32.683  23.638  26.451  1.00  0.00     0.329 C 
BRANCH   7   8
ATOM      8  O   UNL A   1      33.264  23.235  25.203  1.00  0.00    -0.477 OA
BRANCH   8   9
ATOM      9  C   UNL A   1      34.574  22.861  25.334  1.00  0.00     0.197 A 
ATOM     10  C   UNL A   1      35.559  23.850  25.268  1.00  0.00     0.054 A 
ATOM     11  C   UNL A   1      34.978  21.529  25.429  1.00  0.00     0.311 A 
ATOM     12  C   UNL A   1      36.919  23.504  25.333  1.00  0.00     0.012 A 
ATOM     13  C   UNL A   1      36.325  21.174  25.531  1.00  0.00     0.098 A 
ATOM     14  C   UNL A   1      37.307  22.164  25.469  1.00  0.00    -0.018 A 
BRANCH  11  15
ATOM     15  N   UNL A   1      34.029  20.447  25.334  1.00  0.00     0.066 N 
ATOM     16  O   UNL A   1      33.414  20.143  26.365  1.00  0.00    -0.258 OA
ATOM     17  O   UNL A   1      33.939  19.867  24.243  1.00  0.00    -0.258 OA
ENDBRANCH  11  15
BRANCH  14  18
ATOM     18  C   UNL A   1      38.698  21.714  25.536  1.00  0.00     0.012 C 
ATOM     19  C   UNL A   1      39.477  21.844  26.620  1.00  0.00     0.053 C 
BRANCH  19  20
ATOM     20  C   UNL A   1      40.929  21.531  26.580  1.00  0.00     0.188 C 
ATOM     21  O   UNL A   1      41.313  20.447  26.154  1.00  0.00    -0.289 OA
BRANCH  20  22
ATOM     22  C   UNL A   1      41.913  22.533  27.051  1.00  0.00     0.058 A 
ATOM     23  C   UNL A   1      41.932  22.873  28.410  1.00  0.00     0.018 A 
ATOM     24  C   UNL A   1      42.801  23.162  26.170  1.00  0.00     0.137 A 
ATOM     25  C   UNL A   1      42.865  23.802  28.879  1.00  0.00     0.040 A 
ATOM     26  C   UNL A   1      43.730  24.087  26.634  1.00  0.00     0.079 A 
ATOM     27  F   UNL A   1      42.778  22.894  24.857  1.00  0.00    -0.206 F 
ATOM     28  C   UNL A   1      43.757  24.394  27.988  1.00  0.00     0.126 A 
ATOM     29  F   UNL A   1      44.653  25.278  28.444  1.00  0.00    -0.207 F 
ENDBRANCH  20  22
ENDBRANCH  19  20
ENDBRANCH  14  18
ENDBRANCH   8   9
ENDBRANCH   7   8
ENDBRANCH   5   7
ENDBRANCH   2   3
ENDBRANCH   1   2
BRANCH   1  30
ATOM     30  C   UNL A   1      32.768  29.568  26.813  1.00  0.00     0.002 C 
BRANCH  30  31
ATOM     31  C   UNL A   1      31.673  30.370  26.105  1.00  0.00     0.002 C 
BRANCH  31  32
ATOM     32  C   UNL A   1      31.456  31.804  26.587  1.00  0.00     0.021 C 
BRANCH  32  33
ATOM     33  C   UNL A   1      32.648  32.470  27.269  1.00  0.00     0.116 C 
BRANCH  33  34
ATOM     34  N   UNL A   1      32.392  33.841  27.681  1.00  0.00    -0.352 N 
ATOM     35  C   UNL A   1      33.119  34.653  28.517  1.00  0.00     0.251 C 
ATOM     36  H   UNL A   1      31.579  34.246  27.304  1.00  0.00     0.163 HD
ATOM     37  O   UNL A   1      32.693  35.769  28.808  1.00  0.00    -0.269 OA
BRANCH  35  38
ATOM     38  C   UNL A   1      34.393  34.182  29.108  1.00  0.00     0.039 A 
ATOM     39  C   UNL A   1      34.348  33.465  30.307  1.00  0.00     0.014 A 
ATOM     40  C   UNL A   1      35.624  34.448  28.502  1.00  0.00     0.014 A 
ATOM     41  C   UNL A   1      35.524  32.951  30.860  1.00  0.00     0.010 A 
ATOM     42  C   UNL A   1      36.791  33.886  29.022  1.00  0.00     0.010 A 
ATOM     43  C   UNL A   1      36.751  33.127  30.201  1.00  0.00    -0.014 A 
BRANCH  43  44
ATOM     44  C   UNL A   1      37.998  32.508  30.720  1.00  0.00     0.031 A 
ATOM     45  C   UNL A   1      38.537  31.249  30.102  1.00  0.00     0.074 A 
ATOM     46  C   UNL A   1      38.608  33.041  31.796  1.00  0.00     0.049 A 
ATOM     47  N   UNL A   1      39.561  30.521  30.468  1.00  0.00    -0.248 NA
ATOM     48  C   UNL A   1      37.816  30.727  28.930  1.00  0.00     0.031 C 
ATOM     49  C   UNL A   1      38.162  34.235  32.517  1.00  0.00     0.029 A 
ATOM     50  N   UNL A   1      39.726  32.637  32.481  1.00  0.00    -0.354 N 
ATOM     51  C   UNL A   1      39.596  29.447  29.589  1.00  0.00     0.074 A 
ATOM     52  C   UNL A   1      38.470  29.600  28.691  1.00  0.00     0.031 C 
ATOM     53  C   UNL A   1      39.006  34.474  33.534  1.00  0.00     0.029 A 
ATOM     54  C   UNL A   1      40.032  33.436  33.556  1.00  0.00     0.049 A 
ATOM     55  H   UNL A   1      40.258  31.849  32.227  1.00  0.00     0.167 HD
ATOM     56  C   UNL A   1      40.494  28.435  29.523  1.00  0.00     0.037 A 
ATOM     57  C   UNL A   1      41.023  33.340  34.461  1.00  0.00     0.037 A 
ATOM     58  C   UNL A   1      41.632  28.297  30.393  1.00  0.00     0.049 A 
ATOM     59  C   UNL A   1      42.013  32.215  34.360  1.00  0.00     0.074 A 
ATOM     60  C   UNL A   1      42.632  27.340  30.361  1.00  0.00     0.029 A 
ATOM     61  N   UNL A   1      41.922  29.143  31.452  1.00  0.00    -0.354 N 
ATOM     62  N   UNL A   1      42.067  31.239  33.487  1.00  0.00    -0.248 NA
ATOM     63  C   UNL A   1      43.084  32.180  35.367  1.00  0.00     0.031 C 
ATOM     64  C   UNL A   1      43.512  27.590  31.420  1.00  0.00     0.029 A 
ATOM     65  C   UNL A   1      43.077  28.722  32.090  1.00  0.00     0.049 A 
ATOM     66  H   UNL A   1      41.387  29.928  31.712  1.00  0.00     0.167 HD
ATOM     67  C   UNL A   1      43.186  30.490  33.823  1.00  0.00     0.074 A 
ATOM     68  C   UNL A   1      43.789  31.129  34.975  1.00  0.00     0.031 C 
ATOM     69  C   UNL A   1      43.670  29.372  33.230  1.00  0.00     0.037 A 
BRANCH  56  70
ATOM     70  C   UNL A   1      40.281  27.395  28.464  1.00  0.00     0.057 A 
ATOM     71  C   UNL A   1      40.892  27.488  27.208  1.00  0.00     0.134 A 
ATOM     72  C   UNL A   1      39.483  26.272  28.715  1.00  0.00     0.134 A 
ATOM     73  F   UNL A   1      41.660  28.545  26.901  1.00  0.00    -0.206 F 
ATOM     74  C   UNL A   1      40.698  26.512  26.228  1.00  0.00     0.040 A 
ATOM     75  C   UNL A   1      39.299  25.278  27.751  1.00  0.00     0.040 A 
ATOM     76  F   UNL A   1      38.874  26.119  29.901  1.00  0.00    -0.206 F 
ATOM     77  C   UNL A   1      39.903  25.401  26.501  1.00  0.00     0.006 A 
ENDBRANCH  56  70
BRANCH  57  78
ATOM     78  C   UNL A   1      41.144  34.356  35.534  1.00  0.00     0.057 A 
ATOM     79  C   UNL A   1      40.536  34.160  36.779  1.00  0.00     0.134 A 
ATOM     80  C   UNL A   1      41.863  35.541  35.344  1.00  0.00     0.134 A 
ATOM     81  F   UNL A   1      39.817  33.052  37.012  1.00  0.00    -0.206 F 
ATOM     82  C   UNL A   1      40.628  35.114  37.795  1.00  0.00     0.040 A 
ATOM     83  C   UNL A   1      41.979  36.495  36.356  1.00  0.00     0.040 A 
ATOM     84  F   UNL A   1      42.471  35.783  34.173  1.00  0.00    -0.206 F 
ATOM     85  C   UNL A   1      41.355  36.284  37.585  1.00  0.00     0.006 A 
ENDBRANCH  57  78
BRANCH  69  86
ATOM     86  C   UNL A   1      44.928  28.787  33.798  1.00  0.00     0.057 A 
ATOM     87  C   UNL A   1      46.193  29.208  33.372  1.00  0.00     0.134 A 
ATOM     88  C   UNL A   1      44.871  27.816  34.806  1.00  0.00     0.134 A 
ATOM     89  F   UNL A   1      46.313  30.124  32.399  1.00  0.00    -0.206 F 
ATOM     90  C   UNL A   1      47.360  28.672  33.919  1.00  0.00     0.040 A 
ATOM     91  C   UNL A   1      46.030  27.288  35.375  1.00  0.00     0.040 A 
ATOM     92  F   UNL A   1      43.688  27.375  35.260  1.00  0.00    -0.206 F 
ATOM     93  C   UNL A   1      47.280  27.714  34.928  1.00  0.00     0.006 A 
ENDBRANCH  69  86
ENDBRANCH  43  44
ENDBRANCH  35  38
ENDBRANCH  33  34
ENDBRANCH  32  33
ENDBRANCH  31  32
ENDBRANCH  30  31
ENDBRANCH   1  30
TORSDOF 19
ENDMDL
