MODEL 1
REMARK VINA RESULT:     -11.5      0.000      0.000
REMARK SMILES O=C(NCCCCCCNC(=O)c1ccc(-c2c3nc(c(-c4c(F)cccc4F)c4ccc([nH]4)c(-c4c(F)cccc4F)c4nc(c(-c5c(F)cccc5F)c5ccc2[nH]5)C=C4)C=C3)cc1)C1=Cc2c(Cl)ccc(Cl)c2O[C@@H]1C(F)(F)F
REMARK SMILES IDX 7 1 6 2 5 3 4 4 3 5 1 6 2 7 67 9 68 10 78 11 69 12 77 13
REMARK SMILES IDX 70 14 76 15 71 16 72 17 74 18 73 19 75 20 79 21 80 22 81 23
REMARK SMILES IDX 82 24 8 25 9 26 10 27 11 28 12 30 13 31 14 32 66 33 15 34
REMARK SMILES IDX 65 35 16 36 17 37 18 38 59 39 19 40 64 41 58 42 60 43 20 44
REMARK SMILES IDX 63 45 57 46 56 47 21 49 47 50 30 51 46 52 31 53 34 54 45 55
REMARK SMILES IDX 61 56 32 57 33 58 44 60 62 61 35 62 22 63 23 64 28 65 24 66
REMARK SMILES IDX 25 67 27 68 29 69 26 70 48 71 49 72 54 73 50 74 51 75 53 76
REMARK SMILES IDX 55 77 52 78 36 79 37 80 42 81 38 82 39 83 41 84 43 85 40 86
REMARK H PARENT 3 8 10 29 60 48 34 59
REMARK Flexibility Score: inf
ROOT
ATOM      1  C   UNL A   1      36.574  20.833  24.675  1.00  0.00     0.002 C 
ENDROOT
BRANCH   1   2
ATOM      2  C   UNL A   1      35.162  20.328  25.001  1.00  0.00     0.002 C 
BRANCH   2   3
ATOM      3  C   UNL A   1      34.405  21.077  26.095  1.00  0.00     0.021 C 
BRANCH   3   4
ATOM      4  C   UNL A   1      32.904  21.226  25.882  1.00  0.00     0.116 C 
BRANCH   4   5
ATOM      5  N   UNL A   1      32.251  22.212  26.724  1.00  0.00    -0.352 N 
ATOM      6  O   UNL A   1      31.218  24.135  27.246  1.00  0.00    -0.270 OA
ATOM      7  C   UNL A   1      31.948  23.521  26.470  1.00  0.00     0.251 C 
ATOM      8  H   UNL A   1      31.987  21.889  27.616  1.00  0.00     0.163 HD
BRANCH   7   9
ATOM      9  C   UNL A   1      32.391  24.218  25.227  1.00  0.00     0.067 C 
ATOM     10  C   UNL A   1      31.549  24.942  24.470  1.00  0.00     0.027 C 
ATOM     11  C   UNL A   1      33.852  24.585  25.243  1.00  0.00     0.314 C 
ATOM     12  C   UNL A   1      31.812  26.408  24.584  1.00  0.00     0.037 A 
ATOM     13  O   UNL A   1      34.024  25.993  25.551  1.00  0.00    -0.474 OA
ATOM     14  C   UNL A   1      30.780  27.332  24.326  1.00  0.00     0.052 A 
ATOM     15  C   UNL A   1      32.986  26.843  25.238  1.00  0.00     0.148 A 
ATOM     16  Cl  UNL A   1      29.299  26.858  23.568  1.00  0.00    -0.084 Cl
ATOM     17  C   UNL A   1      30.877  28.643  24.795  1.00  0.00     0.023 A 
ATOM     18  C   UNL A   1      33.068  28.162  25.702  1.00  0.00     0.083 A 
ATOM     19  C   UNL A   1      32.009  29.050  25.502  1.00  0.00     0.026 A 
ATOM     20  Cl  UNL A   1      34.414  28.700  26.640  1.00  0.00    -0.080 Cl
BRANCH  11  21
ATOM     21  C   UNL A   1      34.574  24.199  23.942  1.00  0.00     0.429 C 
ATOM     22  F   UNL A   1      34.109  23.028  23.448  1.00  0.00    -0.167 F 
ATOM     23  F   UNL A   1      34.403  25.132  22.976  1.00  0.00    -0.167 F 
ATOM     24  F   UNL A   1      35.910  24.056  24.122  1.00  0.00    -0.167 F 
ENDBRANCH  11  21
ENDBRANCH   7   9
ENDBRANCH   4   5
ENDBRANCH   3   4
ENDBRANCH   2   3
ENDBRANCH   1   2
BRANCH   1  25
ATOM     25  C   UNL A   1      37.715  19.817  24.789  1.00  0.00     0.021 C 
BRANCH  25  26
ATOM     26  C   UNL A   1      38.799  20.139  25.814  1.00  0.00     0.116 C 
BRANCH  26  27
ATOM     27  N   UNL A   1      39.895  19.184  25.797  1.00  0.00    -0.352 N 
ATOM     28  C   UNL A   1      41.241  19.369  25.968  1.00  0.00     0.251 C 
ATOM     29  H   UNL A   1      39.624  18.250  25.636  1.00  0.00     0.163 HD
ATOM     30  O   UNL A   1      42.012  18.428  25.763  1.00  0.00    -0.269 OA
BRANCH  28  31
ATOM     31  C   UNL A   1      41.793  20.681  26.373  1.00  0.00     0.039 A 
ATOM     32  C   UNL A   1      42.105  21.611  25.376  1.00  0.00     0.014 A 
ATOM     33  C   UNL A   1      42.051  20.988  27.712  1.00  0.00     0.014 A 
ATOM     34  C   UNL A   1      42.621  22.862  25.724  1.00  0.00     0.010 A 
ATOM     35  C   UNL A   1      42.495  22.263  28.063  1.00  0.00     0.010 A 
ATOM     36  C   UNL A   1      42.791  23.211  27.072  1.00  0.00    -0.014 A 
BRANCH  36  37
ATOM     37  C   UNL A   1      43.288  24.559  27.460  1.00  0.00     0.031 A 
ATOM     38  C   UNL A   1      42.321  25.634  27.877  1.00  0.00     0.074 A 
ATOM     39  C   UNL A   1      44.606  24.830  27.391  1.00  0.00     0.049 A 
ATOM     40  N   UNL A   1      42.557  26.884  28.189  1.00  0.00    -0.248 NA
ATOM     41  C   UNL A   1      40.898  25.264  27.926  1.00  0.00     0.031 C 
ATOM     42  C   UNL A   1      45.642  23.889  26.962  1.00  0.00     0.029 A 
ATOM     43  N   UNL A   1      45.300  25.981  27.672  1.00  0.00    -0.354 N 
ATOM     44  C   UNL A   1      41.318  27.447  28.466  1.00  0.00     0.074 A 
ATOM     45  C   UNL A   1      40.326  26.421  28.225  1.00  0.00     0.031 C 
ATOM     46  C   UNL A   1      46.838  24.494  27.023  1.00  0.00     0.029 A 
ATOM     47  C   UNL A   1      46.653  25.875  27.459  1.00  0.00     0.049 A 
ATOM     48  H   UNL A   1      44.868  26.805  27.994  1.00  0.00     0.167 HD
ATOM     49  C   UNL A   1      41.031  28.694  28.908  1.00  0.00     0.037 A 
ATOM     50  C   UNL A   1      47.633  26.789  27.588  1.00  0.00     0.037 A 
ATOM     51  C   UNL A   1      42.019  29.710  29.162  1.00  0.00     0.049 A 
ATOM     52  C   UNL A   1      47.289  28.174  28.064  1.00  0.00     0.074 A 
ATOM     53  C   UNL A   1      41.833  30.994  29.646  1.00  0.00     0.029 A 
ATOM     54  N   UNL A   1      43.382  29.557  28.952  1.00  0.00    -0.354 N 
ATOM     55  N   UNL A   1      46.117  28.673  28.375  1.00  0.00    -0.248 NA
ATOM     56  C   UNL A   1      48.403  29.120  28.215  1.00  0.00     0.031 C 
ATOM     57  C   UNL A   1      43.076  31.632  29.686  1.00  0.00     0.029 A 
ATOM     58  C   UNL A   1      44.045  30.728  29.278  1.00  0.00     0.049 A 
ATOM     59  H   UNL A   1      43.813  28.738  28.619  1.00  0.00     0.167 HD
ATOM     60  C   UNL A   1      46.356  29.979  28.784  1.00  0.00     0.074 A 
ATOM     61  C   UNL A   1      47.786  30.189  28.698  1.00  0.00     0.031 C 
ATOM     62  C   UNL A   1      45.471  30.920  29.194  1.00  0.00     0.037 A 
BRANCH  49  63
ATOM     63  C   UNL A   1      39.587  29.027  29.157  1.00  0.00     0.057 A 
ATOM     64  C   UNL A   1      39.006  28.883  30.424  1.00  0.00     0.134 A 
ATOM     65  C   UNL A   1      38.778  29.530  28.131  1.00  0.00     0.134 A 
ATOM     66  F   UNL A   1      39.722  28.396  31.449  1.00  0.00    -0.206 F 
ATOM     67  C   UNL A   1      37.666  29.201  30.654  1.00  0.00     0.040 A 
ATOM     68  C   UNL A   1      37.445  29.879  28.356  1.00  0.00     0.040 A 
ATOM     69  F   UNL A   1      39.271  29.701  26.894  1.00  0.00    -0.206 F 
ATOM     70  C   UNL A   1      36.883  29.708  29.619  1.00  0.00     0.006 A 
ENDBRANCH  49  63
BRANCH  50  71
ATOM     71  C   UNL A   1      49.038  26.425  27.269  1.00  0.00     0.057 A 
ATOM     72  C   UNL A   1      49.543  26.549  25.969  1.00  0.00     0.134 A 
ATOM     73  C   UNL A   1      49.905  25.932  28.252  1.00  0.00     0.134 A 
ATOM     74  F   UNL A   1      48.757  26.998  24.979  1.00  0.00    -0.206 F 
ATOM     75  C   UNL A   1      50.850  26.173  25.654  1.00  0.00     0.040 A 
ATOM     76  C   UNL A   1      51.222  25.580  27.957  1.00  0.00     0.040 A 
ATOM     77  F   UNL A   1      49.486  25.800  29.519  1.00  0.00    -0.206 F 
ATOM     78  C   UNL A   1      51.695  25.691  26.650  1.00  0.00     0.006 A 
ENDBRANCH  50  71
BRANCH  62  79
ATOM     79  C   UNL A   1      46.026  32.250  29.614  1.00  0.00     0.057 A 
ATOM     80  C   UNL A   1      46.439  32.500  30.928  1.00  0.00     0.134 A 
ATOM     81  C   UNL A   1      46.186  33.281  28.679  1.00  0.00     0.134 A 
ATOM     82  F   UNL A   1      46.303  31.558  31.875  1.00  0.00    -0.206 F 
ATOM     83  C   UNL A   1      46.968  33.736  31.304  1.00  0.00     0.040 A 
ATOM     84  C   UNL A   1      46.739  34.512  29.037  1.00  0.00     0.040 A 
ATOM     85  F   UNL A   1      45.819  33.105  27.401  1.00  0.00    -0.206 F 
ATOM     86  C   UNL A   1      47.126  34.744  30.354  1.00  0.00     0.006 A 
ENDBRANCH  62  79
ENDBRANCH  36  37
ENDBRANCH  28  31
ENDBRANCH  26  27
ENDBRANCH  25  26
ENDBRANCH   1  25
TORSDOF 14
ENDMDL
MODEL 2
REMARK VINA RESULT:     -11.5      4.945      9.962
REMARK SMILES O=C(NCCCCCCNC(=O)c1ccc(-c2c3nc(c(-c4c(F)cccc4F)c4ccc([nH]4)c(-c4c(F)cccc4F)c4nc(c(-c5c(F)cccc5F)c5ccc2[nH]5)C=C4)C=C3)cc1)C1=Cc2c(Cl)ccc(Cl)c2O[C@@H]1C(F)(F)F
REMARK SMILES IDX 7 1 6 2 5 3 4 4 3 5 1 6 2 7 67 9 68 10 78 11 69 12 77 13
REMARK SMILES IDX 70 14 76 15 71 16 72 17 74 18 73 19 75 20 79 21 80 22 81 23
REMARK SMILES IDX 82 24 8 25 9 26 10 27 11 28 12 30 13 31 14 32 66 33 15 34
REMARK SMILES IDX 65 35 16 36 17 37 18 38 59 39 19 40 64 41 58 42 60 43 20 44
REMARK SMILES IDX 63 45 57 46 56 47 21 49 47 50 30 51 46 52 31 53 34 54 45 55
REMARK SMILES IDX 61 56 32 57 33 58 44 60 62 61 35 62 22 63 23 64 28 65 24 66
REMARK SMILES IDX 25 67 27 68 29 69 26 70 48 71 49 72 54 73 50 74 51 75 53 76
REMARK SMILES IDX 55 77 52 78 36 79 37 80 42 81 38 82 39 83 41 84 43 85 40 86
REMARK H PARENT 3 8 10 29 60 48 34 59
REMARK Flexibility Score: inf
ROOT
ATOM      1  C   UNL A   1      31.421  30.762  25.929  1.00  0.00     0.002 C 
ENDROOT
BRANCH   1   2
ATOM      2  C   UNL A   1      32.561  29.859  26.424  1.00  0.00     0.002 C 
BRANCH   2   3
ATOM      3  C   UNL A   1      32.151  28.564  27.122  1.00  0.00     0.021 C 
BRANCH   3   4
ATOM      4  C   UNL A   1      31.398  27.556  26.264  1.00  0.00     0.116 C 
BRANCH   4   5
ATOM      5  N   UNL A   1      31.246  26.234  26.845  1.00  0.00    -0.352 N 
ATOM      6  O   UNL A   1      31.723  24.078  27.245  1.00  0.00    -0.270 OA
ATOM      7  C   UNL A   1      31.839  25.051  26.501  1.00  0.00     0.251 C 
ATOM      8  H   UNL A   1      30.619  26.183  27.603  1.00  0.00     0.163 HD
BRANCH   7   9
ATOM      9  C   UNL A   1      32.711  24.913  25.298  1.00  0.00     0.067 C 
ATOM     10  C   UNL A   1      34.040  24.731  25.391  1.00  0.00     0.027 C 
ATOM     11  C   UNL A   1      31.984  24.360  24.101  1.00  0.00     0.314 C 
ATOM     12  C   UNL A   1      34.443  23.342  25.015  1.00  0.00     0.037 A 
ATOM     13  O   UNL A   1      32.287  22.952  23.922  1.00  0.00    -0.474 OA
ATOM     14  C   UNL A   1      35.637  22.793  25.523  1.00  0.00     0.052 A 
ATOM     15  C   UNL A   1      33.489  22.493  24.413  1.00  0.00     0.148 A 
ATOM     16  Cl  UNL A   1      36.828  23.769  26.311  1.00  0.00    -0.084 Cl
ATOM     17  C   UNL A   1      35.835  21.411  25.514  1.00  0.00     0.023 A 
ATOM     18  C   UNL A   1      33.702  21.108  24.412  1.00  0.00     0.083 A 
ATOM     19  C   UNL A   1      34.858  20.570  24.981  1.00  0.00     0.026 A 
ATOM     20  Cl  UNL A   1      32.499  20.017  23.827  1.00  0.00    -0.080 Cl
BRANCH  11  21
ATOM     21  C   UNL A   1      32.256  25.164  22.819  1.00  0.00     0.429 C 
ATOM     22  F   UNL A   1      33.234  24.596  22.077  1.00  0.00    -0.167 F 
ATOM     23  F   UNL A   1      31.157  25.244  22.033  1.00  0.00    -0.167 F 
ATOM     24  F   UNL A   1      32.644  26.435  23.088  1.00  0.00    -0.167 F 
ENDBRANCH  11  21
ENDBRANCH   7   9
ENDBRANCH   4   5
ENDBRANCH   3   4
ENDBRANCH   2   3
ENDBRANCH   1   2
BRANCH   1  25
ATOM     25  C   UNL A   1      31.332  32.161  26.546  1.00  0.00     0.021 C 
BRANCH  25  26
ATOM     26  C   UNL A   1      32.634  32.734  27.100  1.00  0.00     0.116 C 
BRANCH  26  27
ATOM     27  N   UNL A   1      32.480  34.079  27.628  1.00  0.00    -0.352 N 
ATOM     28  C   UNL A   1      33.147  34.722  28.638  1.00  0.00     0.251 C 
ATOM     29  H   UNL A   1      31.783  34.617  27.186  1.00  0.00     0.163 HD
ATOM     30  O   UNL A   1      32.746  35.824  29.021  1.00  0.00    -0.269 OA
BRANCH  28  31
ATOM     31  C   UNL A   1      34.324  34.111  29.294  1.00  0.00     0.039 A 
ATOM     32  C   UNL A   1      34.112  33.179  30.315  1.00  0.00     0.014 A 
ATOM     33  C   UNL A   1      35.629  34.479  28.951  1.00  0.00     0.014 A 
ATOM     34  C   UNL A   1      35.202  32.579  30.951  1.00  0.00     0.010 A 
ATOM     35  C   UNL A   1      36.714  33.824  29.533  1.00  0.00     0.010 A 
ATOM     36  C   UNL A   1      36.513  32.872  30.544  1.00  0.00    -0.014 A 
BRANCH  36  37
ATOM     37  C   UNL A   1      37.680  32.199  31.174  1.00  0.00     0.031 A 
ATOM     38  C   UNL A   1      38.398  31.089  30.454  1.00  0.00     0.074 A 
ATOM     39  C   UNL A   1      38.068  32.556  32.415  1.00  0.00     0.049 A 
ATOM     40  N   UNL A   1      39.393  30.344  30.865  1.00  0.00    -0.248 NA
ATOM     41  C   UNL A   1      37.917  30.755  29.104  1.00  0.00     0.031 C 
ATOM     42  C   UNL A   1      37.430  33.587  33.235  1.00  0.00     0.029 A 
ATOM     43  N   UNL A   1      39.085  32.084  33.206  1.00  0.00    -0.354 N 
ATOM     44  C   UNL A   1      39.653  29.454  29.830  1.00  0.00     0.074 A 
ATOM     45  C   UNL A   1      38.671  29.710  28.798  1.00  0.00     0.031 C 
ATOM     46  C   UNL A   1      38.080  33.681  34.406  1.00  0.00     0.029 A 
ATOM     47  C   UNL A   1      39.153  32.693  34.436  1.00  0.00     0.049 A 
ATOM     48  H   UNL A   1      39.704  31.374  32.920  1.00  0.00     0.167 HD
ATOM     49  C   UNL A   1      40.636  28.528  29.733  1.00  0.00     0.037 A 
ATOM     50  C   UNL A   1      39.981  32.473  35.475  1.00  0.00     0.037 A 
ATOM     51  C   UNL A   1      41.622  28.284  30.755  1.00  0.00     0.049 A 
ATOM     52  C   UNL A   1      41.054  31.426  35.352  1.00  0.00     0.074 A 
ATOM     53  C   UNL A   1      42.680  27.392  30.737  1.00  0.00     0.029 A 
ATOM     54  N   UNL A   1      41.669  28.935  31.978  1.00  0.00    -0.354 N 
ATOM     55  N   UNL A   1      41.322  30.631  34.344  1.00  0.00    -0.248 NA
ATOM     56  C   UNL A   1      41.946  31.252  36.507  1.00  0.00     0.031 C 
ATOM     57  C   UNL A   1      43.341  27.472  31.967  1.00  0.00     0.029 A 
ATOM     58  C   UNL A   1      42.727  28.452  32.731  1.00  0.00     0.049 A 
ATOM     59  H   UNL A   1      41.043  29.636  32.270  1.00  0.00     0.167 HD
ATOM     60  C   UNL A   1      42.427  29.884  34.731  1.00  0.00     0.074 A 
ATOM     61  C   UNL A   1      42.791  30.332  36.059  1.00  0.00     0.031 C 
ATOM     62  C   UNL A   1      43.082  28.913  34.049  1.00  0.00     0.037 A 
BRANCH  49  63
ATOM     63  C   UNL A   1      40.701  27.714  28.472  1.00  0.00     0.057 A 
ATOM     64  C   UNL A   1      40.008  26.503  28.341  1.00  0.00     0.134 A 
ATOM     65  C   UNL A   1      41.430  28.162  27.364  1.00  0.00     0.134 A 
ATOM     66  F   UNL A   1      39.299  26.011  29.368  1.00  0.00    -0.206 F 
ATOM     67  C   UNL A   1      40.063  25.753  27.165  1.00  0.00     0.040 A 
ATOM     68  C   UNL A   1      41.469  27.436  26.172  1.00  0.00     0.040 A 
ATOM     69  F   UNL A   1      42.111  29.318  27.417  1.00  0.00    -0.206 F 
ATOM     70  C   UNL A   1      40.789  26.224  26.073  1.00  0.00     0.006 A 
ENDBRANCH  49  63
BRANCH  50  71
ATOM     71  C   UNL A   1      39.834  33.264  36.724  1.00  0.00     0.057 A 
ATOM     72  C   UNL A   1      38.951  32.866  37.736  1.00  0.00     0.134 A 
ATOM     73  C   UNL A   1      40.562  34.442  36.931  1.00  0.00     0.134 A 
ATOM     74  F   UNL A   1      38.213  31.756  37.590  1.00  0.00    -0.206 F 
ATOM     75  C   UNL A   1      38.779  33.625  38.896  1.00  0.00     0.040 A 
ATOM     76  C   UNL A   1      40.421  35.195  38.098  1.00  0.00     0.040 A 
ATOM     77  F   UNL A   1      41.432  34.872  36.006  1.00  0.00    -0.206 F 
ATOM     78  C   UNL A   1      39.519  34.790  39.081  1.00  0.00     0.006 A 
ENDBRANCH  50  71
BRANCH  62  79
ATOM     79  C   UNL A   1      44.279  28.295  34.711  1.00  0.00     0.057 A 
ATOM     80  C   UNL A   1      45.559  28.849  34.594  1.00  0.00     0.134 A 
ATOM     81  C   UNL A   1      44.139  27.152  35.508  1.00  0.00     0.134 A 
ATOM     82  F   UNL A   1      45.764  29.937  33.835  1.00  0.00    -0.206 F 
ATOM     83  C   UNL A   1      46.663  28.274  35.226  1.00  0.00     0.040 A 
ATOM     84  C   UNL A   1      45.230  26.584  36.168  1.00  0.00     0.040 A 
ATOM     85  F   UNL A   1      42.939  26.576  35.670  1.00  0.00    -0.206 F 
ATOM     86  C   UNL A   1      46.498  27.141  36.022  1.00  0.00     0.006 A 
ENDBRANCH  62  79
ENDBRANCH  36  37
ENDBRANCH  28  31
ENDBRANCH  26  27
ENDBRANCH  25  26
ENDBRANCH   1  25
TORSDOF 14
ENDMDL
MODEL 3
REMARK VINA RESULT:     -11.5      4.838      9.120
REMARK SMILES O=C(NCCCCCCNC(=O)c1ccc(-c2c3nc(c(-c4c(F)cccc4F)c4ccc([nH]4)c(-c4c(F)cccc4F)c4nc(c(-c5c(F)cccc5F)c5ccc2[nH]5)C=C4)C=C3)cc1)C1=Cc2c(Cl)ccc(Cl)c2O[C@@H]1C(F)(F)F
REMARK SMILES IDX 7 1 6 2 5 3 4 4 3 5 1 6 2 7 67 9 68 10 78 11 69 12 77 13
REMARK SMILES IDX 70 14 76 15 71 16 72 17 74 18 73 19 75 20 79 21 80 22 81 23
REMARK SMILES IDX 82 24 8 25 9 26 10 27 11 28 12 30 13 31 14 32 66 33 15 34
REMARK SMILES IDX 65 35 16 36 17 37 18 38 59 39 19 40 64 41 58 42 60 43 20 44
REMARK SMILES IDX 63 45 57 46 56 47 21 49 47 50 30 51 46 52 31 53 34 54 45 55
REMARK SMILES IDX 61 56 32 57 33 58 44 60 62 61 35 62 22 63 23 64 28 65 24 66
REMARK SMILES IDX 25 67 27 68 29 69 26 70 48 71 49 72 54 73 50 74 51 75 53 76
REMARK SMILES IDX 55 77 52 78 36 79 37 80 42 81 38 82 39 83 41 84 43 85 40 86
REMARK H PARENT 3 8 10 29 60 48 34 59
REMARK Flexibility Score: inf
ROOT
ATOM      1  C   UNL A   1      31.572  30.641  26.503  1.00  0.00     0.002 C 
ENDROOT
BRANCH   1   2
ATOM      2  C   UNL A   1      32.890  29.999  26.960  1.00  0.00     0.002 C 
BRANCH   2   3
ATOM      3  C   UNL A   1      32.918  28.473  27.024  1.00  0.00     0.021 C 
BRANCH   3   4
ATOM      4  C   UNL A   1      31.745  27.758  26.365  1.00  0.00     0.116 C 
BRANCH   4   5
ATOM      5  N   UNL A   1      31.457  26.432  26.879  1.00  0.00    -0.352 N 
ATOM      6  O   UNL A   1      31.709  24.221  27.171  1.00  0.00    -0.270 OA
ATOM      7  C   UNL A   1      31.928  25.213  26.477  1.00  0.00     0.251 C 
ATOM      8  H   UNL A   1      30.823  26.406  27.633  1.00  0.00     0.163 HD
BRANCH   7   9
ATOM      9  C   UNL A   1      32.788  25.046  25.270  1.00  0.00     0.067 C 
ATOM     10  C   UNL A   1      34.116  24.856  25.354  1.00  0.00     0.027 C 
ATOM     11  C   UNL A   1      32.047  24.477  24.089  1.00  0.00     0.314 C 
ATOM     12  C   UNL A   1      34.506  23.458  25.000  1.00  0.00     0.037 A 
ATOM     13  O   UNL A   1      32.338  23.063  23.933  1.00  0.00    -0.474 OA
ATOM     14  C   UNL A   1      35.700  22.910  25.507  1.00  0.00     0.052 A 
ATOM     15  C   UNL A   1      33.541  22.605  24.422  1.00  0.00     0.148 A 
ATOM     16  Cl  UNL A   1      36.905  23.891  26.267  1.00  0.00    -0.084 Cl
ATOM     17  C   UNL A   1      35.888  21.526  25.522  1.00  0.00     0.023 A 
ATOM     18  C   UNL A   1      33.744  21.219  24.444  1.00  0.00     0.083 A 
ATOM     19  C   UNL A   1      34.901  20.682  25.013  1.00  0.00     0.026 A 
ATOM     20  Cl  UNL A   1      32.528  20.126  23.890  1.00  0.00    -0.080 Cl
BRANCH  11  21
ATOM     21  C   UNL A   1      32.314  25.256  22.790  1.00  0.00     0.429 C 
ATOM     22  F   UNL A   1      31.171  25.469  22.098  1.00  0.00    -0.167 F 
ATOM     23  F   UNL A   1      32.860  26.470  23.037  1.00  0.00    -0.167 F 
ATOM     24  F   UNL A   1      33.166  24.598  21.966  1.00  0.00    -0.167 F 
ENDBRANCH  11  21
ENDBRANCH   7   9
ENDBRANCH   4   5
ENDBRANCH   3   4
ENDBRANCH   2   3
ENDBRANCH   1   2
BRANCH   1  25
ATOM     25  C   UNL A   1      31.403  32.139  26.776  1.00  0.00     0.021 C 
BRANCH  25  26
ATOM     26  C   UNL A   1      32.692  32.946  26.904  1.00  0.00     0.116 C 
BRANCH  26  27
ATOM     27  N   UNL A   1      32.506  34.198  27.618  1.00  0.00    -0.352 N 
ATOM     28  C   UNL A   1      33.137  34.692  28.730  1.00  0.00     0.251 C 
ATOM     29  H   UNL A   1      31.814  34.788  27.241  1.00  0.00     0.163 HD
ATOM     30  O   UNL A   1      32.712  35.722  29.259  1.00  0.00    -0.269 OA
BRANCH  28  31
ATOM     31  C   UNL A   1      34.305  34.003  29.323  1.00  0.00     0.039 A 
ATOM     32  C   UNL A   1      34.079  32.997  30.268  1.00  0.00     0.014 A 
ATOM     33  C   UNL A   1      35.615  34.365  28.997  1.00  0.00     0.014 A 
ATOM     34  C   UNL A   1      35.159  32.321  30.843  1.00  0.00     0.010 A 
ATOM     35  C   UNL A   1      36.688  33.640  29.513  1.00  0.00     0.010 A 
ATOM     36  C   UNL A   1      36.473  32.615  30.447  1.00  0.00    -0.014 A 
BRANCH  36  37
ATOM     37  C   UNL A   1      37.629  31.866  31.009  1.00  0.00     0.031 A 
ATOM     38  C   UNL A   1      38.151  32.193  32.382  1.00  0.00     0.074 A 
ATOM     39  C   UNL A   1      38.239  30.923  30.264  1.00  0.00     0.049 A 
ATOM     40  N   UNL A   1      39.184  31.695  33.014  1.00  0.00    -0.248 NA
ATOM     41  C   UNL A   1      37.435  33.236  33.133  1.00  0.00     0.031 C 
ATOM     42  C   UNL A   1      37.856  30.541  28.904  1.00  0.00     0.029 A 
ATOM     43  N   UNL A   1      39.317  30.120  30.544  1.00  0.00    -0.354 N 
ATOM     44  C   UNL A   1      39.242  32.363  34.231  1.00  0.00     0.074 A 
ATOM     45  C   UNL A   1      38.180  33.346  34.222  1.00  0.00     0.031 C 
ATOM     46  C   UNL A   1      38.675  29.568  28.474  1.00  0.00     0.029 A 
ATOM     47  C   UNL A   1      39.662  29.283  29.510  1.00  0.00     0.049 A 
ATOM     48  H   UNL A   1      39.797  30.142  31.403  1.00  0.00     0.167 HD
ATOM     49  C   UNL A   1      40.083  32.160  35.272  1.00  0.00     0.037 A 
ATOM     50  C   UNL A   1      40.669  28.395  29.404  1.00  0.00     0.037 A 
ATOM     51  C   UNL A   1      41.131  31.172  35.286  1.00  0.00     0.049 A 
ATOM     52  C   UNL A   1      41.602  28.198  30.567  1.00  0.00     0.074 A 
ATOM     53  C   UNL A   1      42.013  30.864  36.307  1.00  0.00     0.029 A 
ATOM     54  N   UNL A   1      41.437  30.331  34.226  1.00  0.00    -0.354 N 
ATOM     55  N   UNL A   1      41.609  28.800  31.732  1.00  0.00    -0.248 NA
ATOM     56  C   UNL A   1      42.663  27.194  30.404  1.00  0.00     0.031 C 
ATOM     57  C   UNL A   1      42.882  29.868  35.850  1.00  0.00     0.029 A 
ATOM     58  C   UNL A   1      42.507  29.517  34.562  1.00  0.00     0.049 A 
ATOM     59  H   UNL A   1      40.965  30.315  33.363  1.00  0.00     0.167 HD
ATOM     60  C   UNL A   1      42.652  28.229  32.450  1.00  0.00     0.074 A 
ATOM     61  C   UNL A   1      43.244  27.221  31.596  1.00  0.00     0.031 C 
ATOM     62  C   UNL A   1      43.081  28.513  33.703  1.00  0.00     0.037 A 
BRANCH  49  63
ATOM     63  C   UNL A   1      39.898  33.018  36.492  1.00  0.00     0.057 A 
ATOM     64  C   UNL A   1      40.650  34.183  36.693  1.00  0.00     0.134 A 
ATOM     65  C   UNL A   1      38.933  32.700  37.455  1.00  0.00     0.134 A 
ATOM     66  F   UNL A   1      41.598  34.541  35.814  1.00  0.00    -0.206 F 
ATOM     67  C   UNL A   1      40.470  34.984  37.822  1.00  0.00     0.040 A 
ATOM     68  C   UNL A   1      38.724  33.508  38.575  1.00  0.00     0.040 A 
ATOM     69  F   UNL A   1      38.172  31.602  37.322  1.00  0.00    -0.206 F 
ATOM     70  C   UNL A   1      39.498  34.650  38.764  1.00  0.00     0.006 A 
ENDBRANCH  49  63
BRANCH  50  71
ATOM     71  C   UNL A   1      40.845  27.615  28.151  1.00  0.00     0.057 A 
ATOM     72  C   UNL A   1      41.611  28.111  27.089  1.00  0.00     0.134 A 
ATOM     73  C   UNL A   1      40.242  26.363  27.980  1.00  0.00     0.134 A 
ATOM     74  F   UNL A   1      42.200  29.312  27.184  1.00  0.00    -0.206 F 
ATOM     75  C   UNL A   1      41.750  27.402  25.894  1.00  0.00     0.040 A 
ATOM     76  C   UNL A   1      40.396  25.631  26.802  1.00  0.00     0.040 A 
ATOM     77  F   UNL A   1      39.504  25.828  28.964  1.00  0.00    -0.206 F 
ATOM     78  C   UNL A   1      41.145  26.156  25.751  1.00  0.00     0.006 A 
ENDBRANCH  50  71
BRANCH  62  79
ATOM     79  C   UNL A   1      44.224  27.701  34.240  1.00  0.00     0.057 A 
ATOM     80  C   UNL A   1      45.552  28.133  34.141  1.00  0.00     0.134 A 
ATOM     81  C   UNL A   1      43.987  26.488  34.899  1.00  0.00     0.134 A 
ATOM     82  F   UNL A   1      45.849  29.280  33.511  1.00  0.00    -0.206 F 
ATOM     83  C   UNL A   1      46.606  27.377  34.656  1.00  0.00     0.040 A 
ATOM     84  C   UNL A   1      45.029  25.736  35.443  1.00  0.00     0.040 A 
ATOM     85  F   UNL A   1      42.737  26.020  35.037  1.00  0.00    -0.206 F 
ATOM     86  C   UNL A   1      46.344  26.177  35.316  1.00  0.00     0.006 A 
ENDBRANCH  62  79
ENDBRANCH  36  37
ENDBRANCH  28  31
ENDBRANCH  26  27
ENDBRANCH  25  26
ENDBRANCH   1  25
TORSDOF 14
ENDMDL
