MODEL 1
REMARK VINA RESULT:     -11.8      0.000      0.000
REMARK SMILES Cc1cc(C(=O)Nc2c(Cl)cc(Cl)cc2C(=O)NCCCCCCNC(=O)c2ccc(-c3c4nc(c(-c5c(F)cccc5F)c5ccc([nH]5)c(-c5c(F)cccc5F)c5nc(c(-c6c(F)cccc6F)c6ccc3[nH]6)C=C5)C=C4)cc2)c(C)s1
REMARK SMILES IDX 21 1 20 2 19 3 18 4 16 5 17 6 15 8 8 9 9 10 10 11 11 12
REMARK SMILES IDX 14 13 12 14 13 15 7 16 5 17 6 18 4 20 1 21 2 22 3 23 84 24
REMARK SMILES IDX 82 25 83 26 22 27 23 28 24 29 25 30 26 31 27 33 28 34 29 35
REMARK SMILES IDX 81 36 30 37 80 38 31 39 32 40 33 41 74 42 34 43 79 44 73 45
REMARK SMILES IDX 75 46 35 47 78 48 72 49 71 50 36 52 62 53 45 54 61 55 46 56
REMARK SMILES IDX 49 57 60 58 76 59 47 60 48 61 59 63 77 64 50 65 37 66 38 67
REMARK SMILES IDX 43 68 39 69 40 70 42 71 44 72 41 73 63 74 64 75 69 76 65 77
REMARK SMILES IDX 66 78 68 79 70 80 67 81 51 82 52 83 57 84 53 85 54 86 56 87
REMARK SMILES IDX 58 88 55 89
REMARK H PARENT 18 7 7 19 25 32 75 51 49 62
REMARK Flexibility Score: inf
ROOT
ATOM      1  C   UNL A   1      39.310  21.727  26.132  1.00  0.00     0.002 C 
ENDROOT
BRANCH   1   2
ATOM      2  C   UNL A   1      38.958  23.195  26.393  1.00  0.00     0.021 C 
BRANCH   2   3
ATOM      3  C   UNL A   1      37.641  23.712  25.827  1.00  0.00     0.116 C 
BRANCH   3   4
ATOM      4  N   UNL A   1      37.349  23.362  24.460  1.00  0.00    -0.352 N 
ATOM      5  C   UNL A   1      36.163  23.220  23.788  1.00  0.00     0.253 C 
ATOM      6  O   UNL A   1      36.245  22.950  22.586  1.00  0.00    -0.269 OA
ATOM      7  H   UNL A   1      38.147  23.196  23.909  1.00  0.00     0.163 HD
BRANCH   5   8
ATOM      8  C   UNL A   1      34.782  23.312  24.369  1.00  0.00     0.066 A 
ATOM      9  C   UNL A   1      33.585  23.738  23.757  1.00  0.00     0.073 A 
ATOM     10  C   UNL A   1      32.350  23.526  24.427  1.00  0.00     0.066 A 
ATOM     11  Cl  UNL A   1      30.823  23.824  23.656  1.00  0.00    -0.082 Cl
ATOM     12  C   UNL A   1      32.307  23.045  25.733  1.00  0.00     0.043 A 
ATOM     13  C   UNL A   1      34.708  22.830  25.696  1.00  0.00     0.036 A 
ATOM     14  C   UNL A   1      33.493  22.727  26.373  1.00  0.00     0.043 A 
ATOM     15  Cl  UNL A   1      33.460  22.184  28.004  1.00  0.00    -0.084 Cl
BRANCH   9  16
ATOM     16  N   UNL A   1      33.575  24.341  22.492  1.00  0.00    -0.320 N 
ATOM     17  C   UNL A   1      33.280  25.656  22.143  1.00  0.00     0.256 C 
ATOM     18  O   UNL A   1      33.313  25.903  20.934  1.00  0.00    -0.269 OA
ATOM     19  H   UNL A   1      33.811  23.749  21.743  1.00  0.00     0.170 HD
BRANCH  17  20
ATOM     20  C   UNL A   1      33.066  26.732  23.148  1.00  0.00     0.054 A 
ATOM     21  C   UNL A   1      34.028  28.531  26.344  1.00  0.00     0.056 C 
ATOM     22  C   UNL A   1      33.411  28.050  25.076  1.00  0.00     0.003 A 
ATOM     23  C   UNL A   1      34.003  27.321  24.070  1.00  0.00     0.029 A 
ATOM     24  S   UNL A   1      31.789  28.375  24.707  1.00  0.00    -0.145 S 
ATOM     25  C   UNL A   1      31.859  27.428  23.272  1.00  0.00     0.014 A 
ATOM     26  C   UNL A   1      30.647  27.437  22.393  1.00  0.00     0.057 C 
ENDBRANCH  17  20
ENDBRANCH   9  16
ENDBRANCH   5   8
ENDBRANCH   3   4
ENDBRANCH   2   3
ENDBRANCH   1   2
BRANCH   1  27
ATOM     27  C   UNL A   1      40.762  21.280  26.324  1.00  0.00     0.002 C 
BRANCH  27  28
ATOM     28  C   UNL A   1      41.089  19.799  26.126  1.00  0.00     0.021 C 
BRANCH  28  29
ATOM     29  C   UNL A   1      42.461  19.328  26.588  1.00  0.00     0.116 C 
BRANCH  29  30
ATOM     30  N   UNL A   1      43.278  18.775  25.522  1.00  0.00    -0.352 N 
ATOM     31  C   UNL A   1      44.212  19.397  24.728  1.00  0.00     0.251 C 
ATOM     32  H   UNL A   1      43.144  17.816  25.341  1.00  0.00     0.163 HD
ATOM     33  O   UNL A   1      44.751  18.786  23.808  1.00  0.00    -0.269 OA
BRANCH  31  34
ATOM     34  C   UNL A   1      44.545  20.821  24.955  1.00  0.00     0.039 A 
ATOM     35  C   UNL A   1      44.146  21.769  24.007  1.00  0.00     0.014 A 
ATOM     36  C   UNL A   1      45.230  21.225  26.103  1.00  0.00     0.014 A 
ATOM     37  C   UNL A   1      44.356  23.128  24.250  1.00  0.00     0.010 A 
ATOM     38  C   UNL A   1      45.378  22.582  26.377  1.00  0.00     0.010 A 
ATOM     39  C   UNL A   1      44.935  23.547  25.458  1.00  0.00    -0.014 A 
BRANCH  39  40
ATOM     40  C   UNL A   1      45.078  24.985  25.803  1.00  0.00     0.031 A 
ATOM     41  C   UNL A   1      46.427  25.642  25.738  1.00  0.00     0.074 A 
ATOM     42  C   UNL A   1      44.022  25.665  26.290  1.00  0.00     0.049 A 
ATOM     43  N   UNL A   1      46.794  26.826  26.156  1.00  0.00    -0.248 NA
ATOM     44  C   UNL A   1      47.515  24.843  25.155  1.00  0.00     0.031 C 
ATOM     45  C   UNL A   1      42.670  25.129  26.448  1.00  0.00     0.029 A 
ATOM     46  N   UNL A   1      43.932  26.947  26.774  1.00  0.00    -0.354 N 
ATOM     47  C   UNL A   1      48.160  26.903  25.916  1.00  0.00     0.074 A 
ATOM     48  C   UNL A   1      48.561  25.630  25.355  1.00  0.00     0.031 C 
ATOM     49  C   UNL A   1      41.887  26.070  26.997  1.00  0.00     0.029 A 
ATOM     50  C   UNL A   1      42.689  27.260  27.267  1.00  0.00     0.049 A 
ATOM     51  H   UNL A   1      44.685  27.580  26.768  1.00  0.00     0.167 HD
ATOM     52  C   UNL A   1      49.001  27.942  26.135  1.00  0.00     0.037 A 
ATOM     53  C   UNL A   1      42.248  28.367  27.892  1.00  0.00     0.037 A 
ATOM     54  C   UNL A   1      48.593  29.213  26.673  1.00  0.00     0.049 A 
ATOM     55  C   UNL A   1      43.193  29.513  28.117  1.00  0.00     0.074 A 
ATOM     56  C   UNL A   1      49.353  30.355  26.862  1.00  0.00     0.029 A 
ATOM     57  N   UNL A   1      47.311  29.510  27.114  1.00  0.00    -0.354 N 
ATOM     58  N   UNL A   1      44.469  29.600  27.827  1.00  0.00    -0.248 NA
ATOM     59  C   UNL A   1      42.637  30.719  28.749  1.00  0.00     0.031 C 
ATOM     60  C   UNL A   1      48.542  31.326  27.460  1.00  0.00     0.029 A 
ATOM     61  C   UNL A   1      47.265  30.807  27.596  1.00  0.00     0.049 A 
ATOM     62  H   UNL A   1      46.548  28.889  27.088  1.00  0.00     0.167 HD
ATOM     63  C   UNL A   1      44.863  30.873  28.218  1.00  0.00     0.074 A 
ATOM     64  C   UNL A   1      43.689  31.527  28.760  1.00  0.00     0.031 C 
ATOM     65  C   UNL A   1      46.088  31.447  28.130  1.00  0.00     0.037 A 
BRANCH  52  66
ATOM     66  C   UNL A   1      50.450  27.731  25.803  1.00  0.00     0.057 A 
ATOM     67  C   UNL A   1      50.942  27.863  24.498  1.00  0.00     0.134 A 
ATOM     68  C   UNL A   1      51.368  27.386  26.804  1.00  0.00     0.134 A 
ATOM     69  F   UNL A   1      50.115  28.180  23.489  1.00  0.00    -0.206 F 
ATOM     70  C   UNL A   1      52.281  27.619  24.191  1.00  0.00     0.040 A 
ATOM     71  C   UNL A   1      52.716  27.169  26.516  1.00  0.00     0.040 A 
ATOM     72  F   UNL A   1      50.969  27.251  28.078  1.00  0.00    -0.206 F 
ATOM     73  C   UNL A   1      53.174  27.273  25.205  1.00  0.00     0.006 A 
ENDBRANCH  52  66
BRANCH  53  74
ATOM     74  C   UNL A   1      40.835  28.440  28.339  1.00  0.00     0.057 A 
ATOM     75  C   UNL A   1      40.466  28.052  29.631  1.00  0.00     0.134 A 
ATOM     76  C   UNL A   1      39.829  28.933  27.499  1.00  0.00     0.134 A 
ATOM     77  F   UNL A   1      41.383  27.554  30.474  1.00  0.00    -0.206 F 
ATOM     78  C   UNL A   1      39.146  28.150  30.074  1.00  0.00     0.040 A 
ATOM     79  C   UNL A   1      38.510  29.058  27.935  1.00  0.00     0.040 A 
ATOM     80  F   UNL A   1      40.122  29.329  26.252  1.00  0.00    -0.206 F 
ATOM     81  C   UNL A   1      38.165  28.662  29.226  1.00  0.00     0.006 A 
ENDBRANCH  53  74
BRANCH  65  82
ATOM     82  C   UNL A   1      46.218  32.868  28.596  1.00  0.00     0.057 A 
ATOM     83  C   UNL A   1      46.610  33.186  29.902  1.00  0.00     0.134 A 
ATOM     84  C   UNL A   1      46.004  33.930  27.708  1.00  0.00     0.134 A 
ATOM     85  F   UNL A   1      46.818  32.217  30.805  1.00  0.00    -0.206 F 
ATOM     86  C   UNL A   1      46.768  34.512  30.313  1.00  0.00     0.040 A 
ATOM     87  C   UNL A   1      46.182  35.258  28.099  1.00  0.00     0.040 A 
ATOM     88  F   UNL A   1      45.634  33.692  26.440  1.00  0.00    -0.206 F 
ATOM     89  C   UNL A   1      46.562  35.551  29.406  1.00  0.00     0.006 A 
ENDBRANCH  65  82
ENDBRANCH  39  40
ENDBRANCH  31  34
ENDBRANCH  29  30
ENDBRANCH  28  29
ENDBRANCH  27  28
ENDBRANCH   1  27
TORSDOF 15
ENDMDL
MODEL 2
REMARK VINA RESULT:     -11.7      6.166     10.335
REMARK SMILES Cc1cc(C(=O)Nc2c(Cl)cc(Cl)cc2C(=O)NCCCCCCNC(=O)c2ccc(-c3c4nc(c(-c5c(F)cccc5F)c5ccc([nH]5)c(-c5c(F)cccc5F)c5nc(c(-c6c(F)cccc6F)c6ccc3[nH]6)C=C5)C=C4)cc2)c(C)s1
REMARK SMILES IDX 21 1 20 2 19 3 18 4 16 5 17 6 15 8 8 9 9 10 10 11 11 12
REMARK SMILES IDX 14 13 12 14 13 15 7 16 5 17 6 18 4 20 1 21 2 22 3 23 84 24
REMARK SMILES IDX 82 25 83 26 22 27 23 28 24 29 25 30 26 31 27 33 28 34 29 35
REMARK SMILES IDX 81 36 30 37 80 38 31 39 32 40 33 41 74 42 34 43 79 44 73 45
REMARK SMILES IDX 75 46 35 47 78 48 72 49 71 50 36 52 62 53 45 54 61 55 46 56
REMARK SMILES IDX 49 57 60 58 76 59 47 60 48 61 59 63 77 64 50 65 37 66 38 67
REMARK SMILES IDX 43 68 39 69 40 70 42 71 44 72 41 73 63 74 64 75 69 76 65 77
REMARK SMILES IDX 66 78 68 79 70 80 67 81 51 82 52 83 57 84 53 85 54 86 56 87
REMARK SMILES IDX 58 88 55 89
REMARK H PARENT 18 7 7 19 25 32 75 51 49 62
REMARK Flexibility Score: inf
ROOT
ATOM      1  C   UNL A   1      32.544  29.451  27.197  1.00  0.00     0.002 C 
ENDROOT
BRANCH   1   2
ATOM      2  C   UNL A   1      31.736  28.178  27.467  1.00  0.00     0.021 C 
BRANCH   2   3
ATOM      3  C   UNL A   1      31.982  26.984  26.554  1.00  0.00     0.116 C 
BRANCH   3   4
ATOM      4  N   UNL A   1      31.534  25.704  27.038  1.00  0.00    -0.352 N 
ATOM      5  C   UNL A   1      31.951  24.426  26.764  1.00  0.00     0.253 C 
ATOM      6  O   UNL A   1      31.385  23.521  27.385  1.00  0.00    -0.269 OA
ATOM      7  H   UNL A   1      30.792  25.755  27.683  1.00  0.00     0.163 HD
BRANCH   5   8
ATOM      8  C   UNL A   1      32.987  24.014  25.760  1.00  0.00     0.066 A 
ATOM      9  C   UNL A   1      32.823  23.663  24.404  1.00  0.00     0.073 A 
ATOM     10  C   UNL A   1      33.972  23.528  23.578  1.00  0.00     0.066 A 
ATOM     11  Cl  UNL A   1      33.849  23.311  21.860  1.00  0.00    -0.082 Cl
ATOM     12  C   UNL A   1      35.258  23.588  24.110  1.00  0.00     0.043 A 
ATOM     13  C   UNL A   1      34.305  24.064  26.273  1.00  0.00     0.036 A 
ATOM     14  C   UNL A   1      35.417  23.826  25.465  1.00  0.00     0.043 A 
ATOM     15  Cl  UNL A   1      36.994  23.847  26.146  1.00  0.00    -0.084 Cl
BRANCH   9  16
ATOM     16  N   UNL A   1      31.556  23.470  23.838  1.00  0.00    -0.320 N 
ATOM     17  C   UNL A   1      30.676  24.407  23.302  1.00  0.00     0.256 C 
ATOM     18  O   UNL A   1      29.599  23.953  22.904  1.00  0.00    -0.269 OA
ATOM     19  H   UNL A   1      31.244  22.537  23.816  1.00  0.00     0.170 HD
BRANCH  17  20
ATOM     20  C   UNL A   1      31.039  25.834  23.096  1.00  0.00     0.054 A 
ATOM     21  C   UNL A   1      33.620  28.564  22.579  1.00  0.00     0.056 C 
ATOM     22  C   UNL A   1      32.393  27.740  22.764  1.00  0.00     0.003 A 
ATOM     23  C   UNL A   1      32.224  26.399  22.504  1.00  0.00     0.029 A 
ATOM     24  S   UNL A   1      30.959  28.419  23.359  1.00  0.00    -0.145 S 
ATOM     25  C   UNL A   1      30.170  26.890  23.388  1.00  0.00     0.014 A 
ATOM     26  C   UNL A   1      28.717  26.882  23.749  1.00  0.00     0.057 C 
ENDBRANCH  17  20
ENDBRANCH   9  16
ENDBRANCH   5   8
ENDBRANCH   3   4
ENDBRANCH   2   3
ENDBRANCH   1   2
BRANCH   1  27
ATOM     27  C   UNL A   1      31.991  30.467  26.192  1.00  0.00     0.002 C 
BRANCH  27  28
ATOM     28  C   UNL A   1      31.643  31.866  26.703  1.00  0.00     0.021 C 
BRANCH  28  29
ATOM     29  C   UNL A   1      32.774  32.675  27.323  1.00  0.00     0.116 C 
BRANCH  29  30
ATOM     30  N   UNL A   1      32.403  34.042  27.648  1.00  0.00    -0.352 N 
ATOM     31  C   UNL A   1      32.981  34.912  28.542  1.00  0.00     0.251 C 
ATOM     32  H   UNL A   1      31.625  34.396  27.158  1.00  0.00     0.163 HD
ATOM     33  O   UNL A   1      32.476  36.012  28.751  1.00  0.00    -0.269 OA
BRANCH  31  34
ATOM     34  C   UNL A   1      34.197  34.511  29.284  1.00  0.00     0.039 A 
ATOM     35  C   UNL A   1      34.056  33.932  30.550  1.00  0.00     0.014 A 
ATOM     36  C   UNL A   1      35.467  34.685  28.731  1.00  0.00     0.014 A 
ATOM     37  C   UNL A   1      35.181  33.450  31.224  1.00  0.00     0.010 A 
ATOM     38  C   UNL A   1      36.579  34.144  29.372  1.00  0.00     0.010 A 
ATOM     39  C   UNL A   1      36.446  33.514  30.619  1.00  0.00    -0.014 A 
BRANCH  39  40
ATOM     40  C   UNL A   1      37.650  32.917  31.253  1.00  0.00     0.031 A 
ATOM     41  C   UNL A   1      38.305  31.716  30.636  1.00  0.00     0.074 A 
ATOM     42  C   UNL A   1      38.078  33.379  32.443  1.00  0.00     0.049 A 
ATOM     43  N   UNL A   1      39.251  30.948  31.115  1.00  0.00    -0.248 NA
ATOM     44  C   UNL A   1      37.804  31.303  29.317  1.00  0.00     0.031 C 
ATOM     45  C   UNL A   1      37.500  34.509  33.170  1.00  0.00     0.029 A 
ATOM     46  N   UNL A   1      39.081  32.930  33.267  1.00  0.00    -0.354 N 
ATOM     47  C   UNL A   1      39.435  29.944  30.172  1.00  0.00     0.074 A 
ATOM     48  C   UNL A   1      38.475  30.179  29.114  1.00  0.00     0.031 C 
ATOM     49  C   UNL A   1      38.152  34.661  34.334  1.00  0.00     0.029 A 
ATOM     50  C   UNL A   1      39.165  33.617  34.453  1.00  0.00     0.049 A 
ATOM     51  H   UNL A   1      39.683  32.188  33.029  1.00  0.00     0.167 HD
ATOM     52  C   UNL A   1      40.329  28.927  30.182  1.00  0.00     0.037 A 
ATOM     53  C   UNL A   1      39.948  33.414  35.529  1.00  0.00     0.037 A 
ATOM     54  C   UNL A   1      41.297  28.711  31.226  1.00  0.00     0.049 A 
ATOM     55  C   UNL A   1      40.940  32.286  35.518  1.00  0.00     0.074 A 
ATOM     56  C   UNL A   1      42.295  27.755  31.293  1.00  0.00     0.029 A 
ATOM     57  N   UNL A   1      41.383  29.461  32.390  1.00  0.00    -0.354 N 
ATOM     58  N   UNL A   1      41.151  31.382  34.593  1.00  0.00    -0.248 NA
ATOM     59  C   UNL A   1      41.808  32.154  36.697  1.00  0.00     0.031 C 
ATOM     60  C   UNL A   1      42.955  27.897  32.518  1.00  0.00     0.029 A 
ATOM     61  C   UNL A   1      42.402  28.974  33.192  1.00  0.00     0.049 A 
ATOM     62  H   UNL A   1      40.805  30.226  32.614  1.00  0.00     0.167 HD
ATOM     63  C   UNL A   1      42.189  30.589  35.064  1.00  0.00     0.074 A 
ATOM     64  C   UNL A   1      42.571  31.123  36.356  1.00  0.00     0.031 C 
ATOM     65  C   UNL A   1      42.774  29.518  34.475  1.00  0.00     0.037 A 
BRANCH  52  66
ATOM     66  C   UNL A   1      40.283  27.964  29.032  1.00  0.00     0.057 A 
ATOM     67  C   UNL A   1      41.004  28.181  27.850  1.00  0.00     0.134 A 
ATOM     68  C   UNL A   1      39.501  26.803  29.104  1.00  0.00     0.134 A 
ATOM     69  F   UNL A   1      41.764  29.279  27.710  1.00  0.00    -0.206 F 
ATOM     70  C   UNL A   1      40.917  27.305  26.767  1.00  0.00     0.040 A 
ATOM     71  C   UNL A   1      39.431  25.903  28.040  1.00  0.00     0.040 A 
ATOM     72  F   UNL A   1      38.791  26.527  30.208  1.00  0.00    -0.206 F 
ATOM     73  C   UNL A   1      40.130  26.159  26.863  1.00  0.00     0.006 A 
ENDBRANCH  52  66
BRANCH  53  74
ATOM     74  C   UNL A   1      39.823  34.314  36.702  1.00  0.00     0.057 A 
ATOM     75  C   UNL A   1      39.053  33.950  37.812  1.00  0.00     0.134 A 
ATOM     76  C   UNL A   1      40.499  35.539  36.757  1.00  0.00     0.134 A 
ATOM     77  F   UNL A   1      38.367  32.798  37.809  1.00  0.00    -0.206 F 
ATOM     78  C   UNL A   1      38.957  34.772  38.936  1.00  0.00     0.040 A 
ATOM     79  C   UNL A   1      40.431  36.361  37.883  1.00  0.00     0.040 A 
ATOM     80  F   UNL A   1      41.260  35.939  35.728  1.00  0.00    -0.206 F 
ATOM     81  C   UNL A   1      39.655  35.979  38.976  1.00  0.00     0.006 A 
ENDBRANCH  53  74
BRANCH  65  82
ATOM     82  C   UNL A   1      43.916  28.870  35.201  1.00  0.00     0.057 A 
ATOM     83  C   UNL A   1      43.718  27.828  36.116  1.00  0.00     0.134 A 
ATOM     84  C   UNL A   1      45.237  29.256  34.938  1.00  0.00     0.134 A 
ATOM     85  F   UNL A   1      42.478  27.420  36.423  1.00  0.00    -0.206 F 
ATOM     86  C   UNL A   1      44.791  27.205  36.755  1.00  0.00     0.040 A 
ATOM     87  C   UNL A   1      46.320  28.625  35.552  1.00  0.00     0.040 A 
ATOM     88  F   UNL A   1      45.497  30.243  34.067  1.00  0.00    -0.206 F 
ATOM     89  C   UNL A   1      46.098  27.598  36.467  1.00  0.00     0.006 A 
ENDBRANCH  65  82
ENDBRANCH  39  40
ENDBRANCH  31  34
ENDBRANCH  29  30
ENDBRANCH  28  29
ENDBRANCH  27  28
ENDBRANCH   1  27
TORSDOF 15
ENDMDL
MODEL 3
REMARK VINA RESULT:     -11.5      6.608     11.744
REMARK SMILES Cc1cc(C(=O)Nc2c(Cl)cc(Cl)cc2C(=O)NCCCCCCNC(=O)c2ccc(-c3c4nc(c(-c5c(F)cccc5F)c5ccc([nH]5)c(-c5c(F)cccc5F)c5nc(c(-c6c(F)cccc6F)c6ccc3[nH]6)C=C5)C=C4)cc2)c(C)s1
REMARK SMILES IDX 21 1 20 2 19 3 18 4 16 5 17 6 15 8 8 9 9 10 10 11 11 12
REMARK SMILES IDX 14 13 12 14 13 15 7 16 5 17 6 18 4 20 1 21 2 22 3 23 84 24
REMARK SMILES IDX 82 25 83 26 22 27 23 28 24 29 25 30 26 31 27 33 28 34 29 35
REMARK SMILES IDX 81 36 30 37 80 38 31 39 32 40 33 41 74 42 34 43 79 44 73 45
REMARK SMILES IDX 75 46 35 47 78 48 72 49 71 50 36 52 62 53 45 54 61 55 46 56
REMARK SMILES IDX 49 57 60 58 76 59 47 60 48 61 59 63 77 64 50 65 37 66 38 67
REMARK SMILES IDX 43 68 39 69 40 70 42 71 44 72 41 73 63 74 64 75 69 76 65 77
REMARK SMILES IDX 66 78 68 79 70 80 67 81 51 82 52 83 57 84 53 85 54 86 56 87
REMARK SMILES IDX 58 88 55 89
REMARK H PARENT 18 7 7 19 25 32 75 51 49 62
REMARK Flexibility Score: inf
ROOT
ATOM      1  C   UNL A   1      34.666  32.230  28.664  1.00  0.00     0.002 C 
ENDROOT
BRANCH   1   2
ATOM      2  C   UNL A   1      33.849  31.561  27.554  1.00  0.00     0.021 C 
BRANCH   2   3
ATOM      3  C   UNL A   1      34.147  30.099  27.248  1.00  0.00     0.116 C 
BRANCH   3   4
ATOM      4  N   UNL A   1      33.182  29.137  27.714  1.00  0.00    -0.352 N 
ATOM      5  C   UNL A   1      32.360  28.269  27.042  1.00  0.00     0.253 C 
ATOM      6  O   UNL A   1      31.664  27.525  27.740  1.00  0.00    -0.269 OA
ATOM      7  H   UNL A   1      33.099  29.094  28.694  1.00  0.00     0.163 HD
BRANCH   5   8
ATOM      8  C   UNL A   1      32.185  28.163  25.556  1.00  0.00     0.066 A 
ATOM      9  C   UNL A   1      32.851  27.324  24.638  1.00  0.00     0.073 A 
ATOM     10  C   UNL A   1      32.364  27.228  23.306  1.00  0.00     0.066 A 
ATOM     11  Cl  UNL A   1      32.992  26.065  22.180  1.00  0.00    -0.082 Cl
ATOM     12  C   UNL A   1      31.339  28.052  22.848  1.00  0.00     0.043 A 
ATOM     13  C   UNL A   1      31.149  28.990  25.061  1.00  0.00     0.036 A 
ATOM     14  C   UNL A   1      30.756  28.953  23.723  1.00  0.00     0.043 A 
ATOM     15  Cl  UNL A   1      29.528  30.014  23.158  1.00  0.00    -0.084 Cl
BRANCH   9  16
ATOM     16  N   UNL A   1      33.966  26.561  25.008  1.00  0.00    -0.320 N 
ATOM     17  C   UNL A   1      34.023  25.251  25.475  1.00  0.00     0.256 C 
ATOM     18  O   UNL A   1      35.152  24.841  25.764  1.00  0.00    -0.269 OA
ATOM     19  H   UNL A   1      34.834  27.018  24.925  1.00  0.00     0.170 HD
BRANCH  17  20
ATOM     20  C   UNL A   1      32.840  24.350  25.508  1.00  0.00     0.054 A 
ATOM     21  C   UNL A   1      29.776  22.953  27.251  1.00  0.00     0.056 C 
ATOM     22  C   UNL A   1      30.891  23.297  26.325  1.00  0.00     0.003 A 
ATOM     23  C   UNL A   1      31.631  24.457  26.284  1.00  0.00     0.029 A 
ATOM     24  S   UNL A   1      31.407  22.214  25.128  1.00  0.00    -0.145 S 
ATOM     25  C   UNL A   1      32.697  23.250  24.656  1.00  0.00     0.014 A 
ATOM     26  C   UNL A   1      33.499  22.834  23.461  1.00  0.00     0.057 C 
ENDBRANCH  17  20
ENDBRANCH   9  16
ENDBRANCH   5   8
ENDBRANCH   3   4
ENDBRANCH   2   3
ENDBRANCH   1   2
BRANCH   1  27
ATOM     27  C   UNL A   1      35.237  33.628  28.409  1.00  0.00     0.002 C 
BRANCH  27  28
ATOM     28  C   UNL A   1      34.368  34.835  28.768  1.00  0.00     0.021 C 
BRANCH  28  29
ATOM     29  C   UNL A   1      32.996  34.544  29.360  1.00  0.00     0.116 C 
BRANCH  29  30
ATOM     30  N   UNL A   1      32.528  35.570  30.277  1.00  0.00    -0.352 N 
ATOM     31  C   UNL A   1      32.941  35.846  31.559  1.00  0.00     0.251 C 
ATOM     32  H   UNL A   1      31.812  36.151  29.931  1.00  0.00     0.163 HD
ATOM     33  O   UNL A   1      32.367  36.706  32.224  1.00  0.00    -0.269 OA
BRANCH  31  34
ATOM     34  C   UNL A   1      34.057  35.082  32.158  1.00  0.00     0.039 A 
ATOM     35  C   UNL A   1      33.788  33.843  32.750  1.00  0.00     0.014 A 
ATOM     36  C   UNL A   1      35.365  35.571  32.121  1.00  0.00     0.014 A 
ATOM     37  C   UNL A   1      34.839  33.056  33.227  1.00  0.00     0.010 A 
ATOM     38  C   UNL A   1      36.417  34.758  32.535  1.00  0.00     0.010 A 
ATOM     39  C   UNL A   1      36.166  33.490  33.083  1.00  0.00    -0.014 A 
BRANCH  39  40
ATOM     40  C   UNL A   1      37.317  32.639  33.478  1.00  0.00     0.031 A 
ATOM     41  C   UNL A   1      38.063  32.927  34.749  1.00  0.00     0.074 A 
ATOM     42  C   UNL A   1      37.764  31.685  32.638  1.00  0.00     0.049 A 
ATOM     43  N   UNL A   1      39.187  32.419  35.186  1.00  0.00    -0.248 NA
ATOM     44  C   UNL A   1      37.483  33.953  35.628  1.00  0.00     0.031 C 
ATOM     45  C   UNL A   1      37.158  31.337  31.354  1.00  0.00     0.029 A 
ATOM     46  N   UNL A   1      38.857  30.859  32.727  1.00  0.00    -0.354 N 
ATOM     47  C   UNL A   1      39.465  33.084  36.373  1.00  0.00     0.074 A 
ATOM     48  C   UNL A   1      38.413  34.060  36.565  1.00  0.00     0.031 C 
ATOM     49  C   UNL A   1      37.889  30.374  30.770  1.00  0.00     0.029 A 
ATOM     50  C   UNL A   1      39.037  30.067  31.619  1.00  0.00     0.049 A 
ATOM     51  H   UNL A   1      39.454  30.835  33.509  1.00  0.00     0.167 HD
ATOM     52  C   UNL A   1      40.496  32.891  37.230  1.00  0.00     0.037 A 
ATOM     53  C   UNL A   1      40.026  29.210  31.306  1.00  0.00     0.037 A 
ATOM     54  C   UNL A   1      41.527  31.904  37.046  1.00  0.00     0.049 A 
ATOM     55  C   UNL A   1      41.157  29.002  32.273  1.00  0.00     0.074 A 
ATOM     56  C   UNL A   1      42.572  31.579  37.893  1.00  0.00     0.029 A 
ATOM     57  N   UNL A   1      41.646  31.084  35.933  1.00  0.00    -0.354 N 
ATOM     58  N   UNL A   1      41.376  29.590  33.424  1.00  0.00    -0.248 NA
ATOM     59  C   UNL A   1      42.174  28.009  31.902  1.00  0.00     0.031 C 
ATOM     60  C   UNL A   1      43.349  30.595  37.271  1.00  0.00     0.029 A 
ATOM     61  C   UNL A   1      42.760  30.270  36.061  1.00  0.00     0.049 A 
ATOM     62  H   UNL A   1      41.029  31.081  35.165  1.00  0.00     0.167 HD
ATOM     63  C   UNL A   1      42.540  29.022  33.927  1.00  0.00     0.074 A 
ATOM     64  C   UNL A   1      42.977  28.038  32.958  1.00  0.00     0.031 C 
ATOM     65  C   UNL A   1      43.182  29.292  35.089  1.00  0.00     0.037 A 
BRANCH  52  66
ATOM     66  C   UNL A   1      40.560  33.784  38.435  1.00  0.00     0.057 A 
ATOM     67  C   UNL A   1      41.340  34.948  38.458  1.00  0.00     0.134 A 
ATOM     68  C   UNL A   1      39.835  33.473  39.593  1.00  0.00     0.134 A 
ATOM     69  F   UNL A   1      42.069  35.299  37.387  1.00  0.00    -0.206 F 
ATOM     70  C   UNL A   1      41.431  35.746  39.600  1.00  0.00     0.040 A 
ATOM     71  C   UNL A   1      39.893  34.279  40.730  1.00  0.00     0.040 A 
ATOM     72  F   UNL A   1      39.061  32.378  39.639  1.00  0.00    -0.206 F 
ATOM     73  C   UNL A   1      40.702  35.413  40.740  1.00  0.00     0.006 A 
ENDBRANCH  52  66
BRANCH  53  74
ATOM     74  C   UNL A   1      39.976  28.478  30.016  1.00  0.00     0.057 A 
ATOM     75  C   UNL A   1      40.661  28.952  28.892  1.00  0.00     0.134 A 
ATOM     76  C   UNL A   1      39.277  27.273  29.887  1.00  0.00     0.134 A 
ATOM     77  F   UNL A   1      41.333  30.111  28.949  1.00  0.00    -0.206 F 
ATOM     78  C   UNL A   1      40.652  28.253  27.683  1.00  0.00     0.040 A 
ATOM     79  C   UNL A   1      39.277  26.552  28.692  1.00  0.00     0.040 A 
ATOM     80  F   UNL A   1      38.608  26.764  30.931  1.00  0.00    -0.206 F 
ATOM     81  C   UNL A   1      39.964  27.045  27.584  1.00  0.00     0.006 A 
ENDBRANCH  53  74
BRANCH  65  82
ATOM     82  C   UNL A   1      44.410  28.487  35.401  1.00  0.00     0.057 A 
ATOM     83  C   UNL A   1      45.692  28.919  35.038  1.00  0.00     0.134 A 
ATOM     84  C   UNL A   1      44.311  27.290  36.123  1.00  0.00     0.134 A 
ATOM     85  F   UNL A   1      45.854  30.049  34.334  1.00  0.00    -0.206 F 
ATOM     86  C   UNL A   1      46.830  28.182  35.370  1.00  0.00     0.040 A 
ATOM     87  C   UNL A   1      45.443  26.557  36.482  1.00  0.00     0.040 A 
ATOM     88  F   UNL A   1      43.113  26.824  36.507  1.00  0.00    -0.206 F 
ATOM     89  C   UNL A   1      46.708  27.001  36.101  1.00  0.00     0.006 A 
ENDBRANCH  65  82
ENDBRANCH  39  40
ENDBRANCH  31  34
ENDBRANCH  29  30
ENDBRANCH  28  29
ENDBRANCH  27  28
ENDBRANCH   1  27
TORSDOF 15
ENDMDL
