MODEL 1
REMARK VINA RESULT:     -10.3      0.000      0.000
REMARK SMILES CC(C)(C[NH2+][C@H]1CCc2ccccc21)C(=O)NCCCCCCNC(=O)c1ccc(-c2c3nc(c(-c4c(F)cccc4F)c4ccc([nH]4)c(-c4c(F)cccc4F)c4nc(c(-c5c(F)cccc5F)c5ccc2[nH]5)C=C4)C=C3)cc1
REMARK SMILES IDX 20 1 19 2 18 3 17 4 15 5 16 6 2 8 1 9 3 10 4 11 5 12 6 15
REMARK SMILES IDX 7 16 14 17 8 18 9 19 13 20 10 21 12 22 11 23 21 24 22 25
REMARK SMILES IDX 23 26 24 27 25 28 26 30 27 31 28 32 80 33 29 34 79 35 30 36
REMARK SMILES IDX 31 37 32 38 73 39 33 40 78 41 72 42 74 43 34 44 77 45 71 46
REMARK SMILES IDX 70 47 35 49 61 50 44 51 60 52 45 53 48 54 59 55 75 56 46 57
REMARK SMILES IDX 47 58 58 60 76 61 49 62 36 63 37 64 42 65 38 66 39 67 41 68
REMARK SMILES IDX 43 69 40 70 62 71 63 72 68 73 64 74 65 75 67 76 69 77 66 78
REMARK SMILES IDX 50 79 51 80 56 81 52 82 53 83 55 84 57 85 54 86
REMARK H PARENT 17 7 5 13 5 14 24 29 74 48 48 59
REMARK Flexibility Score: inf
ROOT
ATOM      1  C   UNL A   1      38.259  22.374  25.816  1.00  0.00     0.002 C 
ENDROOT
BRANCH   1   2
ATOM      2  C   UNL A   1      37.493  23.696  25.928  1.00  0.00     0.021 C 
BRANCH   2   3
ATOM      3  C   UNL A   1      36.208  23.764  25.108  1.00  0.00     0.116 C 
BRANCH   3   4
ATOM      4  N   UNL A   1      35.043  23.719  25.965  1.00  0.00    -0.355 N 
ATOM      5  C   UNL A   1      33.710  23.729  25.702  1.00  0.00     0.231 C 
ATOM      6  O   UNL A   1      32.976  23.784  26.697  1.00  0.00    -0.274 OA
ATOM      7  H   UNL A   1      35.258  23.673  26.925  1.00  0.00     0.163 HD
BRANCH   5   8
ATOM      8  C   UNL A   1      33.121  23.587  24.282  1.00  0.00     0.092 C 
ATOM      9  C   UNL A   1      31.575  23.656  24.399  1.00  0.00     0.027 C 
ATOM     10  C   UNL A   1      33.442  22.177  23.740  1.00  0.00     0.027 C 
BRANCH   8  11
ATOM     11  C   UNL A   1      33.599  24.668  23.275  1.00  0.00     0.277 C 
BRANCH  11  12
ATOM     12  N   UNL A   1      32.937  25.969  23.400  1.00  0.00    -0.339 N 
ATOM     13  H   UNL A   1      32.218  25.901  24.121  1.00  0.00     0.346 HD
ATOM     14  H   UNL A   1      32.537  26.200  22.491  1.00  0.00     0.346 HD
BRANCH  12  15
ATOM     15  C   UNL A   1      33.867  27.045  23.763  1.00  0.00     0.214 C 
ATOM     16  C   UNL A   1      33.840  28.194  22.726  1.00  0.00     0.075 C 
ATOM     17  C   UNL A   1      33.385  27.796  24.978  1.00  0.00     0.012 A 
ATOM     18  C   UNL A   1      32.687  29.126  23.125  1.00  0.00     0.042 C 
ATOM     19  C   UNL A   1      32.703  28.966  24.612  1.00  0.00    -0.039 A 
ATOM     20  C   UNL A   1      33.527  27.452  26.313  1.00  0.00     0.010 A 
ATOM     21  C   UNL A   1      32.118  29.784  25.562  1.00  0.00     0.004 A 
ATOM     22  C   UNL A   1      32.946  28.275  27.281  1.00  0.00     0.001 A 
ATOM     23  C   UNL A   1      32.241  29.430  26.908  1.00  0.00     0.000 A 
ENDBRANCH  12  15
ENDBRANCH  11  12
ENDBRANCH   8  11
ENDBRANCH   5   8
ENDBRANCH   3   4
ENDBRANCH   2   3
ENDBRANCH   1   2
BRANCH   1  24
ATOM     24  C   UNL A   1      37.637  21.329  24.884  1.00  0.00     0.002 C 
BRANCH  24  25
ATOM     25  C   UNL A   1      38.358  19.979  24.835  1.00  0.00     0.021 C 
BRANCH  25  26
ATOM     26  C   UNL A   1      39.071  19.581  26.124  1.00  0.00     0.116 C 
BRANCH  26  27
ATOM     27  N   UNL A   1      40.368  18.973  25.872  1.00  0.00    -0.352 N 
ATOM     28  C   UNL A   1      41.618  19.534  25.906  1.00  0.00     0.251 C 
ATOM     29  H   UNL A   1      40.345  18.016  25.643  1.00  0.00     0.163 HD
ATOM     30  O   UNL A   1      42.587  18.907  25.482  1.00  0.00    -0.269 OA
BRANCH  28  31
ATOM     31  C   UNL A   1      41.809  20.901  26.436  1.00  0.00     0.039 A 
ATOM     32  C   UNL A   1      41.639  21.123  27.806  1.00  0.00     0.014 A 
ATOM     33  C   UNL A   1      42.131  21.964  25.589  1.00  0.00     0.014 A 
ATOM     34  C   UNL A   1      41.847  22.400  28.334  1.00  0.00     0.010 A 
ATOM     35  C   UNL A   1      42.402  23.222  26.125  1.00  0.00     0.010 A 
ATOM     36  C   UNL A   1      42.260  23.453  27.501  1.00  0.00    -0.014 A 
BRANCH  36  37
ATOM     37  C   UNL A   1      42.547  24.800  28.054  1.00  0.00     0.031 A 
ATOM     38  C   UNL A   1      43.931  25.146  28.528  1.00  0.00     0.074 A 
ATOM     39  C   UNL A   1      41.546  25.691  28.190  1.00  0.00     0.049 A 
ATOM     40  N   UNL A   1      44.357  26.240  29.107  1.00  0.00    -0.248 NA
ATOM     41  C   UNL A   1      44.968  24.117  28.349  1.00  0.00     0.031 C 
ATOM     42  C   UNL A   1      40.151  25.463  27.809  1.00  0.00     0.029 A 
ATOM     43  N   UNL A   1      41.547  26.967  28.697  1.00  0.00    -0.354 N 
ATOM     44  C   UNL A   1      45.703  26.025  29.376  1.00  0.00     0.074 A 
ATOM     45  C   UNL A   1      46.012  24.680  28.939  1.00  0.00     0.031 C 
ATOM     46  C   UNL A   1      39.435  26.565  28.080  1.00  0.00     0.029 A 
ATOM     47  C   UNL A   1      40.310  27.565  28.683  1.00  0.00     0.049 A 
ATOM     48  H   UNL A   1      42.356  27.410  29.039  1.00  0.00     0.167 HD
ATOM     49  C   UNL A   1      46.605  26.877  29.919  1.00  0.00     0.037 A 
ATOM     50  C   UNL A   1      39.924  28.781  29.116  1.00  0.00     0.037 A 
ATOM     51  C   UNL A   1      46.305  28.225  30.326  1.00  0.00     0.049 A 
ATOM     52  C   UNL A   1      40.945  29.709  29.713  1.00  0.00     0.074 A 
ATOM     53  C   UNL A   1      47.165  29.186  30.828  1.00  0.00     0.029 A 
ATOM     54  N   UNL A   1      45.045  28.801  30.275  1.00  0.00    -0.354 N 
ATOM     55  N   UNL A   1      42.227  29.514  29.905  1.00  0.00    -0.248 NA
ATOM     56  C   UNL A   1      40.465  31.027  30.149  1.00  0.00     0.031 C 
ATOM     57  C   UNL A   1      46.417  30.333  31.119  1.00  0.00     0.029 A 
ATOM     58  C   UNL A   1      45.100  30.099  30.757  1.00  0.00     0.049 A 
ATOM     59  H   UNL A   1      44.232  28.355  29.946  1.00  0.00     0.167 HD
ATOM     60  C   UNL A   1      42.712  30.692  30.457  1.00  0.00     0.074 A 
ATOM     61  C   UNL A   1      41.589  31.600  30.558  1.00  0.00     0.031 C 
ATOM     62  C   UNL A   1      43.975  30.995  30.844  1.00  0.00     0.037 A 
BRANCH  49  63
ATOM     63  C   UNL A   1      48.008  26.377  30.098  1.00  0.00     0.057 A 
ATOM     64  C   UNL A   1      48.427  25.762  31.286  1.00  0.00     0.134 A 
ATOM     65  C   UNL A   1      48.943  26.478  29.059  1.00  0.00     0.134 A 
ATOM     66  F   UNL A   1      47.584  25.645  32.323  1.00  0.00    -0.206 F 
ATOM     67  C   UNL A   1      49.731  25.289  31.442  1.00  0.00     0.040 A 
ATOM     68  C   UNL A   1      50.242  25.985  29.196  1.00  0.00     0.040 A 
ATOM     69  F   UNL A   1      48.607  27.049  27.894  1.00  0.00    -0.206 F 
ATOM     70  C   UNL A   1      50.640  25.393  30.393  1.00  0.00     0.006 A 
ENDBRANCH  49  63
BRANCH  50  71
ATOM     71  C   UNL A   1      38.507  29.201  28.981  1.00  0.00     0.057 A 
ATOM     72  C   UNL A   1      37.634  29.148  30.074  1.00  0.00     0.134 A 
ATOM     73  C   UNL A   1      37.991  29.656  27.763  1.00  0.00     0.134 A 
ATOM     74  F   UNL A   1      38.067  28.702  31.262  1.00  0.00    -0.206 F 
ATOM     75  C   UNL A   1      36.293  29.515  29.956  1.00  0.00     0.040 A 
ATOM     76  C   UNL A   1      36.658  30.050  27.637  1.00  0.00     0.040 A 
ATOM     77  F   UNL A   1      38.779  29.737  26.681  1.00  0.00    -0.206 F 
ATOM     78  C   UNL A   1      35.803  29.973  28.735  1.00  0.00     0.006 A 
ENDBRANCH  50  71
BRANCH  62  79
ATOM     79  C   UNL A   1      44.215  32.373  31.383  1.00  0.00     0.057 A 
ATOM     80  C   UNL A   1      44.141  32.655  32.752  1.00  0.00     0.134 A 
ATOM     81  C   UNL A   1      44.562  33.423  30.523  1.00  0.00     0.134 A 
ATOM     82  F   UNL A   1      43.802  31.696  33.626  1.00  0.00    -0.206 F 
ATOM     83  C   UNL A   1      44.384  33.938  33.245  1.00  0.00     0.040 A 
ATOM     84  C   UNL A   1      44.830  34.704  31.006  1.00  0.00     0.040 A 
ATOM     85  F   UNL A   1      44.657  33.217  29.200  1.00  0.00    -0.206 F 
ATOM     86  C   UNL A   1      44.737  34.966  32.371  1.00  0.00     0.006 A 
ENDBRANCH  62  79
ENDBRANCH  36  37
ENDBRANCH  28  31
ENDBRANCH  26  27
ENDBRANCH  25  26
ENDBRANCH  24  25
ENDBRANCH   1  24
TORSDOF 16
ENDMDL
MODEL 2
REMARK VINA RESULT:     -10.2      2.772      4.365
REMARK SMILES CC(C)(C[NH2+][C@H]1CCc2ccccc21)C(=O)NCCCCCCNC(=O)c1ccc(-c2c3nc(c(-c4c(F)cccc4F)c4ccc([nH]4)c(-c4c(F)cccc4F)c4nc(c(-c5c(F)cccc5F)c5ccc2[nH]5)C=C4)C=C3)cc1
REMARK SMILES IDX 20 1 19 2 18 3 17 4 15 5 16 6 2 8 1 9 3 10 4 11 5 12 6 15
REMARK SMILES IDX 7 16 14 17 8 18 9 19 13 20 10 21 12 22 11 23 21 24 22 25
REMARK SMILES IDX 23 26 24 27 25 28 26 30 27 31 28 32 80 33 29 34 79 35 30 36
REMARK SMILES IDX 31 37 32 38 73 39 33 40 78 41 72 42 74 43 34 44 77 45 71 46
REMARK SMILES IDX 70 47 35 49 61 50 44 51 60 52 45 53 48 54 59 55 75 56 46 57
REMARK SMILES IDX 47 58 58 60 76 61 49 62 36 63 37 64 42 65 38 66 39 67 41 68
REMARK SMILES IDX 43 69 40 70 62 71 63 72 68 73 64 74 65 75 67 76 69 77 66 78
REMARK SMILES IDX 50 79 51 80 56 81 52 82 53 83 55 84 57 85 54 86
REMARK H PARENT 17 7 5 13 5 14 24 29 74 48 48 59
REMARK Flexibility Score: inf
ROOT
ATOM      1  C   UNL A   1      33.450  23.353  25.164  1.00  0.00     0.002 C 
ENDROOT
BRANCH   1   2
ATOM      2  C   UNL A   1      33.190  24.808  24.760  1.00  0.00     0.021 C 
BRANCH   2   3
ATOM      3  C   UNL A   1      33.654  25.849  25.774  1.00  0.00     0.116 C 
BRANCH   3   4
ATOM      4  N   UNL A   1      32.536  26.377  26.525  1.00  0.00    -0.355 N 
ATOM      5  C   UNL A   1      32.191  27.639  26.891  1.00  0.00     0.231 C 
ATOM      6  O   UNL A   1      31.203  27.723  27.631  1.00  0.00    -0.274 OA
ATOM      7  H   UNL A   1      31.902  25.688  26.829  1.00  0.00     0.163 HD
BRANCH   5   8
ATOM      8  C   UNL A   1      32.902  28.903  26.362  1.00  0.00     0.092 C 
ATOM      9  C   UNL A   1      34.299  28.979  27.035  1.00  0.00     0.027 C 
ATOM     10  C   UNL A   1      32.134  30.154  26.839  1.00  0.00     0.027 C 
BRANCH   8  11
ATOM     11  C   UNL A   1      33.084  28.943  24.820  1.00  0.00     0.277 C 
BRANCH  11  12
ATOM     12  N   UNL A   1      32.050  29.684  24.092  1.00  0.00    -0.339 N 
ATOM     13  H   UNL A   1      32.441  30.576  23.788  1.00  0.00     0.346 HD
ATOM     14  H   UNL A   1      31.261  29.815  24.725  1.00  0.00     0.346 HD
BRANCH  12  15
ATOM     15  C   UNL A   1      31.559  28.959  22.914  1.00  0.00     0.214 C 
ATOM     16  C   UNL A   1      31.517  27.432  23.162  1.00  0.00     0.075 C 
ATOM     17  C   UNL A   1      30.090  29.215  22.691  1.00  0.00     0.012 A 
ATOM     18  C   UNL A   1      30.175  27.129  23.845  1.00  0.00     0.042 C 
ATOM     19  C   UNL A   1      29.309  28.184  23.233  1.00  0.00    -0.039 A 
ATOM     20  C   UNL A   1      29.492  30.297  22.065  1.00  0.00     0.010 A 
ATOM     21  C   UNL A   1      27.926  28.236  23.200  1.00  0.00     0.004 A 
ATOM     22  C   UNL A   1      28.096  30.356  22.019  1.00  0.00     0.001 A 
ATOM     23  C   UNL A   1      27.319  29.335  22.588  1.00  0.00     0.000 A 
ENDBRANCH  12  15
ENDBRANCH  11  12
ENDBRANCH   8  11
ENDBRANCH   5   8
ENDBRANCH   3   4
ENDBRANCH   2   3
ENDBRANCH   1   2
BRANCH   1  24
ATOM     24  C   UNL A   1      34.833  22.805  24.798  1.00  0.00     0.002 C 
BRANCH  24  25
ATOM     25  C   UNL A   1      35.912  22.974  25.872  1.00  0.00     0.021 C 
BRANCH  25  26
ATOM     26  C   UNL A   1      37.202  23.634  25.393  1.00  0.00     0.116 C 
BRANCH  26  27
ATOM     27  N   UNL A   1      38.362  22.777  25.579  1.00  0.00    -0.352 N 
ATOM     28  C   UNL A   1      39.575  23.060  26.149  1.00  0.00     0.251 C 
ATOM     29  H   UNL A   1      38.261  21.856  25.245  1.00  0.00     0.163 HD
ATOM     30  O   UNL A   1      40.504  22.260  26.052  1.00  0.00    -0.269 OA
BRANCH  28  31
ATOM     31  C   UNL A   1      39.782  24.333  26.872  1.00  0.00     0.039 A 
ATOM     32  C   UNL A   1      39.273  24.464  28.167  1.00  0.00     0.014 A 
ATOM     33  C   UNL A   1      40.454  25.402  26.272  1.00  0.00     0.014 A 
ATOM     34  C   UNL A   1      39.485  25.646  28.881  1.00  0.00     0.010 A 
ATOM     35  C   UNL A   1      40.722  26.555  27.007  1.00  0.00     0.010 A 
ATOM     36  C   UNL A   1      40.238  26.690  28.317  1.00  0.00    -0.014 A 
BRANCH  36  37
ATOM     37  C   UNL A   1      40.528  27.927  29.084  1.00  0.00     0.031 A 
ATOM     38  C   UNL A   1      41.826  28.071  29.827  1.00  0.00     0.074 A 
ATOM     39  C   UNL A   1      39.594  28.895  29.165  1.00  0.00     0.049 A 
ATOM     40  N   UNL A   1      42.227  29.042  30.610  1.00  0.00    -0.248 NA
ATOM     41  C   UNL A   1      42.792  26.969  29.693  1.00  0.00     0.031 C 
ATOM     42  C   UNL A   1      38.277  28.856  28.526  1.00  0.00     0.029 A 
ATOM     43  N   UNL A   1      39.605  30.096  29.829  1.00  0.00    -0.354 N 
ATOM     44  C   UNL A   1      43.480  28.660  31.072  1.00  0.00     0.074 A 
ATOM     45  C   UNL A   1      43.754  27.349  30.521  1.00  0.00     0.031 C 
ATOM     46  C   UNL A   1      37.615  29.988  28.815  1.00  0.00     0.029 A 
ATOM     47  C   UNL A   1      38.444  30.816  29.685  1.00  0.00     0.049 A 
ATOM     48  H   UNL A   1      40.372  30.411  30.359  1.00  0.00     0.167 HD
ATOM     49  C   UNL A   1      44.335  29.346  31.868  1.00  0.00     0.037 A 
ATOM     50  C   UNL A   1      38.085  32.006  30.203  1.00  0.00     0.037 A 
ATOM     51  C   UNL A   1      44.075  30.661  32.393  1.00  0.00     0.049 A 
ATOM     52  C   UNL A   1      39.052  32.749  31.082  1.00  0.00     0.074 A 
ATOM     53  C   UNL A   1      44.905  31.464  33.157  1.00  0.00     0.029 A 
ATOM     54  N   UNL A   1      42.896  31.366  32.206  1.00  0.00    -0.354 N 
ATOM     55  N   UNL A   1      40.258  32.402  31.461  1.00  0.00    -0.248 NA
ATOM     56  C   UNL A   1      38.609  34.050  31.601  1.00  0.00     0.031 C 
ATOM     57  C   UNL A   1      44.211  32.640  33.466  1.00  0.00     0.029 A 
ATOM     58  C   UNL A   1      42.967  32.587  32.857  1.00  0.00     0.049 A 
ATOM     59  H   UNL A   1      42.122  31.047  31.688  1.00  0.00     0.167 HD
ATOM     60  C   UNL A   1      40.729  33.453  32.238  1.00  0.00     0.074 A 
ATOM     61  C   UNL A   1      39.683  34.454  32.266  1.00  0.00     0.031 C 
ATOM     62  C   UNL A   1      41.921  33.577  32.871  1.00  0.00     0.037 A 
BRANCH  49  63
ATOM     63  C   UNL A   1      45.637  28.687  32.215  1.00  0.00     0.057 A 
ATOM     64  C   UNL A   1      46.782  28.852  31.423  1.00  0.00     0.134 A 
ATOM     65  C   UNL A   1      45.760  27.909  33.373  1.00  0.00     0.134 A 
ATOM     66  F   UNL A   1      46.729  29.576  30.295  1.00  0.00    -0.206 F 
ATOM     67  C   UNL A   1      47.994  28.245  31.757  1.00  0.00     0.040 A 
ATOM     68  C   UNL A   1      46.973  27.318  33.731  1.00  0.00     0.040 A 
ATOM     69  F   UNL A   1      44.706  27.717  34.179  1.00  0.00    -0.206 F 
ATOM     70  C   UNL A   1      48.093  27.482  32.918  1.00  0.00     0.006 A 
ENDBRANCH  49  63
BRANCH  50  71
ATOM     71  C   UNL A   1      36.755  32.582  29.886  1.00  0.00     0.057 A 
ATOM     72  C   UNL A   1      35.639  32.295  30.681  1.00  0.00     0.134 A 
ATOM     73  C   UNL A   1      36.564  33.423  28.784  1.00  0.00     0.134 A 
ATOM     74  F   UNL A   1      35.757  31.481  31.739  1.00  0.00    -0.206 F 
ATOM     75  C   UNL A   1      34.376  32.809  30.381  1.00  0.00     0.040 A 
ATOM     76  C   UNL A   1      35.312  33.963  28.486  1.00  0.00     0.040 A 
ATOM     77  F   UNL A   1      37.595  33.741  27.988  1.00  0.00    -0.206 F 
ATOM     78  C   UNL A   1      34.212  33.651  29.283  1.00  0.00     0.006 A 
ENDBRANCH  50  71
BRANCH  62  79
ATOM     79  C   UNL A   1      42.170  34.851  33.619  1.00  0.00     0.057 A 
ATOM     80  C   UNL A   1      41.730  35.034  34.936  1.00  0.00     0.134 A 
ATOM     81  C   UNL A   1      42.892  35.895  33.027  1.00  0.00     0.134 A 
ATOM     82  F   UNL A   1      41.021  34.077  35.554  1.00  0.00    -0.206 F 
ATOM     83  C   UNL A   1      41.982  36.218  35.630  1.00  0.00     0.040 A 
ATOM     84  C   UNL A   1      43.172  37.074  33.720  1.00  0.00     0.040 A 
ATOM     85  F   UNL A   1      43.349  35.781  31.771  1.00  0.00    -0.206 F 
ATOM     86  C   UNL A   1      42.712  37.240  35.024  1.00  0.00     0.006 A 
ENDBRANCH  62  79
ENDBRANCH  36  37
ENDBRANCH  28  31
ENDBRANCH  26  27
ENDBRANCH  25  26
ENDBRANCH  24  25
ENDBRANCH   1  24
TORSDOF 16
ENDMDL
MODEL 3
REMARK VINA RESULT:     -10.1      1.238      6.408
REMARK SMILES CC(C)(C[NH2+][C@H]1CCc2ccccc21)C(=O)NCCCCCCNC(=O)c1ccc(-c2c3nc(c(-c4c(F)cccc4F)c4ccc([nH]4)c(-c4c(F)cccc4F)c4nc(c(-c5c(F)cccc5F)c5ccc2[nH]5)C=C4)C=C3)cc1
REMARK SMILES IDX 20 1 19 2 18 3 17 4 15 5 16 6 2 8 1 9 3 10 4 11 5 12 6 15
REMARK SMILES IDX 7 16 14 17 8 18 9 19 13 20 10 21 12 22 11 23 21 24 22 25
REMARK SMILES IDX 23 26 24 27 25 28 26 30 27 31 28 32 80 33 29 34 79 35 30 36
REMARK SMILES IDX 31 37 32 38 73 39 33 40 78 41 72 42 74 43 34 44 77 45 71 46
REMARK SMILES IDX 70 47 35 49 61 50 44 51 60 52 45 53 48 54 59 55 75 56 46 57
REMARK SMILES IDX 47 58 58 60 76 61 49 62 36 63 37 64 42 65 38 66 39 67 41 68
REMARK SMILES IDX 43 69 40 70 62 71 63 72 68 73 64 74 65 75 67 76 69 77 66 78
REMARK SMILES IDX 50 79 51 80 56 81 52 82 53 83 55 84 57 85 54 86
REMARK H PARENT 17 7 5 13 5 14 24 29 74 48 48 59
REMARK Flexibility Score: inf
ROOT
ATOM      1  C   UNL A   1      37.732  22.367  25.510  1.00  0.00     0.002 C 
ENDROOT
BRANCH   1   2
ATOM      2  C   UNL A   1      36.912  23.650  25.346  1.00  0.00     0.021 C 
BRANCH   2   3
ATOM      3  C   UNL A   1      35.408  23.437  25.201  1.00  0.00     0.116 C 
BRANCH   3   4
ATOM      4  N   UNL A   1      34.983  23.655  23.835  1.00  0.00    -0.355 N 
ATOM      5  C   UNL A   1      33.967  23.137  23.096  1.00  0.00     0.231 C 
ATOM      6  O   UNL A   1      33.953  23.474  21.906  1.00  0.00    -0.274 OA
ATOM      7  H   UNL A   1      35.538  24.305  23.346  1.00  0.00     0.163 HD
BRANCH   5   8
ATOM      8  C   UNL A   1      32.841  22.265  23.692  1.00  0.00     0.092 C 
ATOM      9  C   UNL A   1      33.499  21.206  24.616  1.00  0.00     0.027 C 
ATOM     10  C   UNL A   1      32.161  21.471  22.556  1.00  0.00     0.027 C 
BRANCH   8  11
ATOM     11  C   UNL A   1      31.777  23.052  24.506  1.00  0.00     0.277 C 
BRANCH  11  12
ATOM     12  N   UNL A   1      31.567  24.437  24.076  1.00  0.00    -0.339 N 
ATOM     13  H   UNL A   1      31.047  24.431  23.198  1.00  0.00     0.346 HD
ATOM     14  H   UNL A   1      32.485  24.868  23.966  1.00  0.00     0.346 HD
BRANCH  12  15
ATOM     15  C   UNL A   1      30.819  25.227  25.060  1.00  0.00     0.214 C 
ATOM     16  C   UNL A   1      31.728  25.700  26.220  1.00  0.00     0.075 C 
ATOM     17  C   UNL A   1      30.422  26.567  24.495  1.00  0.00     0.012 A 
ATOM     18  C   UNL A   1      32.397  27.003  25.759  1.00  0.00     0.042 C 
ATOM     19  C   UNL A   1      31.327  27.567  24.880  1.00  0.00    -0.039 A 
ATOM     20  C   UNL A   1      29.341  26.870  23.681  1.00  0.00     0.010 A 
ATOM     21  C   UNL A   1      31.196  28.868  24.426  1.00  0.00     0.004 A 
ATOM     22  C   UNL A   1      29.195  28.183  23.224  1.00  0.00     0.001 A 
ATOM     23  C   UNL A   1      30.120  29.173  23.589  1.00  0.00     0.000 A 
ENDBRANCH  12  15
ENDBRANCH  11  12
ENDBRANCH   8  11
ENDBRANCH   5   8
ENDBRANCH   3   4
ENDBRANCH   2   3
ENDBRANCH   1   2
BRANCH   1  24
ATOM     24  C   UNL A   1      37.331  21.207  24.592  1.00  0.00     0.002 C 
BRANCH  24  25
ATOM     25  C   UNL A   1      38.180  19.940  24.724  1.00  0.00     0.021 C 
BRANCH  25  26
ATOM     26  C   UNL A   1      38.958  19.817  26.030  1.00  0.00     0.116 C 
BRANCH  26  27
ATOM     27  N   UNL A   1      40.210  19.096  25.861  1.00  0.00    -0.352 N 
ATOM     28  C   UNL A   1      41.499  19.545  25.978  1.00  0.00     0.251 C 
ATOM     29  H   UNL A   1      40.117  18.144  25.629  1.00  0.00     0.163 HD
ATOM     30  O   UNL A   1      42.435  18.832  25.616  1.00  0.00    -0.269 OA
BRANCH  28  31
ATOM     31  C   UNL A   1      41.776  20.891  26.522  1.00  0.00     0.039 A 
ATOM     32  C   UNL A   1      41.779  21.070  27.908  1.00  0.00     0.014 A 
ATOM     33  C   UNL A   1      42.009  21.977  25.675  1.00  0.00     0.014 A 
ATOM     34  C   UNL A   1      42.071  22.326  28.446  1.00  0.00     0.010 A 
ATOM     35  C   UNL A   1      42.364  23.213  26.212  1.00  0.00     0.010 A 
ATOM     36  C   UNL A   1      42.396  23.400  27.602  1.00  0.00    -0.014 A 
BRANCH  36  37
ATOM     37  C   UNL A   1      42.770  24.726  28.156  1.00  0.00     0.031 A 
ATOM     38  C   UNL A   1      41.720  25.779  28.374  1.00  0.00     0.074 A 
ATOM     39  C   UNL A   1      44.065  25.004  28.402  1.00  0.00     0.049 A 
ATOM     40  N   UNL A   1      41.863  27.017  28.777  1.00  0.00    -0.248 NA
ATOM     41  C   UNL A   1      40.330  25.400  28.078  1.00  0.00     0.031 C 
ATOM     42  C   UNL A   1      45.184  24.083  28.190  1.00  0.00     0.029 A 
ATOM     43  N   UNL A   1      44.661  26.147  28.873  1.00  0.00    -0.354 N 
ATOM     44  C   UNL A   1      40.587  27.567  28.766  1.00  0.00     0.074 A 
ATOM     45  C   UNL A   1      39.689  26.543  28.273  1.00  0.00     0.031 C 
ATOM     46  C   UNL A   1      46.326  24.690  28.546  1.00  0.00     0.029 A 
ATOM     47  C   UNL A   1      46.027  26.053  28.977  1.00  0.00     0.049 A 
ATOM     48  H   UNL A   1      44.156  26.958  29.111  1.00  0.00     0.167 HD
ATOM     49  C   UNL A   1      40.194  28.805  29.151  1.00  0.00     0.037 A 
ATOM     50  C   UNL A   1      46.938  26.964  29.370  1.00  0.00     0.037 A 
ATOM     51  C   UNL A   1      41.083  29.812  29.668  1.00  0.00     0.049 A 
ATOM     52  C   UNL A   1      46.477  28.331  29.793  1.00  0.00     0.074 A 
ATOM     53  C   UNL A   1      40.771  31.075  30.143  1.00  0.00     0.029 A 
ATOM     54  N   UNL A   1      42.457  29.670  29.780  1.00  0.00    -0.354 N 
ATOM     55  N   UNL A   1      45.260  28.816  29.836  1.00  0.00    -0.248 NA
ATOM     56  C   UNL A   1      47.515  29.274  30.228  1.00  0.00     0.031 C 
ATOM     57  C   UNL A   1      41.963  31.712  30.505  1.00  0.00     0.029 A 
ATOM     58  C   UNL A   1      43.011  30.830  30.297  1.00  0.00     0.049 A 
ATOM     59  H   UNL A   1      42.964  28.865  29.529  1.00  0.00     0.167 HD
ATOM     60  C   UNL A   1      45.383  30.109  30.328  1.00  0.00     0.074 A 
ATOM     61  C   UNL A   1      46.792  30.328  30.579  1.00  0.00     0.031 C 
ATOM     62  C   UNL A   1      44.415  31.031  30.550  1.00  0.00     0.037 A 
BRANCH  49  63
ATOM     63  C   UNL A   1      38.736  29.137  29.032  1.00  0.00     0.057 A 
ATOM     64  C   UNL A   1      37.867  29.051  30.129  1.00  0.00     0.134 A 
ATOM     65  C   UNL A   1      38.200  29.581  27.816  1.00  0.00     0.134 A 
ATOM     66  F   UNL A   1      38.315  28.621  31.317  1.00  0.00    -0.206 F 
ATOM     67  C   UNL A   1      36.514  29.371  30.013  1.00  0.00     0.040 A 
ATOM     68  C   UNL A   1      36.853  29.929  27.696  1.00  0.00     0.040 A 
ATOM     69  F   UNL A   1      38.977  29.693  26.729  1.00  0.00    -0.206 F 
ATOM     70  C   UNL A   1      36.005  29.819  28.797  1.00  0.00     0.006 A 
ENDBRANCH  49  63
BRANCH  50  71
ATOM     71  C   UNL A   1      48.378  26.608  29.401  1.00  0.00     0.057 A 
ATOM     72  C   UNL A   1      49.201  26.842  28.294  1.00  0.00     0.134 A 
ATOM     73  C   UNL A   1      48.963  26.023  30.530  1.00  0.00     0.134 A 
ATOM     74  F   UNL A   1      48.692  27.383  27.178  1.00  0.00    -0.206 F 
ATOM     75  C   UNL A   1      50.552  26.489  28.300  1.00  0.00     0.040 A 
ATOM     76  C   UNL A   1      50.318  25.688  30.558  1.00  0.00     0.040 A 
ATOM     77  F   UNL A   1      48.229  25.781  31.625  1.00  0.00    -0.206 F 
ATOM     78  C   UNL A   1      51.114  25.915  29.437  1.00  0.00     0.006 A 
ENDBRANCH  50  71
BRANCH  62  79
ATOM     79  C   UNL A   1      44.843  32.349  31.124  1.00  0.00     0.057 A 
ATOM     80  C   UNL A   1      44.936  32.558  32.505  1.00  0.00     0.134 A 
ATOM     81  C   UNL A   1      45.202  33.409  30.282  1.00  0.00     0.134 A 
ATOM     82  F   UNL A   1      44.595  31.587  33.364  1.00  0.00    -0.206 F 
ATOM     83  C   UNL A   1      45.352  33.783  33.029  1.00  0.00     0.040 A 
ATOM     84  C   UNL A   1      45.642  34.630  30.794  1.00  0.00     0.040 A 
ATOM     85  F   UNL A   1      45.142  33.271  28.949  1.00  0.00    -0.206 F 
ATOM     86  C   UNL A   1      45.714  34.821  32.172  1.00  0.00     0.006 A 
ENDBRANCH  62  79
ENDBRANCH  36  37
ENDBRANCH  28  31
ENDBRANCH  26  27
ENDBRANCH  25  26
ENDBRANCH  24  25
ENDBRANCH   1  24
TORSDOF 16
ENDMDL
