MODEL 1
REMARK VINA RESULT:     -12.5      0.000      0.000
REMARK SMILES Cc1cc(C)c2c(CCCC(=O)NCCCCCCNC(=O)c3ccc(-c4c5nc(c(-c6c(F)cccc6F)c6ccc([nH]6)c(-c6c(F)cccc6F)c6nc(c(-c7c(F)cccc7F)c7ccc4[nH]7)C=C6)C=C5)cc3)c(-c3ccccn3)[nH]c2c1
REMARK SMILES IDX 15 1 14 2 13 3 11 4 12 5 10 7 9 8 8 9 7 10 1 11 2 12 3 13
REMARK SMILES IDX 86 14 4 15 85 16 5 17 6 18 84 19 77 20 78 22 79 23 83 24
REMARK SMILES IDX 80 25 82 26 81 27 16 28 17 29 18 30 19 31 20 32 21 33 22 35
REMARK SMILES IDX 23 36 24 37 76 38 25 39 75 40 26 41 27 42 28 43 69 44 29 45
REMARK SMILES IDX 74 46 68 47 70 48 30 49 73 50 67 51 66 52 31 54 57 55 40 56
REMARK SMILES IDX 56 57 41 58 44 59 55 60 71 61 42 62 43 63 54 65 72 66 45 67
REMARK SMILES IDX 32 68 33 69 38 70 34 71 35 72 37 73 39 74 36 75 58 76 59 77
REMARK SMILES IDX 64 78 60 79 61 80 63 81 65 82 62 83 46 84 47 85 52 86 48 87
REMARK SMILES IDX 49 88 51 89 53 90 50 91
REMARK H PARENT 13 6 84 21 20 34 70 53 44 64
REMARK Flexibility Score: inf
ROOT
ATOM      1  C   UNL A   1      33.650  22.367  23.461  1.00  0.00     0.021 C 
ENDROOT
BRANCH   1   2
ATOM      2  C   UNL A   1      32.580  23.338  22.974  1.00  0.00     0.116 C 
BRANCH   2   3
ATOM      3  N   UNL A   1      32.798  23.793  21.627  1.00  0.00    -0.356 N 
ATOM      4  C   UNL A   1      32.745  25.026  21.070  1.00  0.00     0.220 C 
ATOM      5  O   UNL A   1      33.171  25.108  19.911  1.00  0.00    -0.275 OA
ATOM      6  H   UNL A   1      33.027  23.075  20.993  1.00  0.00     0.163 HD
BRANCH   4   7
ATOM      7  C   UNL A   1      32.328  26.294  21.794  1.00  0.00     0.100 C 
BRANCH   7   8
ATOM      8  C   UNL A   1      30.947  26.553  22.352  1.00  0.00     0.015 C 
BRANCH   8   9
ATOM      9  C   UNL A   1      30.703  26.956  23.796  1.00  0.00     0.039 C 
BRANCH   9  10
ATOM     10  C   UNL A   1      31.017  28.306  24.434  1.00  0.00    -0.013 A 
ATOM     11  C   UNL A   1      35.340  29.863  27.924  1.00  0.00     0.044 C 
ATOM     12  C   UNL A   1      34.265  29.376  26.998  1.00  0.00    -0.049 A 
ATOM     13  C   UNL A   1      34.257  28.053  26.558  1.00  0.00     0.007 A 
ATOM     14  C   UNL A   1      33.283  30.260  26.544  1.00  0.00     0.030 A 
ATOM     15  C   UNL A   1      33.264  27.552  25.686  1.00  0.00    -0.041 A 
ATOM     16  C   UNL A   1      32.281  29.759  25.704  1.00  0.00     0.047 A 
ATOM     17  C   UNL A   1      33.414  26.117  25.243  1.00  0.00     0.045 C 
ATOM     18  C   UNL A   1      32.213  28.435  25.281  1.00  0.00     0.006 A 
ATOM     19  N   UNL A   1      31.228  30.420  25.137  1.00  0.00    -0.353 N 
ATOM     20  C   UNL A   1      30.516  29.614  24.277  1.00  0.00     0.068 A 
ATOM     21  H   UNL A   1      31.004  31.361  25.321  1.00  0.00     0.167 HD
BRANCH  20  22
ATOM     22  C   UNL A   1      29.582  30.288  23.368  1.00  0.00     0.087 A 
ATOM     23  C   UNL A   1      28.870  31.414  23.789  1.00  0.00     0.030 A 
ATOM     24  N   UNL A   1      29.465  29.786  22.125  1.00  0.00    -0.255 NA
ATOM     25  C   UNL A   1      28.165  32.161  22.849  1.00  0.00     0.004 A 
ATOM     26  C   UNL A   1      28.778  30.538  21.226  1.00  0.00     0.112 A 
ATOM     27  C   UNL A   1      28.153  31.739  21.527  1.00  0.00     0.020 A 
ENDBRANCH  20  22
ENDBRANCH   9  10
ENDBRANCH   8   9
ENDBRANCH   7   8
ENDBRANCH   4   7
ENDBRANCH   2   3
ENDBRANCH   1   2
BRANCH   1  28
ATOM     28  C   UNL A   1      35.037  23.010  23.519  1.00  0.00     0.002 C 
BRANCH  28  29
ATOM     29  C   UNL A   1      35.865  22.686  24.777  1.00  0.00     0.002 C 
BRANCH  29  30
ATOM     30  C   UNL A   1      37.325  23.164  24.790  1.00  0.00     0.021 C 
BRANCH  30  31
ATOM     31  C   UNL A   1      38.015  22.946  26.124  1.00  0.00     0.116 C 
BRANCH  31  32
ATOM     32  N   UNL A   1      39.328  22.309  25.978  1.00  0.00    -0.352 N 
ATOM     33  C   UNL A   1      40.582  22.855  26.197  1.00  0.00     0.251 C 
ATOM     34  H   UNL A   1      39.317  21.370  25.687  1.00  0.00     0.163 HD
ATOM     35  O   UNL A   1      41.592  22.341  25.755  1.00  0.00    -0.269 OA
BRANCH  33  36
ATOM     36  C   UNL A   1      40.657  24.077  27.012  1.00  0.00     0.039 A 
ATOM     37  C   UNL A   1      41.501  24.190  28.119  1.00  0.00     0.014 A 
ATOM     38  C   UNL A   1      39.877  25.145  26.590  1.00  0.00     0.014 A 
ATOM     39  C   UNL A   1      41.584  25.423  28.759  1.00  0.00     0.010 A 
ATOM     40  C   UNL A   1      40.149  26.395  27.055  1.00  0.00     0.010 A 
ATOM     41  C   UNL A   1      40.903  26.520  28.209  1.00  0.00    -0.014 A 
BRANCH  41  42
ATOM     42  C   UNL A   1      40.977  27.850  28.787  1.00  0.00     0.031 A 
ATOM     43  C   UNL A   1      42.061  28.704  28.238  1.00  0.00     0.074 A 
ATOM     44  C   UNL A   1      39.997  28.324  29.588  1.00  0.00     0.049 A 
ATOM     45  N   UNL A   1      43.106  29.137  28.858  1.00  0.00    -0.248 NA
ATOM     46  C   UNL A   1      42.060  28.995  26.795  1.00  0.00     0.031 C 
ATOM     47  C   UNL A   1      38.716  27.705  29.962  1.00  0.00     0.029 A 
ATOM     48  N   UNL A   1      39.909  29.544  30.178  1.00  0.00    -0.354 N 
ATOM     49  C   UNL A   1      43.801  29.920  27.943  1.00  0.00     0.074 A 
ATOM     50  C   UNL A   1      43.208  29.661  26.655  1.00  0.00     0.031 C 
ATOM     51  C   UNL A   1      37.895  28.633  30.501  1.00  0.00     0.029 A 
ATOM     52  C   UNL A   1      38.653  29.854  30.688  1.00  0.00     0.049 A 
ATOM     53  H   UNL A   1      40.674  30.160  30.239  1.00  0.00     0.167 HD
ATOM     54  C   UNL A   1      44.669  30.883  28.356  1.00  0.00     0.037 A 
ATOM     55  C   UNL A   1      38.279  31.051  31.203  1.00  0.00     0.037 A 
ATOM     56  C   UNL A   1      45.000  30.723  29.749  1.00  0.00     0.049 A 
ATOM     57  C   UNL A   1      39.530  31.769  31.565  1.00  0.00     0.074 A 
ATOM     58  C   UNL A   1      45.631  29.738  30.483  1.00  0.00     0.029 A 
ATOM     59  N   UNL A   1      44.300  31.478  30.660  1.00  0.00    -0.354 N 
ATOM     60  N   UNL A   1      40.336  31.376  32.513  1.00  0.00    -0.248 NA
ATOM     61  C   UNL A   1      40.127  32.620  30.546  1.00  0.00     0.031 C 
ATOM     62  C   UNL A   1      44.885  29.653  31.697  1.00  0.00     0.029 A 
ATOM     63  C   UNL A   1      43.898  30.638  31.668  1.00  0.00     0.049 A 
ATOM     64  H   UNL A   1      44.121  32.444  30.600  1.00  0.00     0.167 HD
ATOM     65  C   UNL A   1      41.610  31.566  31.997  1.00  0.00     0.074 A 
ATOM     66  C   UNL A   1      41.417  32.390  30.803  1.00  0.00     0.031 C 
ATOM     67  C   UNL A   1      42.663  30.797  32.405  1.00  0.00     0.037 A 
BRANCH  54  68
ATOM     68  C   UNL A   1      44.950  32.157  27.608  1.00  0.00     0.057 A 
ATOM     69  C   UNL A   1      46.165  32.302  26.917  1.00  0.00     0.134 A 
ATOM     70  C   UNL A   1      44.203  33.342  27.767  1.00  0.00     0.134 A 
ATOM     71  F   UNL A   1      46.975  31.250  26.721  1.00  0.00    -0.206 F 
ATOM     72  C   UNL A   1      46.628  33.545  26.468  1.00  0.00     0.040 A 
ATOM     73  C   UNL A   1      44.631  34.578  27.278  1.00  0.00     0.040 A 
ATOM     74  F   UNL A   1      43.076  33.384  28.488  1.00  0.00    -0.206 F 
ATOM     75  C   UNL A   1      45.862  34.689  26.652  1.00  0.00     0.006 A 
ENDBRANCH  54  68
BRANCH  55  76
ATOM     76  C   UNL A   1      36.987  31.755  31.032  1.00  0.00     0.057 A 
ATOM     77  C   UNL A   1      36.145  31.987  32.128  1.00  0.00     0.134 A 
ATOM     78  C   UNL A   1      36.695  32.482  29.864  1.00  0.00     0.134 A 
ATOM     79  F   UNL A   1      36.366  31.366  33.296  1.00  0.00    -0.206 F 
ATOM     80  C   UNL A   1      35.098  32.918  32.082  1.00  0.00     0.040 A 
ATOM     81  C   UNL A   1      35.651  33.413  29.803  1.00  0.00     0.040 A 
ATOM     82  F   UNL A   1      37.471  32.386  28.775  1.00  0.00    -0.206 F 
ATOM     83  C   UNL A   1      34.859  33.647  30.920  1.00  0.00     0.006 A 
ENDBRANCH  55  76
BRANCH  67  84
ATOM     84  C   UNL A   1      42.453  29.873  33.578  1.00  0.00     0.057 A 
ATOM     85  C   UNL A   1      42.480  30.280  34.922  1.00  0.00     0.134 A 
ATOM     86  C   UNL A   1      42.044  28.558  33.332  1.00  0.00     0.134 A 
ATOM     87  F   UNL A   1      42.765  31.543  35.259  1.00  0.00    -0.206 F 
ATOM     88  C   UNL A   1      42.146  29.413  35.968  1.00  0.00     0.040 A 
ATOM     89  C   UNL A   1      41.677  27.692  34.365  1.00  0.00     0.040 A 
ATOM     90  F   UNL A   1      41.939  28.110  32.072  1.00  0.00    -0.206 F 
ATOM     91  C   UNL A   1      41.735  28.115  35.690  1.00  0.00     0.006 A 
ENDBRANCH  67  84
ENDBRANCH  41  42
ENDBRANCH  33  36
ENDBRANCH  31  32
ENDBRANCH  30  31
ENDBRANCH  29  30
ENDBRANCH  28  29
ENDBRANCH   1  28
TORSDOF 17
ENDMDL
MODEL 2
REMARK VINA RESULT:     -12.5      2.774      5.150
REMARK SMILES Cc1cc(C)c2c(CCCC(=O)NCCCCCCNC(=O)c3ccc(-c4c5nc(c(-c6c(F)cccc6F)c6ccc([nH]6)c(-c6c(F)cccc6F)c6nc(c(-c7c(F)cccc7F)c7ccc4[nH]7)C=C6)C=C5)cc3)c(-c3ccccn3)[nH]c2c1
REMARK SMILES IDX 15 1 14 2 13 3 11 4 12 5 10 7 9 8 8 9 7 10 1 11 2 12 3 13
REMARK SMILES IDX 86 14 4 15 85 16 5 17 6 18 84 19 77 20 78 22 79 23 83 24
REMARK SMILES IDX 80 25 82 26 81 27 16 28 17 29 18 30 19 31 20 32 21 33 22 35
REMARK SMILES IDX 23 36 24 37 76 38 25 39 75 40 26 41 27 42 28 43 69 44 29 45
REMARK SMILES IDX 74 46 68 47 70 48 30 49 73 50 67 51 66 52 31 54 57 55 40 56
REMARK SMILES IDX 56 57 41 58 44 59 55 60 71 61 42 62 43 63 54 65 72 66 45 67
REMARK SMILES IDX 32 68 33 69 38 70 34 71 35 72 37 73 39 74 36 75 58 76 59 77
REMARK SMILES IDX 64 78 60 79 61 80 63 81 65 82 62 83 46 84 47 85 52 86 48 87
REMARK SMILES IDX 49 88 51 89 53 90 50 91
REMARK H PARENT 13 6 84 21 20 34 70 53 44 64
REMARK Flexibility Score: inf
ROOT
ATOM      1  C   UNL A   1      39.663  21.663  26.226  1.00  0.00     0.021 C 
ENDROOT
BRANCH   1   2
ATOM      2  C   UNL A   1      38.884  22.970  26.129  1.00  0.00     0.116 C 
BRANCH   2   3
ATOM      3  N   UNL A   1      37.952  22.994  25.033  1.00  0.00    -0.356 N 
ATOM      4  C   UNL A   1      36.637  23.308  24.973  1.00  0.00     0.220 C 
ATOM      5  O   UNL A   1      36.163  23.410  23.834  1.00  0.00    -0.275 OA
ATOM      6  H   UNL A   1      38.344  22.734  24.168  1.00  0.00     0.163 HD
BRANCH   4   7
ATOM      7  C   UNL A   1      35.765  23.652  26.167  1.00  0.00     0.100 C 
BRANCH   7   8
ATOM      8  C   UNL A   1      34.528  24.518  26.110  1.00  0.00     0.015 C 
BRANCH   8   9
ATOM      9  C   UNL A   1      33.142  23.961  25.834  1.00  0.00     0.039 C 
BRANCH   9  10
ATOM     10  C   UNL A   1      32.621  23.424  24.505  1.00  0.00    -0.013 A 
ATOM     11  C   UNL A   1      32.445  18.024  22.479  1.00  0.00     0.044 C 
ATOM     12  C   UNL A   1      32.511  19.391  23.093  1.00  0.00    -0.049 A 
ATOM     13  C   UNL A   1      33.039  19.567  24.372  1.00  0.00     0.007 A 
ATOM     14  C   UNL A   1      32.009  20.493  22.398  1.00  0.00     0.030 A 
ATOM     15  C   UNL A   1      33.120  20.835  24.989  1.00  0.00    -0.041 A 
ATOM     16  C   UNL A   1      32.116  21.755  22.994  1.00  0.00     0.047 A 
ATOM     17  C   UNL A   1      33.659  20.868  26.399  1.00  0.00     0.045 C 
ATOM     18  C   UNL A   1      32.678  21.976  24.247  1.00  0.00     0.006 A 
ATOM     19  N   UNL A   1      31.702  22.967  22.515  1.00  0.00    -0.353 N 
ATOM     20  C   UNL A   1      31.879  23.973  23.440  1.00  0.00     0.068 A 
ATOM     21  H   UNL A   1      31.324  23.106  21.618  1.00  0.00     0.167 HD
BRANCH  20  22
ATOM     22  C   UNL A   1      31.179  25.236  23.176  1.00  0.00     0.087 A 
ATOM     23  C   UNL A   1      30.078  25.611  23.950  1.00  0.00     0.030 A 
ATOM     24  N   UNL A   1      31.659  26.007  22.184  1.00  0.00    -0.255 NA
ATOM     25  C   UNL A   1      29.573  26.903  23.828  1.00  0.00     0.004 A 
ATOM     26  C   UNL A   1      31.154  27.266  22.092  1.00  0.00     0.112 A 
ATOM     27  C   UNL A   1      30.151  27.767  22.908  1.00  0.00     0.020 A 
ENDBRANCH  20  22
ENDBRANCH   9  10
ENDBRANCH   8   9
ENDBRANCH   7   8
ENDBRANCH   4   7
ENDBRANCH   2   3
ENDBRANCH   1   2
BRANCH   1  28
ATOM     28  C   UNL A   1      40.415  21.531  27.551  1.00  0.00     0.002 C 
BRANCH  28  29
ATOM     29  C   UNL A   1      41.951  21.470  27.439  1.00  0.00     0.002 C 
BRANCH  29  30
ATOM     30  C   UNL A   1      42.567  20.113  27.070  1.00  0.00     0.021 C 
BRANCH  30  31
ATOM     31  C   UNL A   1      42.703  19.902  25.573  1.00  0.00     0.116 C 
BRANCH  31  32
ATOM     32  N   UNL A   1      44.100  19.745  25.153  1.00  0.00    -0.352 N 
ATOM     33  C   UNL A   1      45.023  20.728  24.837  1.00  0.00     0.251 C 
ATOM     34  H   UNL A   1      44.424  18.819  25.089  1.00  0.00     0.163 HD
ATOM     35  O   UNL A   1      46.038  20.479  24.216  1.00  0.00    -0.269 OA
BRANCH  33  36
ATOM     36  C   UNL A   1      44.745  22.094  25.305  1.00  0.00     0.039 A 
ATOM     37  C   UNL A   1      43.817  22.928  24.676  1.00  0.00     0.014 A 
ATOM     38  C   UNL A   1      45.418  22.502  26.448  1.00  0.00     0.014 A 
ATOM     39  C   UNL A   1      43.541  24.162  25.258  1.00  0.00     0.010 A 
ATOM     40  C   UNL A   1      44.966  23.584  27.140  1.00  0.00     0.010 A 
ATOM     41  C   UNL A   1      44.122  24.473  26.497  1.00  0.00    -0.014 A 
BRANCH  41  42
ATOM     42  C   UNL A   1      43.848  25.716  27.194  1.00  0.00     0.031 A 
ATOM     43  C   UNL A   1      44.797  26.818  26.891  1.00  0.00     0.074 A 
ATOM     44  C   UNL A   1      42.696  25.901  27.877  1.00  0.00     0.049 A 
ATOM     45  N   UNL A   1      45.642  27.366  27.696  1.00  0.00    -0.248 NA
ATOM     46  C   UNL A   1      44.924  27.268  25.495  1.00  0.00     0.031 C 
ATOM     47  C   UNL A   1      41.531  25.011  27.998  1.00  0.00     0.029 A 
ATOM     48  N   UNL A   1      42.286  27.005  28.551  1.00  0.00    -0.354 N 
ATOM     49  C   UNL A   1      46.276  28.367  26.968  1.00  0.00     0.074 A 
ATOM     50  C   UNL A   1      45.921  28.151  25.588  1.00  0.00     0.031 C 
ATOM     51  C   UNL A   1      40.475  25.698  28.487  1.00  0.00     0.029 A 
ATOM     52  C   UNL A   1      40.938  27.010  28.892  1.00  0.00     0.049 A 
ATOM     53  H   UNL A   1      42.895  27.743  28.780  1.00  0.00     0.167 HD
ATOM     54  C   UNL A   1      46.869  29.423  27.589  1.00  0.00     0.037 A 
ATOM     55  C   UNL A   1      40.264  28.048  29.447  1.00  0.00     0.037 A 
ATOM     56  C   UNL A   1      47.041  29.168  28.997  1.00  0.00     0.049 A 
ATOM     57  C   UNL A   1      41.284  28.943  30.055  1.00  0.00     0.074 A 
ATOM     58  C   UNL A   1      47.759  28.242  29.729  1.00  0.00     0.029 A 
ATOM     59  N   UNL A   1      46.090  29.667  29.855  1.00  0.00    -0.354 N 
ATOM     60  N   UNL A   1      42.023  28.602  31.075  1.00  0.00    -0.248 NA
ATOM     61  C   UNL A   1      41.822  30.003  29.216  1.00  0.00     0.031 C 
ATOM     62  C   UNL A   1      46.895  27.878  30.804  1.00  0.00     0.029 A 
ATOM     63  C   UNL A   1      45.740  28.655  30.714  1.00  0.00     0.049 A 
ATOM     64  H   UNL A   1      45.727  30.582  29.853  1.00  0.00     0.167 HD
ATOM     65  C   UNL A   1      43.288  29.088  30.775  1.00  0.00     0.074 A 
ATOM     66  C   UNL A   1      43.088  29.994  29.643  1.00  0.00     0.031 C 
ATOM     67  C   UNL A   1      44.414  28.491  31.268  1.00  0.00     0.037 A 
BRANCH  54  68
ATOM     68  C   UNL A   1      46.979  30.805  27.007  1.00  0.00     0.057 A 
ATOM     69  C   UNL A   1      48.229  31.445  26.972  1.00  0.00     0.134 A 
ATOM     70  C   UNL A   1      45.870  31.632  26.735  1.00  0.00     0.134 A 
ATOM     71  F   UNL A   1      49.358  30.767  27.235  1.00  0.00    -0.206 F 
ATOM     72  C   UNL A   1      48.361  32.819  26.740  1.00  0.00     0.040 A 
ATOM     73  C   UNL A   1      45.995  32.994  26.451  1.00  0.00     0.040 A 
ATOM     74  F   UNL A   1      44.610  31.192  26.828  1.00  0.00    -0.206 F 
ATOM     75  C   UNL A   1      47.241  33.600  26.482  1.00  0.00     0.006 A 
ENDBRANCH  54  68
BRANCH  55  76
ATOM     76  C   UNL A   1      38.889  28.510  29.147  1.00  0.00     0.057 A 
ATOM     77  C   UNL A   1      37.924  28.602  30.160  1.00  0.00     0.134 A 
ATOM     78  C   UNL A   1      38.579  29.159  27.939  1.00  0.00     0.134 A 
ATOM     79  F   UNL A   1      38.146  28.044  31.359  1.00  0.00    -0.206 F 
ATOM     80  C   UNL A   1      36.738  29.331  29.998  1.00  0.00     0.040 A 
ATOM     81  C   UNL A   1      37.398  29.889  27.762  1.00  0.00     0.040 A 
ATOM     82  F   UNL A   1      39.454  29.188  26.923  1.00  0.00    -0.206 F 
ATOM     83  C   UNL A   1      36.480  29.992  28.801  1.00  0.00     0.006 A 
ENDBRANCH  55  76
BRANCH  67  84
ATOM     84  C   UNL A   1      44.246  27.415  32.310  1.00  0.00     0.057 A 
ATOM     85  C   UNL A   1      44.217  26.038  32.031  1.00  0.00     0.134 A 
ATOM     86  C   UNL A   1      44.283  27.776  33.661  1.00  0.00     0.134 A 
ATOM     87  F   UNL A   1      44.275  25.584  30.774  1.00  0.00    -0.206 F 
ATOM     88  C   UNL A   1      44.195  25.074  33.044  1.00  0.00     0.040 A 
ATOM     89  C   UNL A   1      44.293  26.823  34.682  1.00  0.00     0.040 A 
ATOM     90  F   UNL A   1      44.367  29.069  34.010  1.00  0.00    -0.206 F 
ATOM     91  C   UNL A   1      44.241  25.466  34.377  1.00  0.00     0.006 A 
ENDBRANCH  67  84
ENDBRANCH  41  42
ENDBRANCH  33  36
ENDBRANCH  31  32
ENDBRANCH  30  31
ENDBRANCH  29  30
ENDBRANCH  28  29
ENDBRANCH   1  28
TORSDOF 17
ENDMDL
MODEL 3
REMARK VINA RESULT:     -12.5      2.744      5.163
REMARK SMILES Cc1cc(C)c2c(CCCC(=O)NCCCCCCNC(=O)c3ccc(-c4c5nc(c(-c6c(F)cccc6F)c6ccc([nH]6)c(-c6c(F)cccc6F)c6nc(c(-c7c(F)cccc7F)c7ccc4[nH]7)C=C6)C=C5)cc3)c(-c3ccccn3)[nH]c2c1
REMARK SMILES IDX 15 1 14 2 13 3 11 4 12 5 10 7 9 8 8 9 7 10 1 11 2 12 3 13
REMARK SMILES IDX 86 14 4 15 85 16 5 17 6 18 84 19 77 20 78 22 79 23 83 24
REMARK SMILES IDX 80 25 82 26 81 27 16 28 17 29 18 30 19 31 20 32 21 33 22 35
REMARK SMILES IDX 23 36 24 37 76 38 25 39 75 40 26 41 27 42 28 43 69 44 29 45
REMARK SMILES IDX 74 46 68 47 70 48 30 49 73 50 67 51 66 52 31 54 57 55 40 56
REMARK SMILES IDX 56 57 41 58 44 59 55 60 71 61 42 62 43 63 54 65 72 66 45 67
REMARK SMILES IDX 32 68 33 69 38 70 34 71 35 72 37 73 39 74 36 75 58 76 59 77
REMARK SMILES IDX 64 78 60 79 61 80 63 81 65 82 62 83 46 84 47 85 52 86 48 87
REMARK SMILES IDX 49 88 51 89 53 90 50 91
REMARK H PARENT 13 6 84 21 20 34 70 53 44 64
REMARK Flexibility Score: inf
ROOT
ATOM      1  C   UNL A   1      39.457  22.479  26.882  1.00  0.00     0.021 C 
ENDROOT
BRANCH   1   2
ATOM      2  C   UNL A   1      38.433  22.440  25.754  1.00  0.00     0.116 C 
BRANCH   2   3
ATOM      3  N   UNL A   1      37.170  21.878  26.154  1.00  0.00    -0.356 N 
ATOM      4  C   UNL A   1      35.903  22.122  25.746  1.00  0.00     0.220 C 
ATOM      5  O   UNL A   1      35.046  21.330  26.159  1.00  0.00    -0.275 OA
ATOM      6  H   UNL A   1      37.241  21.190  26.855  1.00  0.00     0.163 HD
BRANCH   4   7
ATOM      7  C   UNL A   1      35.497  23.193  24.748  1.00  0.00     0.100 C 
BRANCH   7   8
ATOM      8  C   UNL A   1      34.968  24.559  25.118  1.00  0.00     0.015 C 
BRANCH   8   9
ATOM      9  C   UNL A   1      34.037  25.354  24.220  1.00  0.00     0.039 C 
BRANCH   9  10
ATOM     10  C   UNL A   1      32.522  25.206  24.113  1.00  0.00    -0.013 A 
ATOM     11  C   UNL A   1      28.463  29.146  22.976  1.00  0.00     0.044 C 
ATOM     12  C   UNL A   1      29.585  28.187  23.243  1.00  0.00    -0.049 A 
ATOM     13  C   UNL A   1      30.907  28.630  23.256  1.00  0.00     0.007 A 
ATOM     14  C   UNL A   1      29.311  26.832  23.446  1.00  0.00     0.030 A 
ATOM     15  C   UNL A   1      31.994  27.762  23.502  1.00  0.00    -0.041 A 
ATOM     16  C   UNL A   1      30.383  25.975  23.720  1.00  0.00     0.047 A 
ATOM     17  C   UNL A   1      33.374  28.368  23.426  1.00  0.00     0.045 C 
ATOM     18  C   UNL A   1      31.710  26.389  23.787  1.00  0.00     0.006 A 
ATOM     19  N   UNL A   1      30.367  24.627  23.950  1.00  0.00    -0.353 N 
ATOM     20  C   UNL A   1      31.637  24.111  24.072  1.00  0.00     0.068 A 
ATOM     21  H   UNL A   1      29.545  24.090  24.020  1.00  0.00     0.167 HD
BRANCH  20  22
ATOM     22  C   UNL A   1      31.762  22.650  23.988  1.00  0.00     0.087 A 
ATOM     23  C   UNL A   1      31.880  22.019  22.748  1.00  0.00     0.030 A 
ATOM     24  N   UNL A   1      31.777  21.969  25.148  1.00  0.00    -0.255 NA
ATOM     25  C   UNL A   1      32.218  20.668  22.705  1.00  0.00     0.004 A 
ATOM     26  C   UNL A   1      32.116  20.655  25.078  1.00  0.00     0.112 A 
ATOM     27  C   UNL A   1      32.383  19.978  23.898  1.00  0.00     0.020 A 
ENDBRANCH  20  22
ENDBRANCH   9  10
ENDBRANCH   8   9
ENDBRANCH   7   8
ENDBRANCH   4   7
ENDBRANCH   2   3
ENDBRANCH   1   2
BRANCH   1  28
ATOM     28  C   UNL A   1      40.854  22.069  26.414  1.00  0.00     0.002 C 
BRANCH  28  29
ATOM     29  C   UNL A   1      41.718  21.342  27.463  1.00  0.00     0.002 C 
BRANCH  29  30
ATOM     30  C   UNL A   1      42.448  20.072  27.002  1.00  0.00     0.021 C 
BRANCH  30  31
ATOM     31  C   UNL A   1      42.594  19.978  25.494  1.00  0.00     0.116 C 
BRANCH  31  32
ATOM     32  N   UNL A   1      43.988  19.794  25.076  1.00  0.00    -0.352 N 
ATOM     33  C   UNL A   1      44.934  20.759  24.773  1.00  0.00     0.251 C 
ATOM     34  H   UNL A   1      44.292  18.861  25.003  1.00  0.00     0.163 HD
ATOM     35  O   UNL A   1      45.945  20.494  24.152  1.00  0.00    -0.269 OA
BRANCH  33  36
ATOM     36  C   UNL A   1      44.685  22.126  25.255  1.00  0.00     0.039 A 
ATOM     37  C   UNL A   1      43.831  23.011  24.592  1.00  0.00     0.014 A 
ATOM     38  C   UNL A   1      45.308  22.482  26.444  1.00  0.00     0.014 A 
ATOM     39  C   UNL A   1      43.572  24.243  25.185  1.00  0.00     0.010 A 
ATOM     40  C   UNL A   1      44.861  23.568  27.133  1.00  0.00     0.010 A 
ATOM     41  C   UNL A   1      44.092  24.504  26.463  1.00  0.00    -0.014 A 
BRANCH  41  42
ATOM     42  C   UNL A   1      43.829  25.744  27.170  1.00  0.00     0.031 A 
ATOM     43  C   UNL A   1      44.776  26.846  26.862  1.00  0.00     0.074 A 
ATOM     44  C   UNL A   1      42.686  25.926  27.869  1.00  0.00     0.049 A 
ATOM     45  N   UNL A   1      45.632  27.388  27.659  1.00  0.00    -0.248 NA
ATOM     46  C   UNL A   1      44.886  27.304  25.467  1.00  0.00     0.031 C 
ATOM     47  C   UNL A   1      41.521  25.038  27.999  1.00  0.00     0.029 A 
ATOM     48  N   UNL A   1      42.286  27.027  28.555  1.00  0.00    -0.354 N 
ATOM     49  C   UNL A   1      46.259  28.392  26.929  1.00  0.00     0.074 A 
ATOM     50  C   UNL A   1      45.886  28.185  25.553  1.00  0.00     0.031 C 
ATOM     51  C   UNL A   1      40.473  25.724  28.506  1.00  0.00     0.029 A 
ATOM     52  C   UNL A   1      40.943  27.033  28.913  1.00  0.00     0.049 A 
ATOM     53  H   UNL A   1      42.900  27.763  28.780  1.00  0.00     0.167 HD
ATOM     54  C   UNL A   1      46.861  29.443  27.550  1.00  0.00     0.037 A 
ATOM     55  C   UNL A   1      40.278  28.068  29.483  1.00  0.00     0.037 A 
ATOM     56  C   UNL A   1      47.051  29.179  28.953  1.00  0.00     0.049 A 
ATOM     57  C   UNL A   1      41.308  28.958  30.083  1.00  0.00     0.074 A 
ATOM     58  C   UNL A   1      47.776  28.248  29.671  1.00  0.00     0.029 A 
ATOM     59  N   UNL A   1      46.112  29.675  29.826  1.00  0.00    -0.354 N 
ATOM     60  N   UNL A   1      42.059  28.610  31.091  1.00  0.00    -0.248 NA
ATOM     61  C   UNL A   1      41.837  30.022  29.243  1.00  0.00     0.031 C 
ATOM     62  C   UNL A   1      46.925  27.878  30.754  1.00  0.00     0.029 A 
ATOM     63  C   UNL A   1      45.771  28.658  30.683  1.00  0.00     0.049 A 
ATOM     64  H   UNL A   1      45.750  30.590  29.835  1.00  0.00     0.167 HD
ATOM     65  C   UNL A   1      43.321  29.095  30.778  1.00  0.00     0.074 A 
ATOM     66  C   UNL A   1      43.108  30.008  29.654  1.00  0.00     0.031 C 
ATOM     67  C   UNL A   1      44.451  28.493  31.254  1.00  0.00     0.037 A 
BRANCH  54  68
ATOM     68  C   UNL A   1      46.967  30.828  26.974  1.00  0.00     0.057 A 
ATOM     69  C   UNL A   1      48.215  31.471  26.939  1.00  0.00     0.134 A 
ATOM     70  C   UNL A   1      45.855  31.654  26.709  1.00  0.00     0.134 A 
ATOM     71  F   UNL A   1      49.346  30.795  27.196  1.00  0.00    -0.206 F 
ATOM     72  C   UNL A   1      48.343  32.847  26.714  1.00  0.00     0.040 A 
ATOM     73  C   UNL A   1      45.976  33.018  26.433  1.00  0.00     0.040 A 
ATOM     74  F   UNL A   1      44.596  31.211  26.804  1.00  0.00    -0.206 F 
ATOM     75  C   UNL A   1      47.220  33.626  26.464  1.00  0.00     0.006 A 
ENDBRANCH  54  68
BRANCH  55  76
ATOM     76  C   UNL A   1      38.900  28.534  29.202  1.00  0.00     0.057 A 
ATOM     77  C   UNL A   1      37.945  28.611  30.226  1.00  0.00     0.134 A 
ATOM     78  C   UNL A   1      38.578  29.201  28.007  1.00  0.00     0.134 A 
ATOM     79  F   UNL A   1      38.178  28.035  31.414  1.00  0.00    -0.206 F 
ATOM     80  C   UNL A   1      36.758  29.343  30.086  1.00  0.00     0.040 A 
ATOM     81  C   UNL A   1      37.396  29.934  27.853  1.00  0.00     0.040 A 
ATOM     82  F   UNL A   1      39.444  29.246  26.984  1.00  0.00    -0.206 F 
ATOM     83  C   UNL A   1      36.488  30.021  28.901  1.00  0.00     0.006 A 
ENDBRANCH  55  76
BRANCH  67  84
ATOM     84  C   UNL A   1      44.295  27.411  32.291  1.00  0.00     0.057 A 
ATOM     85  C   UNL A   1      44.242  26.037  32.002  1.00  0.00     0.134 A 
ATOM     86  C   UNL A   1      44.369  27.761  33.643  1.00  0.00     0.134 A 
ATOM     87  F   UNL A   1      44.264  25.592  30.741  1.00  0.00    -0.206 F 
ATOM     88  C   UNL A   1      44.231  25.065  33.008  1.00  0.00     0.040 A 
ATOM     89  C   UNL A   1      44.391  26.800  34.657  1.00  0.00     0.040 A 
ATOM     90  F   UNL A   1      44.477  29.050  34.000  1.00  0.00    -0.206 F 
ATOM     91  C   UNL A   1      44.314  25.446  34.343  1.00  0.00     0.006 A 
ENDBRANCH  67  84
ENDBRANCH  41  42
ENDBRANCH  33  36
ENDBRANCH  31  32
ENDBRANCH  30  31
ENDBRANCH  29  30
ENDBRANCH  28  29
ENDBRANCH   1  28
TORSDOF 17
ENDMDL
