MODEL 1
REMARK VINA RESULT:     -11.4      0.000      0.000
REMARK SMILES COC(=O)c1ccccc1N1C(=O)/C(=C\c2ccc(-c3ccc(Cl)c(C(=O)NCCCCCCNC(=O)c4ccc(-c5c6nc(c(-c7c(F)cccc7F)c7ccc([nH]7)c(-c7c(F)cccc7F)c7nc(c(-c8c(F)cccc8F)c8ccc5[nH]8)C=C7)C=C6)cc4)c3)o2)SC1=S
REMARK SMILES IDX 30 1 29 2 28 3 26 4 27 5 25 7 20 8 21 9 92 10 22 11 23 12
REMARK SMILES IDX 24 13 19 14 16 15 17 16 93 17 18 18 15 19 11 20 12 21 95 22
REMARK SMILES IDX 13 23 14 24 94 25 96 26 10 27 5 28 6 29 7 30 9 31 8 32 3 33
REMARK SMILES IDX 4 34 2 35 1 36 31 37 32 38 33 39 34 40 35 41 36 42 37 44
REMARK SMILES IDX 38 45 39 46 91 47 40 48 90 49 41 50 42 51 43 52 84 53 44 54
REMARK SMILES IDX 89 55 83 56 85 57 45 58 88 59 82 60 81 61 46 63 72 64 55 65
REMARK SMILES IDX 71 66 56 67 59 68 70 69 86 70 57 71 58 72 69 74 87 75 60 76
REMARK SMILES IDX 47 77 48 78 53 79 49 80 50 81 52 82 54 83 51 84 73 85 74 86
REMARK SMILES IDX 79 87 75 88 76 89 78 90 80 91 77 92 61 93 62 94 67 95 63 96
REMARK SMILES IDX 64 97 66 98 68 99 65 100
REMARK H PARENT 28 6 35 43 85 62 59 73
REMARK Flexibility Score: inf
ROOT
ATOM      1  C   UNL A   1      42.712  26.619  26.051  1.00  0.00     0.021 C 
ENDROOT
BRANCH   1   2
ATOM      2  C   UNL A   1      41.223  26.379  25.833  1.00  0.00     0.116 C 
BRANCH   2   3
ATOM      3  N   UNL A   1      40.406  26.389  27.039  1.00  0.00    -0.352 N 
ATOM      4  C   UNL A   1      39.706  25.372  27.669  1.00  0.00     0.252 C 
ATOM      5  O   UNL A   1      39.173  25.611  28.749  1.00  0.00    -0.269 OA
ATOM      6  H   UNL A   1      40.341  27.265  27.482  1.00  0.00     0.163 HD
BRANCH   4   7
ATOM      7  C   UNL A   1      39.599  24.018  27.055  1.00  0.00     0.059 A 
ATOM      8  C   UNL A   1      38.154  22.468  25.854  1.00  0.00     0.018 A 
ATOM      9  C   UNL A   1      39.010  21.417  26.180  1.00  0.00     0.013 A 
ATOM     10  C   UNL A   1      38.535  23.771  26.185  1.00  0.00     0.027 A 
ATOM     11  C   UNL A   1      40.191  21.675  26.884  1.00  0.00     0.022 A 
ATOM     12  C   UNL A   1      40.470  22.965  27.361  1.00  0.00     0.053 A 
ATOM     13  Cl  UNL A   1      41.868  23.142  28.359  1.00  0.00    -0.083 Cl
BRANCH   8  14
ATOM     14  C   UNL A   1      36.810  22.274  25.335  1.00  0.00     0.134 A 
ATOM     15  C   UNL A   1      35.233  22.596  23.810  1.00  0.00     0.128 A 
ATOM     16  C   UNL A   1      34.856  21.509  24.588  1.00  0.00     0.051 A 
ATOM     17  O   UNL A   1      36.457  23.033  24.258  1.00  0.00    -0.457 OA
ATOM     18  C   UNL A   1      35.835  21.336  25.586  1.00  0.00     0.051 A 
BRANCH  15  19
ATOM     19  C   UNL A   1      34.509  23.217  22.758  1.00  0.00     0.068 C 
ATOM     20  N   UNL A   1      32.859  26.175  24.121  1.00  0.00    -0.260 N 
ATOM     21  C   UNL A   1      33.719  25.094  24.250  1.00  0.00     0.270 C 
ATOM     22  C   UNL A   1      32.291  26.376  22.877  1.00  0.00     0.152 C 
ATOM     23  O   UNL A   1      34.341  24.801  25.264  1.00  0.00    -0.268 OA
ATOM     24  C   UNL A   1      33.791  24.329  22.973  1.00  0.00     0.084 C 
ATOM     25  S   UNL A   1      32.804  25.085  21.781  1.00  0.00    -0.054 SA
ATOM     26  S   UNL A   1      31.352  27.651  22.342  1.00  0.00    -0.051 S 
BRANCH  20  27
ATOM     27  C   UNL A   1      32.664  27.001  25.266  1.00  0.00     0.065 A 
ATOM     28  C   UNL A   1      31.581  26.879  26.155  1.00  0.00     0.084 A 
ATOM     29  C   UNL A   1      31.535  27.697  27.299  1.00  0.00     0.018 A 
ATOM     30  C   UNL A   1      32.559  28.606  27.577  1.00  0.00     0.001 A 
ATOM     31  C   UNL A   1      33.688  27.925  25.566  1.00  0.00     0.028 A 
ATOM     32  C   UNL A   1      33.638  28.718  26.710  1.00  0.00     0.002 A 
BRANCH  28  33
ATOM     33  C   UNL A   1      30.484  25.878  26.047  1.00  0.00     0.339 C 
ATOM     34  O   UNL A   1      29.531  26.015  25.303  1.00  0.00    -0.246 OA
BRANCH  33  35
ATOM     35  O   UNL A   1      30.661  24.861  26.931  1.00  0.00    -0.465 OA
ATOM     36  C   UNL A   1      31.015  23.622  26.311  1.00  0.00     0.282 C 
ENDBRANCH  33  35
ENDBRANCH  28  33
ENDBRANCH  20  27
ENDBRANCH  15  19
ENDBRANCH   8  14
ENDBRANCH   4   7
ENDBRANCH   2   3
ENDBRANCH   1   2
BRANCH   1  37
ATOM     37  C   UNL A   1      43.670  25.609  25.423  1.00  0.00     0.002 C 
BRANCH  37  38
ATOM     38  C   UNL A   1      43.087  24.243  25.049  1.00  0.00     0.002 C 
BRANCH  38  39
ATOM     39  C   UNL A   1      43.985  23.025  25.278  1.00  0.00     0.021 C 
BRANCH  39  40
ATOM     40  C   UNL A   1      44.527  22.843  26.692  1.00  0.00     0.116 C 
BRANCH  40  41
ATOM     41  N   UNL A   1      45.931  23.186  26.810  1.00  0.00    -0.352 N 
ATOM     42  C   UNL A   1      46.538  24.193  27.519  1.00  0.00     0.251 C 
ATOM     43  H   UNL A   1      46.545  22.605  26.305  1.00  0.00     0.163 HD
ATOM     44  O   UNL A   1      47.742  24.392  27.376  1.00  0.00    -0.269 OA
BRANCH  42  45
ATOM     45  C   UNL A   1      45.763  25.055  28.443  1.00  0.00     0.039 A 
ATOM     46  C   UNL A   1      45.893  26.443  28.324  1.00  0.00     0.014 A 
ATOM     47  C   UNL A   1      44.968  24.521  29.461  1.00  0.00     0.014 A 
ATOM     48  C   UNL A   1      45.214  27.289  29.205  1.00  0.00     0.010 A 
ATOM     49  C   UNL A   1      44.232  25.366  30.293  1.00  0.00     0.010 A 
ATOM     50  C   UNL A   1      44.369  26.758  30.191  1.00  0.00    -0.014 A 
BRANCH  50  51
ATOM     51  C   UNL A   1      43.676  27.649  31.160  1.00  0.00     0.031 A 
ATOM     52  C   UNL A   1      44.285  27.904  32.515  1.00  0.00     0.074 A 
ATOM     53  C   UNL A   1      42.493  28.208  30.838  1.00  0.00     0.049 A 
ATOM     54  N   UNL A   1      43.823  28.623  33.509  1.00  0.00    -0.248 NA
ATOM     55  C   UNL A   1      45.568  27.244  32.803  1.00  0.00     0.031 C 
ATOM     56  C   UNL A   1      41.775  28.007  29.578  1.00  0.00     0.029 A 
ATOM     57  N   UNL A   1      41.682  29.057  31.549  1.00  0.00    -0.354 N 
ATOM     58  C   UNL A   1      44.747  28.485  34.538  1.00  0.00     0.074 A 
ATOM     59  C   UNL A   1      45.769  27.574  34.071  1.00  0.00     0.031 C 
ATOM     60  C   UNL A   1      40.643  28.731  29.596  1.00  0.00     0.029 A 
ATOM     61  C   UNL A   1      40.540  29.424  30.876  1.00  0.00     0.049 A 
ATOM     62  H   UNL A   1      41.898  29.375  32.456  1.00  0.00     0.167 HD
ATOM     63  C   UNL A   1      44.759  29.083  35.753  1.00  0.00     0.037 A 
ATOM     64  C   UNL A   1      39.528  30.228  31.251  1.00  0.00     0.037 A 
ATOM     65  C   UNL A   1      43.768  30.025  36.202  1.00  0.00     0.049 A 
ATOM     66  C   UNL A   1      39.582  30.900  32.598  1.00  0.00     0.074 A 
ATOM     67  C   UNL A   1      43.726  30.731  37.391  1.00  0.00     0.029 A 
ATOM     68  N   UNL A   1      42.650  30.399  35.475  1.00  0.00    -0.354 N 
ATOM     69  N   UNL A   1      40.498  30.811  33.531  1.00  0.00    -0.248 NA
ATOM     70  C   UNL A   1      38.468  31.797  32.936  1.00  0.00     0.031 C 
ATOM     71  C   UNL A   1      42.562  31.504  37.401  1.00  0.00     0.029 A 
ATOM     72  C   UNL A   1      41.904  31.316  36.196  1.00  0.00     0.049 A 
ATOM     73  H   UNL A   1      42.418  30.062  34.579  1.00  0.00     0.167 HD
ATOM     74  C   UNL A   1      40.092  31.670  34.546  1.00  0.00     0.074 A 
ATOM     75  C   UNL A   1      38.855  32.281  34.106  1.00  0.00     0.031 C 
ATOM     76  C   UNL A   1      40.688  31.931  35.734  1.00  0.00     0.037 A 
BRANCH  63  77
ATOM     77  C   UNL A   1      45.887  28.748  36.687  1.00  0.00     0.057 A 
ATOM     78  C   UNL A   1      47.100  29.447  36.661  1.00  0.00     0.134 A 
ATOM     79  C   UNL A   1      45.735  27.754  37.663  1.00  0.00     0.134 A 
ATOM     80  F   UNL A   1      47.316  30.403  35.744  1.00  0.00    -0.206 F 
ATOM     81  C   UNL A   1      48.128  29.160  37.562  1.00  0.00     0.040 A 
ATOM     82  C   UNL A   1      46.744  27.476  38.586  1.00  0.00     0.040 A 
ATOM     83  F   UNL A   1      44.595  27.049  37.745  1.00  0.00    -0.206 F 
ATOM     84  C   UNL A   1      47.947  28.178  38.534  1.00  0.00     0.006 A 
ENDBRANCH  63  77
BRANCH  64  85
ATOM     85  C   UNL A   1      38.380  30.472  30.338  1.00  0.00     0.057 A 
ATOM     86  C   UNL A   1      37.352  29.532  30.200  1.00  0.00     0.134 A 
ATOM     87  C   UNL A   1      38.310  31.624  29.547  1.00  0.00     0.134 A 
ATOM     88  F   UNL A   1      37.373  28.399  30.916  1.00  0.00    -0.206 F 
ATOM     89  C   UNL A   1      36.316  29.710  29.282  1.00  0.00     0.040 A 
ATOM     90  C   UNL A   1      37.264  31.830  28.646  1.00  0.00     0.040 A 
ATOM     91  F   UNL A   1      39.259  32.568  29.638  1.00  0.00    -0.206 F 
ATOM     92  C   UNL A   1      36.270  30.864  28.502  1.00  0.00     0.006 A 
ENDBRANCH  64  85
BRANCH  76  93
ATOM     93  C   UNL A   1      40.041  32.962  36.614  1.00  0.00     0.057 A 
ATOM     94  C   UNL A   1      38.934  32.664  37.420  1.00  0.00     0.134 A 
ATOM     95  C   UNL A   1      40.549  34.266  36.670  1.00  0.00     0.134 A 
ATOM     96  F   UNL A   1      38.394  31.437  37.405  1.00  0.00    -0.206 F 
ATOM     97  C   UNL A   1      38.334  33.637  38.222  1.00  0.00     0.040 A 
ATOM     98  C   UNL A   1      39.977  35.238  37.489  1.00  0.00     0.040 A 
ATOM     99  F   UNL A   1      41.615  34.615  35.933  1.00  0.00    -0.206 F 
ATOM    100  C   UNL A   1      38.859  34.927  38.261  1.00  0.00     0.006 A 
ENDBRANCH  76  93
ENDBRANCH  50  51
ENDBRANCH  42  45
ENDBRANCH  40  41
ENDBRANCH  39  40
ENDBRANCH  38  39
ENDBRANCH  37  38
ENDBRANCH   1  37
TORSDOF 18
ENDMDL
MODEL 2
REMARK VINA RESULT:     -11.1      5.687      9.332
REMARK SMILES COC(=O)c1ccccc1N1C(=O)/C(=C\c2ccc(-c3ccc(Cl)c(C(=O)NCCCCCCNC(=O)c4ccc(-c5c6nc(c(-c7c(F)cccc7F)c7ccc([nH]7)c(-c7c(F)cccc7F)c7nc(c(-c8c(F)cccc8F)c8ccc5[nH]8)C=C7)C=C6)cc4)c3)o2)SC1=S
REMARK SMILES IDX 30 1 29 2 28 3 26 4 27 5 25 7 20 8 21 9 92 10 22 11 23 12
REMARK SMILES IDX 24 13 19 14 16 15 17 16 93 17 18 18 15 19 11 20 12 21 95 22
REMARK SMILES IDX 13 23 14 24 94 25 96 26 10 27 5 28 6 29 7 30 9 31 8 32 3 33
REMARK SMILES IDX 4 34 2 35 1 36 31 37 32 38 33 39 34 40 35 41 36 42 37 44
REMARK SMILES IDX 38 45 39 46 91 47 40 48 90 49 41 50 42 51 43 52 84 53 44 54
REMARK SMILES IDX 89 55 83 56 85 57 45 58 88 59 82 60 81 61 46 63 72 64 55 65
REMARK SMILES IDX 71 66 56 67 59 68 70 69 86 70 57 71 58 72 69 74 87 75 60 76
REMARK SMILES IDX 47 77 48 78 53 79 49 80 50 81 52 82 54 83 51 84 73 85 74 86
REMARK SMILES IDX 79 87 75 88 76 89 78 90 80 91 77 92 61 93 62 94 67 95 63 96
REMARK SMILES IDX 64 97 66 98 68 99 65 100
REMARK H PARENT 28 6 35 43 85 62 59 73
REMARK Flexibility Score: inf
ROOT
ATOM      1  C   UNL A   1      40.594  28.797  26.521  1.00  0.00     0.021 C 
ENDROOT
BRANCH   1   2
ATOM      2  C   UNL A   1      39.258  29.279  27.073  1.00  0.00     0.116 C 
BRANCH   2   3
ATOM      3  N   UNL A   1      38.893  28.742  28.378  1.00  0.00    -0.352 N 
ATOM      4  C   UNL A   1      37.861  29.077  29.240  1.00  0.00     0.252 C 
ATOM      5  O   UNL A   1      37.698  28.397  30.248  1.00  0.00    -0.269 OA
ATOM      6  H   UNL A   1      39.477  28.019  28.701  1.00  0.00     0.163 HD
BRANCH   4   7
ATOM      7  C   UNL A   1      36.968  30.236  28.955  1.00  0.00     0.059 A 
ATOM      8  C   UNL A   1      34.913  30.967  27.870  1.00  0.00     0.018 A 
ATOM      9  C   UNL A   1      35.337  32.292  27.958  1.00  0.00     0.013 A 
ATOM     10  C   UNL A   1      35.677  29.974  28.491  1.00  0.00     0.027 A 
ATOM     11  C   UNL A   1      36.542  32.595  28.601  1.00  0.00     0.022 A 
ATOM     12  C   UNL A   1      37.381  31.569  29.065  1.00  0.00     0.053 A 
ATOM     13  Cl  UNL A   1      38.918  32.043  29.692  1.00  0.00    -0.083 Cl
BRANCH   8  14
ATOM     14  C   UNL A   1      33.808  30.535  27.031  1.00  0.00     0.134 A 
ATOM     15  C   UNL A   1      32.968  29.363  25.345  1.00  0.00     0.128 A 
ATOM     16  C   UNL A   1      31.913  29.745  26.164  1.00  0.00     0.051 A 
ATOM     17  O   UNL A   1      34.133  29.824  25.912  1.00  0.00    -0.457 OA
ATOM     18  C   UNL A   1      32.442  30.530  27.208  1.00  0.00     0.051 A 
BRANCH  15  19
ATOM     19  C   UNL A   1      32.913  28.661  24.112  1.00  0.00     0.068 C 
ATOM     20  N   UNL A   1      33.475  25.121  24.806  1.00  0.00    -0.260 N 
ATOM     21  C   UNL A   1      33.285  26.428  25.231  1.00  0.00     0.270 C 
ATOM     22  C   UNL A   1      33.406  24.890  23.445  1.00  0.00     0.152 C 
ATOM     23  O   UNL A   1      33.267  26.798  26.398  1.00  0.00    -0.268 OA
ATOM     24  C   UNL A   1      33.098  27.334  24.062  1.00  0.00     0.084 C 
ATOM     25  S   UNL A   1      33.150  26.423  22.601  1.00  0.00    -0.054 SA
ATOM     26  S   UNL A   1      33.430  23.435  22.623  1.00  0.00    -0.051 S 
BRANCH  20  27
ATOM     27  C   UNL A   1      33.690  24.130  25.808  1.00  0.00     0.065 A 
ATOM     28  C   UNL A   1      32.668  23.558  26.587  1.00  0.00     0.084 A 
ATOM     29  C   UNL A   1      32.988  22.526  27.490  1.00  0.00     0.018 A 
ATOM     30  C   UNL A   1      34.294  22.047  27.602  1.00  0.00     0.001 A 
ATOM     31  C   UNL A   1      35.003  23.629  25.936  1.00  0.00     0.028 A 
ATOM     32  C   UNL A   1      35.303  22.597  26.823  1.00  0.00     0.002 A 
BRANCH  28  33
ATOM     33  C   UNL A   1      31.220  23.888  26.488  1.00  0.00     0.339 C 
ATOM     34  O   UNL A   1      30.768  24.982  26.770  1.00  0.00    -0.246 OA
BRANCH  33  35
ATOM     35  O   UNL A   1      30.493  22.799  26.125  1.00  0.00    -0.465 OA
ATOM     36  C   UNL A   1      29.364  22.559  26.970  1.00  0.00     0.282 C 
ENDBRANCH  33  35
ENDBRANCH  28  33
ENDBRANCH  20  27
ENDBRANCH  15  19
ENDBRANCH   8  14
ENDBRANCH   4   7
ENDBRANCH   2   3
ENDBRANCH   1   2
BRANCH   1  37
ATOM     37  C   UNL A   1      41.071  27.421  26.980  1.00  0.00     0.002 C 
BRANCH  37  38
ATOM     38  C   UNL A   1      40.597  26.216  26.163  1.00  0.00     0.002 C 
BRANCH  38  39
ATOM     39  C   UNL A   1      39.862  25.112  26.926  1.00  0.00     0.021 C 
BRANCH  39  40
ATOM     40  C   UNL A   1      40.732  24.163  27.743  1.00  0.00     0.116 C 
BRANCH  40  41
ATOM     41  N   UNL A   1      41.258  23.059  26.962  1.00  0.00    -0.352 N 
ATOM     42  C   UNL A   1      42.403  22.977  26.210  1.00  0.00     0.251 C 
ATOM     43  H   UNL A   1      40.708  22.242  26.974  1.00  0.00     0.163 HD
ATOM     44  O   UNL A   1      42.597  21.985  25.512  1.00  0.00    -0.269 OA
BRANCH  42  45
ATOM     45  C   UNL A   1      43.404  24.070  26.214  1.00  0.00     0.039 A 
ATOM     46  C   UNL A   1      44.001  24.421  27.429  1.00  0.00     0.014 A 
ATOM     47  C   UNL A   1      43.712  24.795  25.058  1.00  0.00     0.014 A 
ATOM     48  C   UNL A   1      44.916  25.476  27.482  1.00  0.00     0.010 A 
ATOM     49  C   UNL A   1      44.680  25.799  25.098  1.00  0.00     0.010 A 
ATOM     50  C   UNL A   1      45.273  26.168  26.315  1.00  0.00    -0.014 A 
BRANCH  50  51
ATOM     51  C   UNL A   1      46.213  27.319  26.368  1.00  0.00     0.031 A 
ATOM     52  C   UNL A   1      47.697  27.085  26.251  1.00  0.00     0.074 A 
ATOM     53  C   UNL A   1      45.741  28.569  26.549  1.00  0.00     0.049 A 
ATOM     54  N   UNL A   1      48.679  27.950  26.304  1.00  0.00    -0.248 NA
ATOM     55  C   UNL A   1      48.139  25.692  26.076  1.00  0.00     0.031 C 
ATOM     56  C   UNL A   1      44.332  28.927  26.721  1.00  0.00     0.029 A 
ATOM     57  N   UNL A   1      46.399  29.771  26.622  1.00  0.00    -0.354 N 
ATOM     58  C   UNL A   1      49.847  27.206  26.189  1.00  0.00     0.074 A 
ATOM     59  C   UNL A   1      49.458  25.815  26.115  1.00  0.00     0.031 C 
ATOM     60  C   UNL A   1      44.230  30.260  26.856  1.00  0.00     0.029 A 
ATOM     61  C   UNL A   1      45.564  30.848  26.809  1.00  0.00     0.049 A 
ATOM     62  H   UNL A   1      47.377  29.855  26.546  1.00  0.00     0.167 HD
ATOM     63  C   UNL A   1      51.128  27.642  26.123  1.00  0.00     0.037 A 
ATOM     64  C   UNL A   1      45.846  32.159  26.927  1.00  0.00     0.037 A 
ATOM     65  C   UNL A   1      51.514  29.028  26.150  1.00  0.00     0.049 A 
ATOM     66  C   UNL A   1      47.277  32.616  26.823  1.00  0.00     0.074 A 
ATOM     67  C   UNL A   1      52.780  29.573  26.027  1.00  0.00     0.029 A 
ATOM     68  N   UNL A   1      50.635  30.088  26.300  1.00  0.00    -0.354 N 
ATOM     69  N   UNL A   1      48.363  31.904  26.645  1.00  0.00    -0.248 NA
ATOM     70  C   UNL A   1      47.519  34.063  26.921  1.00  0.00     0.031 C 
ATOM     71  C   UNL A   1      52.673  30.961  26.142  1.00  0.00     0.029 A 
ATOM     72  C   UNL A   1      51.333  31.284  26.287  1.00  0.00     0.049 A 
ATOM     73  H   UNL A   1      49.660  30.005  26.403  1.00  0.00     0.167 HD
ATOM     74  C   UNL A   1      49.408  32.817  26.569  1.00  0.00     0.074 A 
ATOM     75  C   UNL A   1      48.823  34.134  26.704  1.00  0.00     0.031 C 
ATOM     76  C   UNL A   1      50.733  32.587  26.401  1.00  0.00     0.037 A 
BRANCH  63  77
ATOM     77  C   UNL A   1      52.213  26.610  26.003  1.00  0.00     0.057 A 
ATOM     78  C   UNL A   1      52.580  26.064  24.767  1.00  0.00     0.134 A 
ATOM     79  C   UNL A   1      52.939  26.203  27.131  1.00  0.00     0.134 A 
ATOM     80  F   UNL A   1      51.918  26.402  23.650  1.00  0.00    -0.206 F 
ATOM     81  C   UNL A   1      53.620  25.139  24.657  1.00  0.00     0.040 A 
ATOM     82  C   UNL A   1      53.998  25.299  27.030  1.00  0.00     0.040 A 
ATOM     83  F   UNL A   1      52.642  26.692  28.345  1.00  0.00    -0.206 F 
ATOM     84  C   UNL A   1      54.338  24.761  25.791  1.00  0.00     0.006 A 
ENDBRANCH  63  77
BRANCH  64  85
ATOM     85  C   UNL A   1      44.757  33.149  27.132  1.00  0.00     0.057 A 
ATOM     86  C   UNL A   1      44.155  33.800  26.048  1.00  0.00     0.134 A 
ATOM     87  C   UNL A   1      44.328  33.506  28.416  1.00  0.00     0.134 A 
ATOM     88  F   UNL A   1      44.537  33.515  24.795  1.00  0.00    -0.206 F 
ATOM     89  C   UNL A   1      43.194  34.794  26.233  1.00  0.00     0.040 A 
ATOM     90  C   UNL A   1      43.346  34.478  28.615  1.00  0.00     0.040 A 
ATOM     91  F   UNL A   1      44.857  32.913  29.497  1.00  0.00    -0.206 F 
ATOM     92  C   UNL A   1      42.785  35.135  27.521  1.00  0.00     0.006 A 
ENDBRANCH  64  85
BRANCH  76  93
ATOM     93  C   UNL A   1      51.629  33.787  26.295  1.00  0.00     0.057 A 
ATOM     94  C   UNL A   1      52.152  34.428  27.426  1.00  0.00     0.134 A 
ATOM     95  C   UNL A   1      51.990  34.295  25.041  1.00  0.00     0.134 A 
ATOM     96  F   UNL A   1      51.837  33.997  28.657  1.00  0.00    -0.206 F 
ATOM     97  C   UNL A   1      52.972  35.552  27.314  1.00  0.00     0.040 A 
ATOM     98  C   UNL A   1      52.832  35.399  24.914  1.00  0.00     0.040 A 
ATOM     99  F   UNL A   1      51.534  33.722  23.916  1.00  0.00    -0.206 F 
ATOM    100  C   UNL A   1      53.318  36.037  26.054  1.00  0.00     0.006 A 
ENDBRANCH  76  93
ENDBRANCH  50  51
ENDBRANCH  42  45
ENDBRANCH  40  41
ENDBRANCH  39  40
ENDBRANCH  38  39
ENDBRANCH  37  38
ENDBRANCH   1  37
TORSDOF 18
ENDMDL
MODEL 3
REMARK VINA RESULT:     -10.9      5.678     10.316
REMARK SMILES COC(=O)c1ccccc1N1C(=O)/C(=C\c2ccc(-c3ccc(Cl)c(C(=O)NCCCCCCNC(=O)c4ccc(-c5c6nc(c(-c7c(F)cccc7F)c7ccc([nH]7)c(-c7c(F)cccc7F)c7nc(c(-c8c(F)cccc8F)c8ccc5[nH]8)C=C7)C=C6)cc4)c3)o2)SC1=S
REMARK SMILES IDX 30 1 29 2 28 3 26 4 27 5 25 7 20 8 21 9 92 10 22 11 23 12
REMARK SMILES IDX 24 13 19 14 16 15 17 16 93 17 18 18 15 19 11 20 12 21 95 22
REMARK SMILES IDX 13 23 14 24 94 25 96 26 10 27 5 28 6 29 7 30 9 31 8 32 3 33
REMARK SMILES IDX 4 34 2 35 1 36 31 37 32 38 33 39 34 40 35 41 36 42 37 44
REMARK SMILES IDX 38 45 39 46 91 47 40 48 90 49 41 50 42 51 43 52 84 53 44 54
REMARK SMILES IDX 89 55 83 56 85 57 45 58 88 59 82 60 81 61 46 63 72 64 55 65
REMARK SMILES IDX 71 66 56 67 59 68 70 69 86 70 57 71 58 72 69 74 87 75 60 76
REMARK SMILES IDX 47 77 48 78 53 79 49 80 50 81 52 82 54 83 51 84 73 85 74 86
REMARK SMILES IDX 79 87 75 88 76 89 78 90 80 91 77 92 61 93 62 94 67 95 63 96
REMARK SMILES IDX 64 97 66 98 68 99 65 100
REMARK H PARENT 28 6 35 43 85 62 59 73
REMARK Flexibility Score: inf
ROOT
ATOM      1  C   UNL A   1      39.963  29.272  28.182  1.00  0.00     0.021 C 
ENDROOT
BRANCH   1   2
ATOM      2  C   UNL A   1      38.475  28.946  28.226  1.00  0.00     0.116 C 
BRANCH   2   3
ATOM      3  N   UNL A   1      37.903  28.819  29.560  1.00  0.00    -0.352 N 
ATOM      4  C   UNL A   1      36.856  29.493  30.166  1.00  0.00     0.252 C 
ATOM      5  O   UNL A   1      36.489  29.125  31.279  1.00  0.00    -0.269 OA
ATOM      6  H   UNL A   1      38.334  28.138  30.126  1.00  0.00     0.163 HD
BRANCH   4   7
ATOM      7  C   UNL A   1      36.186  30.640  29.489  1.00  0.00     0.059 A 
ATOM      8  C   UNL A   1      34.466  31.304  27.897  1.00  0.00     0.018 A 
ATOM      9  C   UNL A   1      35.039  32.571  27.806  1.00  0.00     0.013 A 
ATOM     10  C   UNL A   1      34.973  30.404  28.838  1.00  0.00     0.027 A 
ATOM     11  C   UNL A   1      36.142  32.894  28.603  1.00  0.00     0.022 A 
ATOM     12  C   UNL A   1      36.745  31.921  29.415  1.00  0.00     0.053 A 
ATOM     13  Cl  UNL A   1      38.198  32.377  30.230  1.00  0.00    -0.083 Cl
BRANCH   8  14
ATOM     14  C   UNL A   1      33.477  30.803  26.957  1.00  0.00     0.134 A 
ATOM     15  C   UNL A   1      32.879  29.577  25.207  1.00  0.00     0.128 A 
ATOM     16  C   UNL A   1      31.727  29.899  25.915  1.00  0.00     0.051 A 
ATOM     17  O   UNL A   1      33.953  30.109  25.883  1.00  0.00    -0.457 OA
ATOM     18  C   UNL A   1      32.104  30.717  26.998  1.00  0.00     0.051 A 
BRANCH  15  19
ATOM     19  C   UNL A   1      32.989  28.870  23.982  1.00  0.00     0.068 C 
ATOM     20  N   UNL A   1      33.440  25.332  24.762  1.00  0.00    -0.260 N 
ATOM     21  C   UNL A   1      33.199  26.642  25.151  1.00  0.00     0.270 C 
ATOM     22  C   UNL A   1      33.554  25.093  23.405  1.00  0.00     0.152 C 
ATOM     23  O   UNL A   1      33.025  27.018  26.303  1.00  0.00    -0.268 OA
ATOM     24  C   UNL A   1      33.174  27.542  23.963  1.00  0.00     0.084 C 
ATOM     25  S   UNL A   1      33.420  26.623  22.527  1.00  0.00    -0.054 SA
ATOM     26  S   UNL A   1      33.684  23.635  22.601  1.00  0.00    -0.051 S 
BRANCH  20  27
ATOM     27  C   UNL A   1      33.515  24.345  25.788  1.00  0.00     0.065 A 
ATOM     28  C   UNL A   1      32.396  23.797  26.441  1.00  0.00     0.084 A 
ATOM     29  C   UNL A   1      32.586  22.767  27.382  1.00  0.00     0.018 A 
ATOM     30  C   UNL A   1      33.861  22.266  27.655  1.00  0.00     0.001 A 
ATOM     31  C   UNL A   1      34.794  23.823  26.078  1.00  0.00     0.028 A 
ATOM     32  C   UNL A   1      34.966  22.794  27.000  1.00  0.00     0.002 A 
BRANCH  28  33
ATOM     33  C   UNL A   1      30.977  24.151  26.166  1.00  0.00     0.339 C 
ATOM     34  O   UNL A   1      30.155  24.328  27.045  1.00  0.00    -0.246 OA
BRANCH  33  35
ATOM     35  O   UNL A   1      30.727  24.168  24.830  1.00  0.00    -0.465 OA
ATOM     36  C   UNL A   1      29.942  25.288  24.412  1.00  0.00     0.282 C 
ENDBRANCH  33  35
ENDBRANCH  28  33
ENDBRANCH  20  27
ENDBRANCH  15  19
ENDBRANCH   8  14
ENDBRANCH   4   7
ENDBRANCH   2   3
ENDBRANCH   1   2
BRANCH   1  37
ATOM     37  C   UNL A   1      40.928  28.098  28.334  1.00  0.00     0.002 C 
BRANCH  37  38
ATOM     38  C   UNL A   1      40.908  27.039  27.228  1.00  0.00     0.002 C 
BRANCH  38  39
ATOM     39  C   UNL A   1      40.128  25.755  27.517  1.00  0.00     0.021 C 
BRANCH  39  40
ATOM     40  C   UNL A   1      39.900  24.823  26.332  1.00  0.00     0.116 C 
BRANCH  40  41
ATOM     41  N   UNL A   1      40.624  23.571  26.447  1.00  0.00    -0.352 N 
ATOM     42  C   UNL A   1      41.976  23.330  26.457  1.00  0.00     0.251 C 
ATOM     43  H   UNL A   1      40.059  22.769  26.533  1.00  0.00     0.163 HD
ATOM     44  O   UNL A   1      42.383  22.172  26.429  1.00  0.00    -0.269 OA
BRANCH  42  45
ATOM     45  C   UNL A   1      42.953  24.445  26.485  1.00  0.00     0.039 A 
ATOM     46  C   UNL A   1      43.256  25.094  25.284  1.00  0.00     0.014 A 
ATOM     47  C   UNL A   1      43.621  24.812  27.657  1.00  0.00     0.014 A 
ATOM     48  C   UNL A   1      44.206  26.120  25.261  1.00  0.00     0.010 A 
ATOM     49  C   UNL A   1      44.514  25.885  27.647  1.00  0.00     0.010 A 
ATOM     50  C   UNL A   1      44.835  26.532  26.445  1.00  0.00    -0.014 A 
BRANCH  50  51
ATOM     51  C   UNL A   1      45.878  27.593  26.423  1.00  0.00     0.031 A 
ATOM     52  C   UNL A   1      45.483  29.039  26.581  1.00  0.00     0.074 A 
ATOM     53  C   UNL A   1      47.172  27.264  26.236  1.00  0.00     0.049 A 
ATOM     54  N   UNL A   1      46.237  30.110  26.559  1.00  0.00    -0.248 NA
ATOM     55  C   UNL A   1      44.050  29.322  26.760  1.00  0.00     0.031 C 
ATOM     56  C   UNL A   1      47.681  25.908  26.027  1.00  0.00     0.029 A 
ATOM     57  N   UNL A   1      48.296  28.051  26.188  1.00  0.00    -0.354 N 
ATOM     58  C   UNL A   1      45.370  31.187  26.703  1.00  0.00     0.074 A 
ATOM     59  C   UNL A   1      44.029  30.647  26.758  1.00  0.00     0.031 C 
ATOM     60  C   UNL A   1      49.018  25.955  25.896  1.00  0.00     0.029 A 
ATOM     61  C   UNL A   1      49.457  27.344  25.984  1.00  0.00     0.049 A 
ATOM     62  H   UNL A   1      48.273  29.031  26.291  1.00  0.00     0.167 HD
ATOM     63  C   UNL A   1      45.664  32.505  26.807  1.00  0.00     0.037 A 
ATOM     64  C   UNL A   1      50.730  27.770  25.880  1.00  0.00     0.037 A 
ATOM     65  C   UNL A   1      47.000  33.040  26.798  1.00  0.00     0.049 A 
ATOM     66  C   UNL A   1      51.029  29.239  26.027  1.00  0.00     0.074 A 
ATOM     67  C   UNL A   1      47.403  34.354  26.959  1.00  0.00     0.029 A 
ATOM     68  N   UNL A   1      48.150  32.286  26.629  1.00  0.00    -0.354 N 
ATOM     69  N   UNL A   1      50.202  30.235  26.231  1.00  0.00    -0.248 NA
ATOM     70  C   UNL A   1      52.441  29.639  25.943  1.00  0.00     0.031 C 
ATOM     71  C   UNL A   1      48.796  34.401  26.848  1.00  0.00     0.029 A 
ATOM     72  C   UNL A   1      49.262  33.110  26.668  1.00  0.00     0.049 A 
ATOM     73  H   UNL A   1      48.173  31.311  26.499  1.00  0.00     0.167 HD
ATOM     74  C   UNL A   1      50.996  31.371  26.341  1.00  0.00     0.074 A 
ATOM     75  C   UNL A   1      52.369  30.936  26.196  1.00  0.00     0.031 C 
ATOM     76  C   UNL A   1      50.624  32.658  26.544  1.00  0.00     0.037 A 
BRANCH  63  77
ATOM     77  C   UNL A   1      44.520  33.468  26.951  1.00  0.00     0.057 A 
ATOM     78  C   UNL A   1      44.025  33.844  28.206  1.00  0.00     0.134 A 
ATOM     79  C   UNL A   1      43.948  34.071  25.823  1.00  0.00     0.134 A 
ATOM     80  F   UNL A   1      44.520  33.296  29.326  1.00  0.00    -0.206 F 
ATOM     81  C   UNL A   1      42.990  34.774  28.334  1.00  0.00     0.040 A 
ATOM     82  C   UNL A   1      42.932  35.021  25.939  1.00  0.00     0.040 A 
ATOM     83  F   UNL A   1      44.379  33.758  24.591  1.00  0.00    -0.206 F 
ATOM     84  C   UNL A   1      42.448  35.372  27.197  1.00  0.00     0.006 A 
ENDBRANCH  63  77
BRANCH  64  85
ATOM     85  C   UNL A   1      51.833  26.801  25.650  1.00  0.00     0.057 A 
ATOM     86  C   UNL A   1      52.264  26.487  24.355  1.00  0.00     0.134 A 
ATOM     87  C   UNL A   1      52.447  26.128  26.713  1.00  0.00     0.134 A 
ATOM     88  F   UNL A   1      51.701  27.084  23.294  1.00  0.00    -0.206 F 
ATOM     89  C   UNL A   1      53.238  25.515  24.123  1.00  0.00     0.040 A 
ATOM     90  C   UNL A   1      53.443  25.174  26.497  1.00  0.00     0.040 A 
ATOM     91  F   UNL A   1      52.087  26.389  27.978  1.00  0.00    -0.206 F 
ATOM     92  C   UNL A   1      53.832  24.856  25.197  1.00  0.00     0.006 A 
ENDBRANCH  64  85
BRANCH  76  93
ATOM     93  C   UNL A   1      51.719  33.676  26.681  1.00  0.00     0.057 A 
ATOM     94  C   UNL A   1      52.212  34.390  25.582  1.00  0.00     0.134 A 
ATOM     95  C   UNL A   1      52.271  33.958  27.937  1.00  0.00     0.134 A 
ATOM     96  F   UNL A   1      51.733  34.159  24.351  1.00  0.00    -0.206 F 
ATOM     97  C   UNL A   1      53.242  35.323  25.721  1.00  0.00     0.040 A 
ATOM     98  C   UNL A   1      53.279  34.909  28.094  1.00  0.00     0.040 A 
ATOM     99  F   UNL A   1      51.836  33.320  29.033  1.00  0.00    -0.206 F 
ATOM    100  C   UNL A   1      53.774  35.588  26.982  1.00  0.00     0.006 A 
ENDBRANCH  76  93
ENDBRANCH  50  51
ENDBRANCH  42  45
ENDBRANCH  40  41
ENDBRANCH  39  40
ENDBRANCH  38  39
ENDBRANCH  37  38
ENDBRANCH   1  37
TORSDOF 18
ENDMDL
