MODEL 1
REMARK VINA RESULT:     -12.5      0.000      0.000
REMARK SMILES Cc1ccccc1/[NH+]=C1\S[C@@H](CC(=O)Nc2ccc(C(=O)NCCCCCCNC(=O)c3ccc(-c4c5nc(c(-c6c(F)cccc6F)c6ccc([nH]6)c(-c6c(F)cccc6F)c6nc(c(-c7c(F)cccc7F)c7ccc4[nH]7)C=C6)C=C5)cc3)cc2)C(=O)N1C
REMARK SMILES IDX 24 1 23 2 22 3 20 4 21 5 19 7 16 8 17 9 87 10 18 11 86 12
REMARK SMILES IDX 15 13 13 14 14 15 12 17 11 18 8 19 9 20 10 22 90 23 88 24
REMARK SMILES IDX 91 25 89 26 7 27 1 28 2 29 3 30 4 31 6 32 5 33 25 34 26 35
REMARK SMILES IDX 27 36 28 37 29 38 30 39 31 41 32 42 33 43 85 44 34 45 84 46
REMARK SMILES IDX 35 47 36 48 37 49 78 50 38 51 83 52 77 53 79 54 39 55 82 56
REMARK SMILES IDX 76 57 75 58 40 60 66 61 49 62 65 63 50 64 53 65 64 66 80 67
REMARK SMILES IDX 51 68 52 69 63 71 81 72 54 73 41 74 42 75 47 76 43 77 44 78
REMARK SMILES IDX 46 79 48 80 45 81 67 82 68 83 73 84 69 85 70 86 72 87 74 88
REMARK SMILES IDX 71 89 55 90 56 91 61 92 57 93 58 94 60 95 62 96 59 97
REMARK H PARENT 22 6 15 16 8 21 29 40 79 59 53 70
REMARK Flexibility Score: inf
ROOT
ATOM      1  C   UNL A   1      31.701  30.080  25.584  1.00  0.00     0.021 C 
ENDROOT
BRANCH   1   2
ATOM      2  C   UNL A   1      31.829  29.397  24.217  1.00  0.00     0.116 C 
BRANCH   2   3
ATOM      3  N   UNL A   1      30.651  28.603  23.894  1.00  0.00    -0.352 N 
ATOM      4  C   UNL A   1      30.465  27.249  23.743  1.00  0.00     0.251 C 
ATOM      5  O   UNL A   1      29.317  26.819  23.658  1.00  0.00    -0.269 OA
ATOM      6  H   UNL A   1      29.835  29.137  23.759  1.00  0.00     0.163 HD
BRANCH   4   7
ATOM      7  C   UNL A   1      31.594  26.284  23.714  1.00  0.00     0.039 A 
ATOM      8  C   UNL A   1      33.829  24.606  23.573  1.00  0.00     0.041 A 
ATOM      9  C   UNL A   1      32.601  24.206  23.047  1.00  0.00     0.027 A 
ATOM     10  C   UNL A   1      33.904  25.767  24.329  1.00  0.00     0.027 A 
ATOM     11  C   UNL A   1      31.485  25.034  23.116  1.00  0.00     0.016 A 
ATOM     12  C   UNL A   1      32.788  26.614  24.384  1.00  0.00     0.016 A 
BRANCH   8  13
ATOM     13  N   UNL A   1      34.979  23.854  23.303  1.00  0.00    -0.326 N 
ATOM     14  C   UNL A   1      35.925  23.483  24.237  1.00  0.00     0.226 C 
ATOM     15  O   UNL A   1      37.028  23.059  23.891  1.00  0.00    -0.275 OA
ATOM     16  H   UNL A   1      35.125  23.566  22.373  1.00  0.00     0.169 HD
BRANCH  14  17
ATOM     17  C   UNL A   1      35.482  23.413  25.691  1.00  0.00     0.128 C 
BRANCH  17  18
ATOM     18  C   UNL A   1      34.517  22.303  26.041  1.00  0.00     0.183 C 
ATOM     19  N   UNL A   1      32.098  19.648  25.101  1.00  0.00    -0.234 N 
ATOM     20  C   UNL A   1      32.750  20.753  25.117  1.00  0.00     0.319 C 
ATOM     21  H   UNL A   1      31.152  19.717  25.361  1.00  0.00     0.313 HD
ATOM     22  S   UNL A   1      34.364  21.142  24.626  1.00  0.00    -0.022 SA
ATOM     23  N   UNL A   1      32.191  21.875  25.651  1.00  0.00    -0.193 N 
ATOM     24  C   UNL A   1      33.076  22.690  26.326  1.00  0.00     0.324 C 
ATOM     25  C   UNL A   1      30.762  22.088  25.750  1.00  0.00     0.301 C 
ATOM     26  O   UNL A   1      32.742  23.533  27.149  1.00  0.00    -0.245 OA
BRANCH  19  27
ATOM     27  C   UNL A   1      32.536  18.357  24.770  1.00  0.00     0.128 A 
ATOM     28  C   UNL A   1      32.528  18.532  22.185  1.00  0.00     0.049 C 
ATOM     29  C   UNL A   1      32.821  17.842  23.486  1.00  0.00    -0.004 A 
ATOM     30  C   UNL A   1      33.450  16.584  23.369  1.00  0.00     0.008 A 
ATOM     31  C   UNL A   1      33.884  15.879  24.488  1.00  0.00     0.001 A 
ATOM     32  C   UNL A   1      32.973  17.613  25.883  1.00  0.00     0.052 A 
ATOM     33  C   UNL A   1      33.652  16.401  25.751  1.00  0.00     0.004 A 
ENDBRANCH  19  27
ENDBRANCH  17  18
ENDBRANCH  14  17
ENDBRANCH   8  13
ENDBRANCH   4   7
ENDBRANCH   2   3
ENDBRANCH   1   2
BRANCH   1  34
ATOM     34  C   UNL A   1      31.647  29.128  26.791  1.00  0.00     0.002 C 
BRANCH  34  35
ATOM     35  C   UNL A   1      32.983  28.526  27.261  1.00  0.00     0.002 C 
BRANCH  35  36
ATOM     36  C   UNL A   1      34.243  29.289  26.844  1.00  0.00     0.021 C 
BRANCH  36  37
ATOM     37  C   UNL A   1      34.821  30.188  27.933  1.00  0.00     0.116 C 
BRANCH  37  38
ATOM     38  N   UNL A   1      34.134  31.466  28.077  1.00  0.00    -0.352 N 
ATOM     39  C   UNL A   1      34.450  32.585  28.839  1.00  0.00     0.251 C 
ATOM     40  H   UNL A   1      33.309  31.550  27.546  1.00  0.00     0.163 HD
ATOM     41  O   UNL A   1      33.699  33.535  28.856  1.00  0.00    -0.269 OA
BRANCH  39  42
ATOM     42  C   UNL A   1      35.776  32.674  29.512  1.00  0.00     0.039 A 
ATOM     43  C   UNL A   1      36.846  33.204  28.774  1.00  0.00     0.014 A 
ATOM     44  C   UNL A   1      36.016  32.070  30.738  1.00  0.00     0.014 A 
ATOM     45  C   UNL A   1      38.154  32.878  29.130  1.00  0.00     0.010 A 
ATOM     46  C   UNL A   1      37.297  31.657  31.034  1.00  0.00     0.010 A 
ATOM     47  C   UNL A   1      38.355  31.997  30.185  1.00  0.00    -0.014 A 
BRANCH  47  48
ATOM     48  C   UNL A   1      39.592  31.267  30.425  1.00  0.00     0.031 A 
ATOM     49  C   UNL A   1      39.840  29.971  29.767  1.00  0.00     0.074 A 
ATOM     50  C   UNL A   1      40.588  31.875  31.108  1.00  0.00     0.049 A 
ATOM     51  N   UNL A   1      40.816  29.187  30.075  1.00  0.00    -0.248 NA
ATOM     52  C   UNL A   1      38.957  29.408  28.752  1.00  0.00     0.031 C 
ATOM     53  C   UNL A   1      42.008  31.530  31.096  1.00  0.00     0.029 A 
ATOM     54  N   UNL A   1      40.473  32.830  32.127  1.00  0.00    -0.354 N 
ATOM     55  C   UNL A   1      40.866  28.179  29.143  1.00  0.00     0.074 A 
ATOM     56  C   UNL A   1      39.615  28.288  28.433  1.00  0.00     0.031 C 
ATOM     57  C   UNL A   1      42.585  32.028  32.198  1.00  0.00     0.029 A 
ATOM     58  C   UNL A   1      41.526  32.558  33.034  1.00  0.00     0.049 A 
ATOM     59  H   UNL A   1      39.798  33.544  32.197  1.00  0.00     0.167 HD
ATOM     60  C   UNL A   1      42.019  27.458  29.031  1.00  0.00     0.037 A 
ATOM     61  C   UNL A   1      41.269  32.161  34.316  1.00  0.00     0.037 A 
ATOM     62  C   UNL A   1      42.934  27.760  30.139  1.00  0.00     0.049 A 
ATOM     63  C   UNL A   1      41.817  30.798  34.690  1.00  0.00     0.074 A 
ATOM     64  C   UNL A   1      44.117  28.466  30.280  1.00  0.00     0.029 A 
ATOM     65  N   UNL A   1      42.522  27.455  31.423  1.00  0.00    -0.354 N 
ATOM     66  N   UNL A   1      42.418  29.994  33.858  1.00  0.00    -0.248 NA
ATOM     67  C   UNL A   1      41.639  30.190  36.011  1.00  0.00     0.031 C 
ATOM     68  C   UNL A   1      44.407  28.571  31.674  1.00  0.00     0.029 A 
ATOM     69  C   UNL A   1      43.408  27.918  32.371  1.00  0.00     0.049 A 
ATOM     70  H   UNL A   1      41.694  26.966  31.635  1.00  0.00     0.167 HD
ATOM     71  C   UNL A   1      42.613  28.779  34.458  1.00  0.00     0.074 A 
ATOM     72  C   UNL A   1      42.130  28.955  35.814  1.00  0.00     0.031 C 
ATOM     73  C   UNL A   1      43.095  27.701  33.775  1.00  0.00     0.037 A 
BRANCH  60  74
ATOM     74  C   UNL A   1      42.432  26.579  27.864  1.00  0.00     0.057 A 
ATOM     75  C   UNL A   1      42.941  27.168  26.685  1.00  0.00     0.134 A 
ATOM     76  C   UNL A   1      42.279  25.182  27.773  1.00  0.00     0.134 A 
ATOM     77  F   UNL A   1      43.198  28.481  26.606  1.00  0.00    -0.206 F 
ATOM     78  C   UNL A   1      43.208  26.445  25.513  1.00  0.00     0.040 A 
ATOM     79  C   UNL A   1      42.565  24.443  26.615  1.00  0.00     0.040 A 
ATOM     80  F   UNL A   1      41.829  24.434  28.779  1.00  0.00    -0.206 F 
ATOM     81  C   UNL A   1      43.013  25.076  25.471  1.00  0.00     0.006 A 
ENDBRANCH  60  74
BRANCH  61  82
ATOM     82  C   UNL A   1      40.011  32.742  34.849  1.00  0.00     0.057 A 
ATOM     83  C   UNL A   1      38.838  31.970  34.798  1.00  0.00     0.134 A 
ATOM     84  C   UNL A   1      40.034  33.819  35.741  1.00  0.00     0.134 A 
ATOM     85  F   UNL A   1      38.757  30.920  33.967  1.00  0.00    -0.206 F 
ATOM     86  C   UNL A   1      37.779  32.186  35.683  1.00  0.00     0.040 A 
ATOM     87  C   UNL A   1      38.973  34.051  36.623  1.00  0.00     0.040 A 
ATOM     88  F   UNL A   1      41.129  34.583  35.860  1.00  0.00    -0.206 F 
ATOM     89  C   UNL A   1      37.862  33.209  36.622  1.00  0.00     0.006 A 
ENDBRANCH  61  82
BRANCH  73  90
ATOM     90  C   UNL A   1      43.276  26.332  34.371  1.00  0.00     0.057 A 
ATOM     91  C   UNL A   1      44.523  25.704  34.466  1.00  0.00     0.134 A 
ATOM     92  C   UNL A   1      42.167  25.546  34.751  1.00  0.00     0.134 A 
ATOM     93  F   UNL A   1      45.645  26.338  34.091  1.00  0.00    -0.206 F 
ATOM     94  C   UNL A   1      44.661  24.388  34.927  1.00  0.00     0.040 A 
ATOM     95  C   UNL A   1      42.287  24.218  35.164  1.00  0.00     0.040 A 
ATOM     96  F   UNL A   1      40.923  26.043  34.762  1.00  0.00    -0.206 F 
ATOM     97  C   UNL A   1      43.540  23.634  35.261  1.00  0.00     0.006 A 
ENDBRANCH  73  90
ENDBRANCH  47  48
ENDBRANCH  39  42
ENDBRANCH  37  38
ENDBRANCH  36  37
ENDBRANCH  35  36
ENDBRANCH  34  35
ENDBRANCH   1  34
TORSDOF 17
ENDMDL
MODEL 2
REMARK VINA RESULT:     -12.2      2.244      4.466
REMARK SMILES Cc1ccccc1/[NH+]=C1\S[C@@H](CC(=O)Nc2ccc(C(=O)NCCCCCCNC(=O)c3ccc(-c4c5nc(c(-c6c(F)cccc6F)c6ccc([nH]6)c(-c6c(F)cccc6F)c6nc(c(-c7c(F)cccc7F)c7ccc4[nH]7)C=C6)C=C5)cc3)cc2)C(=O)N1C
REMARK SMILES IDX 24 1 23 2 22 3 20 4 21 5 19 7 16 8 17 9 87 10 18 11 86 12
REMARK SMILES IDX 15 13 13 14 14 15 12 17 11 18 8 19 9 20 10 22 90 23 88 24
REMARK SMILES IDX 91 25 89 26 7 27 1 28 2 29 3 30 4 31 6 32 5 33 25 34 26 35
REMARK SMILES IDX 27 36 28 37 29 38 30 39 31 41 32 42 33 43 85 44 34 45 84 46
REMARK SMILES IDX 35 47 36 48 37 49 78 50 38 51 83 52 77 53 79 54 39 55 82 56
REMARK SMILES IDX 76 57 75 58 40 60 66 61 49 62 65 63 50 64 53 65 64 66 80 67
REMARK SMILES IDX 51 68 52 69 63 71 81 72 54 73 41 74 42 75 47 76 43 77 44 78
REMARK SMILES IDX 46 79 48 80 45 81 67 82 68 83 73 84 69 85 70 86 72 87 74 88
REMARK SMILES IDX 71 89 55 90 56 91 61 92 57 93 58 94 60 95 62 96 59 97
REMARK H PARENT 22 6 15 16 8 21 29 40 79 59 53 70
REMARK Flexibility Score: inf
ROOT
ATOM      1  C   UNL A   1      31.557  27.558  26.590  1.00  0.00     0.021 C 
ENDROOT
BRANCH   1   2
ATOM      2  C   UNL A   1      31.986  26.121  26.275  1.00  0.00     0.116 C 
BRANCH   2   3
ATOM      3  N   UNL A   1      30.959  25.155  26.646  1.00  0.00    -0.352 N 
ATOM      4  C   UNL A   1      30.992  23.788  26.801  1.00  0.00     0.251 C 
ATOM      5  O   UNL A   1      30.023  23.231  27.312  1.00  0.00    -0.269 OA
ATOM      6  H   UNL A   1      30.076  25.556  26.816  1.00  0.00     0.163 HD
BRANCH   4   7
ATOM      7  C   UNL A   1      32.166  22.967  26.411  1.00  0.00     0.039 A 
ATOM      8  C   UNL A   1      34.257  21.309  25.567  1.00  0.00     0.041 A 
ATOM      9  C   UNL A   1      34.016  21.520  26.924  1.00  0.00     0.027 A 
ATOM     10  C   UNL A   1      33.572  22.063  24.625  1.00  0.00     0.027 A 
ATOM     11  C   UNL A   1      32.980  22.345  27.351  1.00  0.00     0.016 A 
ATOM     12  C   UNL A   1      32.514  22.880  25.049  1.00  0.00     0.016 A 
BRANCH   8  13
ATOM     13  N   UNL A   1      35.159  20.315  25.167  1.00  0.00    -0.326 N 
ATOM     14  C   UNL A   1      36.532  20.450  25.141  1.00  0.00     0.226 C 
ATOM     15  O   UNL A   1      37.238  19.644  24.536  1.00  0.00    -0.275 OA
ATOM     16  H   UNL A   1      34.784  19.451  24.882  1.00  0.00     0.169 HD
BRANCH  14  17
ATOM     17  C   UNL A   1      37.149  21.495  26.059  1.00  0.00     0.128 C 
BRANCH  17  18
ATOM     18  C   UNL A   1      38.534  21.975  25.687  1.00  0.00     0.183 C 
ATOM     19  N   UNL A   1      42.212  22.062  26.183  1.00  0.00    -0.234 N 
ATOM     20  C   UNL A   1      40.951  22.027  26.417  1.00  0.00     0.319 C 
ATOM     21  H   UNL A   1      42.664  22.896  26.445  1.00  0.00     0.313 HD
ATOM     22  S   UNL A   1      39.787  20.757  26.252  1.00  0.00    -0.022 SA
ATOM     23  N   UNL A   1      40.292  23.152  26.813  1.00  0.00    -0.193 N 
ATOM     24  C   UNL A   1      39.016  23.275  26.308  1.00  0.00     0.324 C 
ATOM     25  C   UNL A   1      40.937  24.264  27.483  1.00  0.00     0.301 C 
ATOM     26  O   UNL A   1      38.399  24.333  26.250  1.00  0.00    -0.245 OA
BRANCH  19  27
ATOM     27  C   UNL A   1      43.041  21.088  25.606  1.00  0.00     0.128 A 
ATOM     28  C   UNL A   1      44.764  22.617  24.416  1.00  0.00     0.049 C 
ATOM     29  C   UNL A   1      44.236  21.288  24.880  1.00  0.00    -0.004 A 
ATOM     30  C   UNL A   1      45.044  20.177  24.557  1.00  0.00     0.008 A 
ATOM     31  C   UNL A   1      44.742  18.899  25.017  1.00  0.00     0.001 A 
ATOM     32  C   UNL A   1      42.755  19.781  26.044  1.00  0.00     0.052 A 
ATOM     33  C   UNL A   1      43.597  18.702  25.772  1.00  0.00     0.004 A 
ENDBRANCH  19  27
ENDBRANCH  17  18
ENDBRANCH  14  17
ENDBRANCH   8  13
ENDBRANCH   4   7
ENDBRANCH   2   3
ENDBRANCH   1   2
BRANCH   1  34
ATOM     34  C   UNL A   1      32.285  28.651  25.787  1.00  0.00     0.002 C 
BRANCH  34  35
ATOM     35  C   UNL A   1      33.822  28.594  25.773  1.00  0.00     0.002 C 
BRANCH  35  36
ATOM     36  C   UNL A   1      34.511  28.751  27.130  1.00  0.00     0.021 C 
BRANCH  36  37
ATOM     37  C   UNL A   1      35.319  30.037  27.278  1.00  0.00     0.116 C 
BRANCH  37  38
ATOM     38  N   UNL A   1      34.506  31.239  27.413  1.00  0.00    -0.352 N 
ATOM     39  C   UNL A   1      34.598  32.302  28.306  1.00  0.00     0.251 C 
ATOM     40  H   UNL A   1      33.769  31.311  26.765  1.00  0.00     0.163 HD
ATOM     41  O   UNL A   1      33.772  33.186  28.278  1.00  0.00    -0.269 OA
BRANCH  39  42
ATOM     42  C   UNL A   1      35.791  32.427  29.189  1.00  0.00     0.039 A 
ATOM     43  C   UNL A   1      36.849  33.234  28.744  1.00  0.00     0.014 A 
ATOM     44  C   UNL A   1      35.961  31.622  30.307  1.00  0.00     0.014 A 
ATOM     45  C   UNL A   1      38.134  33.019  29.241  1.00  0.00     0.010 A 
ATOM     46  C   UNL A   1      37.241  31.330  30.726  1.00  0.00     0.010 A 
ATOM     47  C   UNL A   1      38.333  31.974  30.137  1.00  0.00    -0.014 A 
BRANCH  47  48
ATOM     48  C   UNL A   1      39.629  31.382  30.437  1.00  0.00     0.031 A 
ATOM     49  C   UNL A   1      40.096  30.187  29.709  1.00  0.00     0.074 A 
ATOM     50  C   UNL A   1      40.478  32.045  31.255  1.00  0.00     0.049 A 
ATOM     51  N   UNL A   1      41.135  29.503  30.048  1.00  0.00    -0.248 NA
ATOM     52  C   UNL A   1      39.381  29.612  28.576  1.00  0.00     0.031 C 
ATOM     53  C   UNL A   1      41.926  31.877  31.351  1.00  0.00     0.029 A 
ATOM     54  N   UNL A   1      40.155  32.887  32.327  1.00  0.00    -0.354 N 
ATOM     55  C   UNL A   1      41.393  28.593  29.052  1.00  0.00     0.074 A 
ATOM     56  C   UNL A   1      40.202  28.612  28.237  1.00  0.00     0.031 C 
ATOM     57  C   UNL A   1      42.340  32.343  32.537  1.00  0.00     0.029 A 
ATOM     58  C   UNL A   1      41.155  32.667  33.307  1.00  0.00     0.049 A 
ATOM     59  H   UNL A   1      39.391  33.504  32.387  1.00  0.00     0.167 HD
ATOM     60  C   UNL A   1      42.634  28.030  28.995  1.00  0.00     0.037 A 
ATOM     61  C   UNL A   1      40.843  32.132  34.525  1.00  0.00     0.037 A 
ATOM     62  C   UNL A   1      43.406  28.343  30.204  1.00  0.00     0.049 A 
ATOM     63  C   UNL A   1      41.529  30.818  34.845  1.00  0.00     0.074 A 
ATOM     64  C   UNL A   1      44.473  29.172  30.509  1.00  0.00     0.029 A 
ATOM     65  N   UNL A   1      42.930  27.881  31.417  1.00  0.00    -0.354 N 
ATOM     66  N   UNL A   1      42.296  30.168  34.016  1.00  0.00    -0.248 NA
ATOM     67  C   UNL A   1      41.319  30.081  36.094  1.00  0.00     0.031 C 
ATOM     68  C   UNL A   1      44.628  29.191  31.928  1.00  0.00     0.029 A 
ATOM     69  C   UNL A   1      43.665  28.364  32.476  1.00  0.00     0.049 A 
ATOM     70  H   UNL A   1      42.157  27.278  31.512  1.00  0.00     0.167 HD
ATOM     71  C   UNL A   1      42.594  28.938  34.538  1.00  0.00     0.074 A 
ATOM     72  C   UNL A   1      41.980  28.936  35.852  1.00  0.00     0.031 C 
ATOM     73  C   UNL A   1      43.266  27.990  33.824  1.00  0.00     0.037 A 
BRANCH  60  74
ATOM     74  C   UNL A   1      43.253  27.311  27.810  1.00  0.00     0.057 A 
ATOM     75  C   UNL A   1      43.873  26.054  27.995  1.00  0.00     0.134 A 
ATOM     76  C   UNL A   1      43.372  27.808  26.498  1.00  0.00     0.134 A 
ATOM     77  F   UNL A   1      43.819  25.407  29.167  1.00  0.00    -0.206 F 
ATOM     78  C   UNL A   1      44.593  25.393  26.989  1.00  0.00     0.040 A 
ATOM     79  C   UNL A   1      44.069  27.145  25.476  1.00  0.00     0.040 A 
ATOM     80  F   UNL A   1      42.845  28.968  26.110  1.00  0.00    -0.206 F 
ATOM     81  C   UNL A   1      44.701  25.941  25.723  1.00  0.00     0.006 A 
ENDBRANCH  60  74
BRANCH  61  82
ATOM     82  C   UNL A   1      39.481  32.508  34.979  1.00  0.00     0.057 A 
ATOM     83  C   UNL A   1      39.296  33.759  35.591  1.00  0.00     0.134 A 
ATOM     84  C   UNL A   1      38.347  31.870  34.467  1.00  0.00     0.134 A 
ATOM     85  F   UNL A   1      40.347  34.424  36.096  1.00  0.00    -0.206 F 
ATOM     86  C   UNL A   1      38.057  34.403  35.587  1.00  0.00     0.040 A 
ATOM     87  C   UNL A   1      37.098  32.501  34.468  1.00  0.00     0.040 A 
ATOM     88  F   UNL A   1      38.452  30.685  33.848  1.00  0.00    -0.206 F 
ATOM     89  C   UNL A   1      36.961  33.786  34.992  1.00  0.00     0.006 A 
ENDBRANCH  61  82
BRANCH  73  90
ATOM     90  C   UNL A   1      43.571  26.607  34.330  1.00  0.00     0.057 A 
ATOM     91  C   UNL A   1      44.868  26.083  34.374  1.00  0.00     0.134 A 
ATOM     92  C   UNL A   1      42.538  25.706  34.668  1.00  0.00     0.134 A 
ATOM     93  F   UNL A   1      45.927  26.832  34.032  1.00  0.00    -0.206 F 
ATOM     94  C   UNL A   1      45.123  24.757  34.749  1.00  0.00     0.040 A 
ATOM     95  C   UNL A   1      42.775  24.369  34.994  1.00  0.00     0.040 A 
ATOM     96  F   UNL A   1      41.256  26.094  34.721  1.00  0.00    -0.206 F 
ATOM     97  C   UNL A   1      44.074  23.890  35.043  1.00  0.00     0.006 A 
ENDBRANCH  73  90
ENDBRANCH  47  48
ENDBRANCH  39  42
ENDBRANCH  37  38
ENDBRANCH  36  37
ENDBRANCH  35  36
ENDBRANCH  34  35
ENDBRANCH   1  34
TORSDOF 17
ENDMDL
MODEL 3
REMARK VINA RESULT:     -11.8      2.233      3.585
REMARK SMILES Cc1ccccc1/[NH+]=C1\S[C@@H](CC(=O)Nc2ccc(C(=O)NCCCCCCNC(=O)c3ccc(-c4c5nc(c(-c6c(F)cccc6F)c6ccc([nH]6)c(-c6c(F)cccc6F)c6nc(c(-c7c(F)cccc7F)c7ccc4[nH]7)C=C6)C=C5)cc3)cc2)C(=O)N1C
REMARK SMILES IDX 24 1 23 2 22 3 20 4 21 5 19 7 16 8 17 9 87 10 18 11 86 12
REMARK SMILES IDX 15 13 13 14 14 15 12 17 11 18 8 19 9 20 10 22 90 23 88 24
REMARK SMILES IDX 91 25 89 26 7 27 1 28 2 29 3 30 4 31 6 32 5 33 25 34 26 35
REMARK SMILES IDX 27 36 28 37 29 38 30 39 31 41 32 42 33 43 85 44 34 45 84 46
REMARK SMILES IDX 35 47 36 48 37 49 78 50 38 51 83 52 77 53 79 54 39 55 82 56
REMARK SMILES IDX 76 57 75 58 40 60 66 61 49 62 65 63 50 64 53 65 64 66 80 67
REMARK SMILES IDX 51 68 52 69 63 71 81 72 54 73 41 74 42 75 47 76 43 77 44 78
REMARK SMILES IDX 46 79 48 80 45 81 67 82 68 83 73 84 69 85 70 86 72 87 74 88
REMARK SMILES IDX 71 89 55 90 56 91 61 92 57 93 58 94 60 95 62 96 59 97
REMARK H PARENT 22 6 15 16 8 21 29 40 79 59 53 70
REMARK Flexibility Score: inf
ROOT
ATOM      1  C   UNL A   1      35.468  30.361  27.708  1.00  0.00     0.021 C 
ENDROOT
BRANCH   1   2
ATOM      2  C   UNL A   1      34.112  29.649  27.638  1.00  0.00     0.116 C 
BRANCH   2   3
ATOM      3  N   UNL A   1      33.040  30.560  27.259  1.00  0.00    -0.352 N 
ATOM      4  C   UNL A   1      32.157  30.556  26.203  1.00  0.00     0.251 C 
ATOM      5  O   UNL A   1      31.215  31.346  26.222  1.00  0.00    -0.269 OA
ATOM      6  H   UNL A   1      32.926  31.321  27.873  1.00  0.00     0.163 HD
BRANCH   4   7
ATOM      7  C   UNL A   1      32.277  29.612  25.063  1.00  0.00     0.039 A 
ATOM      8  C   UNL A   1      32.651  27.945  22.846  1.00  0.00     0.041 A 
ATOM      9  C   UNL A   1      31.400  28.497  23.122  1.00  0.00     0.027 A 
ATOM     10  C   UNL A   1      33.676  28.076  23.772  1.00  0.00     0.027 A 
ATOM     11  C   UNL A   1      31.207  29.325  24.224  1.00  0.00     0.016 A 
ATOM     12  C   UNL A   1      33.492  28.926  24.873  1.00  0.00     0.016 A 
BRANCH   8  13
ATOM     13  N   UNL A   1      32.870  27.297  21.625  1.00  0.00    -0.326 N 
ATOM     14  C   UNL A   1      32.740  25.940  21.409  1.00  0.00     0.226 C 
ATOM     15  O   UNL A   1      33.199  25.411  20.397  1.00  0.00    -0.275 OA
ATOM     16  H   UNL A   1      33.139  27.853  20.859  1.00  0.00     0.169 HD
BRANCH  14  17
ATOM     17  C   UNL A   1      31.828  25.167  22.350  1.00  0.00     0.128 C 
BRANCH  17  18
ATOM     18  C   UNL A   1      32.494  24.526  23.547  1.00  0.00     0.183 C 
ATOM     19  N   UNL A   1      34.311  21.729  25.176  1.00  0.00    -0.234 N 
ATOM     20  C   UNL A   1      33.493  22.384  24.435  1.00  0.00     0.319 C 
ATOM     21  H   UNL A   1      33.897  21.220  25.909  1.00  0.00     0.313 HD
ATOM     22  S   UNL A   1      33.735  23.295  22.984  1.00  0.00    -0.022 SA
ATOM     23  N   UNL A   1      32.183  22.502  24.793  1.00  0.00    -0.193 N 
ATOM     24  C   UNL A   1      31.616  23.722  24.491  1.00  0.00     0.324 C 
ATOM     25  C   UNL A   1      31.499  21.557  25.651  1.00  0.00     0.301 C 
ATOM     26  O   UNL A   1      30.598  24.155  25.017  1.00  0.00    -0.245 OA
BRANCH  19  27
ATOM     27  C   UNL A   1      35.708  21.631  25.094  1.00  0.00     0.128 A 
ATOM     28  C   UNL A   1      36.367  24.019  25.854  1.00  0.00     0.049 C 
ATOM     29  C   UNL A   1      36.667  22.599  25.466  1.00  0.00    -0.004 A 
ATOM     30  C   UNL A   1      38.031  22.241  25.507  1.00  0.00     0.008 A 
ATOM     31  C   UNL A   1      38.449  20.933  25.282  1.00  0.00     0.001 A 
ATOM     32  C   UNL A   1      36.163  20.320  24.858  1.00  0.00     0.052 A 
ATOM     33  C   UNL A   1      37.509  19.965  24.966  1.00  0.00     0.004 A 
ENDBRANCH  19  27
ENDBRANCH  17  18
ENDBRANCH  14  17
ENDBRANCH   8  13
ENDBRANCH   4   7
ENDBRANCH   2   3
ENDBRANCH   1   2
BRANCH   1  34
ATOM     34  C   UNL A   1      36.443  29.813  28.765  1.00  0.00     0.002 C 
BRANCH  34  35
ATOM     35  C   UNL A   1      36.137  30.152  30.234  1.00  0.00     0.002 C 
BRANCH  35  36
ATOM     36  C   UNL A   1      36.152  31.639  30.595  1.00  0.00     0.021 C 
BRANCH  36  37
ATOM     37  C   UNL A   1      35.679  31.945  32.013  1.00  0.00     0.116 C 
BRANCH  37  38
ATOM     38  N   UNL A   1      35.453  33.362  32.273  1.00  0.00    -0.352 N 
ATOM     39  C   UNL A   1      36.301  34.337  32.786  1.00  0.00     0.251 C 
ATOM     40  H   UNL A   1      34.549  33.681  32.047  1.00  0.00     0.163 HD
ATOM     41  O   UNL A   1      35.886  35.458  32.976  1.00  0.00    -0.269 OA
BRANCH  39  42
ATOM     42  C   UNL A   1      37.751  34.042  32.961  1.00  0.00     0.039 A 
ATOM     43  C   UNL A   1      38.627  34.464  31.950  1.00  0.00     0.014 A 
ATOM     44  C   UNL A   1      38.210  33.202  33.966  1.00  0.00     0.014 A 
ATOM     45  C   UNL A   1      39.857  33.826  31.796  1.00  0.00     0.010 A 
ATOM     46  C   UNL A   1      39.375  32.495  33.758  1.00  0.00     0.010 A 
ATOM     47  C   UNL A   1      40.159  32.755  32.630  1.00  0.00    -0.014 A 
BRANCH  47  48
ATOM     48  C   UNL A   1      41.188  31.762  32.356  1.00  0.00     0.031 A 
ATOM     49  C   UNL A   1      40.923  30.639  31.437  1.00  0.00     0.074 A 
ATOM     50  C   UNL A   1      42.444  31.981  32.804  1.00  0.00     0.049 A 
ATOM     51  N   UNL A   1      41.711  29.628  31.296  1.00  0.00    -0.248 NA
ATOM     52  C   UNL A   1      39.700  30.520  30.652  1.00  0.00     0.031 C 
ATOM     53  C   UNL A   1      43.679  31.379  32.306  1.00  0.00     0.029 A 
ATOM     54  N   UNL A   1      42.837  32.667  33.961  1.00  0.00    -0.354 N 
ATOM     55  C   UNL A   1      41.267  28.884  30.231  1.00  0.00     0.074 A 
ATOM     56  C   UNL A   1      39.949  29.403  29.960  1.00  0.00     0.031 C 
ATOM     57  C   UNL A   1      44.622  31.474  33.254  1.00  0.00     0.029 A 
ATOM     58  C   UNL A   1      43.978  31.985  34.448  1.00  0.00     0.049 A 
ATOM     59  H   UNL A   1      42.407  33.461  34.354  1.00  0.00     0.167 HD
ATOM     60  C   UNL A   1      42.131  28.000  29.653  1.00  0.00     0.037 A 
ATOM     61  C   UNL A   1      43.958  31.350  35.658  1.00  0.00     0.037 A 
ATOM     62  C   UNL A   1      43.340  27.842  30.471  1.00  0.00     0.049 A 
ATOM     63  C   UNL A   1      44.216  29.856  35.605  1.00  0.00     0.074 A 
ATOM     64  C   UNL A   1      44.661  28.248  30.372  1.00  0.00     0.029 A 
ATOM     65  N   UNL A   1      43.200  27.324  31.745  1.00  0.00    -0.354 N 
ATOM     66  N   UNL A   1      44.363  29.175  34.505  1.00  0.00    -0.248 NA
ATOM     67  C   UNL A   1      44.225  28.997  36.791  1.00  0.00     0.031 C 
ATOM     68  C   UNL A   1      45.308  27.957  31.610  1.00  0.00     0.029 A 
ATOM     69  C   UNL A   1      44.383  27.364  32.450  1.00  0.00     0.049 A 
ATOM     70  H   UNL A   1      42.356  26.970  32.107  1.00  0.00     0.167 HD
ATOM     71  C   UNL A   1      44.385  27.836  34.796  1.00  0.00     0.074 A 
ATOM     72  C   UNL A   1      44.320  27.773  36.243  1.00  0.00     0.031 C 
ATOM     73  C   UNL A   1      44.388  26.881  33.822  1.00  0.00     0.037 A 
BRANCH  60  74
ATOM     74  C   UNL A   1      41.999  27.363  28.282  1.00  0.00     0.057 A 
ATOM     75  C   UNL A   1      42.070  28.169  27.123  1.00  0.00     0.134 A 
ATOM     76  C   UNL A   1      41.711  26.012  28.010  1.00  0.00     0.134 A 
ATOM     77  F   UNL A   1      42.382  29.470  27.185  1.00  0.00    -0.206 F 
ATOM     78  C   UNL A   1      41.813  27.687  25.830  1.00  0.00     0.040 A 
ATOM     79  C   UNL A   1      41.476  25.512  26.720  1.00  0.00     0.040 A 
ATOM     80  F   UNL A   1      41.616  25.084  28.961  1.00  0.00    -0.206 F 
ATOM     81  C   UNL A   1      41.507  26.353  25.624  1.00  0.00     0.006 A 
ENDBRANCH  60  74
BRANCH  61  82
ATOM     82  C   UNL A   1      43.066  32.020  36.637  1.00  0.00     0.057 A 
ATOM     83  C   UNL A   1      43.521  33.187  37.274  1.00  0.00     0.134 A 
ATOM     84  C   UNL A   1      41.688  31.783  36.639  1.00  0.00     0.134 A 
ATOM     85  F   UNL A   1      44.832  33.474  37.300  1.00  0.00    -0.206 F 
ATOM     86  C   UNL A   1      42.635  34.138  37.785  1.00  0.00     0.040 A 
ATOM     87  C   UNL A   1      40.792  32.723  37.159  1.00  0.00     0.040 A 
ATOM     88  F   UNL A   1      41.180  30.703  36.029  1.00  0.00    -0.206 F 
ATOM     89  C   UNL A   1      41.263  33.921  37.696  1.00  0.00     0.006 A 
ENDBRANCH  61  82
BRANCH  73  90
ATOM     90  C   UNL A   1      44.357  25.402  34.087  1.00  0.00     0.057 A 
ATOM     91  C   UNL A   1      45.432  24.555  33.792  1.00  0.00     0.134 A 
ATOM     92  C   UNL A   1      43.180  24.762  34.532  1.00  0.00     0.134 A 
ATOM     93  F   UNL A   1      46.588  25.046  33.320  1.00  0.00    -0.206 F 
ATOM     94  C   UNL A   1      45.348  23.164  33.947  1.00  0.00     0.040 A 
ATOM     95  C   UNL A   1      43.069  23.374  34.642  1.00  0.00     0.040 A 
ATOM     96  F   UNL A   1      42.097  25.458  34.903  1.00  0.00    -0.206 F 
ATOM     97  C   UNL A   1      44.159  22.567  34.356  1.00  0.00     0.006 A 
ENDBRANCH  73  90
ENDBRANCH  47  48
ENDBRANCH  39  42
ENDBRANCH  37  38
ENDBRANCH  36  37
ENDBRANCH  35  36
ENDBRANCH  34  35
ENDBRANCH   1  34
TORSDOF 17
ENDMDL
