MODEL 1
REMARK VINA RESULT:     -10.0      0.000      0.000
REMARK SMILES C[C@H](NC(=O)OCc1ccccc1)C(=O)NCC(=O)N1CCC[C@H]1C(=O)NCCCCCCNC(=O)c1ccc(-c2c3nc(c(-c4c(F)cccc4F)c4ccc([nH]4)c(-c4c(F)cccc4F)c4nc(c(-c5c(F)cccc5F)c5ccc2[nH]5)C=C4)C=C3)cc1
REMARK SMILES IDX 25 1 26 2 27 3 24 5 20 6 21 7 22 8 23 9 18 10 19 11 17 12
REMARK SMILES IDX 16 13 14 14 15 15 2 17 1 18 3 19 4 20 5 22 6 23 7 24 8 25
REMARK SMILES IDX 9 26 13 27 10 28 12 29 11 30 28 31 29 32 30 33 31 34 32 35
REMARK SMILES IDX 33 36 34 37 35 38 36 40 37 41 38 42 90 43 39 44 89 45 40 46
REMARK SMILES IDX 41 47 42 48 83 49 43 50 88 51 82 52 84 53 44 54 87 55 81 56
REMARK SMILES IDX 80 57 45 59 71 60 54 61 70 62 55 63 58 64 69 65 85 66 56 67
REMARK SMILES IDX 57 68 68 70 86 71 59 72 46 73 47 74 52 75 48 76 49 77 51 78
REMARK SMILES IDX 53 79 50 80 72 81 73 82 78 83 74 84 75 85 77 86 79 87 76 88
REMARK SMILES IDX 60 89 61 90 66 91 62 92 63 93 65 94 67 95 64 96
REMARK H PARENT 27 4 16 16 3 21 34 39 84 58 58 69
REMARK Flexibility Score: inf
ROOT
ATOM      1  C   UNL A   1      34.051  24.229  23.134  1.00  0.00     0.242 C 
ATOM      2  O   UNL A   1      33.824  23.985  21.946  1.00  0.00    -0.273 OA
ATOM      3  N   UNL A   1      35.151  23.641  23.697  1.00  0.00    -0.354 N 
ATOM      4  H   UNL A   1      35.537  22.885  23.196  1.00  0.00     0.163 HD
ENDROOT
BRANCH   1   5
ATOM      5  C   UNL A   1      33.164  25.172  23.986  1.00  0.00     0.174 C 
ATOM      6  N   UNL A   1      32.731  26.401  23.309  1.00  0.00    -0.329 N 
ATOM      7  C   UNL A   1      31.397  26.247  22.785  1.00  0.00     0.120 C 
ATOM      8  C   UNL A   1      30.717  25.361  23.805  1.00  0.00     0.024 C 
ATOM      9  C   UNL A   1      31.833  24.455  24.325  1.00  0.00     0.037 C 
BRANCH   6  10
ATOM     10  C   UNL A   1      33.578  27.379  22.846  1.00  0.00     0.242 C 
ATOM     11  O   UNL A   1      34.011  27.395  21.696  1.00  0.00    -0.273 OA
BRANCH  10  12
ATOM     12  C   UNL A   1      33.911  28.505  23.832  1.00  0.00     0.216 C 
BRANCH  12  13
ATOM     13  N   UNL A   1      32.721  29.240  24.219  1.00  0.00    -0.345 N 
ATOM     14  C   UNL A   1      32.405  29.885  25.376  1.00  0.00     0.242 C 
ATOM     15  O   UNL A   1      31.273  30.370  25.460  1.00  0.00    -0.273 OA
ATOM     16  H   UNL A   1      32.023  29.281  23.526  1.00  0.00     0.164 HD
BRANCH  14  17
ATOM     17  C   UNL A   1      33.440  30.119  26.501  1.00  0.00     0.171 C 
ATOM     18  C   UNL A   1      33.667  28.815  27.253  1.00  0.00     0.042 C 
BRANCH  17  19
ATOM     19  N   UNL A   1      33.096  31.325  27.251  1.00  0.00    -0.310 N 
ATOM     20  C   UNL A   1      33.831  32.283  27.867  1.00  0.00     0.408 C 
ATOM     21  H   UNL A   1      32.126  31.473  27.324  1.00  0.00     0.167 HD
ATOM     22  O   UNL A   1      33.281  33.098  28.604  1.00  0.00    -0.225 OA
BRANCH  20  23
ATOM     23  O   UNL A   1      35.156  32.218  27.625  1.00  0.00    -0.445 OA
BRANCH  23  24
ATOM     24  C   UNL A   1      35.922  33.347  28.080  1.00  0.00     0.270 C 
BRANCH  24  25
ATOM     25  C   UNL A   1      36.762  33.011  29.289  1.00  0.00    -0.011 A 
ATOM     26  C   UNL A   1      36.157  32.848  30.544  1.00  0.00     0.007 A 
ATOM     27  C   UNL A   1      38.155  32.904  29.185  1.00  0.00     0.007 A 
ATOM     28  C   UNL A   1      36.935  32.609  31.677  1.00  0.00     0.000 A 
ATOM     29  C   UNL A   1      38.931  32.668  30.320  1.00  0.00     0.000 A 
ATOM     30  C   UNL A   1      38.321  32.525  31.566  1.00  0.00     0.000 A 
ENDBRANCH  24  25
ENDBRANCH  23  24
ENDBRANCH  20  23
ENDBRANCH  17  19
ENDBRANCH  14  17
ENDBRANCH  12  13
ENDBRANCH  10  12
ENDBRANCH   6  10
ENDBRANCH   1   5
BRANCH   3  31
ATOM     31  C   UNL A   1      35.823  23.986  24.931  1.00  0.00     0.116 C 
BRANCH  31  32
ATOM     32  C   UNL A   1      36.997  23.069  25.250  1.00  0.00     0.021 C 
BRANCH  32  33
ATOM     33  C   UNL A   1      38.074  23.689  26.146  1.00  0.00     0.002 C 
BRANCH  33  34
ATOM     34  C   UNL A   1      39.295  22.808  26.436  1.00  0.00     0.002 C 
BRANCH  34  35
ATOM     35  C   UNL A   1      39.312  21.445  25.739  1.00  0.00     0.021 C 
BRANCH  35  36
ATOM     36  C   UNL A   1      39.589  20.254  26.650  1.00  0.00     0.116 C 
BRANCH  36  37
ATOM     37  N   UNL A   1      40.633  19.385  26.131  1.00  0.00    -0.352 N 
ATOM     38  C   UNL A   1      41.959  19.650  25.898  1.00  0.00     0.251 C 
ATOM     39  H   UNL A   1      40.345  18.469  25.915  1.00  0.00     0.163 HD
ATOM     40  O   UNL A   1      42.657  18.836  25.302  1.00  0.00    -0.269 OA
BRANCH  38  41
ATOM     41  C   UNL A   1      42.542  20.935  26.338  1.00  0.00     0.039 A 
ATOM     42  C   UNL A   1      42.922  21.866  25.368  1.00  0.00     0.014 A 
ATOM     43  C   UNL A   1      42.704  21.225  27.695  1.00  0.00     0.014 A 
ATOM     44  C   UNL A   1      43.387  23.122  25.761  1.00  0.00     0.010 A 
ATOM     45  C   UNL A   1      43.102  22.501  28.086  1.00  0.00     0.010 A 
ATOM     46  C   UNL A   1      43.433  23.467  27.122  1.00  0.00    -0.014 A 
BRANCH  46  47
ATOM     47  C   UNL A   1      43.768  24.848  27.552  1.00  0.00     0.031 A 
ATOM     48  C   UNL A   1      42.687  25.808  27.955  1.00  0.00     0.074 A 
ATOM     49  C   UNL A   1      45.049  25.259  27.494  1.00  0.00     0.049 A 
ATOM     50  N   UNL A   1      42.783  27.073  28.275  1.00  0.00    -0.248 NA
ATOM     51  C   UNL A   1      41.313  25.284  27.980  1.00  0.00     0.031 C 
ATOM     52  C   UNL A   1      46.183  24.434  27.072  1.00  0.00     0.029 A 
ATOM     53  N   UNL A   1      45.612  26.480  27.770  1.00  0.00    -0.354 N 
ATOM     54  C   UNL A   1      41.486  27.501  28.526  1.00  0.00     0.074 A 
ATOM     55  C   UNL A   1      40.616  26.371  28.276  1.00  0.00     0.031 C 
ATOM     56  C   UNL A   1      47.305  25.166  27.129  1.00  0.00     0.029 A 
ATOM     57  C   UNL A   1      46.967  26.524  27.544  1.00  0.00     0.049 A 
ATOM     58  H   UNL A   1      45.096  27.251  28.099  1.00  0.00     0.167 HD
ATOM     59  C   UNL A   1      41.064  28.719  28.941  1.00  0.00     0.037 A 
ATOM     60  C   UNL A   1      47.838  27.547  27.636  1.00  0.00     0.037 A 
ATOM     61  C   UNL A   1      41.939  29.836  29.195  1.00  0.00     0.049 A 
ATOM     62  C   UNL A   1      47.341  28.897  28.069  1.00  0.00     0.074 A 
ATOM     63  C   UNL A   1      41.617  31.086  29.692  1.00  0.00     0.029 A 
ATOM     64  N   UNL A   1      43.306  29.842  28.955  1.00  0.00    -0.354 N 
ATOM     65  N   UNL A   1      46.123  29.265  28.386  1.00  0.00    -0.248 NA
ATOM     66  C   UNL A   1      48.337  29.973  28.156  1.00  0.00     0.031 C 
ATOM     67  C   UNL A   1      42.775  31.870  29.688  1.00  0.00     0.029 A 
ATOM     68  C   UNL A   1      43.832  31.091  29.247  1.00  0.00     0.049 A 
ATOM     69  H   UNL A   1      43.825  29.073  28.625  1.00  0.00     0.167 HD
ATOM     70  C   UNL A   1      46.207  30.610  28.721  1.00  0.00     0.074 A 
ATOM     71  C   UNL A   1      47.600  30.985  28.593  1.00  0.00     0.031 C 
ATOM     72  C   UNL A   1      45.218  31.458  29.097  1.00  0.00     0.037 A 
BRANCH  59  73
ATOM     73  C   UNL A   1      39.587  28.915  29.128  1.00  0.00     0.057 A 
ATOM     74  C   UNL A   1      38.970  28.782  30.379  1.00  0.00     0.134 A 
ATOM     75  C   UNL A   1      38.773  29.274  28.045  1.00  0.00     0.134 A 
ATOM     76  F   UNL A   1      39.688  28.433  31.457  1.00  0.00    -0.206 F 
ATOM     77  C   UNL A   1      37.595  28.966  30.540  1.00  0.00     0.040 A 
ATOM     78  C   UNL A   1      37.402  29.490  28.198  1.00  0.00     0.040 A 
ATOM     79  F   UNL A   1      39.296  29.426  26.819  1.00  0.00    -0.206 F 
ATOM     80  C   UNL A   1      36.809  29.328  29.448  1.00  0.00     0.006 A 
ENDBRANCH  59  73
BRANCH  60  81
ATOM     81  C   UNL A   1      49.267  27.328  27.302  1.00  0.00     0.057 A 
ATOM     82  C   UNL A   1      49.739  27.490  25.994  1.00  0.00     0.134 A 
ATOM     83  C   UNL A   1      50.199  26.967  28.283  1.00  0.00     0.134 A 
ATOM     84  F   UNL A   1      48.891  27.815  25.006  1.00  0.00    -0.206 F 
ATOM     85  C   UNL A   1      51.083  27.291  25.672  1.00  0.00     0.040 A 
ATOM     86  C   UNL A   1      51.550  26.792  27.981  1.00  0.00     0.040 A 
ATOM     87  F   UNL A   1      49.812  26.804  29.558  1.00  0.00    -0.206 F 
ATOM     88  C   UNL A   1      51.994  26.948  26.669  1.00  0.00     0.006 A 
ENDBRANCH  60  81
BRANCH  72  89
ATOM     89  C   UNL A   1      45.608  32.877  29.397  1.00  0.00     0.057 A 
ATOM     90  C   UNL A   1      46.052  33.266  30.669  1.00  0.00     0.134 A 
ATOM     91  C   UNL A   1      45.579  33.857  28.397  1.00  0.00     0.134 A 
ATOM     92  F   UNL A   1      46.091  32.380  31.676  1.00  0.00    -0.206 F 
ATOM     93  C   UNL A   1      46.430  34.582  30.939  1.00  0.00     0.040 A 
ATOM     94  C   UNL A   1      45.983  35.170  28.647  1.00  0.00     0.040 A 
ATOM     95  F   UNL A   1      45.171  33.552  27.156  1.00  0.00    -0.206 F 
ATOM     96  C   UNL A   1      46.405  35.536  29.924  1.00  0.00     0.006 A 
ENDBRANCH  72  89
ENDBRANCH  46  47
ENDBRANCH  38  41
ENDBRANCH  36  37
ENDBRANCH  35  36
ENDBRANCH  34  35
ENDBRANCH  33  34
ENDBRANCH  32  33
ENDBRANCH  31  32
ENDBRANCH   3  31
TORSDOF 21
ENDMDL
MODEL 2
REMARK VINA RESULT:     -10.0      4.593      8.620
REMARK SMILES C[C@H](NC(=O)OCc1ccccc1)C(=O)NCC(=O)N1CCC[C@H]1C(=O)NCCCCCCNC(=O)c1ccc(-c2c3nc(c(-c4c(F)cccc4F)c4ccc([nH]4)c(-c4c(F)cccc4F)c4nc(c(-c5c(F)cccc5F)c5ccc2[nH]5)C=C4)C=C3)cc1
REMARK SMILES IDX 25 1 26 2 27 3 24 5 20 6 21 7 22 8 23 9 18 10 19 11 17 12
REMARK SMILES IDX 16 13 14 14 15 15 2 17 1 18 3 19 4 20 5 22 6 23 7 24 8 25
REMARK SMILES IDX 9 26 13 27 10 28 12 29 11 30 28 31 29 32 30 33 31 34 32 35
REMARK SMILES IDX 33 36 34 37 35 38 36 40 37 41 38 42 90 43 39 44 89 45 40 46
REMARK SMILES IDX 41 47 42 48 83 49 43 50 88 51 82 52 84 53 44 54 87 55 81 56
REMARK SMILES IDX 80 57 45 59 71 60 54 61 70 62 55 63 58 64 69 65 85 66 56 67
REMARK SMILES IDX 57 68 68 70 86 71 59 72 46 73 47 74 52 75 48 76 49 77 51 78
REMARK SMILES IDX 53 79 50 80 72 81 73 82 78 83 74 84 75 85 77 86 79 87 76 88
REMARK SMILES IDX 60 89 61 90 66 91 62 92 63 93 65 94 67 95 64 96
REMARK H PARENT 27 4 16 16 3 21 34 39 84 58 58 69
REMARK Flexibility Score: inf
ROOT
ATOM      1  C   UNL A   1      34.930  19.873  25.107  1.00  0.00     0.242 C 
ATOM      2  O   UNL A   1      35.765  19.358  24.360  1.00  0.00    -0.273 OA
ATOM      3  N   UNL A   1      35.331  20.949  25.851  1.00  0.00    -0.354 N 
ATOM      4  H   UNL A   1      36.305  21.081  25.923  1.00  0.00     0.163 HD
ENDROOT
BRANCH   1   5
ATOM      5  C   UNL A   1      33.468  19.367  25.215  1.00  0.00     0.174 C 
ATOM      6  N   UNL A   1      32.557  19.866  24.178  1.00  0.00    -0.329 N 
ATOM      7  C   UNL A   1      32.411  18.893  23.123  1.00  0.00     0.120 C 
ATOM      8  C   UNL A   1      32.488  17.569  23.851  1.00  0.00     0.024 C 
ATOM      9  C   UNL A   1      33.443  17.831  25.015  1.00  0.00     0.037 C 
BRANCH   6  10
ATOM     10  C   UNL A   1      32.238  21.188  23.986  1.00  0.00     0.242 C 
ATOM     11  O   UNL A   1      31.755  21.892  24.870  1.00  0.00    -0.273 OA
BRANCH  10  12
ATOM     12  C   UNL A   1      32.582  21.772  22.610  1.00  0.00     0.216 C 
BRANCH  12  13
ATOM     13  N   UNL A   1      33.509  22.882  22.722  1.00  0.00    -0.345 N 
ATOM     14  C   UNL A   1      33.291  24.224  22.805  1.00  0.00     0.242 C 
ATOM     15  O   UNL A   1      34.285  24.956  22.815  1.00  0.00    -0.273 OA
ATOM     16  H   UNL A   1      34.458  22.621  22.742  1.00  0.00     0.164 HD
BRANCH  14  17
ATOM     17  C   UNL A   1      31.879  24.822  23.003  1.00  0.00     0.171 C 
ATOM     18  C   UNL A   1      31.786  26.146  22.259  1.00  0.00     0.042 C 
BRANCH  17  19
ATOM     19  N   UNL A   1      31.508  24.768  24.415  1.00  0.00    -0.310 N 
ATOM     20  C   UNL A   1      31.810  25.536  25.490  1.00  0.00     0.408 C 
ATOM     21  H   UNL A   1      30.912  24.014  24.632  1.00  0.00     0.167 HD
ATOM     22  O   UNL A   1      31.518  25.152  26.620  1.00  0.00    -0.225 OA
BRANCH  20  23
ATOM     23  O   UNL A   1      32.462  26.680  25.198  1.00  0.00    -0.445 OA
BRANCH  23  24
ATOM     24  C   UNL A   1      33.641  26.934  25.980  1.00  0.00     0.270 C 
BRANCH  24  25
ATOM     25  C   UNL A   1      33.695  28.358  26.478  1.00  0.00    -0.011 A 
ATOM     26  C   UNL A   1      34.880  28.867  27.029  1.00  0.00     0.007 A 
ATOM     27  C   UNL A   1      32.557  29.174  26.440  1.00  0.00     0.007 A 
ATOM     28  C   UNL A   1      34.916  30.158  27.557  1.00  0.00     0.000 A 
ATOM     29  C   UNL A   1      32.595  30.464  26.970  1.00  0.00     0.000 A 
ATOM     30  C   UNL A   1      33.773  30.953  27.532  1.00  0.00     0.000 A 
ENDBRANCH  24  25
ENDBRANCH  23  24
ENDBRANCH  20  23
ENDBRANCH  17  19
ENDBRANCH  14  17
ENDBRANCH  12  13
ENDBRANCH  10  12
ENDBRANCH   6  10
ENDBRANCH   1   5
BRANCH   3  31
ATOM     31  C   UNL A   1      34.512  21.919  26.544  1.00  0.00     0.116 C 
BRANCH  31  32
ATOM     32  C   UNL A   1      34.772  23.352  26.096  1.00  0.00     0.021 C 
BRANCH  32  33
ATOM     33  C   UNL A   1      36.058  23.551  25.286  1.00  0.00     0.002 C 
BRANCH  33  34
ATOM     34  C   UNL A   1      37.319  23.867  26.097  1.00  0.00     0.002 C 
BRANCH  34  35
ATOM     35  C   UNL A   1      38.408  22.792  26.080  1.00  0.00     0.021 C 
BRANCH  35  36
ATOM     36  C   UNL A   1      39.627  23.089  26.948  1.00  0.00     0.116 C 
BRANCH  36  37
ATOM     37  N   UNL A   1      40.815  23.381  26.162  1.00  0.00    -0.352 N 
ATOM     38  C   UNL A   1      41.553  24.534  26.084  1.00  0.00     0.251 C 
ATOM     39  H   UNL A   1      41.139  22.638  25.602  1.00  0.00     0.163 HD
ATOM     40  O   UNL A   1      42.435  24.648  25.240  1.00  0.00    -0.269 OA
BRANCH  38  41
ATOM     41  C   UNL A   1      41.264  25.657  27.000  1.00  0.00     0.039 A 
ATOM     42  C   UNL A   1      40.262  25.499  27.960  1.00  0.00     0.014 A 
ATOM     43  C   UNL A   1      41.980  26.854  26.920  1.00  0.00     0.014 A 
ATOM     44  C   UNL A   1      40.036  26.511  28.896  1.00  0.00     0.010 A 
ATOM     45  C   UNL A   1      41.802  27.833  27.895  1.00  0.00     0.010 A 
ATOM     46  C   UNL A   1      40.838  27.663  28.901  1.00  0.00    -0.014 A 
BRANCH  46  47
ATOM     47  C   UNL A   1      40.723  28.672  29.984  1.00  0.00     0.031 A 
ATOM     48  C   UNL A   1      41.577  28.577  31.215  1.00  0.00     0.074 A 
ATOM     49  C   UNL A   1      39.779  29.629  29.890  1.00  0.00     0.049 A 
ATOM     50  N   UNL A   1      41.554  29.314  32.295  1.00  0.00    -0.248 NA
ATOM     51  C   UNL A   1      42.574  27.496  31.245  1.00  0.00     0.031 C 
ATOM     52  C   UNL A   1      38.856  29.796  28.765  1.00  0.00     0.029 A 
ATOM     53  N   UNL A   1      39.426  30.629  30.761  1.00  0.00    -0.354 N 
ATOM     54  C   UNL A   1      42.519  28.782  33.139  1.00  0.00     0.074 A 
ATOM     55  C   UNL A   1      43.078  27.630  32.463  1.00  0.00     0.031 C 
ATOM     56  C   UNL A   1      38.051  30.841  29.009  1.00  0.00     0.029 A 
ATOM     57  C   UNL A   1      38.368  31.389  30.324  1.00  0.00     0.049 A 
ATOM     58  H   UNL A   1      39.886  30.787  31.616  1.00  0.00     0.167 HD
ATOM     59  C   UNL A   1      42.912  29.222  34.358  1.00  0.00     0.037 A 
ATOM     60  C   UNL A   1      37.708  32.398  30.924  1.00  0.00     0.037 A 
ATOM     61  C   UNL A   1      42.355  30.375  35.020  1.00  0.00     0.049 A 
ATOM     62  C   UNL A   1      38.142  32.849  32.290  1.00  0.00     0.074 A 
ATOM     63  C   UNL A   1      42.738  30.948  36.220  1.00  0.00     0.029 A 
ATOM     64  N   UNL A   1      41.284  31.120  34.547  1.00  0.00    -0.354 N 
ATOM     65  N   UNL A   1      39.114  32.391  33.040  1.00  0.00    -0.248 NA
ATOM     66  C   UNL A   1      37.388  33.958  32.892  1.00  0.00     0.031 C 
ATOM     67  C   UNL A   1      41.857  31.995  36.506  1.00  0.00     0.029 A 
ATOM     68  C   UNL A   1      40.962  32.116  35.455  1.00  0.00     0.049 A 
ATOM     69  H   UNL A   1      40.821  30.963  33.692  1.00  0.00     0.167 HD
ATOM     70  C   UNL A   1      39.097  33.159  34.197  1.00  0.00     0.074 A 
ATOM     71  C   UNL A   1      38.035  34.131  34.036  1.00  0.00     0.031 C 
ATOM     72  C   UNL A   1      39.889  33.066  35.293  1.00  0.00     0.037 A 
BRANCH  59  73
ATOM     73  C   UNL A   1      43.984  28.444  35.066  1.00  0.00     0.057 A 
ATOM     74  C   UNL A   1      43.686  27.384  35.932  1.00  0.00     0.134 A 
ATOM     75  C   UNL A   1      45.337  28.740  34.855  1.00  0.00     0.134 A 
ATOM     76  F   UNL A   1      42.411  27.052  36.186  1.00  0.00    -0.206 F 
ATOM     77  C   UNL A   1      44.690  26.668  36.586  1.00  0.00     0.040 A 
ATOM     78  C   UNL A   1      46.352  28.013  35.479  1.00  0.00     0.040 A 
ATOM     79  F   UNL A   1      45.697  29.737  34.032  1.00  0.00    -0.206 F 
ATOM     80  C   UNL A   1      46.029  26.978  36.354  1.00  0.00     0.006 A 
ENDBRANCH  59  73
BRANCH  60  81
ATOM     81  C   UNL A   1      36.561  33.039  30.234  1.00  0.00     0.057 A 
ATOM     82  C   UNL A   1      36.762  33.987  29.223  1.00  0.00     0.134 A 
ATOM     83  C   UNL A   1      35.238  32.709  30.555  1.00  0.00     0.134 A 
ATOM     84  F   UNL A   1      38.005  34.359  28.884  1.00  0.00    -0.206 F 
ATOM     85  C   UNL A   1      35.689  34.592  28.565  1.00  0.00     0.040 A 
ATOM     86  C   UNL A   1      34.158  33.285  29.887  1.00  0.00     0.040 A 
ATOM     87  F   UNL A   1      34.979  31.802  31.509  1.00  0.00    -0.206 F 
ATOM     88  C   UNL A   1      34.381  34.235  28.892  1.00  0.00     0.006 A 
ENDBRANCH  60  81
BRANCH  72  89
ATOM     89  C   UNL A   1      39.635  34.040  36.408  1.00  0.00     0.057 A 
ATOM     90  C   UNL A   1      38.862  33.695  37.525  1.00  0.00     0.134 A 
ATOM     91  C   UNL A   1      40.202  35.321  36.386  1.00  0.00     0.134 A 
ATOM     92  F   UNL A   1      38.279  32.490  37.603  1.00  0.00    -0.206 F 
ATOM     93  C   UNL A   1      38.644  34.597  38.568  1.00  0.00     0.040 A 
ATOM     94  C   UNL A   1      40.015  36.221  37.437  1.00  0.00     0.040 A 
ATOM     95  F   UNL A   1      40.959  35.713  35.350  1.00  0.00    -0.206 F 
ATOM     96  C   UNL A   1      39.229  35.861  38.530  1.00  0.00     0.006 A 
ENDBRANCH  72  89
ENDBRANCH  46  47
ENDBRANCH  38  41
ENDBRANCH  36  37
ENDBRANCH  35  36
ENDBRANCH  34  35
ENDBRANCH  33  34
ENDBRANCH  32  33
ENDBRANCH  31  32
ENDBRANCH   3  31
TORSDOF 21
ENDMDL
MODEL 3
REMARK VINA RESULT:      -9.9      2.464      4.764
REMARK SMILES C[C@H](NC(=O)OCc1ccccc1)C(=O)NCC(=O)N1CCC[C@H]1C(=O)NCCCCCCNC(=O)c1ccc(-c2c3nc(c(-c4c(F)cccc4F)c4ccc([nH]4)c(-c4c(F)cccc4F)c4nc(c(-c5c(F)cccc5F)c5ccc2[nH]5)C=C4)C=C3)cc1
REMARK SMILES IDX 25 1 26 2 27 3 24 5 20 6 21 7 22 8 23 9 18 10 19 11 17 12
REMARK SMILES IDX 16 13 14 14 15 15 2 17 1 18 3 19 4 20 5 22 6 23 7 24 8 25
REMARK SMILES IDX 9 26 13 27 10 28 12 29 11 30 28 31 29 32 30 33 31 34 32 35
REMARK SMILES IDX 33 36 34 37 35 38 36 40 37 41 38 42 90 43 39 44 89 45 40 46
REMARK SMILES IDX 41 47 42 48 83 49 43 50 88 51 82 52 84 53 44 54 87 55 81 56
REMARK SMILES IDX 80 57 45 59 71 60 54 61 70 62 55 63 58 64 69 65 85 66 56 67
REMARK SMILES IDX 57 68 68 70 86 71 59 72 46 73 47 74 52 75 48 76 49 77 51 78
REMARK SMILES IDX 53 79 50 80 72 81 73 82 78 83 74 84 75 85 77 86 79 87 76 88
REMARK SMILES IDX 60 89 61 90 66 91 62 92 63 93 65 94 67 95 64 96
REMARK H PARENT 27 4 16 16 3 21 34 39 84 58 58 69
REMARK Flexibility Score: inf
ROOT
ATOM      1  C   UNL A   1      33.373  23.285  22.729  1.00  0.00     0.242 C 
ATOM      2  O   UNL A   1      34.362  23.336  21.993  1.00  0.00    -0.273 OA
ATOM      3  N   UNL A   1      33.040  22.064  23.249  1.00  0.00    -0.354 N 
ATOM      4  H   UNL A   1      33.454  21.285  22.813  1.00  0.00     0.163 HD
ENDROOT
BRANCH   1   5
ATOM      5  C   UNL A   1      32.527  24.532  23.091  1.00  0.00     0.174 C 
ATOM      6  N   UNL A   1      33.259  25.608  23.770  1.00  0.00    -0.329 N 
ATOM      7  C   UNL A   1      33.654  26.624  22.827  1.00  0.00     0.120 C 
ATOM      8  C   UNL A   1      32.513  26.648  21.835  1.00  0.00     0.024 C 
ATOM      9  C   UNL A   1      32.019  25.202  21.789  1.00  0.00     0.037 C 
BRANCH   6  10
ATOM     10  C   UNL A   1      33.869  25.487  24.995  1.00  0.00     0.242 C 
ATOM     11  O   UNL A   1      34.216  24.405  25.463  1.00  0.00    -0.273 OA
BRANCH  10  12
ATOM     12  C   UNL A   1      34.163  26.798  25.735  1.00  0.00     0.216 C 
BRANCH  12  13
ATOM     13  N   UNL A   1      33.108  27.122  26.678  1.00  0.00    -0.345 N 
ATOM     14  C   UNL A   1      31.905  27.735  26.498  1.00  0.00     0.242 C 
ATOM     15  O   UNL A   1      31.228  27.953  27.507  1.00  0.00    -0.273 OA
ATOM     16  H   UNL A   1      33.294  26.851  27.606  1.00  0.00     0.164 HD
BRANCH  14  17
ATOM     17  C   UNL A   1      31.336  28.043  25.094  1.00  0.00     0.171 C 
ATOM     18  C   UNL A   1      31.020  29.529  24.996  1.00  0.00     0.042 C 
BRANCH  17  19
ATOM     19  N   UNL A   1      30.302  27.069  24.751  1.00  0.00    -0.310 N 
ATOM     20  C   UNL A   1      29.268  27.074  23.874  1.00  0.00     0.408 C 
ATOM     21  H   UNL A   1      30.372  26.232  25.264  1.00  0.00     0.167 HD
ATOM     22  O   UNL A   1      28.419  26.187  23.923  1.00  0.00    -0.225 OA
BRANCH  20  23
ATOM     23  O   UNL A   1      29.258  28.119  23.022  1.00  0.00    -0.445 OA
BRANCH  23  24
ATOM     24  C   UNL A   1      27.968  28.706  22.782  1.00  0.00     0.270 C 
BRANCH  24  25
ATOM     25  C   UNL A   1      28.066  30.176  22.452  1.00  0.00    -0.011 A 
ATOM     26  C   UNL A   1      28.033  30.601  21.116  1.00  0.00     0.007 A 
ATOM     27  C   UNL A   1      28.237  31.127  23.466  1.00  0.00     0.007 A 
ATOM     28  C   UNL A   1      28.196  31.950  20.800  1.00  0.00     0.000 A 
ATOM     29  C   UNL A   1      28.402  32.476  23.147  1.00  0.00     0.000 A 
ATOM     30  C   UNL A   1      28.386  32.886  21.814  1.00  0.00     0.000 A 
ENDBRANCH  24  25
ENDBRANCH  23  24
ENDBRANCH  20  23
ENDBRANCH  17  19
ENDBRANCH  14  17
ENDBRANCH  12  13
ENDBRANCH  10  12
ENDBRANCH   6  10
ENDBRANCH   1   5
BRANCH   3  31
ATOM     31  C   UNL A   1      32.157  21.770  24.358  1.00  0.00     0.116 C 
BRANCH  31  32
ATOM     32  C   UNL A   1      32.771  20.815  25.373  1.00  0.00     0.021 C 
BRANCH  32  33
ATOM     33  C   UNL A   1      33.626  19.695  24.770  1.00  0.00     0.002 C 
BRANCH  33  34
ATOM     34  C   UNL A   1      35.137  19.807  24.999  1.00  0.00     0.002 C 
BRANCH  34  35
ATOM     35  C   UNL A   1      35.635  21.162  25.507  1.00  0.00     0.021 C 
BRANCH  35  36
ATOM     36  C   UNL A   1      37.056  21.528  25.093  1.00  0.00     0.116 C 
BRANCH  36  37
ATOM     37  N   UNL A   1      38.014  20.476  25.395  1.00  0.00    -0.352 N 
ATOM     38  C   UNL A   1      39.261  20.562  25.960  1.00  0.00     0.251 C 
ATOM     39  H   UNL A   1      37.723  19.565  25.160  1.00  0.00     0.163 HD
ATOM     40  O   UNL A   1      39.996  19.580  25.990  1.00  0.00    -0.269 OA
BRANCH  38  41
ATOM     41  C   UNL A   1      39.736  21.851  26.506  1.00  0.00     0.039 A 
ATOM     42  C   UNL A   1      40.778  21.843  27.435  1.00  0.00     0.014 A 
ATOM     43  C   UNL A   1      39.166  23.060  26.098  1.00  0.00     0.014 A 
ATOM     44  C   UNL A   1      41.306  23.052  27.893  1.00  0.00     0.010 A 
ATOM     45  C   UNL A   1      39.737  24.264  26.501  1.00  0.00     0.010 A 
ATOM     46  C   UNL A   1      40.822  24.271  27.391  1.00  0.00    -0.014 A 
BRANCH  46  47
ATOM     47  C   UNL A   1      41.477  25.557  27.739  1.00  0.00     0.031 A 
ATOM     48  C   UNL A   1      40.720  26.630  28.468  1.00  0.00     0.074 A 
ATOM     49  C   UNL A   1      42.735  25.787  27.316  1.00  0.00     0.049 A 
ATOM     50  N   UNL A   1      41.100  27.843  28.777  1.00  0.00    -0.248 NA
ATOM     51  C   UNL A   1      39.347  26.304  28.883  1.00  0.00     0.031 C 
ATOM     52  C   UNL A   1      43.557  24.841  26.558  1.00  0.00     0.029 A 
ATOM     53  N   UNL A   1      43.537  26.894  27.446  1.00  0.00    -0.354 N 
ATOM     54  C   UNL A   1      40.013  28.430  29.410  1.00  0.00     0.074 A 
ATOM     55  C   UNL A   1      38.943  27.455  29.399  1.00  0.00     0.031 C 
ATOM     56  C   UNL A   1      44.748  25.402  26.301  1.00  0.00     0.029 A 
ATOM     57  C   UNL A   1      44.759  26.761  26.832  1.00  0.00     0.049 A 
ATOM     58  H   UNL A   1      43.263  27.704  27.932  1.00  0.00     0.167 HD
ATOM     59  C   UNL A   1      39.923  29.664  29.962  1.00  0.00     0.037 A 
ATOM     60  C   UNL A   1      45.767  27.642  26.689  1.00  0.00     0.037 A 
ATOM     61  C   UNL A   1      40.996  30.626  29.976  1.00  0.00     0.049 A 
ATOM     62  C   UNL A   1      45.631  29.015  27.284  1.00  0.00     0.074 A 
ATOM     63  C   UNL A   1      41.029  31.871  30.578  1.00  0.00     0.029 A 
ATOM     64  N   UNL A   1      42.220  30.456  29.344  1.00  0.00    -0.354 N 
ATOM     65  N   UNL A   1      44.629  29.528  27.955  1.00  0.00    -0.248 NA
ATOM     66  C   UNL A   1      46.766  29.932  27.101  1.00  0.00     0.031 C 
ATOM     67  C   UNL A   1      42.244  32.482  30.253  1.00  0.00     0.029 A 
ATOM     68  C   UNL A   1      42.995  31.594  29.500  1.00  0.00     0.049 A 
ATOM     69  H   UNL A   1      42.496  29.647  28.856  1.00  0.00     0.167 HD
ATOM     70  C   UNL A   1      45.014  30.821  28.285  1.00  0.00     0.074 A 
ATOM     71  C   UNL A   1      46.352  31.004  27.762  1.00  0.00     0.031 C 
ATOM     72  C   UNL A   1      44.319  31.772  28.958  1.00  0.00     0.037 A 
BRANCH  59  73
ATOM     73  C   UNL A   1      38.611  30.053  30.581  1.00  0.00     0.057 A 
ATOM     74  C   UNL A   1      38.280  29.717  31.901  1.00  0.00     0.134 A 
ATOM     75  C   UNL A   1      37.675  30.803  29.856  1.00  0.00     0.134 A 
ATOM     76  F   UNL A   1      39.126  28.993  32.650  1.00  0.00    -0.206 F 
ATOM     77  C   UNL A   1      37.057  30.083  32.465  1.00  0.00     0.040 A 
ATOM     78  C   UNL A   1      36.461  31.201  30.419  1.00  0.00     0.040 A 
ATOM     79  F   UNL A   1      37.927  31.168  28.590  1.00  0.00    -0.206 F 
ATOM     80  C   UNL A   1      36.146  30.834  31.725  1.00  0.00     0.006 A 
ENDBRANCH  59  73
BRANCH  60  81
ATOM     81  C   UNL A   1      46.988  27.248  25.943  1.00  0.00     0.057 A 
ATOM     82  C   UNL A   1      48.076  26.656  26.594  1.00  0.00     0.134 A 
ATOM     83  C   UNL A   1      47.090  27.437  24.558  1.00  0.00     0.134 A 
ATOM     84  F   UNL A   1      48.046  26.466  27.921  1.00  0.00    -0.206 F 
ATOM     85  C   UNL A   1      49.226  26.278  25.899  1.00  0.00     0.040 A 
ATOM     86  C   UNL A   1      48.222  27.039  23.847  1.00  0.00     0.040 A 
ATOM     87  F   UNL A   1      46.078  27.992  23.874  1.00  0.00    -0.206 F 
ATOM     88  C   UNL A   1      49.298  26.462  24.519  1.00  0.00     0.006 A 
ENDBRANCH  60  81
BRANCH  72  89
ATOM     89  C   UNL A   1      44.994  33.097  29.166  1.00  0.00     0.057 A 
ATOM     90  C   UNL A   1      44.788  34.174  28.293  1.00  0.00     0.134 A 
ATOM     91  C   UNL A   1      45.827  33.313  30.271  1.00  0.00     0.134 A 
ATOM     92  F   UNL A   1      44.014  34.030  27.207  1.00  0.00    -0.206 F 
ATOM     93  C   UNL A   1      45.403  35.410  28.500  1.00  0.00     0.040 A 
ATOM     94  C   UNL A   1      46.424  34.554  30.506  1.00  0.00     0.040 A 
ATOM     95  F   UNL A   1      46.062  32.328  31.151  1.00  0.00    -0.206 F 
ATOM     96  C   UNL A   1      46.217  35.605  29.615  1.00  0.00     0.006 A 
ENDBRANCH  72  89
ENDBRANCH  46  47
ENDBRANCH  38  41
ENDBRANCH  36  37
ENDBRANCH  35  36
ENDBRANCH  34  35
ENDBRANCH  33  34
ENDBRANCH  32  33
ENDBRANCH  31  32
ENDBRANCH   3  31
TORSDOF 21
ENDMDL
