MODEL 1
REMARK VINA RESULT:     -11.4      0.000      0.000
REMARK SMILES CCOc1cc(NC(=O)c2c(C(=O)NCCCCCCNC(=O)c3ccc(-c4c5nc(c(-c6c(F)cccc6F)c6ccc([nH]6)c(-c6c(F)cccc6F)c6nc(c(-c7c(F)cccc7F)c7ccc4[nH]7)C=C6)C=C5)cc3)cnn2C)ccc1OC(F)F
REMARK SMILES IDX 16 1 15 2 14 3 12 4 13 5 11 7 10 8 80 9 78 10 79 11 81 12
REMARK SMILES IDX 8 13 7 14 9 16 6 17 4 18 5 19 84 20 83 21 82 22 3 23 2 24
REMARK SMILES IDX 1 25 85 26 86 27 87 28 88 29 17 30 18 31 19 32 20 33 21 34
REMARK SMILES IDX 22 35 23 37 24 38 25 39 77 40 26 41 76 42 27 43 28 44 29 45
REMARK SMILES IDX 70 46 30 47 75 48 69 49 71 50 31 51 74 52 68 53 67 54 32 56
REMARK SMILES IDX 58 57 41 58 57 59 42 60 45 61 56 62 72 63 43 64 44 65 55 67
REMARK SMILES IDX 73 68 46 69 33 70 34 71 39 72 35 73 36 74 38 75 40 76 37 77
REMARK SMILES IDX 59 78 60 79 65 80 61 81 62 82 64 83 66 84 63 85 47 86 48 87
REMARK SMILES IDX 53 88 49 89 50 90 52 91 54 92 51 93
REMARK H PARENT 14 6 7 15 21 36 71 55 45 66
REMARK Flexibility Score: inf
ROOT
ATOM      1  C   UNL A   1      31.386  28.139  27.124  1.00  0.00     0.021 C 
ENDROOT
BRANCH   1   2
ATOM      2  C   UNL A   1      31.985  26.891  26.478  1.00  0.00     0.116 C 
BRANCH   2   3
ATOM      3  N   UNL A   1      31.403  25.650  26.923  1.00  0.00    -0.352 N 
ATOM      4  C   UNL A   1      31.734  24.349  26.656  1.00  0.00     0.255 C 
ATOM      5  O   UNL A   1      30.998  23.489  27.145  1.00  0.00    -0.269 OA
ATOM      6  H   UNL A   1      30.632  25.758  27.526  1.00  0.00     0.163 HD
BRANCH   4   7
ATOM      7  C   UNL A   1      32.842  23.951  25.796  1.00  0.00     0.090 A 
ATOM      8  C   UNL A   1      32.926  23.357  24.537  1.00  0.00     0.138 A 
ATOM      9  N   UNL A   1      34.257  23.414  24.189  1.00  0.00    -0.262 N 
ATOM     10  C   UNL A   1      34.199  24.220  26.125  1.00  0.00     0.149 A 
ATOM     11  N   UNL A   1      35.058  23.829  25.185  1.00  0.00    -0.180 NA
ATOM     12  C   UNL A   1      34.864  23.073  22.920  1.00  0.00     0.174 C 
BRANCH   8  13
ATOM     13  C   UNL A   1      31.908  22.921  23.633  1.00  0.00     0.274 C 
ATOM     14  N   UNL A   1      30.997  23.810  23.103  1.00  0.00    -0.321 N 
ATOM     15  H   UNL A   1      30.302  23.363  22.567  1.00  0.00     0.170 HD
ATOM     16  O   UNL A   1      31.799  21.741  23.297  1.00  0.00    -0.267 OA
BRANCH  14  17
ATOM     17  C   UNL A   1      30.828  25.209  23.151  1.00  0.00     0.045 A 
ATOM     18  C   UNL A   1      31.450  27.539  22.747  1.00  0.00     0.163 A 
ATOM     19  C   UNL A   1      31.688  26.159  22.597  1.00  0.00     0.076 A 
ATOM     20  C   UNL A   1      30.285  27.982  23.377  1.00  0.00     0.168 A 
ATOM     21  C   UNL A   1      29.390  27.035  23.878  1.00  0.00     0.053 A 
ATOM     22  C   UNL A   1      29.671  25.668  23.791  1.00  0.00     0.030 A 
BRANCH  18  23
ATOM     23  O   UNL A   1      32.309  28.457  22.200  1.00  0.00    -0.490 OA
BRANCH  23  24
ATOM     24  C   UNL A   1      33.693  28.174  22.449  1.00  0.00     0.226 C 
ATOM     25  C   UNL A   1      34.021  28.578  23.875  1.00  0.00     0.049 C 
ENDBRANCH  23  24
ENDBRANCH  18  23
BRANCH  20  26
ATOM     26  O   UNL A   1      29.870  29.276  23.511  1.00  0.00    -0.431 OA
BRANCH  26  27
ATOM     27  C   UNL A   1      28.984  29.787  22.518  1.00  0.00     0.542 C 
ATOM     28  F   UNL A   1      28.269  30.840  22.984  1.00  0.00    -0.167 F 
ATOM     29  F   UNL A   1      29.681  30.169  21.425  1.00  0.00    -0.167 F 
ENDBRANCH  26  27
ENDBRANCH  20  26
ENDBRANCH  14  17
ENDBRANCH   8  13
ENDBRANCH   4   7
ENDBRANCH   2   3
ENDBRANCH   1   2
BRANCH   1  30
ATOM     30  C   UNL A   1      32.195  29.438  27.034  1.00  0.00     0.002 C 
BRANCH  30  31
ATOM     31  C   UNL A   1      31.668  30.553  26.128  1.00  0.00     0.002 C 
BRANCH  31  32
ATOM     32  C   UNL A   1      31.429  31.930  26.753  1.00  0.00     0.021 C 
BRANCH  32  33
ATOM     33  C   UNL A   1      32.658  32.748  27.140  1.00  0.00     0.116 C 
BRANCH  33  34
ATOM     34  N   UNL A   1      32.351  34.080  27.622  1.00  0.00    -0.352 N 
ATOM     35  C   UNL A   1      32.988  34.851  28.564  1.00  0.00     0.251 C 
ATOM     36  H   UNL A   1      31.559  34.499  27.212  1.00  0.00     0.163 HD
ATOM     37  O   UNL A   1      32.528  35.953  28.850  1.00  0.00    -0.269 OA
BRANCH  35  38
ATOM     38  C   UNL A   1      34.197  34.366  29.275  1.00  0.00     0.039 A 
ATOM     39  C   UNL A   1      34.016  33.704  30.497  1.00  0.00     0.014 A 
ATOM     40  C   UNL A   1      35.493  34.580  28.795  1.00  0.00     0.014 A 
ATOM     41  C   UNL A   1      35.115  33.196  31.194  1.00  0.00     0.010 A 
ATOM     42  C   UNL A   1      36.590  34.038  29.472  1.00  0.00     0.010 A 
ATOM     43  C   UNL A   1      36.409  33.331  30.672  1.00  0.00    -0.014 A 
BRANCH  43  44
ATOM     44  C   UNL A   1      37.572  32.713  31.356  1.00  0.00     0.031 A 
ATOM     45  C   UNL A   1      38.293  31.548  30.744  1.00  0.00     0.074 A 
ATOM     46  C   UNL A   1      37.957  33.181  32.559  1.00  0.00     0.049 A 
ATOM     47  N   UNL A   1      39.267  30.829  31.244  1.00  0.00    -0.248 NA
ATOM     48  C   UNL A   1      37.855  31.128  29.405  1.00  0.00     0.031 C 
ATOM     49  C   UNL A   1      37.328  34.290  33.279  1.00  0.00     0.029 A 
ATOM     50  N   UNL A   1      38.970  32.774  33.389  1.00  0.00    -0.354 N 
ATOM     51  C   UNL A   1      39.535  29.849  30.300  1.00  0.00     0.074 A 
ATOM     52  C   UNL A   1      38.628  30.071  29.192  1.00  0.00     0.031 C 
ATOM     53  C   UNL A   1      37.984  34.487  34.435  1.00  0.00     0.029 A 
ATOM     54  C   UNL A   1      39.061  33.508  34.545  1.00  0.00     0.049 A 
ATOM     55  H   UNL A   1      39.575  32.027  33.175  1.00  0.00     0.167 HD
ATOM     56  C   UNL A   1      40.449  28.852  30.355  1.00  0.00     0.037 A 
ATOM     57  C   UNL A   1      39.916  33.403  35.578  1.00  0.00     0.037 A 
ATOM     58  C   UNL A   1      41.385  28.646  31.426  1.00  0.00     0.049 A 
ATOM     59  C   UNL A   1      40.973  32.342  35.575  1.00  0.00     0.074 A 
ATOM     60  C   UNL A   1      42.352  27.662  31.552  1.00  0.00     0.029 A 
ATOM     61  N   UNL A   1      41.484  29.450  32.548  1.00  0.00    -0.354 N 
ATOM     62  N   UNL A   1      41.198  31.410  34.682  1.00  0.00    -0.248 NA
ATOM     63  C   UNL A   1      41.891  32.317  36.722  1.00  0.00     0.031 C 
ATOM     64  C   UNL A   1      43.041  27.876  32.753  1.00  0.00     0.029 A 
ATOM     65  C   UNL A   1      42.502  28.994  33.368  1.00  0.00     0.049 A 
ATOM     66  H   UNL A   1      40.915  30.232  32.735  1.00  0.00     0.167 HD
ATOM     67  C   UNL A   1      42.280  30.687  35.160  1.00  0.00     0.074 A 
ATOM     68  C   UNL A   1      42.675  31.292  36.416  1.00  0.00     0.031 C 
ATOM     69  C   UNL A   1      42.887  29.610  34.606  1.00  0.00     0.037 A 
BRANCH  56  70
ATOM     70  C   UNL A   1      40.469  27.892  29.210  1.00  0.00     0.057 A 
ATOM     71  C   UNL A   1      39.661  26.748  29.204  1.00  0.00     0.134 A 
ATOM     72  C   UNL A   1      41.283  28.129  28.095  1.00  0.00     0.134 A 
ATOM     73  F   UNL A   1      38.871  26.465  30.253  1.00  0.00    -0.206 F 
ATOM     74  C   UNL A   1      39.668  25.865  28.122  1.00  0.00     0.040 A 
ATOM     75  C   UNL A   1      41.291  27.254  27.006  1.00  0.00     0.040 A 
ATOM     76  F   UNL A   1      42.081  29.207  28.049  1.00  0.00    -0.206 F 
ATOM     77  C   UNL A   1      40.482  26.117  27.017  1.00  0.00     0.006 A 
ENDBRANCH  56  70
BRANCH  57  78
ATOM     78  C   UNL A   1      39.809  34.349  36.709  1.00  0.00     0.057 A 
ATOM     79  C   UNL A   1      39.010  34.051  37.817  1.00  0.00     0.134 A 
ATOM     80  C   UNL A   1      40.508  35.561  36.706  1.00  0.00     0.134 A 
ATOM     81  F   UNL A   1      38.309  32.907  37.859  1.00  0.00    -0.206 F 
ATOM     82  C   UNL A   1      38.906  34.935  38.892  1.00  0.00     0.040 A 
ATOM     83  C   UNL A   1      40.414  36.450  37.779  1.00  0.00     0.040 A 
ATOM     84  F   UNL A   1      41.286  35.894  35.665  1.00  0.00    -0.206 F 
ATOM     85  C   UNL A   1      39.611  36.139  38.876  1.00  0.00     0.006 A 
ENDBRANCH  57  78
BRANCH  69  86
ATOM     86  C   UNL A   1      44.040  29.028  35.356  1.00  0.00     0.057 A 
ATOM     87  C   UNL A   1      43.847  28.029  36.318  1.00  0.00     0.134 A 
ATOM     88  C   UNL A   1      45.351  29.453  35.103  1.00  0.00     0.134 A 
ATOM     89  F   UNL A   1      42.612  27.592  36.608  1.00  0.00    -0.206 F 
ATOM     90  C   UNL A   1      44.926  27.472  37.009  1.00  0.00     0.040 A 
ATOM     91  C   UNL A   1      46.435  28.900  35.788  1.00  0.00     0.040 A 
ATOM     92  F   UNL A   1      45.593  30.412  34.198  1.00  0.00    -0.206 F 
ATOM     93  C   UNL A   1      46.225  27.905  36.745  1.00  0.00     0.006 A 
ENDBRANCH  69  86
ENDBRANCH  43  44
ENDBRANCH  35  38
ENDBRANCH  33  34
ENDBRANCH  32  33
ENDBRANCH  31  32
ENDBRANCH  30  31
ENDBRANCH   1  30
TORSDOF 19
ENDMDL
MODEL 2
REMARK VINA RESULT:     -11.0      4.099      8.587
REMARK SMILES CCOc1cc(NC(=O)c2c(C(=O)NCCCCCCNC(=O)c3ccc(-c4c5nc(c(-c6c(F)cccc6F)c6ccc([nH]6)c(-c6c(F)cccc6F)c6nc(c(-c7c(F)cccc7F)c7ccc4[nH]7)C=C6)C=C5)cc3)cnn2C)ccc1OC(F)F
REMARK SMILES IDX 16 1 15 2 14 3 12 4 13 5 11 7 10 8 80 9 78 10 79 11 81 12
REMARK SMILES IDX 8 13 7 14 9 16 6 17 4 18 5 19 84 20 83 21 82 22 3 23 2 24
REMARK SMILES IDX 1 25 85 26 86 27 87 28 88 29 17 30 18 31 19 32 20 33 21 34
REMARK SMILES IDX 22 35 23 37 24 38 25 39 77 40 26 41 76 42 27 43 28 44 29 45
REMARK SMILES IDX 70 46 30 47 75 48 69 49 71 50 31 51 74 52 68 53 67 54 32 56
REMARK SMILES IDX 58 57 41 58 57 59 42 60 45 61 56 62 72 63 43 64 44 65 55 67
REMARK SMILES IDX 73 68 46 69 33 70 34 71 39 72 35 73 36 74 38 75 40 76 37 77
REMARK SMILES IDX 59 78 60 79 65 80 61 81 62 82 64 83 66 84 63 85 47 86 48 87
REMARK SMILES IDX 53 88 49 89 50 90 52 91 54 92 51 93
REMARK H PARENT 14 6 7 15 21 36 71 55 45 66
REMARK Flexibility Score: inf
ROOT
ATOM      1  C   UNL A   1      36.644  23.772  25.427  1.00  0.00     0.021 C 
ENDROOT
BRANCH   1   2
ATOM      2  C   UNL A   1      35.577  23.742  26.519  1.00  0.00     0.116 C 
BRANCH   2   3
ATOM      3  N   UNL A   1      35.032  22.436  26.787  1.00  0.00    -0.352 N 
ATOM      4  C   UNL A   1      33.791  21.907  26.553  1.00  0.00     0.255 C 
ATOM      5  O   UNL A   1      33.605  20.757  26.957  1.00  0.00    -0.269 OA
ATOM      6  H   UNL A   1      35.665  21.813  27.213  1.00  0.00     0.163 HD
BRANCH   4   7
ATOM      7  C   UNL A   1      32.699  22.642  25.928  1.00  0.00     0.090 A 
ATOM      8  C   UNL A   1      32.542  23.285  24.700  1.00  0.00     0.138 A 
ATOM      9  N   UNL A   1      31.210  23.630  24.631  1.00  0.00    -0.262 N 
ATOM     10  C   UNL A   1      31.417  22.765  26.530  1.00  0.00     0.149 A 
ATOM     11  N   UNL A   1      30.539  23.425  25.776  1.00  0.00    -0.180 NA
ATOM     12  C   UNL A   1      30.489  24.182  23.504  1.00  0.00     0.174 C 
BRANCH   8  13
ATOM     13  C   UNL A   1      33.441  23.444  23.600  1.00  0.00     0.274 C 
ATOM     14  N   UNL A   1      33.766  24.695  23.121  1.00  0.00    -0.321 N 
ATOM     15  H   UNL A   1      34.323  24.656  22.309  1.00  0.00     0.170 HD
ATOM     16  O   UNL A   1      33.953  22.478  23.034  1.00  0.00    -0.267 OA
BRANCH  14  17
ATOM     17  C   UNL A   1      33.486  26.019  23.522  1.00  0.00     0.045 A 
ATOM     18  C   UNL A   1      32.527  28.256  23.292  1.00  0.00     0.163 A 
ATOM     19  C   UNL A   1      32.702  26.939  22.825  1.00  0.00     0.076 A 
ATOM     20  C   UNL A   1      33.066  28.637  24.523  1.00  0.00     0.168 A 
ATOM     21  C   UNL A   1      33.799  27.701  25.255  1.00  0.00     0.053 A 
ATOM     22  C   UNL A   1      34.030  26.418  24.748  1.00  0.00     0.030 A 
BRANCH  18  23
ATOM     23  O   UNL A   1      31.757  29.147  22.591  1.00  0.00    -0.490 OA
BRANCH  23  24
ATOM     24  C   UNL A   1      30.355  28.844  22.614  1.00  0.00     0.226 C 
ATOM     25  C   UNL A   1      29.606  30.058  23.134  1.00  0.00     0.049 C 
ENDBRANCH  23  24
ENDBRANCH  18  23
BRANCH  20  26
ATOM     26  O   UNL A   1      32.901  29.839  25.150  1.00  0.00    -0.431 OA
BRANCH  26  27
ATOM     27  C   UNL A   1      31.902  29.918  26.163  1.00  0.00     0.542 C 
ATOM     28  F   UNL A   1      32.451  29.948  27.402  1.00  0.00    -0.167 F 
ATOM     29  F   UNL A   1      31.144  31.022  25.984  1.00  0.00    -0.167 F 
ENDBRANCH  26  27
ENDBRANCH  20  26
ENDBRANCH  14  17
ENDBRANCH   8  13
ENDBRANCH   4   7
ENDBRANCH   2   3
ENDBRANCH   1   2
BRANCH   1  30
ATOM     30  C   UNL A   1      37.638  22.606  25.381  1.00  0.00     0.002 C 
BRANCH  30  31
ATOM     31  C   UNL A   1      37.314  21.418  24.472  1.00  0.00     0.002 C 
BRANCH  31  32
ATOM     32  C   UNL A   1      37.901  20.053  24.841  1.00  0.00     0.021 C 
BRANCH  32  33
ATOM     33  C   UNL A   1      38.872  20.000  26.017  1.00  0.00     0.116 C 
BRANCH  33  34
ATOM     34  N   UNL A   1      40.076  19.238  25.753  1.00  0.00    -0.352 N 
ATOM     35  C   UNL A   1      41.394  19.559  25.968  1.00  0.00     0.251 C 
ATOM     36  H   UNL A   1      39.927  18.349  25.355  1.00  0.00     0.163 HD
ATOM     37  O   UNL A   1      42.270  18.766  25.630  1.00  0.00    -0.269 OA
BRANCH  35  38
ATOM     38  C   UNL A   1      41.789  20.861  26.563  1.00  0.00     0.039 A 
ATOM     39  C   UNL A   1      42.173  21.888  25.691  1.00  0.00     0.014 A 
ATOM     40  C   UNL A   1      41.828  21.080  27.943  1.00  0.00     0.014 A 
ATOM     41  C   UNL A   1      42.521  23.145  26.192  1.00  0.00     0.010 A 
ATOM     42  C   UNL A   1      42.139  22.349  28.443  1.00  0.00     0.010 A 
ATOM     43  C   UNL A   1      42.477  23.395  27.571  1.00  0.00    -0.014 A 
BRANCH  43  44
ATOM     44  C   UNL A   1      42.754  24.752  28.105  1.00  0.00     0.031 A 
ATOM     45  C   UNL A   1      44.143  25.148  28.514  1.00  0.00     0.074 A 
ATOM     46  C   UNL A   1      41.738  25.622  28.260  1.00  0.00     0.049 A 
ATOM     47  N   UNL A   1      44.548  26.255  29.083  1.00  0.00    -0.248 NA
ATOM     48  C   UNL A   1      45.211  24.168  28.263  1.00  0.00     0.031 C 
ATOM     49  C   UNL A   1      40.337  25.359  27.927  1.00  0.00     0.029 A 
ATOM     50  N   UNL A   1      41.732  26.905  28.743  1.00  0.00    -0.354 N 
ATOM     51  C   UNL A   1      45.909  26.093  29.294  1.00  0.00     0.074 A 
ATOM     52  C   UNL A   1      46.264  24.785  28.782  1.00  0.00     0.031 C 
ATOM     53  C   UNL A   1      39.610  26.455  28.199  1.00  0.00     0.029 A 
ATOM     54  C   UNL A   1      40.489  27.487  28.742  1.00  0.00     0.049 A 
ATOM     55  H   UNL A   1      42.543  27.366  29.060  1.00  0.00     0.167 HD
ATOM     56  C   UNL A   1      46.782  26.954  29.867  1.00  0.00     0.037 A 
ATOM     57  C   UNL A   1      40.101  28.713  29.135  1.00  0.00     0.037 A 
ATOM     58  C   UNL A   1      46.455  28.272  30.340  1.00  0.00     0.049 A 
ATOM     59  C   UNL A   1      41.103  29.678  29.690  1.00  0.00     0.074 A 
ATOM     60  C   UNL A   1      47.287  29.212  30.926  1.00  0.00     0.029 A 
ATOM     61  N   UNL A   1      45.197  28.844  30.262  1.00  0.00    -0.354 N 
ATOM     62  N   UNL A   1      42.384  29.500  29.901  1.00  0.00    -0.248 NA
ATOM     63  C   UNL A   1      40.606  31.010  30.062  1.00  0.00     0.031 C 
ATOM     64  C   UNL A   1      46.529  30.358  31.199  1.00  0.00     0.029 A 
ATOM     65  C   UNL A   1      45.230  30.128  30.779  1.00  0.00     0.049 A 
ATOM     66  H   UNL A   1      44.398  28.404  29.893  1.00  0.00     0.167 HD
ATOM     67  C   UNL A   1      42.845  30.695  30.433  1.00  0.00     0.074 A 
ATOM     68  C   UNL A   1      41.712  31.595  30.503  1.00  0.00     0.031 C 
ATOM     69  C   UNL A   1      44.099  31.012  30.834  1.00  0.00     0.037 A 
BRANCH  56  70
ATOM     70  C   UNL A   1      48.191  26.481  30.026  1.00  0.00     0.057 A 
ATOM     71  C   UNL A   1      49.161  26.743  29.051  1.00  0.00     0.134 A 
ATOM     72  C   UNL A   1      48.583  25.782  31.175  1.00  0.00     0.134 A 
ATOM     73  F   UNL A   1      48.838  27.397  27.924  1.00  0.00    -0.206 F 
ATOM     74  C   UNL A   1      50.482  26.316  29.214  1.00  0.00     0.040 A 
ATOM     75  C   UNL A   1      49.902  25.358  31.348  1.00  0.00     0.040 A 
ATOM     76  F   UNL A   1      47.693  25.499  32.139  1.00  0.00    -0.206 F 
ATOM     77  C   UNL A   1      50.857  25.624  30.366  1.00  0.00     0.006 A 
ENDBRANCH  56  70
BRANCH  57  78
ATOM     78  C   UNL A   1      38.681  29.102  29.006  1.00  0.00     0.057 A 
ATOM     79  C   UNL A   1      37.823  29.053  30.109  1.00  0.00     0.134 A 
ATOM     80  C   UNL A   1      38.158  29.537  27.782  1.00  0.00     0.134 A 
ATOM     81  F   UNL A   1      38.274  28.630  31.301  1.00  0.00    -0.206 F 
ATOM     82  C   UNL A   1      36.481  29.423  29.999  1.00  0.00     0.040 A 
ATOM     83  C   UNL A   1      36.819  29.913  27.663  1.00  0.00     0.040 A 
ATOM     84  F   UNL A   1      38.940  29.598  26.694  1.00  0.00    -0.206 F 
ATOM     85  C   UNL A   1      35.975  29.856  28.773  1.00  0.00     0.006 A 
ENDBRANCH  57  78
BRANCH  69  86
ATOM     86  C   UNL A   1      44.304  32.388  31.376  1.00  0.00     0.057 A 
ATOM     87  C   UNL A   1      44.158  32.656  32.743  1.00  0.00     0.134 A 
ATOM     88  C   UNL A   1      44.669  33.447  30.535  1.00  0.00     0.134 A 
ATOM     89  F   UNL A   1      43.799  31.682  33.594  1.00  0.00    -0.206 F 
ATOM     90  C   UNL A   1      44.364  33.939  33.255  1.00  0.00     0.040 A 
ATOM     91  C   UNL A   1      44.880  34.732  31.038  1.00  0.00     0.040 A 
ATOM     92  F   UNL A   1      44.816  33.248  29.216  1.00  0.00    -0.206 F 
ATOM     93  C   UNL A   1      44.728  34.982  32.403  1.00  0.00     0.006 A 
ENDBRANCH  69  86
ENDBRANCH  43  44
ENDBRANCH  35  38
ENDBRANCH  33  34
ENDBRANCH  32  33
ENDBRANCH  31  32
ENDBRANCH  30  31
ENDBRANCH   1  30
TORSDOF 19
ENDMDL
MODEL 3
REMARK VINA RESULT:     -10.8      2.563      7.126
REMARK SMILES CCOc1cc(NC(=O)c2c(C(=O)NCCCCCCNC(=O)c3ccc(-c4c5nc(c(-c6c(F)cccc6F)c6ccc([nH]6)c(-c6c(F)cccc6F)c6nc(c(-c7c(F)cccc7F)c7ccc4[nH]7)C=C6)C=C5)cc3)cnn2C)ccc1OC(F)F
REMARK SMILES IDX 16 1 15 2 14 3 12 4 13 5 11 7 10 8 80 9 78 10 79 11 81 12
REMARK SMILES IDX 8 13 7 14 9 16 6 17 4 18 5 19 84 20 83 21 82 22 3 23 2 24
REMARK SMILES IDX 1 25 85 26 86 27 87 28 88 29 17 30 18 31 19 32 20 33 21 34
REMARK SMILES IDX 22 35 23 37 24 38 25 39 77 40 26 41 76 42 27 43 28 44 29 45
REMARK SMILES IDX 70 46 30 47 75 48 69 49 71 50 31 51 74 52 68 53 67 54 32 56
REMARK SMILES IDX 58 57 41 58 57 59 42 60 45 61 56 62 72 63 43 64 44 65 55 67
REMARK SMILES IDX 73 68 46 69 33 70 34 71 39 72 35 73 36 74 38 75 40 76 37 77
REMARK SMILES IDX 59 78 60 79 65 80 61 81 62 82 64 83 66 84 63 85 47 86 48 87
REMARK SMILES IDX 53 88 49 89 50 90 52 91 54 92 51 93
REMARK H PARENT 14 6 7 15 21 36 71 55 45 66
REMARK Flexibility Score: inf
ROOT
ATOM      1  C   UNL A   1      30.546  29.830  24.241  1.00  0.00     0.021 C 
ENDROOT
BRANCH   1   2
ATOM      2  C   UNL A   1      30.538  28.926  23.010  1.00  0.00     0.116 C 
BRANCH   2   3
ATOM      3  N   UNL A   1      29.610  27.826  23.083  1.00  0.00    -0.352 N 
ATOM      4  C   UNL A   1      29.665  26.641  23.768  1.00  0.00     0.255 C 
ATOM      5  O   UNL A   1      28.728  25.861  23.579  1.00  0.00    -0.269 OA
ATOM      6  H   UNL A   1      28.794  27.948  22.546  1.00  0.00     0.163 HD
BRANCH   4   7
ATOM      7  C   UNL A   1      30.773  26.250  24.630  1.00  0.00     0.090 A 
ATOM      8  C   UNL A   1      32.081  25.826  24.393  1.00  0.00     0.138 A 
ATOM      9  N   UNL A   1      32.686  25.788  25.630  1.00  0.00    -0.262 N 
ATOM     10  C   UNL A   1      30.702  26.325  26.047  1.00  0.00     0.149 A 
ATOM     11  N   UNL A   1      31.837  25.977  26.653  1.00  0.00    -0.180 NA
ATOM     12  C   UNL A   1      34.083  25.561  25.934  1.00  0.00     0.174 C 
BRANCH   8  13
ATOM     13  C   UNL A   1      32.799  25.627  23.174  1.00  0.00     0.274 C 
ATOM     14  N   UNL A   1      33.190  24.367  22.774  1.00  0.00    -0.321 N 
ATOM     15  H   UNL A   1      33.750  24.384  21.965  1.00  0.00     0.170 HD
ATOM     16  O   UNL A   1      33.104  26.566  22.438  1.00  0.00    -0.267 OA
BRANCH  14  17
ATOM     17  C   UNL A   1      32.974  23.058  23.256  1.00  0.00     0.045 A 
ATOM     18  C   UNL A   1      33.055  21.254  24.904  1.00  0.00     0.163 A 
ATOM     19  C   UNL A   1      33.264  22.599  24.541  1.00  0.00     0.076 A 
ATOM     20  C   UNL A   1      32.457  20.372  24.000  1.00  0.00     0.168 A 
ATOM     21  C   UNL A   1      32.107  20.843  22.733  1.00  0.00     0.053 A 
ATOM     22  C   UNL A   1      32.387  22.160  22.357  1.00  0.00     0.030 A 
BRANCH  18  23
ATOM     23  O   UNL A   1      33.351  20.820  26.170  1.00  0.00    -0.490 OA
BRANCH  23  24
ATOM     24  C   UNL A   1      34.249  21.683  26.883  1.00  0.00     0.226 C 
ATOM     25  C   UNL A   1      33.517  22.257  28.082  1.00  0.00     0.049 C 
ENDBRANCH  23  24
ENDBRANCH  18  23
BRANCH  20  26
ATOM     26  O   UNL A   1      32.103  19.075  24.237  1.00  0.00    -0.431 OA
BRANCH  26  27
ATOM     27  C   UNL A   1      33.050  18.065  23.901  1.00  0.00     0.542 C 
ATOM     28  F   UNL A   1      32.958  17.711  22.596  1.00  0.00    -0.167 F 
ATOM     29  F   UNL A   1      34.304  18.498  24.159  1.00  0.00    -0.167 F 
ENDBRANCH  26  27
ENDBRANCH  20  26
ENDBRANCH  14  17
ENDBRANCH   8  13
ENDBRANCH   4   7
ENDBRANCH   2   3
ENDBRANCH   1   2
BRANCH   1  30
ATOM     30  C   UNL A   1      31.772  29.759  25.160  1.00  0.00     0.002 C 
BRANCH  30  31
ATOM     31  C   UNL A   1      31.635  30.298  26.585  1.00  0.00     0.002 C 
BRANCH  31  32
ATOM     32  C   UNL A   1      31.433  31.805  26.765  1.00  0.00     0.021 C 
BRANCH  32  33
ATOM     33  C   UNL A   1      32.678  32.661  26.972  1.00  0.00     0.116 C 
BRANCH  33  34
ATOM     34  N   UNL A   1      32.421  33.925  27.633  1.00  0.00    -0.352 N 
ATOM     35  C   UNL A   1      33.141  34.583  28.600  1.00  0.00     0.251 C 
ATOM     36  H   UNL A   1      31.599  34.386  27.344  1.00  0.00     0.163 HD
ATOM     37  O   UNL A   1      32.713  35.642  29.053  1.00  0.00    -0.269 OA
BRANCH  35  38
ATOM     38  C   UNL A   1      34.405  34.024  29.143  1.00  0.00     0.039 A 
ATOM     39  C   UNL A   1      34.320  33.181  30.259  1.00  0.00     0.014 A 
ATOM     40  C   UNL A   1      35.659  34.337  28.611  1.00  0.00     0.014 A 
ATOM     41  C   UNL A   1      35.473  32.598  30.791  1.00  0.00     0.010 A 
ATOM     42  C   UNL A   1      36.809  33.724  29.119  1.00  0.00     0.010 A 
ATOM     43  C   UNL A   1      36.724  32.840  30.206  1.00  0.00    -0.014 A 
BRANCH  43  44
ATOM     44  C   UNL A   1      37.941  32.152  30.705  1.00  0.00     0.031 A 
ATOM     45  C   UNL A   1      38.685  32.677  31.898  1.00  0.00     0.074 A 
ATOM     46  C   UNL A   1      38.402  31.067  30.054  1.00  0.00     0.049 A 
ATOM     47  N   UNL A   1      39.814  32.258  32.413  1.00  0.00    -0.248 NA
ATOM     48  C   UNL A   1      38.093  33.831  32.592  1.00  0.00     0.031 C 
ATOM     49  C   UNL A   1      37.790  30.465  28.868  1.00  0.00     0.029 A 
ATOM     50  N   UNL A   1      39.497  30.280  30.302  1.00  0.00    -0.354 N 
ATOM     51  C   UNL A   1      40.088  33.116  33.467  1.00  0.00     0.074 A 
ATOM     52  C   UNL A   1      39.003  34.074  33.526  1.00  0.00     0.031 C 
ATOM     53  C   UNL A   1      38.510  29.392  28.502  1.00  0.00     0.029 A 
ATOM     54  C   UNL A   1      39.641  29.244  29.414  1.00  0.00     0.049 A 
ATOM     55  H   UNL A   1      40.122  30.444  31.045  1.00  0.00     0.167 HD
ATOM     56  C   UNL A   1      41.150  33.109  34.306  1.00  0.00     0.037 A 
ATOM     57  C   UNL A   1      40.578  28.282  29.341  1.00  0.00     0.037 A 
ATOM     58  C   UNL A   1      42.212  32.140  34.289  1.00  0.00     0.049 A 
ATOM     59  C   UNL A   1      41.700  28.249  30.334  1.00  0.00     0.074 A 
ATOM     60  C   UNL A   1      43.322  32.058  35.114  1.00  0.00     0.029 A 
ATOM     61  N   UNL A   1      42.284  31.071  33.413  1.00  0.00    -0.354 N 
ATOM     62  N   UNL A   1      41.954  29.081  31.313  1.00  0.00    -0.248 NA
ATOM     63  C   UNL A   1      42.662  27.145  30.211  1.00  0.00     0.031 C 
ATOM     64  C   UNL A   1      44.066  30.932  34.737  1.00  0.00     0.029 A 
ATOM     65  C   UNL A   1      43.414  30.316  33.682  1.00  0.00     0.049 A 
ATOM     66  H   UNL A   1      41.630  30.875  32.704  1.00  0.00     0.167 HD
ATOM     67  C   UNL A   1      43.106  28.604  31.920  1.00  0.00     0.074 A 
ATOM     68  C   UNL A   1      43.497  27.405  31.208  1.00  0.00     0.031 C 
ATOM     69  C   UNL A   1      43.783  29.124  32.972  1.00  0.00     0.037 A 
BRANCH  56  70
ATOM     70  C   UNL A   1      41.219  34.207  35.317  1.00  0.00     0.057 A 
ATOM     71  C   UNL A   1      41.826  35.434  35.021  1.00  0.00     0.134 A 
ATOM     72  C   UNL A   1      40.649  34.043  36.587  1.00  0.00     0.134 A 
ATOM     73  F   UNL A   1      42.399  35.641  33.825  1.00  0.00    -0.206 F 
ATOM     74  C   UNL A   1      41.868  36.464  35.964  1.00  0.00     0.040 A 
ATOM     75  C   UNL A   1      40.681  35.071  37.532  1.00  0.00     0.040 A 
ATOM     76  F   UNL A   1      40.059  32.886  36.926  1.00  0.00    -0.206 F 
ATOM     77  C   UNL A   1      41.293  36.287  37.223  1.00  0.00     0.006 A 
ENDBRANCH  56  70
BRANCH  57  78
ATOM     78  C   UNL A   1      40.487  27.255  28.282  1.00  0.00     0.057 A 
ATOM     79  C   UNL A   1      39.714  26.105  28.467  1.00  0.00     0.134 A 
ATOM     80  C   UNL A   1      41.162  27.408  27.066  1.00  0.00     0.134 A 
ATOM     81  F   UNL A   1      39.059  25.906  29.622  1.00  0.00    -0.206 F 
ATOM     82  C   UNL A   1      39.618  25.130  27.473  1.00  0.00     0.040 A 
ATOM     83  C   UNL A   1      41.069  26.441  26.063  1.00  0.00     0.040 A 
ATOM     84  F   UNL A   1      41.919  28.493  26.842  1.00  0.00    -0.206 F 
ATOM     85  C   UNL A   1      40.295  25.297  26.264  1.00  0.00     0.006 A 
ENDBRANCH  57  78
BRANCH  69  86
ATOM     86  C   UNL A   1      45.008  28.390  33.412  1.00  0.00     0.057 A 
ATOM     87  C   UNL A   1      46.257  28.662  32.841  1.00  0.00     0.134 A 
ATOM     88  C   UNL A   1      44.943  27.424  34.424  1.00  0.00     0.134 A 
ATOM     89  F   UNL A   1      46.376  29.570  31.861  1.00  0.00    -0.206 F 
ATOM     90  C   UNL A   1      47.407  27.988  33.262  1.00  0.00     0.040 A 
ATOM     91  C   UNL A   1      46.087  26.747  34.852  1.00  0.00     0.040 A 
ATOM     92  F   UNL A   1      43.771  27.118  35.000  1.00  0.00    -0.206 F 
ATOM     93  C   UNL A   1      47.325  27.029  34.271  1.00  0.00     0.006 A 
ENDBRANCH  69  86
ENDBRANCH  43  44
ENDBRANCH  35  38
ENDBRANCH  33  34
ENDBRANCH  32  33
ENDBRANCH  31  32
ENDBRANCH  30  31
ENDBRANCH   1  30
TORSDOF 19
ENDMDL
