MODEL 1
REMARK VINA RESULT:     -12.0      0.000      0.000
REMARK SMILES Cc1cc(C[N@H+]2CC[C@](C)(C(=O)NCCCCCCNC(=O)c3ccc(-c4c5nc(c(-c6c(F)cccc6F)c6ccc([nH]6)c(-c6c(F)cccc6F)c6nc(c(-c7c(F)cccc7F)c7ccc4[nH]7)C=C6)C=C5)cc3)C2)c2ccccc2n1
REMARK SMILES IDX 16 1 15 2 14 3 13 4 11 5 12 6 9 8 6 9 7 10 77 11 8 13 10 14
REMARK SMILES IDX 5 15 4 16 1 17 2 18 3 19 84 20 83 21 78 22 82 23 79 24 81 25
REMARK SMILES IDX 80 26 17 27 18 28 19 29 20 30 21 31 22 33 23 34 24 35 76 36
REMARK SMILES IDX 25 37 75 38 26 39 27 40 28 41 69 42 29 43 74 44 68 45 70 46
REMARK SMILES IDX 30 47 73 48 67 49 66 50 31 52 57 53 40 54 56 55 41 56 44 57
REMARK SMILES IDX 55 58 71 59 42 60 43 61 54 63 72 64 45 65 32 66 33 67 38 68
REMARK SMILES IDX 34 69 35 70 37 71 39 72 36 73 58 74 59 75 64 76 60 77 61 78
REMARK SMILES IDX 63 79 65 80 62 81 46 82 47 83 52 84 48 85 49 86 51 87 53 88
REMARK SMILES IDX 50 89
REMARK H PARENT 13 7 6 12 20 32 70 51 44 62
REMARK Flexibility Score: inf
ROOT
ATOM      1  C   UNL A   1      36.860  22.210  24.255  1.00  0.00     0.002 C 
ENDROOT
BRANCH   1   2
ATOM      2  C   UNL A   1      37.037  23.442  25.148  1.00  0.00     0.021 C 
BRANCH   2   3
ATOM      3  C   UNL A   1      35.731  24.006  25.704  1.00  0.00     0.116 C 
BRANCH   3   4
ATOM      4  N   UNL A   1      35.224  23.240  26.832  1.00  0.00    -0.355 N 
ATOM      5  C   UNL A   1      33.951  22.862  27.170  1.00  0.00     0.231 C 
ATOM      6  O   UNL A   1      33.823  22.134  28.157  1.00  0.00    -0.274 OA
ATOM      7  H   UNL A   1      35.916  22.942  27.464  1.00  0.00     0.163 HD
BRANCH   5   8
ATOM      8  C   UNL A   1      32.749  23.309  26.334  1.00  0.00     0.100 C 
ATOM      9  N   UNL A   1      31.090  25.068  26.507  1.00  0.00    -0.330 N 
ATOM     10  C   UNL A   1      30.391  23.801  26.330  1.00  0.00     0.263 C 
ATOM     11  C   UNL A   1      32.525  24.812  26.531  1.00  0.00     0.279 C 
ATOM     12  H   UNL A   1      30.802  25.425  27.418  1.00  0.00     0.348 HD
ATOM     13  C   UNL A   1      31.400  22.769  26.843  1.00  0.00     0.084 C 
ATOM     14  C   UNL A   1      32.929  22.848  24.873  1.00  0.00     0.028 C 
BRANCH   9  15
ATOM     15  C   UNL A   1      30.634  26.246  25.768  1.00  0.00     0.299 C 
BRANCH  15  16
ATOM     16  C   UNL A   1      31.659  27.345  25.538  1.00  0.00     0.017 A 
ATOM     17  C   UNL A   1      32.770  30.506  27.310  1.00  0.00     0.067 C 
ATOM     18  C   UNL A   1      32.556  29.458  26.261  1.00  0.00     0.038 A 
ATOM     19  C   UNL A   1      31.749  28.358  26.503  1.00  0.00     0.033 A 
ATOM     20  N   UNL A   1      33.187  29.644  25.083  1.00  0.00    -0.253 NA
ATOM     21  C   UNL A   1      33.137  28.670  24.162  1.00  0.00     0.071 A 
ATOM     22  C   UNL A   1      32.474  27.444  24.377  1.00  0.00     0.009 A 
ATOM     23  C   UNL A   1      33.768  28.887  22.943  1.00  0.00     0.029 A 
ATOM     24  C   UNL A   1      32.661  26.414  23.422  1.00  0.00     0.011 A 
ATOM     25  C   UNL A   1      33.834  27.904  21.954  1.00  0.00     0.002 A 
ATOM     26  C   UNL A   1      33.315  26.647  22.212  1.00  0.00     0.001 A 
ENDBRANCH  15  16
ENDBRANCH   9  15
ENDBRANCH   5   8
ENDBRANCH   3   4
ENDBRANCH   2   3
ENDBRANCH   1   2
BRANCH   1  27
ATOM     27  C   UNL A   1      36.654  20.887  25.002  1.00  0.00     0.002 C 
BRANCH  27  28
ATOM     28  C   UNL A   1      37.814  19.893  24.910  1.00  0.00     0.021 C 
BRANCH  28  29
ATOM     29  C   UNL A   1      39.069  20.306  25.670  1.00  0.00     0.116 C 
BRANCH  29  30
ATOM     30  N   UNL A   1      40.042  19.228  25.757  1.00  0.00    -0.352 N 
ATOM     31  C   UNL A   1      41.386  19.287  26.044  1.00  0.00     0.251 C 
ATOM     32  H   UNL A   1      39.686  18.326  25.587  1.00  0.00     0.163 HD
ATOM     33  O   UNL A   1      42.097  18.304  25.902  1.00  0.00    -0.269 OA
BRANCH  31  34
ATOM     34  C   UNL A   1      41.970  20.564  26.508  1.00  0.00     0.039 A 
ATOM     35  C   UNL A   1      42.431  21.486  25.564  1.00  0.00     0.014 A 
ATOM     36  C   UNL A   1      42.051  20.848  27.873  1.00  0.00     0.014 A 
ATOM     37  C   UNL A   1      42.906  22.730  25.988  1.00  0.00     0.010 A 
ATOM     38  C   UNL A   1      42.463  22.109  28.288  1.00  0.00     0.010 A 
ATOM     39  C   UNL A   1      42.891  23.064  27.351  1.00  0.00    -0.014 A 
BRANCH  39  40
ATOM     40  C   UNL A   1      43.320  24.398  27.842  1.00  0.00     0.031 A 
ATOM     41  C   UNL A   1      42.279  25.429  28.186  1.00  0.00     0.074 A 
ATOM     42  C   UNL A   1      44.628  24.720  27.868  1.00  0.00     0.049 A 
ATOM     43  N   UNL A   1      42.427  26.702  28.439  1.00  0.00    -0.248 NA
ATOM     44  C   UNL A   1      40.880  24.967  28.219  1.00  0.00     0.031 C 
ATOM     45  C   UNL A   1      45.732  23.816  27.540  1.00  0.00     0.029 A 
ATOM     46  N   UNL A   1      45.249  25.910  28.156  1.00  0.00    -0.354 N 
ATOM     47  C   UNL A   1      41.144  27.202  28.623  1.00  0.00     0.074 A 
ATOM     48  C   UNL A   1      40.227  26.101  28.427  1.00  0.00     0.031 C 
ATOM     49  C   UNL A   1      46.894  24.484  27.645  1.00  0.00     0.029 A 
ATOM     50  C   UNL A   1      46.615  25.873  27.996  1.00  0.00     0.049 A 
ATOM     51  H   UNL A   1      44.764  26.714  28.450  1.00  0.00     0.167 HD
ATOM     52  C   UNL A   1      40.770  28.464  28.937  1.00  0.00     0.037 A 
ATOM     53  C   UNL A   1      47.532  26.855  28.093  1.00  0.00     0.037 A 
ATOM     54  C   UNL A   1      41.690  29.542  29.177  1.00  0.00     0.049 A 
ATOM     55  C   UNL A   1      47.082  28.253  28.428  1.00  0.00     0.074 A 
ATOM     56  C   UNL A   1      41.409  30.837  29.578  1.00  0.00     0.029 A 
ATOM     57  N   UNL A   1      43.066  29.452  29.043  1.00  0.00    -0.354 N 
ATOM     58  N   UNL A   1      45.872  28.697  28.660  1.00  0.00    -0.248 NA
ATOM     59  C   UNL A   1      48.125  29.287  28.511  1.00  0.00     0.031 C 
ATOM     60  C   UNL A   1      42.612  31.544  29.638  1.00  0.00     0.029 A 
ATOM     61  C   UNL A   1      43.645  30.676  29.328  1.00  0.00     0.049 A 
ATOM     62  H   UNL A   1      43.557  28.640  28.783  1.00  0.00     0.167 HD
ATOM     63  C   UNL A   1      46.013  30.045  28.966  1.00  0.00     0.074 A 
ATOM     64  C   UNL A   1      47.426  30.349  28.885  1.00  0.00     0.031 C 
ATOM     65  C   UNL A   1      45.058  30.949  29.288  1.00  0.00     0.037 A 
BRANCH  52  66
ATOM     66  C   UNL A   1      39.304  28.760  29.038  1.00  0.00     0.057 A 
ATOM     67  C   UNL A   1      38.602  28.629  30.242  1.00  0.00     0.134 A 
ATOM     68  C   UNL A   1      38.604  29.264  27.933  1.00  0.00     0.134 A 
ATOM     69  F   UNL A   1      39.211  28.144  31.335  1.00  0.00    -0.206 F 
ATOM     70  C   UNL A   1      37.255  28.978  30.342  1.00  0.00     0.040 A 
ATOM     71  C   UNL A   1      37.264  29.640  28.027  1.00  0.00     0.040 A 
ATOM     72  F   UNL A   1      39.219  29.421  26.751  1.00  0.00    -0.206 F 
ATOM     73  C   UNL A   1      36.585  29.496  29.234  1.00  0.00     0.006 A 
ENDBRANCH  52  66
BRANCH  53  74
ATOM     74  C   UNL A   1      48.974  26.569  27.864  1.00  0.00     0.057 A 
ATOM     75  C   UNL A   1      49.516  26.591  26.573  1.00  0.00     0.134 A 
ATOM     76  C   UNL A   1      49.830  26.217  28.914  1.00  0.00     0.134 A 
ATOM     77  F   UNL A   1      48.741  26.901  25.521  1.00  0.00    -0.206 F 
ATOM     78  C   UNL A   1      50.845  26.243  26.330  1.00  0.00     0.040 A 
ATOM     79  C   UNL A   1      51.170  25.894  28.689  1.00  0.00     0.040 A 
ATOM     80  F   UNL A   1      49.377  26.183  30.176  1.00  0.00    -0.206 F 
ATOM     81  C   UNL A   1      51.677  25.894  27.391  1.00  0.00     0.006 A 
ENDBRANCH  53  74
BRANCH  65  82
ATOM     82  C   UNL A   1      45.500  32.334  29.656  1.00  0.00     0.057 A 
ATOM     83  C   UNL A   1      45.568  33.368  28.717  1.00  0.00     0.134 A 
ATOM     84  C   UNL A   1      45.774  32.652  30.994  1.00  0.00     0.134 A 
ATOM     85  F   UNL A   1      45.328  33.125  27.419  1.00  0.00    -0.206 F 
ATOM     86  C   UNL A   1      45.898  34.671  29.093  1.00  0.00     0.040 A 
ATOM     87  C   UNL A   1      46.080  33.954  31.386  1.00  0.00     0.040 A 
ATOM     88  F   UNL A   1      45.716  31.706  31.944  1.00  0.00    -0.206 F 
ATOM     89  C   UNL A   1      46.144  34.969  30.433  1.00  0.00     0.006 A 
ENDBRANCH  65  82
ENDBRANCH  39  40
ENDBRANCH  31  34
ENDBRANCH  29  30
ENDBRANCH  28  29
ENDBRANCH  27  28
ENDBRANCH   1  27
TORSDOF 15
ENDMDL
MODEL 2
REMARK VINA RESULT:     -11.9      4.760     10.008
REMARK SMILES Cc1cc(C[N@H+]2CC[C@](C)(C(=O)NCCCCCCNC(=O)c3ccc(-c4c5nc(c(-c6c(F)cccc6F)c6ccc([nH]6)c(-c6c(F)cccc6F)c6nc(c(-c7c(F)cccc7F)c7ccc4[nH]7)C=C6)C=C5)cc3)C2)c2ccccc2n1
REMARK SMILES IDX 16 1 15 2 14 3 13 4 11 5 12 6 9 8 6 9 7 10 77 11 8 13 10 14
REMARK SMILES IDX 5 15 4 16 1 17 2 18 3 19 84 20 83 21 78 22 82 23 79 24 81 25
REMARK SMILES IDX 80 26 17 27 18 28 19 29 20 30 21 31 22 33 23 34 24 35 76 36
REMARK SMILES IDX 25 37 75 38 26 39 27 40 28 41 69 42 29 43 74 44 68 45 70 46
REMARK SMILES IDX 30 47 73 48 67 49 66 50 31 52 57 53 40 54 56 55 41 56 44 57
REMARK SMILES IDX 55 58 71 59 42 60 43 61 54 63 72 64 45 65 32 66 33 67 38 68
REMARK SMILES IDX 34 69 35 70 37 71 39 72 36 73 58 74 59 75 64 76 60 77 61 78
REMARK SMILES IDX 63 79 65 80 62 81 46 82 47 83 52 84 48 85 49 86 51 87 53 88
REMARK SMILES IDX 50 89
REMARK H PARENT 13 7 6 12 20 32 70 51 44 62
REMARK Flexibility Score: inf
ROOT
ATOM      1  C   UNL A   1      32.124  29.492  27.139  1.00  0.00     0.002 C 
ENDROOT
BRANCH   1   2
ATOM      2  C   UNL A   1      33.424  28.721  26.897  1.00  0.00     0.021 C 
BRANCH   2   3
ATOM      3  C   UNL A   1      33.225  27.241  26.575  1.00  0.00     0.116 C 
BRANCH   3   4
ATOM      4  N   UNL A   1      31.846  26.809  26.745  1.00  0.00    -0.355 N 
ATOM      5  C   UNL A   1      31.019  26.081  25.932  1.00  0.00     0.231 C 
ATOM      6  O   UNL A   1      29.906  25.790  26.375  1.00  0.00    -0.274 OA
ATOM      7  H   UNL A   1      31.435  27.091  27.593  1.00  0.00     0.163 HD
BRANCH   5   8
ATOM      8  C   UNL A   1      31.479  25.629  24.543  1.00  0.00     0.100 C 
ATOM      9  N   UNL A   1      33.605  25.035  23.543  1.00  0.00    -0.330 N 
ATOM     10  C   UNL A   1      32.976  26.045  22.702  1.00  0.00     0.263 C 
ATOM     11  C   UNL A   1      32.737  24.764  24.681  1.00  0.00     0.279 C 
ATOM     12  H   UNL A   1      34.474  25.449  23.880  1.00  0.00     0.348 HD
ATOM     13  C   UNL A   1      32.034  26.769  23.669  1.00  0.00     0.084 C 
ATOM     14  C   UNL A   1      30.302  24.978  23.790  1.00  0.00     0.028 C 
BRANCH   9  15
ATOM     15  C   UNL A   1      34.259  23.886  22.913  1.00  0.00     0.299 C 
BRANCH  15  16
ATOM     16  C   UNL A   1      34.857  22.847  23.848  1.00  0.00     0.017 A 
ATOM     17  C   UNL A   1      38.058  22.432  25.837  1.00  0.00     0.067 C 
ATOM     18  C   UNL A   1      36.767  22.143  25.134  1.00  0.00     0.038 A 
ATOM     19  C   UNL A   1      36.116  23.123  24.403  1.00  0.00     0.033 A 
ATOM     20  N   UNL A   1      36.282  20.889  25.251  1.00  0.00    -0.253 NA
ATOM     21  C   UNL A   1      35.066  20.618  24.755  1.00  0.00     0.071 A 
ATOM     22  C   UNL A   1      34.256  21.591  24.134  1.00  0.00     0.009 A 
ATOM     23  C   UNL A   1      34.591  19.315  24.859  1.00  0.00     0.029 A 
ATOM     24  C   UNL A   1      32.915  21.243  23.835  1.00  0.00     0.011 A 
ATOM     25  C   UNL A   1      33.309  18.956  24.440  1.00  0.00     0.002 A 
ATOM     26  C   UNL A   1      32.451  19.933  23.964  1.00  0.00     0.001 A 
ENDBRANCH  15  16
ENDBRANCH   9  15
ENDBRANCH   5   8
ENDBRANCH   3   4
ENDBRANCH   2   3
ENDBRANCH   1   2
BRANCH   1  27
ATOM     27  C   UNL A   1      31.756  30.508  26.051  1.00  0.00     0.002 C 
BRANCH  27  28
ATOM     28  C   UNL A   1      31.451  31.923  26.550  1.00  0.00     0.021 C 
BRANCH  28  29
ATOM     29  C   UNL A   1      32.611  32.613  27.258  1.00  0.00     0.116 C 
BRANCH  29  30
ATOM     30  N   UNL A   1      32.333  34.013  27.539  1.00  0.00    -0.352 N 
ATOM     31  C   UNL A   1      32.933  34.857  28.444  1.00  0.00     0.251 C 
ATOM     32  H   UNL A   1      31.610  34.414  27.004  1.00  0.00     0.163 HD
ATOM     33  O   UNL A   1      32.459  35.958  28.679  1.00  0.00    -0.269 OA
BRANCH  31  34
ATOM     34  C   UNL A   1      34.154  34.410  29.149  1.00  0.00     0.039 A 
ATOM     35  C   UNL A   1      34.029  33.713  30.354  1.00  0.00     0.014 A 
ATOM     36  C   UNL A   1      35.415  34.672  28.610  1.00  0.00     0.014 A 
ATOM     37  C   UNL A   1      35.172  33.212  30.984  1.00  0.00     0.010 A 
ATOM     38  C   UNL A   1      36.544  34.119  29.204  1.00  0.00     0.010 A 
ATOM     39  C   UNL A   1      36.434  33.380  30.394  1.00  0.00    -0.014 A 
BRANCH  39  40
ATOM     40  C   UNL A   1      37.667  32.806  30.990  1.00  0.00     0.031 A 
ATOM     41  C   UNL A   1      38.323  31.622  30.333  1.00  0.00     0.074 A 
ATOM     42  C   UNL A   1      38.126  33.268  32.169  1.00  0.00     0.049 A 
ATOM     43  N   UNL A   1      39.276  30.849  30.783  1.00  0.00    -0.248 NA
ATOM     44  C   UNL A   1      37.815  31.240  29.004  1.00  0.00     0.031 C 
ATOM     45  C   UNL A   1      37.566  34.397  32.915  1.00  0.00     0.029 A 
ATOM     46  N   UNL A   1      39.152  32.822  32.965  1.00  0.00    -0.354 N 
ATOM     47  C   UNL A   1      39.456  29.869  29.814  1.00  0.00     0.074 A 
ATOM     48  C   UNL A   1      38.497  30.129  28.764  1.00  0.00     0.031 C 
ATOM     49  C   UNL A   1      38.256  34.555  34.058  1.00  0.00     0.029 A 
ATOM     50  C   UNL A   1      39.270  33.508  34.151  1.00  0.00     0.049 A 
ATOM     51  H   UNL A   1      39.749  32.081  32.711  1.00  0.00     0.167 HD
ATOM     52  C   UNL A   1      40.349  28.853  29.801  1.00  0.00     0.037 A 
ATOM     53  C   UNL A   1      40.083  33.298  35.205  1.00  0.00     0.037 A 
ATOM     54  C   UNL A   1      41.333  28.630  30.825  1.00  0.00     0.049 A 
ATOM     55  C   UNL A   1      41.056  32.149  35.166  1.00  0.00     0.074 A 
ATOM     56  C   UNL A   1      42.332  27.673  30.862  1.00  0.00     0.029 A 
ATOM     57  N   UNL A   1      41.443  29.372  31.990  1.00  0.00    -0.354 N 
ATOM     58  N   UNL A   1      41.256  31.269  34.217  1.00  0.00    -0.248 NA
ATOM     59  C   UNL A   1      41.912  31.960  36.348  1.00  0.00     0.031 C 
ATOM     60  C   UNL A   1      43.016  27.805  32.073  1.00  0.00     0.029 A 
ATOM     61  C   UNL A   1      42.478  28.878  32.764  1.00  0.00     0.049 A 
ATOM     62  H   UNL A   1      40.870  30.135  32.231  1.00  0.00     0.167 HD
ATOM     63  C   UNL A   1      42.293  30.457  34.663  1.00  0.00     0.074 A 
ATOM     64  C   UNL A   1      42.676  30.946  35.970  1.00  0.00     0.031 C 
ATOM     65  C   UNL A   1      42.877  29.405  34.043  1.00  0.00     0.037 A 
BRANCH  52  66
ATOM     66  C   UNL A   1      40.312  27.896  28.647  1.00  0.00     0.057 A 
ATOM     67  C   UNL A   1      41.021  28.133  27.464  1.00  0.00     0.134 A 
ATOM     68  C   UNL A   1      39.624  26.681  28.757  1.00  0.00     0.134 A 
ATOM     69  F   UNL A   1      41.692  29.282  27.292  1.00  0.00    -0.206 F 
ATOM     70  C   UNL A   1      41.037  27.201  26.426  1.00  0.00     0.040 A 
ATOM     71  C   UNL A   1      39.654  25.729  27.737  1.00  0.00     0.040 A 
ATOM     72  F   UNL A   1      38.930  26.387  29.868  1.00  0.00    -0.206 F 
ATOM     73  C   UNL A   1      40.362  25.990  26.565  1.00  0.00     0.006 A 
ENDBRANCH  52  66
BRANCH  53  74
ATOM     74  C   UNL A   1      40.019  34.184  36.398  1.00  0.00     0.057 A 
ATOM     75  C   UNL A   1      39.193  33.869  37.484  1.00  0.00     0.134 A 
ATOM     76  C   UNL A   1      40.736  35.384  36.462  1.00  0.00     0.134 A 
ATOM     77  F   UNL A   1      38.465  32.742  37.474  1.00  0.00    -0.206 F 
ATOM     78  C   UNL A   1      39.056  34.730  38.574  1.00  0.00     0.040 A 
ATOM     79  C   UNL A   1      40.631  36.242  37.560  1.00  0.00     0.040 A 
ATOM     80  F   UNL A   1      41.551  35.742  35.460  1.00  0.00    -0.206 F 
ATOM     81  C   UNL A   1      39.778  35.920  38.614  1.00  0.00     0.006 A 
ENDBRANCH  53  74
BRANCH  65  82
ATOM     82  C   UNL A   1      44.042  28.750  34.722  1.00  0.00     0.057 A 
ATOM     83  C   UNL A   1      43.895  27.613  35.522  1.00  0.00     0.134 A 
ATOM     84  C   UNL A   1      45.344  29.220  34.492  1.00  0.00     0.134 A 
ATOM     85  F   UNL A   1      42.675  27.122  35.788  1.00  0.00    -0.206 F 
ATOM     86  C   UNL A   1      45.001  26.966  36.077  1.00  0.00     0.040 A 
ATOM     87  C   UNL A   1      46.458  28.568  35.019  1.00  0.00     0.040 A 
ATOM     88  F   UNL A   1      45.551  30.301  33.726  1.00  0.00    -0.206 F 
ATOM     89  C   UNL A   1      46.287  27.437  35.816  1.00  0.00     0.006 A 
ENDBRANCH  65  82
ENDBRANCH  39  40
ENDBRANCH  31  34
ENDBRANCH  29  30
ENDBRANCH  28  29
ENDBRANCH  27  28
ENDBRANCH   1  27
TORSDOF 15
ENDMDL
MODEL 3
REMARK VINA RESULT:     -11.8      4.062      9.447
REMARK SMILES Cc1cc(C[N@H+]2CC[C@](C)(C(=O)NCCCCCCNC(=O)c3ccc(-c4c5nc(c(-c6c(F)cccc6F)c6ccc([nH]6)c(-c6c(F)cccc6F)c6nc(c(-c7c(F)cccc7F)c7ccc4[nH]7)C=C6)C=C5)cc3)C2)c2ccccc2n1
REMARK SMILES IDX 16 1 15 2 14 3 13 4 11 5 12 6 9 8 6 9 7 10 77 11 8 13 10 14
REMARK SMILES IDX 5 15 4 16 1 17 2 18 3 19 84 20 83 21 78 22 82 23 79 24 81 25
REMARK SMILES IDX 80 26 17 27 18 28 19 29 20 30 21 31 22 33 23 34 24 35 76 36
REMARK SMILES IDX 25 37 75 38 26 39 27 40 28 41 69 42 29 43 74 44 68 45 70 46
REMARK SMILES IDX 30 47 73 48 67 49 66 50 31 52 57 53 40 54 56 55 41 56 44 57
REMARK SMILES IDX 55 58 71 59 42 60 43 61 54 63 72 64 45 65 32 66 33 67 38 68
REMARK SMILES IDX 34 69 35 70 37 71 39 72 36 73 58 74 59 75 64 76 60 77 61 78
REMARK SMILES IDX 63 79 65 80 62 81 46 82 47 83 52 84 48 85 49 86 51 87 53 88
REMARK SMILES IDX 50 89
REMARK H PARENT 13 7 6 12 20 32 70 51 44 62
REMARK Flexibility Score: inf
ROOT
ATOM      1  C   UNL A   1      30.722  29.673  24.437  1.00  0.00     0.002 C 
ENDROOT
BRANCH   1   2
ATOM      2  C   UNL A   1      31.210  29.112  23.099  1.00  0.00     0.021 C 
BRANCH   2   3
ATOM      3  C   UNL A   1      32.726  28.945  23.005  1.00  0.00     0.116 C 
BRANCH   3   4
ATOM      4  N   UNL A   1      33.115  27.782  22.221  1.00  0.00    -0.355 N 
ATOM      5  C   UNL A   1      33.255  26.464  22.565  1.00  0.00     0.231 C 
ATOM      6  O   UNL A   1      33.523  25.670  21.661  1.00  0.00    -0.274 OA
ATOM      7  H   UNL A   1      33.311  27.977  21.277  1.00  0.00     0.163 HD
BRANCH   5   8
ATOM      8  C   UNL A   1      33.060  26.004  24.012  1.00  0.00     0.100 C 
ATOM      9  N   UNL A   1      32.492  23.909  25.091  1.00  0.00    -0.330 N 
ATOM     10  C   UNL A   1      31.582  24.934  25.586  1.00  0.00     0.263 C 
ATOM     11  C   UNL A   1      33.396  24.513  24.121  1.00  0.00     0.279 C 
ATOM     12  H   UNL A   1      31.910  23.219  24.617  1.00  0.00     0.348 HD
ATOM     13  C   UNL A   1      31.588  25.979  24.465  1.00  0.00     0.084 C 
ATOM     14  C   UNL A   1      33.837  26.934  24.965  1.00  0.00     0.028 C 
BRANCH   9  15
ATOM     15  C   UNL A   1      33.068  22.949  26.034  1.00  0.00     0.299 C 
BRANCH  15  16
ATOM     16  C   UNL A   1      33.775  21.745  25.434  1.00  0.00     0.017 A 
ATOM     17  C   UNL A   1      32.800  18.294  24.204  1.00  0.00     0.067 C 
ATOM     18  C   UNL A   1      33.603  19.463  24.686  1.00  0.00     0.038 A 
ATOM     19  C   UNL A   1      32.987  20.636  25.091  1.00  0.00     0.033 A 
ATOM     20  N   UNL A   1      34.944  19.309  24.703  1.00  0.00    -0.253 NA
ATOM     21  C   UNL A   1      35.712  20.369  24.997  1.00  0.00     0.071 A 
ATOM     22  C   UNL A   1      35.184  21.648  25.267  1.00  0.00     0.009 A 
ATOM     23  C   UNL A   1      37.090  20.189  25.038  1.00  0.00     0.029 A 
ATOM     24  C   UNL A   1      36.091  22.733  25.359  1.00  0.00     0.011 A 
ATOM     25  C   UNL A   1      37.972  21.248  25.259  1.00  0.00     0.002 A 
ATOM     26  C   UNL A   1      37.472  22.533  25.379  1.00  0.00     0.001 A 
ENDBRANCH  15  16
ENDBRANCH   9  15
ENDBRANCH   5   8
ENDBRANCH   3   4
ENDBRANCH   2   3
ENDBRANCH   1   2
BRANCH   1  27
ATOM     27  C   UNL A   1      31.829  30.046  25.432  1.00  0.00     0.002 C 
BRANCH  27  28
ATOM     28  C   UNL A   1      31.477  31.162  26.418  1.00  0.00     0.021 C 
BRANCH  28  29
ATOM     29  C   UNL A   1      32.676  31.910  26.989  1.00  0.00     0.116 C 
BRANCH  29  30
ATOM     30  N   UNL A   1      32.358  33.289  27.326  1.00  0.00    -0.352 N 
ATOM     31  C   UNL A   1      33.000  34.146  28.189  1.00  0.00     0.251 C 
ATOM     32  H   UNL A   1      31.569  33.662  26.870  1.00  0.00     0.163 HD
ATOM     33  O   UNL A   1      32.497  35.218  28.491  1.00  0.00    -0.269 OA
BRANCH  31  34
ATOM     34  C   UNL A   1      34.302  33.749  28.765  1.00  0.00     0.039 A 
ATOM     35  C   UNL A   1      34.326  32.912  29.885  1.00  0.00     0.014 A 
ATOM     36  C   UNL A   1      35.494  34.197  28.191  1.00  0.00     0.014 A 
ATOM     37  C   UNL A   1      35.551  32.463  30.386  1.00  0.00     0.010 A 
ATOM     38  C   UNL A   1      36.708  33.698  28.651  1.00  0.00     0.010 A 
ATOM     39  C   UNL A   1      36.748  32.824  29.750  1.00  0.00    -0.014 A 
BRANCH  39  40
ATOM     40  C   UNL A   1      38.068  32.314  30.202  1.00  0.00     0.031 A 
ATOM     41  C   UNL A   1      38.615  31.046  29.606  1.00  0.00     0.074 A 
ATOM     42  C   UNL A   1      38.713  32.919  31.219  1.00  0.00     0.049 A 
ATOM     43  N   UNL A   1      39.636  30.324  29.988  1.00  0.00    -0.248 NA
ATOM     44  C   UNL A   1      37.896  30.501  28.441  1.00  0.00     0.031 C 
ATOM     45  C   UNL A   1      38.276  34.143  31.894  1.00  0.00     0.029 A 
ATOM     46  N   UNL A   1      39.860  32.566  31.885  1.00  0.00    -0.354 N 
ATOM     47  C   UNL A   1      39.660  29.225  29.139  1.00  0.00     0.074 A 
ATOM     48  C   UNL A   1      38.538  29.360  28.238  1.00  0.00     0.031 C 
ATOM     49  C   UNL A   1      39.145  34.438  32.876  1.00  0.00     0.029 A 
ATOM     50  C   UNL A   1      40.168  33.399  32.936  1.00  0.00     0.049 A 
ATOM     51  H   UNL A   1      40.412  31.790  31.634  1.00  0.00     0.167 HD
ATOM     52  C   UNL A   1      40.546  28.203  29.111  1.00  0.00     0.037 A 
ATOM     53  C   UNL A   1      41.146  33.316  33.858  1.00  0.00     0.037 A 
ATOM     54  C   UNL A   1      41.688  28.102  29.978  1.00  0.00     0.049 A 
ATOM     55  C   UNL A   1      42.108  32.158  33.809  1.00  0.00     0.074 A 
ATOM     56  C   UNL A   1      42.688  27.144  29.973  1.00  0.00     0.029 A 
ATOM     57  N   UNL A   1      41.984  28.987  31.002  1.00  0.00    -0.354 N 
ATOM     58  N   UNL A   1      42.155  31.159  32.962  1.00  0.00    -0.248 NA
ATOM     59  C   UNL A   1      43.150  32.112  34.847  1.00  0.00     0.031 C 
ATOM     60  C   UNL A   1      43.562  27.422  31.026  1.00  0.00     0.029 A 
ATOM     61  C   UNL A   1      43.137  28.583  31.652  1.00  0.00     0.049 A 
ATOM     62  H   UNL A   1      41.454  29.783  31.233  1.00  0.00     0.167 HD
ATOM     63  C   UNL A   1      43.258  30.398  33.332  1.00  0.00     0.074 A 
ATOM     64  C   UNL A   1      43.849  31.047  34.483  1.00  0.00     0.031 C 
ATOM     65  C   UNL A   1      43.739  29.266  32.767  1.00  0.00     0.037 A 
BRANCH  52  66
ATOM     66  C   UNL A   1      40.326  27.105  28.114  1.00  0.00     0.057 A 
ATOM     67  C   UNL A   1      40.898  27.136  26.837  1.00  0.00     0.134 A 
ATOM     68  C   UNL A   1      39.598  25.962  28.469  1.00  0.00     0.134 A 
ATOM     69  F   UNL A   1      41.598  28.207  26.432  1.00  0.00    -0.206 F 
ATOM     70  C   UNL A   1      40.746  26.075  25.944  1.00  0.00     0.040 A 
ATOM     71  C   UNL A   1      39.460  24.883  27.596  1.00  0.00     0.040 A 
ATOM     72  F   UNL A   1      39.030  25.864  29.681  1.00  0.00    -0.206 F 
ATOM     73  C   UNL A   1      40.034  24.939  26.327  1.00  0.00     0.006 A 
ENDBRANCH  52  66
BRANCH  53  74
ATOM     74  C   UNL A   1      41.275  34.350  34.919  1.00  0.00     0.057 A 
ATOM     75  C   UNL A   1      40.571  34.234  36.125  1.00  0.00     0.134 A 
ATOM     76  C   UNL A   1      42.056  35.496  34.739  1.00  0.00     0.134 A 
ATOM     77  F   UNL A   1      39.789  33.167  36.350  1.00  0.00    -0.206 F 
ATOM     78  C   UNL A   1      40.613  35.235  37.097  1.00  0.00     0.040 A 
ATOM     79  C   UNL A   1      42.131  36.493  35.715  1.00  0.00     0.040 A 
ATOM     80  F   UNL A   1      42.762  35.666  33.611  1.00  0.00    -0.206 F 
ATOM     81  C   UNL A   1      41.397  36.369  36.893  1.00  0.00     0.006 A 
ENDBRANCH  53  74
BRANCH  65  82
ATOM     82  C   UNL A   1      45.006  28.689  33.322  1.00  0.00     0.057 A 
ATOM     83  C   UNL A   1      46.268  29.110  32.890  1.00  0.00     0.134 A 
ATOM     84  C   UNL A   1      44.956  27.761  34.372  1.00  0.00     0.134 A 
ATOM     85  F   UNL A   1      46.383  29.987  31.881  1.00  0.00    -0.206 F 
ATOM     86  C   UNL A   1      47.437  28.624  33.477  1.00  0.00     0.040 A 
ATOM     87  C   UNL A   1      46.115  27.288  34.984  1.00  0.00     0.040 A 
ATOM     88  F   UNL A   1      43.775  27.325  34.838  1.00  0.00    -0.206 F 
ATOM     89  C   UNL A   1      47.362  27.719  34.535  1.00  0.00     0.006 A 
ENDBRANCH  65  82
ENDBRANCH  39  40
ENDBRANCH  31  34
ENDBRANCH  29  30
ENDBRANCH  28  29
ENDBRANCH  27  28
ENDBRANCH   1  27
TORSDOF 15
ENDMDL
