MODEL 1
REMARK VINA RESULT:     -11.1      0.000      0.000
REMARK SMILES CC(C)[C@H](C[C@H]1Cc2ccccc21)C(=O)NCCCCCCNC(=O)c1ccc(-c2c3nc(c(-c4c(F)cccc4F)c4ccc([nH]4)c(-c4c(F)cccc4F)c4nc(c(-c5c(F)cccc5F)c5ccc2[nH]5)C=C4)C=C3)cc1
REMARK SMILES IDX 19 1 18 2 17 3 16 4 14 5 15 6 4 8 2 9 1 10 3 11 5 12 6 13
REMARK SMILES IDX 7 14 13 15 8 16 12 17 9 18 11 19 10 20 20 21 21 22 22 23
REMARK SMILES IDX 23 24 24 25 25 27 26 28 27 29 79 30 28 31 78 32 29 33 30 34
REMARK SMILES IDX 31 35 72 36 32 37 77 38 71 39 73 40 33 41 76 42 70 43 69 44
REMARK SMILES IDX 34 46 60 47 43 48 59 49 44 50 47 51 58 52 74 53 45 54 46 55
REMARK SMILES IDX 57 57 75 58 48 59 35 60 36 61 41 62 37 63 38 64 40 65 42 66
REMARK SMILES IDX 39 67 61 68 62 69 67 70 63 71 64 72 66 73 68 74 65 75 49 76
REMARK SMILES IDX 50 77 55 78 51 79 52 80 54 81 56 82 53 83
REMARK H PARENT 16 7 23 26 73 45 47 56
REMARK Flexibility Score: inf
ROOT
ATOM      1  C   UNL A   1      37.771  22.183  25.452  1.00  0.00     0.002 C 
ENDROOT
BRANCH   1   2
ATOM      2  C   UNL A   1      37.069  23.462  24.992  1.00  0.00     0.021 C 
BRANCH   2   3
ATOM      3  C   UNL A   1      36.061  24.011  25.992  1.00  0.00     0.116 C 
BRANCH   3   4
ATOM      4  N   UNL A   1      35.441  22.959  26.765  1.00  0.00    -0.356 N 
ATOM      5  C   UNL A   1      34.273  22.303  26.545  1.00  0.00     0.223 C 
ATOM      6  O   UNL A   1      33.944  21.425  27.345  1.00  0.00    -0.275 OA
ATOM      7  H   UNL A   1      35.938  22.678  27.568  1.00  0.00     0.163 HD
BRANCH   5   8
ATOM      8  C   UNL A   1      33.385  22.638  25.343  1.00  0.00     0.081 C 
BRANCH   8   9
ATOM      9  C   UNL A   1      31.891  22.989  25.684  1.00  0.00    -0.005 C 
ATOM     10  C   UNL A   1      31.623  23.871  26.909  1.00  0.00     0.008 C 
ATOM     11  C   UNL A   1      31.077  23.509  24.490  1.00  0.00     0.008 C 
ENDBRANCH   8   9
BRANCH   8  12
ATOM     12  C   UNL A   1      33.645  21.638  24.187  1.00  0.00     0.022 C 
BRANCH  12  13
ATOM     13  C   UNL A   1      32.734  20.409  24.273  1.00  0.00     0.025 C 
ATOM     14  C   UNL A   1      32.069  19.892  22.936  1.00  0.00     0.044 C 
ATOM     15  C   UNL A   1      33.505  19.109  24.250  1.00  0.00    -0.041 A 
ATOM     16  C   UNL A   1      32.847  18.624  23.148  1.00  0.00    -0.044 A 
ATOM     17  C   UNL A   1      34.468  18.385  24.915  1.00  0.00     0.004 A 
ATOM     18  C   UNL A   1      33.088  17.362  22.661  1.00  0.00     0.004 A 
ATOM     19  C   UNL A   1      34.746  17.106  24.435  1.00  0.00     0.000 A 
ATOM     20  C   UNL A   1      34.051  16.591  23.323  1.00  0.00     0.000 A 
ENDBRANCH  12  13
ENDBRANCH   8  12
ENDBRANCH   5   8
ENDBRANCH   3   4
ENDBRANCH   2   3
ENDBRANCH   1   2
BRANCH   1  21
ATOM     21  C   UNL A   1      37.438  20.932  24.633  1.00  0.00     0.002 C 
BRANCH  21  22
ATOM     22  C   UNL A   1      38.254  19.685  24.988  1.00  0.00     0.021 C 
BRANCH  22  23
ATOM     23  C   UNL A   1      39.301  19.900  26.075  1.00  0.00     0.116 C 
BRANCH  23  24
ATOM     24  N   UNL A   1      40.362  18.909  26.016  1.00  0.00    -0.352 N 
ATOM     25  C   UNL A   1      41.722  19.087  26.060  1.00  0.00     0.251 C 
ATOM     26  H   UNL A   1      40.061  17.974  25.933  1.00  0.00     0.163 HD
ATOM     27  O   UNL A   1      42.479  18.160  25.803  1.00  0.00    -0.269 OA
BRANCH  25  28
ATOM     28  C   UNL A   1      42.265  20.419  26.397  1.00  0.00     0.039 A 
ATOM     29  C   UNL A   1      42.747  21.230  25.367  1.00  0.00     0.014 A 
ATOM     30  C   UNL A   1      42.283  20.867  27.720  1.00  0.00     0.014 A 
ATOM     31  C   UNL A   1      43.182  22.523  25.658  1.00  0.00     0.010 A 
ATOM     32  C   UNL A   1      42.647  22.181  27.996  1.00  0.00     0.010 A 
ATOM     33  C   UNL A   1      43.094  23.023  26.967  1.00  0.00    -0.014 A 
BRANCH  33  34
ATOM     34  C   UNL A   1      43.438  24.433  27.278  1.00  0.00     0.031 A 
ATOM     35  C   UNL A   1      44.871  24.881  27.274  1.00  0.00     0.074 A 
ATOM     36  C   UNL A   1      42.461  25.288  27.636  1.00  0.00     0.049 A 
ATOM     37  N   UNL A   1      45.373  26.044  27.603  1.00  0.00    -0.248 NA
ATOM     38  C   UNL A   1      45.875  23.885  26.870  1.00  0.00     0.031 C 
ATOM     39  C   UNL A   1      41.036  24.960  27.717  1.00  0.00     0.029 A 
ATOM     40  N   UNL A   1      42.519  26.606  28.016  1.00  0.00    -0.354 N 
ATOM     41  C   UNL A   1      46.749  25.917  27.456  1.00  0.00     0.074 A 
ATOM     42  C   UNL A   1      47.006  24.549  27.061  1.00  0.00     0.031 C 
ATOM     43  C   UNL A   1      40.354  26.050  28.102  1.00  0.00     0.029 A 
ATOM     44  C   UNL A   1      41.295  27.139  28.342  1.00  0.00     0.049 A 
ATOM     45  H   UNL A   1      43.357  27.120  28.053  1.00  0.00     0.167 HD
ATOM     46  C   UNL A   1      47.707  26.860  27.619  1.00  0.00     0.037 A 
ATOM     47  C   UNL A   1      40.970  28.364  28.798  1.00  0.00     0.037 A 
ATOM     48  C   UNL A   1      47.442  28.222  28.001  1.00  0.00     0.049 A 
ATOM     49  C   UNL A   1      42.056  29.382  29.004  1.00  0.00     0.074 A 
ATOM     50  C   UNL A   1      48.338  29.269  28.135  1.00  0.00     0.029 A 
ATOM     51  N   UNL A   1      46.189  28.726  28.320  1.00  0.00    -0.354 N 
ATOM     52  N   UNL A   1      43.345  29.269  28.794  1.00  0.00    -0.248 NA
ATOM     53  C   UNL A   1      41.644  30.699  29.510  1.00  0.00     0.031 C 
ATOM     54  C   UNL A   1      47.637  30.389  28.590  1.00  0.00     0.029 A 
ATOM     55  C   UNL A   1      46.294  30.059  28.683  1.00  0.00     0.049 A 
ATOM     56  H   UNL A   1      45.350  28.212  28.292  1.00  0.00     0.167 HD
ATOM     57  C   UNL A   1      43.893  30.504  29.115  1.00  0.00     0.074 A 
ATOM     58  C   UNL A   1      42.795  31.356  29.520  1.00  0.00     0.031 C 
ATOM     59  C   UNL A   1      45.191  30.896  29.080  1.00  0.00     0.037 A 
BRANCH  46  60
ATOM     60  C   UNL A   1      49.132  26.449  27.386  1.00  0.00     0.057 A 
ATOM     61  C   UNL A   1      49.957  26.009  28.429  1.00  0.00     0.134 A 
ATOM     62  C   UNL A   1      49.676  26.456  26.094  1.00  0.00     0.134 A 
ATOM     63  F   UNL A   1      49.503  25.987  29.692  1.00  0.00    -0.206 F 
ATOM     64  C   UNL A   1      51.277  25.615  28.202  1.00  0.00     0.040 A 
ATOM     65  C   UNL A   1      50.984  26.036  25.849  1.00  0.00     0.040 A 
ATOM     66  F   UNL A   1      48.940  26.858  25.047  1.00  0.00    -0.206 F 
ATOM     67  C   UNL A   1      51.791  25.621  26.907  1.00  0.00     0.006 A 
ENDBRANCH  46  60
BRANCH  47  68
ATOM     68  C   UNL A   1      39.552  28.698  29.088  1.00  0.00     0.057 A 
ATOM     69  C   UNL A   1      38.723  29.247  28.103  1.00  0.00     0.134 A 
ATOM     70  C   UNL A   1      38.993  28.484  30.355  1.00  0.00     0.134 A 
ATOM     71  F   UNL A   1      39.205  29.492  26.876  1.00  0.00    -0.206 F 
ATOM     72  C   UNL A   1      37.397  29.593  28.372  1.00  0.00     0.040 A 
ATOM     73  C   UNL A   1      37.661  28.799  30.629  1.00  0.00     0.040 A 
ATOM     74  F   UNL A   1      39.731  27.953  31.341  1.00  0.00    -0.206 F 
ATOM     75  C   UNL A   1      36.861  29.364  29.638  1.00  0.00     0.006 A 
ENDBRANCH  47  68
BRANCH  59  76
ATOM     76  C   UNL A   1      45.492  32.317  29.459  1.00  0.00     0.057 A 
ATOM     77  C   UNL A   1      45.857  32.674  30.763  1.00  0.00     0.134 A 
ATOM     78  C   UNL A   1      45.465  33.333  28.494  1.00  0.00     0.134 A 
ATOM     79  F   UNL A   1      45.888  31.752  31.737  1.00  0.00    -0.206 F 
ATOM     80  C   UNL A   1      46.167  33.993  31.098  1.00  0.00     0.040 A 
ATOM     81  C   UNL A   1      45.802  34.650  28.810  1.00  0.00     0.040 A 
ATOM     82  F   UNL A   1      45.132  33.057  27.223  1.00  0.00    -0.206 F 
ATOM     83  C   UNL A   1      46.148  34.983  30.117  1.00  0.00     0.006 A 
ENDBRANCH  59  76
ENDBRANCH  33  34
ENDBRANCH  25  28
ENDBRANCH  23  24
ENDBRANCH  22  23
ENDBRANCH  21  22
ENDBRANCH   1  21
TORSDOF 16
ENDMDL
MODEL 2
REMARK VINA RESULT:     -11.0      2.387      7.430
REMARK SMILES CC(C)[C@H](C[C@H]1Cc2ccccc21)C(=O)NCCCCCCNC(=O)c1ccc(-c2c3nc(c(-c4c(F)cccc4F)c4ccc([nH]4)c(-c4c(F)cccc4F)c4nc(c(-c5c(F)cccc5F)c5ccc2[nH]5)C=C4)C=C3)cc1
REMARK SMILES IDX 19 1 18 2 17 3 16 4 14 5 15 6 4 8 2 9 1 10 3 11 5 12 6 13
REMARK SMILES IDX 7 14 13 15 8 16 12 17 9 18 11 19 10 20 20 21 21 22 22 23
REMARK SMILES IDX 23 24 24 25 25 27 26 28 27 29 79 30 28 31 78 32 29 33 30 34
REMARK SMILES IDX 31 35 72 36 32 37 77 38 71 39 73 40 33 41 76 42 70 43 69 44
REMARK SMILES IDX 34 46 60 47 43 48 59 49 44 50 47 51 58 52 74 53 45 54 46 55
REMARK SMILES IDX 57 57 75 58 48 59 35 60 36 61 41 62 37 63 38 64 40 65 42 66
REMARK SMILES IDX 39 67 61 68 62 69 67 70 63 71 64 72 66 73 68 74 65 75 49 76
REMARK SMILES IDX 50 77 55 78 51 79 52 80 54 81 56 82 53 83
REMARK H PARENT 16 7 23 26 73 45 47 56
REMARK Flexibility Score: inf
ROOT
ATOM      1  C   UNL A   1      36.105  22.649  24.788  1.00  0.00     0.002 C 
ENDROOT
BRANCH   1   2
ATOM      2  C   UNL A   1      34.772  23.157  24.233  1.00  0.00     0.021 C 
BRANCH   2   3
ATOM      3  C   UNL A   1      34.193  24.340  24.997  1.00  0.00     0.116 C 
BRANCH   3   4
ATOM      4  N   UNL A   1      33.236  23.921  25.995  1.00  0.00    -0.356 N 
ATOM      5  C   UNL A   1      32.158  24.585  26.485  1.00  0.00     0.223 C 
ATOM      6  O   UNL A   1      31.471  24.020  27.339  1.00  0.00    -0.275 OA
ATOM      7  H   UNL A   1      33.388  23.024  26.375  1.00  0.00     0.163 HD
BRANCH   5   8
ATOM      8  C   UNL A   1      31.800  25.992  26.001  1.00  0.00     0.081 C 
BRANCH   8   9
ATOM      9  C   UNL A   1      32.538  27.169  26.736  1.00  0.00    -0.005 C 
ATOM     10  C   UNL A   1      33.614  27.937  25.960  1.00  0.00     0.008 C 
ATOM     11  C   UNL A   1      31.600  28.164  27.434  1.00  0.00     0.008 C 
ENDBRANCH   8   9
BRANCH   8  12
ATOM     12  C   UNL A   1      30.268  26.118  25.796  1.00  0.00     0.022 C 
BRANCH  12  13
ATOM     13  C   UNL A   1      29.897  26.295  24.321  1.00  0.00     0.025 C 
ATOM     14  C   UNL A   1      28.362  26.290  23.943  1.00  0.00     0.044 C 
ATOM     15  C   UNL A   1      29.872  27.746  23.895  1.00  0.00    -0.041 A 
ATOM     16  C   UNL A   1      28.567  27.701  23.473  1.00  0.00    -0.044 A 
ATOM     17  C   UNL A   1      30.647  28.877  23.788  1.00  0.00     0.004 A 
ATOM     18  C   UNL A   1      27.964  28.785  22.880  1.00  0.00     0.004 A 
ATOM     19  C   UNL A   1      30.057  29.999  23.205  1.00  0.00     0.000 A 
ATOM     20  C   UNL A   1      28.728  29.949  22.741  1.00  0.00     0.000 A 
ENDBRANCH  12  13
ENDBRANCH   8  12
ENDBRANCH   5   8
ENDBRANCH   3   4
ENDBRANCH   2   3
ENDBRANCH   1   2
BRANCH   1  21
ATOM     21  C   UNL A   1      36.108  21.180  25.222  1.00  0.00     0.002 C 
BRANCH  21  22
ATOM     22  C   UNL A   1      37.364  20.391  24.840  1.00  0.00     0.021 C 
BRANCH  22  23
ATOM     23  C   UNL A   1      38.615  20.772  25.623  1.00  0.00     0.116 C 
BRANCH  23  24
ATOM     24  N   UNL A   1      39.589  19.694  25.655  1.00  0.00    -0.352 N 
ATOM     25  C   UNL A   1      40.921  19.735  25.983  1.00  0.00     0.251 C 
ATOM     26  H   UNL A   1      39.243  18.806  25.405  1.00  0.00     0.163 HD
ATOM     27  O   UNL A   1      41.643  18.770  25.771  1.00  0.00    -0.269 OA
BRANCH  25  28
ATOM     28  C   UNL A   1      41.482  20.967  26.575  1.00  0.00     0.039 A 
ATOM     29  C   UNL A   1      42.037  21.928  25.728  1.00  0.00     0.014 A 
ATOM     30  C   UNL A   1      41.443  21.176  27.956  1.00  0.00     0.014 A 
ATOM     31  C   UNL A   1      42.490  23.135  26.262  1.00  0.00     0.010 A 
ATOM     32  C   UNL A   1      41.827  22.408  28.476  1.00  0.00     0.010 A 
ATOM     33  C   UNL A   1      42.348  23.401  27.634  1.00  0.00    -0.014 A 
BRANCH  33  34
ATOM     34  C   UNL A   1      42.713  24.722  28.204  1.00  0.00     0.031 A 
ATOM     35  C   UNL A   1      41.663  25.778  28.396  1.00  0.00     0.074 A 
ATOM     36  C   UNL A   1      44.004  24.990  28.476  1.00  0.00     0.049 A 
ATOM     37  N   UNL A   1      41.803  27.017  28.797  1.00  0.00    -0.248 NA
ATOM     38  C   UNL A   1      40.278  25.403  28.074  1.00  0.00     0.031 C 
ATOM     39  C   UNL A   1      45.120  24.059  28.293  1.00  0.00     0.029 A 
ATOM     40  N   UNL A   1      44.600  26.132  28.951  1.00  0.00    -0.354 N 
ATOM     41  C   UNL A   1      40.529  27.569  28.765  1.00  0.00     0.074 A 
ATOM     42  C   UNL A   1      39.638  26.549  28.255  1.00  0.00     0.031 C 
ATOM     43  C   UNL A   1      46.260  24.660  28.668  1.00  0.00     0.029 A 
ATOM     44  C   UNL A   1      45.965  26.030  29.073  1.00  0.00     0.049 A 
ATOM     45  H   UNL A   1      44.098  26.946  29.182  1.00  0.00     0.167 HD
ATOM     46  C   UNL A   1      40.136  28.809  29.143  1.00  0.00     0.037 A 
ATOM     47  C   UNL A   1      46.878  26.944  29.451  1.00  0.00     0.037 A 
ATOM     48  C   UNL A   1      41.026  29.815  29.660  1.00  0.00     0.049 A 
ATOM     49  C   UNL A   1      46.421  28.324  29.833  1.00  0.00     0.074 A 
ATOM     50  C   UNL A   1      40.716  31.081  30.126  1.00  0.00     0.029 A 
ATOM     51  N   UNL A   1      42.401  29.675  29.770  1.00  0.00    -0.354 N 
ATOM     52  N   UNL A   1      45.204  28.812  29.865  1.00  0.00    -0.248 NA
ATOM     53  C   UNL A   1      47.461  29.283  30.231  1.00  0.00     0.031 C 
ATOM     54  C   UNL A   1      41.908  31.727  30.464  1.00  0.00     0.029 A 
ATOM     55  C   UNL A   1      42.958  30.843  30.266  1.00  0.00     0.049 A 
ATOM     56  H   UNL A   1      42.907  28.865  29.533  1.00  0.00     0.167 HD
ATOM     57  C   UNL A   1      45.330  30.121  30.312  1.00  0.00     0.074 A 
ATOM     58  C   UNL A   1      46.739  30.347  30.552  1.00  0.00     0.031 C 
ATOM     59  C   UNL A   1      44.363  31.053  30.504  1.00  0.00     0.037 A 
BRANCH  46  60
ATOM     60  C   UNL A   1      38.678  29.147  29.010  1.00  0.00     0.057 A 
ATOM     61  C   UNL A   1      37.801  29.087  30.101  1.00  0.00     0.134 A 
ATOM     62  C   UNL A   1      38.154  29.576  27.783  1.00  0.00     0.134 A 
ATOM     63  F   UNL A   1      38.236  28.675  31.301  1.00  0.00    -0.206 F 
ATOM     64  C   UNL A   1      36.450  29.416  29.971  1.00  0.00     0.040 A 
ATOM     65  C   UNL A   1      36.812  29.937  27.649  1.00  0.00     0.040 A 
ATOM     66  F   UNL A   1      38.939  29.664  26.700  1.00  0.00    -0.206 F 
ATOM     67  C   UNL A   1      35.955  29.850  28.743  1.00  0.00     0.006 A 
ENDBRANCH  46  60
BRANCH  47  68
ATOM     68  C   UNL A   1      48.319  26.584  29.493  1.00  0.00     0.057 A 
ATOM     69  C   UNL A   1      48.881  25.983  30.625  1.00  0.00     0.134 A 
ATOM     70  C   UNL A   1      49.170  26.838  28.409  1.00  0.00     0.134 A 
ATOM     71  F   UNL A   1      48.122  25.731  31.702  1.00  0.00    -0.206 F 
ATOM     72  C   UNL A   1      50.240  25.667  30.688  1.00  0.00     0.040 A 
ATOM     73  C   UNL A   1      50.524  26.502  28.447  1.00  0.00     0.040 A 
ATOM     74  F   UNL A   1      48.692  27.405  27.291  1.00  0.00    -0.206 F 
ATOM     75  C   UNL A   1      51.064  25.923  29.593  1.00  0.00     0.006 A 
ENDBRANCH  47  68
BRANCH  59  76
ATOM     76  C   UNL A   1      44.792  32.392  31.028  1.00  0.00     0.057 A 
ATOM     77  C   UNL A   1      45.106  33.456  30.172  1.00  0.00     0.134 A 
ATOM     78  C   UNL A   1      44.842  32.635  32.407  1.00  0.00     0.134 A 
ATOM     79  F   UNL A   1      45.091  33.286  28.842  1.00  0.00    -0.206 F 
ATOM     80  C   UNL A   1      45.473  34.708  30.670  1.00  0.00     0.040 A 
ATOM     81  C   UNL A   1      45.178  33.890  32.916  1.00  0.00     0.040 A 
ATOM     82  F   UNL A   1      44.545  31.661  33.282  1.00  0.00    -0.206 F 
ATOM     83  C   UNL A   1      45.500  34.929  32.046  1.00  0.00     0.006 A 
ENDBRANCH  59  76
ENDBRANCH  33  34
ENDBRANCH  25  28
ENDBRANCH  23  24
ENDBRANCH  22  23
ENDBRANCH  21  22
ENDBRANCH   1  21
TORSDOF 16
ENDMDL
MODEL 3
REMARK VINA RESULT:     -10.9      1.337      6.961
REMARK SMILES CC(C)[C@H](C[C@H]1Cc2ccccc21)C(=O)NCCCCCCNC(=O)c1ccc(-c2c3nc(c(-c4c(F)cccc4F)c4ccc([nH]4)c(-c4c(F)cccc4F)c4nc(c(-c5c(F)cccc5F)c5ccc2[nH]5)C=C4)C=C3)cc1
REMARK SMILES IDX 19 1 18 2 17 3 16 4 14 5 15 6 4 8 2 9 1 10 3 11 5 12 6 13
REMARK SMILES IDX 7 14 13 15 8 16 12 17 9 18 11 19 10 20 20 21 21 22 22 23
REMARK SMILES IDX 23 24 24 25 25 27 26 28 27 29 79 30 28 31 78 32 29 33 30 34
REMARK SMILES IDX 31 35 72 36 32 37 77 38 71 39 73 40 33 41 76 42 70 43 69 44
REMARK SMILES IDX 34 46 60 47 43 48 59 49 44 50 47 51 58 52 74 53 45 54 46 55
REMARK SMILES IDX 57 57 75 58 48 59 35 60 36 61 41 62 37 63 38 64 40 65 42 66
REMARK SMILES IDX 39 67 61 68 62 69 67 70 63 71 64 72 66 73 68 74 65 75 49 76
REMARK SMILES IDX 50 77 55 78 51 79 52 80 54 81 56 82 53 83
REMARK H PARENT 16 7 23 26 73 45 47 56
REMARK Flexibility Score: inf
ROOT
ATOM      1  C   UNL A   1      37.082  22.389  24.198  1.00  0.00     0.002 C 
ENDROOT
BRANCH   1   2
ATOM      2  C   UNL A   1      36.783  23.691  24.945  1.00  0.00     0.021 C 
BRANCH   2   3
ATOM      3  C   UNL A   1      35.321  24.111  24.898  1.00  0.00     0.116 C 
BRANCH   3   4
ATOM      4  N   UNL A   1      34.831  24.209  23.543  1.00  0.00    -0.356 N 
ATOM      5  C   UNL A   1      33.697  23.696  22.999  1.00  0.00     0.223 C 
ATOM      6  O   UNL A   1      33.478  23.917  21.806  1.00  0.00    -0.275 OA
ATOM      7  H   UNL A   1      35.401  24.721  22.924  1.00  0.00     0.163 HD
BRANCH   5   8
ATOM      8  C   UNL A   1      32.717  22.866  23.833  1.00  0.00     0.081 C 
BRANCH   8   9
ATOM      9  C   UNL A   1      32.918  21.310  23.762  1.00  0.00    -0.005 C 
ATOM     10  C   UNL A   1      32.809  20.512  25.067  1.00  0.00     0.008 C 
ATOM     11  C   UNL A   1      32.094  20.616  22.667  1.00  0.00     0.008 C 
ENDBRANCH   8   9
BRANCH   8  12
ATOM     12  C   UNL A   1      31.275  23.415  23.672  1.00  0.00     0.022 C 
BRANCH  12  13
ATOM     13  C   UNL A   1      30.779  24.110  24.944  1.00  0.00     0.025 C 
ATOM     14  C   UNL A   1      31.773  24.194  26.171  1.00  0.00     0.044 C 
ATOM     15  C   UNL A   1      30.921  25.614  24.882  1.00  0.00    -0.041 A 
ATOM     16  C   UNL A   1      31.699  25.686  26.010  1.00  0.00    -0.044 A 
ATOM     17  C   UNL A   1      30.534  26.730  24.177  1.00  0.00     0.004 A 
ATOM     18  C   UNL A   1      32.110  26.891  26.526  1.00  0.00     0.004 A 
ATOM     19  C   UNL A   1      30.950  27.968  24.668  1.00  0.00     0.000 A 
ATOM     20  C   UNL A   1      31.722  28.049  25.843  1.00  0.00     0.000 A 
ENDBRANCH  12  13
ENDBRANCH   8  12
ENDBRANCH   5   8
ENDBRANCH   3   4
ENDBRANCH   2   3
ENDBRANCH   1   2
BRANCH   1  21
ATOM     21  C   UNL A   1      36.678  21.110  24.938  1.00  0.00     0.002 C 
BRANCH  21  22
ATOM     22  C   UNL A   1      37.749  20.016  24.978  1.00  0.00     0.021 C 
BRANCH  22  23
ATOM     23  C   UNL A   1      39.009  20.387  25.750  1.00  0.00     0.116 C 
BRANCH  23  24
ATOM     24  N   UNL A   1      39.943  19.277  25.838  1.00  0.00    -0.352 N 
ATOM     25  C   UNL A   1      41.297  19.295  26.060  1.00  0.00     0.251 C 
ATOM     26  H   UNL A   1      39.547  18.383  25.723  1.00  0.00     0.163 HD
ATOM     27  O   UNL A   1      41.965  18.281  25.912  1.00  0.00    -0.269 OA
BRANCH  25  28
ATOM     28  C   UNL A   1      41.948  20.562  26.456  1.00  0.00     0.039 A 
ATOM     29  C   UNL A   1      42.475  21.388  25.462  1.00  0.00     0.014 A 
ATOM     30  C   UNL A   1      42.020  20.935  27.801  1.00  0.00     0.014 A 
ATOM     31  C   UNL A   1      43.012  22.627  25.813  1.00  0.00     0.010 A 
ATOM     32  C   UNL A   1      42.488  22.200  28.140  1.00  0.00     0.010 A 
ATOM     33  C   UNL A   1      42.983  23.060  27.148  1.00  0.00    -0.014 A 
BRANCH  33  34
ATOM     34  C   UNL A   1      43.439  24.421  27.526  1.00  0.00     0.031 A 
ATOM     35  C   UNL A   1      42.442  25.470  27.927  1.00  0.00     0.074 A 
ATOM     36  C   UNL A   1      44.747  24.729  27.434  1.00  0.00     0.049 A 
ATOM     37  N   UNL A   1      42.639  26.733  28.206  1.00  0.00    -0.248 NA
ATOM     38  C   UNL A   1      41.033  25.050  28.002  1.00  0.00     0.031 C 
ATOM     39  C   UNL A   1      45.807  23.808  27.018  1.00  0.00     0.029 A 
ATOM     40  N   UNL A   1      45.408  25.909  27.670  1.00  0.00    -0.354 N 
ATOM     41  C   UNL A   1      41.383  27.260  28.478  1.00  0.00     0.074 A 
ATOM     42  C   UNL A   1      40.425  26.194  28.280  1.00  0.00     0.031 C 
ATOM     43  C   UNL A   1      46.984  24.451  27.045  1.00  0.00     0.029 A 
ATOM     44  C   UNL A   1      46.760  25.839  27.434  1.00  0.00     0.049 A 
ATOM     45  H   UNL A   1      44.957  26.728  27.978  1.00  0.00     0.167 HD
ATOM     46  C   UNL A   1      41.061  28.515  28.876  1.00  0.00     0.037 A 
ATOM     47  C   UNL A   1      47.709  26.791  27.507  1.00  0.00     0.037 A 
ATOM     48  C   UNL A   1      42.021  29.567  29.082  1.00  0.00     0.049 A 
ATOM     49  C   UNL A   1      47.321  28.185  27.916  1.00  0.00     0.074 A 
ATOM     50  C   UNL A   1      41.801  30.855  29.541  1.00  0.00     0.029 A 
ATOM     51  N   UNL A   1      43.382  29.458  28.835  1.00  0.00    -0.354 N 
ATOM     52  N   UNL A   1      46.139  28.652  28.239  1.00  0.00    -0.248 NA
ATOM     53  C   UNL A   1      48.396  29.185  27.972  1.00  0.00     0.031 C 
ATOM     54  C   UNL A   1      43.018  31.541  29.516  1.00  0.00     0.029 A 
ATOM     55  C   UNL A   1      44.008  30.665  29.100  1.00  0.00     0.049 A 
ATOM     56  H   UNL A   1      43.834  28.643  28.519  1.00  0.00     0.167 HD
ATOM     57  C   UNL A   1      46.333  29.989  28.562  1.00  0.00     0.074 A 
ATOM     58  C   UNL A   1      47.748  30.254  28.410  1.00  0.00     0.031 C 
ATOM     59  C   UNL A   1      45.419  30.914  28.947  1.00  0.00     0.037 A 
BRANCH  46  60
ATOM     60  C   UNL A   1      39.609  28.817  29.111  1.00  0.00     0.057 A 
ATOM     61  C   UNL A   1      38.767  29.258  28.081  1.00  0.00     0.134 A 
ATOM     62  C   UNL A   1      39.035  28.628  30.375  1.00  0.00     0.134 A 
ATOM     63  F   UNL A   1      39.254  29.469  26.849  1.00  0.00    -0.206 F 
ATOM     64  C   UNL A   1      37.415  29.523  28.304  1.00  0.00     0.040 A 
ATOM     65  C   UNL A   1      37.678  28.860  30.604  1.00  0.00     0.040 A 
ATOM     66  F   UNL A   1      39.781  28.201  31.405  1.00  0.00    -0.206 F 
ATOM     67  C   UNL A   1      36.866  29.317  29.569  1.00  0.00     0.006 A 
ENDBRANCH  46  60
BRANCH  47  68
ATOM     68  C   UNL A   1      49.122  26.460  27.189  1.00  0.00     0.057 A 
ATOM     69  C   UNL A   1      49.638  26.654  25.903  1.00  0.00     0.134 A 
ATOM     70  C   UNL A   1      49.987  25.935  28.158  1.00  0.00     0.134 A 
ATOM     71  F   UNL A   1      48.854  27.137  24.927  1.00  0.00    -0.206 F 
ATOM     72  C   UNL A   1      50.956  26.318  25.585  1.00  0.00     0.040 A 
ATOM     73  C   UNL A   1      51.314  25.621  27.861  1.00  0.00     0.040 A 
ATOM     74  F   UNL A   1      49.557  25.732  29.412  1.00  0.00    -0.206 F 
ATOM     75  C   UNL A   1      51.799  25.805  26.568  1.00  0.00     0.006 A 
ENDBRANCH  47  68
BRANCH  59  76
ATOM     76  C   UNL A   1      45.925  32.291  29.263  1.00  0.00     0.057 A 
ATOM     77  C   UNL A   1      46.386  32.636  30.540  1.00  0.00     0.134 A 
ATOM     78  C   UNL A   1      45.998  33.271  28.264  1.00  0.00     0.134 A 
ATOM     79  F   UNL A   1      46.330  31.749  31.546  1.00  0.00    -0.206 F 
ATOM     80  C   UNL A   1      46.884  33.910  30.816  1.00  0.00     0.040 A 
ATOM     81  C   UNL A   1      46.521  34.538  28.520  1.00  0.00     0.040 A 
ATOM     82  F   UNL A   1      45.581  33.003  27.016  1.00  0.00    -0.206 F 
ATOM     83  C   UNL A   1      46.961  34.862  29.801  1.00  0.00     0.006 A 
ENDBRANCH  59  76
ENDBRANCH  33  34
ENDBRANCH  25  28
ENDBRANCH  23  24
ENDBRANCH  22  23
ENDBRANCH  21  22
ENDBRANCH   1  21
TORSDOF 16
ENDMDL
