MODEL 1
REMARK VINA RESULT:     -12.6      0.000      0.000
REMARK SMILES O=C(NCCCCCCNC(=O)[C@H]1Cc2[nH]cnc2CN1C(=O)c1ccncc1Cl)c1ccc(-c2c3nc(c(-c4c(F)cccc4F)c4ccc([nH]4)c(-c4c(F)cccc4F)c4nc(c(-c5c(F)cccc5F)c5ccc2[nH]5)C=C4)C=C3)cc1
REMARK SMILES IDX 6 1 5 2 4 3 3 4 1 5 2 6 31 8 32 9 84 10 33 11 83 12 34 13
REMARK SMILES IDX 35 14 36 15 77 16 37 17 82 18 76 19 78 20 38 21 81 22 75 23
REMARK SMILES IDX 74 24 39 26 65 27 48 28 64 29 49 30 52 31 63 32 79 33 50 34
REMARK SMILES IDX 51 35 62 37 80 38 53 39 40 40 41 41 46 42 42 43 43 44 45 45
REMARK SMILES IDX 47 46 44 47 66 48 67 49 72 50 68 51 69 52 71 53 73 54 70 55
REMARK SMILES IDX 54 56 55 57 60 58 56 59 57 60 59 61 61 62 58 63 7 64 8 65
REMARK SMILES IDX 9 66 10 67 11 68 12 70 13 71 14 72 21 73 15 74 20 75 16 76
REMARK SMILES IDX 19 77 17 78 18 80 22 81 23 82 24 83 25 84 29 85 26 86 28 87
REMARK SMILES IDX 30 88 27 89
REMARK H PARENT 3 7 78 25 52 36 10 69 16 79
REMARK Flexibility Score: inf
ROOT
ATOM      1  C   UNL A   1      32.693  27.320  26.210  1.00  0.00     0.002 C 
ENDROOT
BRANCH   1   2
ATOM      2  C   UNL A   1      33.063  28.708  26.733  1.00  0.00     0.021 C 
BRANCH   2   3
ATOM      3  C   UNL A   1      34.546  28.904  27.044  1.00  0.00     0.116 C 
BRANCH   3   4
ATOM      4  N   UNL A   1      34.805  29.736  28.204  1.00  0.00    -0.352 N 
ATOM      5  O   UNL A   1      35.714  30.848  29.878  1.00  0.00    -0.269 OA
ATOM      6  C   UNL A   1      35.906  30.059  28.946  1.00  0.00     0.251 C 
ATOM      7  H   UNL A   1      33.989  30.175  28.536  1.00  0.00     0.163 HD
BRANCH   6   8
ATOM      8  C   UNL A   1      37.284  29.532  28.737  1.00  0.00     0.039 A 
ATOM      9  C   UNL A   1      38.042  29.675  27.575  1.00  0.00     0.014 A 
ATOM     10  C   UNL A   1      37.870  28.866  29.833  1.00  0.00     0.014 A 
ATOM     11  C   UNL A   1      39.335  29.155  27.502  1.00  0.00     0.010 A 
ATOM     12  C   UNL A   1      39.170  28.364  29.772  1.00  0.00     0.010 A 
ATOM     13  C   UNL A   1      39.907  28.508  28.601  1.00  0.00    -0.014 A 
BRANCH  13  14
ATOM     14  C   UNL A   1      41.329  28.168  28.525  1.00  0.00     0.031 A 
ATOM     15  C   UNL A   1      41.656  26.887  27.824  1.00  0.00     0.074 A 
ATOM     16  C   UNL A   1      42.348  28.978  28.870  1.00  0.00     0.049 A 
ATOM     17  N   UNL A   1      42.298  25.857  28.276  1.00  0.00    -0.248 NA
ATOM     18  C   UNL A   1      41.172  26.730  26.444  1.00  0.00     0.031 C 
ATOM     19  C   UNL A   1      42.295  30.391  29.242  1.00  0.00     0.029 A 
ATOM     20  N   UNL A   1      43.688  28.705  28.855  1.00  0.00    -0.354 N 
ATOM     21  C   UNL A   1      42.430  24.977  27.202  1.00  0.00     0.074 A 
ATOM     22  C   UNL A   1      41.644  25.525  26.125  1.00  0.00     0.031 C 
ATOM     23  C   UNL A   1      43.548  30.900  29.220  1.00  0.00     0.029 A 
ATOM     24  C   UNL A   1      44.495  29.826  28.957  1.00  0.00     0.049 A 
ATOM     25  H   UNL A   1      44.048  27.792  28.780  1.00  0.00     0.167 HD
ATOM     26  C   UNL A   1      43.299  23.928  27.211  1.00  0.00     0.037 A 
ATOM     27  C   UNL A   1      45.836  29.881  28.780  1.00  0.00     0.037 A 
ATOM     28  C   UNL A   1      43.755  23.607  28.533  1.00  0.00     0.049 A 
ATOM     29  C   UNL A   1      46.385  28.511  28.911  1.00  0.00     0.074 A 
ATOM     30  C   UNL A   1      43.152  23.205  29.709  1.00  0.00     0.029 A 
ATOM     31  N   UNL A   1      45.039  23.940  28.877  1.00  0.00    -0.354 N 
ATOM     32  N   UNL A   1      46.482  27.853  30.031  1.00  0.00    -0.248 NA
ATOM     33  C   UNL A   1      46.546  27.713  27.705  1.00  0.00     0.031 C 
ATOM     34  C   UNL A   1      43.943  23.778  30.747  1.00  0.00     0.029 A 
ATOM     35  C   UNL A   1      44.979  24.482  30.133  1.00  0.00     0.049 A 
ATOM     36  H   UNL A   1      45.848  23.815  28.328  1.00  0.00     0.167 HD
ATOM     37  C   UNL A   1      46.298  26.525  29.678  1.00  0.00     0.074 A 
ATOM     38  C   UNL A   1      46.477  26.489  28.232  1.00  0.00     0.031 C 
ATOM     39  C   UNL A   1      45.742  25.634  30.548  1.00  0.00     0.037 A 
BRANCH  26  40
ATOM     40  C   UNL A   1      43.972  23.362  25.987  1.00  0.00     0.057 A 
ATOM     41  C   UNL A   1      43.903  21.981  25.725  1.00  0.00     0.134 A 
ATOM     42  C   UNL A   1      44.919  24.073  25.225  1.00  0.00     0.134 A 
ATOM     43  F   UNL A   1      43.059  21.192  26.407  1.00  0.00    -0.206 F 
ATOM     44  C   UNL A   1      44.752  21.346  24.811  1.00  0.00     0.040 A 
ATOM     45  C   UNL A   1      45.738  23.457  24.273  1.00  0.00     0.040 A 
ATOM     46  F   UNL A   1      45.165  25.372  25.434  1.00  0.00    -0.206 F 
ATOM     47  C   UNL A   1      45.677  22.084  24.083  1.00  0.00     0.006 A 
ENDBRANCH  26  40
BRANCH  27  48
ATOM     48  C   UNL A   1      46.667  31.007  28.301  1.00  0.00     0.057 A 
ATOM     49  C   UNL A   1      46.575  31.471  26.981  1.00  0.00     0.134 A 
ATOM     50  C   UNL A   1      47.385  31.820  29.193  1.00  0.00     0.134 A 
ATOM     51  F   UNL A   1      45.873  30.790  26.065  1.00  0.00    -0.206 F 
ATOM     52  C   UNL A   1      47.152  32.682  26.576  1.00  0.00     0.040 A 
ATOM     53  C   UNL A   1      47.977  33.024  28.799  1.00  0.00     0.040 A 
ATOM     54  F   UNL A   1      47.466  31.517  30.496  1.00  0.00    -0.206 F 
ATOM     55  C   UNL A   1      47.849  33.466  27.489  1.00  0.00     0.006 A 
ENDBRANCH  27  48
BRANCH  39  56
ATOM     56  C   UNL A   1      45.644  26.026  31.993  1.00  0.00     0.057 A 
ATOM     57  C   UNL A   1      44.512  26.627  32.562  1.00  0.00     0.134 A 
ATOM     58  C   UNL A   1      46.673  25.651  32.865  1.00  0.00     0.134 A 
ATOM     59  F   UNL A   1      43.434  26.919  31.822  1.00  0.00    -0.206 F 
ATOM     60  C   UNL A   1      44.434  26.893  33.932  1.00  0.00     0.040 A 
ATOM     61  C   UNL A   1      46.590  25.878  34.241  1.00  0.00     0.040 A 
ATOM     62  F   UNL A   1      47.758  25.012  32.398  1.00  0.00    -0.206 F 
ATOM     63  C   UNL A   1      45.473  26.512  34.777  1.00  0.00     0.006 A 
ENDBRANCH  39  56
ENDBRANCH  13  14
ENDBRANCH   6   8
ENDBRANCH   3   4
ENDBRANCH   2   3
ENDBRANCH   1   2
BRANCH   1  64
ATOM     64  C   UNL A   1      31.306  27.164  25.587  1.00  0.00     0.002 C 
BRANCH  64  65
ATOM     65  C   UNL A   1      30.461  25.969  26.055  1.00  0.00     0.021 C 
BRANCH  65  66
ATOM     66  C   UNL A   1      31.007  24.571  25.745  1.00  0.00     0.116 C 
BRANCH  66  67
ATOM     67  N   UNL A   1      31.454  23.867  26.934  1.00  0.00    -0.354 N 
ATOM     68  C   UNL A   1      32.570  23.113  27.141  1.00  0.00     0.243 C 
ATOM     69  H   UNL A   1      30.856  23.947  27.713  1.00  0.00     0.163 HD
ATOM     70  O   UNL A   1      32.681  22.560  28.240  1.00  0.00    -0.273 OA
BRANCH  68  71
ATOM     71  C   UNL A   1      33.566  22.780  26.009  1.00  0.00     0.181 C 
ATOM     72  C   UNL A   1      34.893  23.453  26.488  1.00  0.00     0.091 C 
ATOM     73  N   UNL A   1      33.606  21.343  25.558  1.00  0.00    -0.320 N 
ATOM     74  C   UNL A   1      36.077  22.697  26.065  1.00  0.00     0.042 A 
ATOM     75  C   UNL A   1      34.856  20.754  25.017  1.00  0.00     0.178 C 
ATOM     76  N   UNL A   1      37.387  23.031  26.235  1.00  0.00    -0.348 N 
ATOM     77  C   UNL A   1      36.071  21.484  25.437  1.00  0.00     0.081 A 
ATOM     78  C   UNL A   1      38.124  22.004  25.708  1.00  0.00     0.197 A 
ATOM     79  H   UNL A   1      37.736  23.850  26.655  1.00  0.00     0.167 HD
ATOM     80  N   UNL A   1      37.355  21.056  25.217  1.00  0.00    -0.240 NA
BRANCH  73  81
ATOM     81  C   UNL A   1      32.465  20.647  25.101  1.00  0.00     0.256 C 
ATOM     82  O   UNL A   1      31.315  21.026  25.315  1.00  0.00    -0.269 OA
BRANCH  81  83
ATOM     83  C   UNL A   1      32.603  19.481  24.217  1.00  0.00     0.061 A 
ATOM     84  C   UNL A   1      33.094  18.316  24.808  1.00  0.00     0.035 A 
ATOM     85  C   UNL A   1      32.314  19.500  22.860  1.00  0.00     0.072 A 
ATOM     86  C   UNL A   1      33.142  17.163  24.050  1.00  0.00     0.112 A 
ATOM     87  C   UNL A   1      32.406  18.293  22.182  1.00  0.00     0.132 A 
ATOM     88  Cl  UNL A   1      31.899  20.930  22.001  1.00  0.00    -0.082 Cl
ATOM     89  N   UNL A   1      32.789  17.123  22.752  1.00  0.00    -0.263 NA
ENDBRANCH  81  83
ENDBRANCH  73  81
ENDBRANCH  68  71
ENDBRANCH  66  67
ENDBRANCH  65  66
ENDBRANCH  64  65
ENDBRANCH   1  64
TORSDOF 15
ENDMDL
MODEL 2
REMARK VINA RESULT:     -12.6      1.519      2.692
REMARK SMILES O=C(NCCCCCCNC(=O)[C@H]1Cc2[nH]cnc2CN1C(=O)c1ccncc1Cl)c1ccc(-c2c3nc(c(-c4c(F)cccc4F)c4ccc([nH]4)c(-c4c(F)cccc4F)c4nc(c(-c5c(F)cccc5F)c5ccc2[nH]5)C=C4)C=C3)cc1
REMARK SMILES IDX 6 1 5 2 4 3 3 4 1 5 2 6 31 8 32 9 84 10 33 11 83 12 34 13
REMARK SMILES IDX 35 14 36 15 77 16 37 17 82 18 76 19 78 20 38 21 81 22 75 23
REMARK SMILES IDX 74 24 39 26 65 27 48 28 64 29 49 30 52 31 63 32 79 33 50 34
REMARK SMILES IDX 51 35 62 37 80 38 53 39 40 40 41 41 46 42 42 43 43 44 45 45
REMARK SMILES IDX 47 46 44 47 66 48 67 49 72 50 68 51 69 52 71 53 73 54 70 55
REMARK SMILES IDX 54 56 55 57 60 58 56 59 57 60 59 61 61 62 58 63 7 64 8 65
REMARK SMILES IDX 9 66 10 67 11 68 12 70 13 71 14 72 21 73 15 74 20 75 16 76
REMARK SMILES IDX 19 77 17 78 18 80 22 81 23 82 24 83 25 84 29 85 26 86 28 87
REMARK SMILES IDX 30 88 27 89
REMARK H PARENT 3 7 78 25 52 36 10 69 16 79
REMARK Flexibility Score: inf
ROOT
ATOM      1  C   UNL A   1      33.072  27.944  24.950  1.00  0.00     0.002 C 
ENDROOT
BRANCH   1   2
ATOM      2  C   UNL A   1      33.557  29.036  25.904  1.00  0.00     0.021 C 
BRANCH   2   3
ATOM      3  C   UNL A   1      34.491  28.554  27.013  1.00  0.00     0.116 C 
BRANCH   3   4
ATOM      4  N   UNL A   1      34.779  29.554  28.023  1.00  0.00    -0.352 N 
ATOM      5  O   UNL A   1      35.732  30.918  29.471  1.00  0.00    -0.269 OA
ATOM      6  C   UNL A   1      35.902  30.001  28.660  1.00  0.00     0.251 C 
ATOM      7  H   UNL A   1      33.968  30.025  28.322  1.00  0.00     0.163 HD
BRANCH   6   8
ATOM      8  C   UNL A   1      37.282  29.470  28.471  1.00  0.00     0.039 A 
ATOM      9  C   UNL A   1      38.113  29.733  27.383  1.00  0.00     0.014 A 
ATOM     10  C   UNL A   1      37.787  28.663  29.511  1.00  0.00     0.014 A 
ATOM     11  C   UNL A   1      39.399  29.194  27.324  1.00  0.00     0.010 A 
ATOM     12  C   UNL A   1      39.080  28.141  29.468  1.00  0.00     0.010 A 
ATOM     13  C   UNL A   1      39.890  28.406  28.369  1.00  0.00    -0.014 A 
BRANCH  13  14
ATOM     14  C   UNL A   1      41.309  28.044  28.338  1.00  0.00     0.031 A 
ATOM     15  C   UNL A   1      41.636  26.754  27.653  1.00  0.00     0.074 A 
ATOM     16  C   UNL A   1      42.330  28.840  28.708  1.00  0.00     0.049 A 
ATOM     17  N   UNL A   1      42.248  25.717  28.131  1.00  0.00    -0.248 NA
ATOM     18  C   UNL A   1      41.190  26.596  26.261  1.00  0.00     0.031 C 
ATOM     19  C   UNL A   1      42.288  30.257  29.069  1.00  0.00     0.029 A 
ATOM     20  N   UNL A   1      43.665  28.546  28.734  1.00  0.00    -0.354 N 
ATOM     21  C   UNL A   1      42.398  24.828  27.067  1.00  0.00     0.074 A 
ATOM     22  C   UNL A   1      41.653  25.380  25.964  1.00  0.00     0.031 C 
ATOM     23  C   UNL A   1      43.549  30.746  29.082  1.00  0.00     0.029 A 
ATOM     24  C   UNL A   1      44.487  29.655  28.853  1.00  0.00     0.049 A 
ATOM     25  H   UNL A   1      44.013  27.627  28.675  1.00  0.00     0.167 HD
ATOM     26  C   UNL A   1      43.250  23.765  27.108  1.00  0.00     0.037 A 
ATOM     27  C   UNL A   1      45.833  29.688  28.716  1.00  0.00     0.037 A 
ATOM     28  C   UNL A   1      43.661  23.445  28.445  1.00  0.00     0.049 A 
ATOM     29  C   UNL A   1      46.356  28.310  28.872  1.00  0.00     0.074 A 
ATOM     30  C   UNL A   1      43.017  23.060  29.604  1.00  0.00     0.029 A 
ATOM     31  N   UNL A   1      44.940  23.761  28.825  1.00  0.00    -0.354 N 
ATOM     32  N   UNL A   1      46.409  27.658  29.998  1.00  0.00    -0.248 NA
ATOM     33  C   UNL A   1      46.540  27.502  27.675  1.00  0.00     0.031 C 
ATOM     34  C   UNL A   1      43.786  23.628  30.662  1.00  0.00     0.029 A 
ATOM     35  C   UNL A   1      44.850  24.311  30.075  1.00  0.00     0.049 A 
ATOM     36  H   UNL A   1      45.762  23.619  28.300  1.00  0.00     0.167 HD
ATOM     37  C   UNL A   1      46.215  26.331  29.647  1.00  0.00     0.074 A 
ATOM     38  C   UNL A   1      46.436  26.283  28.207  1.00  0.00     0.031 C 
ATOM     39  C   UNL A   1      45.619  25.454  30.505  1.00  0.00     0.037 A 
BRANCH  26  40
ATOM     40  C   UNL A   1      43.949  23.181  25.907  1.00  0.00     0.057 A 
ATOM     41  C   UNL A   1      43.880  21.797  25.661  1.00  0.00     0.134 A 
ATOM     42  C   UNL A   1      44.918  23.878  25.161  1.00  0.00     0.134 A 
ATOM     43  F   UNL A   1      43.015  21.020  26.332  1.00  0.00    -0.206 F 
ATOM     44  C   UNL A   1      44.748  21.147  24.776  1.00  0.00     0.040 A 
ATOM     45  C   UNL A   1      45.758  23.246  24.237  1.00  0.00     0.040 A 
ATOM     46  F   UNL A   1      45.166  25.178  25.360  1.00  0.00    -0.206 F 
ATOM     47  C   UNL A   1      45.694  21.871  24.062  1.00  0.00     0.006 A 
ENDBRANCH  26  40
BRANCH  27  48
ATOM     48  C   UNL A   1      46.696  30.797  28.255  1.00  0.00     0.057 A 
ATOM     49  C   UNL A   1      46.472  31.432  27.026  1.00  0.00     0.134 A 
ATOM     50  C   UNL A   1      47.602  31.431  29.122  1.00  0.00     0.134 A 
ATOM     51  F   UNL A   1      45.591  30.932  26.148  1.00  0.00    -0.206 F 
ATOM     52  C   UNL A   1      47.101  32.637  26.684  1.00  0.00     0.040 A 
ATOM     53  C   UNL A   1      48.247  32.626  28.789  1.00  0.00     0.040 A 
ATOM     54  F   UNL A   1      47.827  30.958  30.356  1.00  0.00    -0.206 F 
ATOM     55  C   UNL A   1      47.987  33.241  27.571  1.00  0.00     0.006 A 
ENDBRANCH  27  48
BRANCH  39  56
ATOM     56  C   UNL A   1      45.485  25.857  31.945  1.00  0.00     0.057 A 
ATOM     57  C   UNL A   1      46.488  25.663  32.905  1.00  0.00     0.134 A 
ATOM     58  C   UNL A   1      44.361  26.593  32.338  1.00  0.00     0.134 A 
ATOM     59  F   UNL A   1      47.646  25.066  32.589  1.00  0.00    -0.206 F 
ATOM     60  C   UNL A   1      46.352  26.135  34.213  1.00  0.00     0.040 A 
ATOM     61  C   UNL A   1      44.230  27.101  33.632  1.00  0.00     0.040 A 
ATOM     62  F   UNL A   1      43.390  26.871  31.453  1.00  0.00    -0.206 F 
ATOM     63  C   UNL A   1      45.222  26.862  34.579  1.00  0.00     0.006 A 
ENDBRANCH  39  56
ENDBRANCH  13  14
ENDBRANCH   6   8
ENDBRANCH   3   4
ENDBRANCH   2   3
ENDBRANCH   1   2
BRANCH   1  64
ATOM     64  C   UNL A   1      31.560  27.764  24.817  1.00  0.00     0.002 C 
BRANCH  64  65
ATOM     65  C   UNL A   1      30.853  26.958  25.918  1.00  0.00     0.021 C 
BRANCH  65  66
ATOM     66  C   UNL A   1      31.684  25.888  26.635  1.00  0.00     0.116 C 
BRANCH  66  67
ATOM     67  N   UNL A   1      30.976  24.629  26.776  1.00  0.00    -0.354 N 
ATOM     68  C   UNL A   1      31.090  23.472  26.065  1.00  0.00     0.243 C 
ATOM     69  H   UNL A   1      30.307  24.608  27.498  1.00  0.00     0.163 HD
ATOM     70  O   UNL A   1      30.311  22.557  26.348  1.00  0.00    -0.273 OA
BRANCH  68  71
ATOM     71  C   UNL A   1      32.003  23.349  24.825  1.00  0.00     0.181 C 
ATOM     72  C   UNL A   1      31.162  24.021  23.691  1.00  0.00     0.091 C 
ATOM     73  N   UNL A   1      33.437  23.774  25.009  1.00  0.00    -0.320 N 
ATOM     74  C   UNL A   1      32.011  24.702  22.708  1.00  0.00     0.042 A 
ATOM     75  C   UNL A   1      34.216  24.322  23.872  1.00  0.00     0.178 C 
ATOM     76  N   UNL A   1      31.625  25.319  21.555  1.00  0.00    -0.348 N 
ATOM     77  C   UNL A   1      33.364  24.867  22.794  1.00  0.00     0.081 A 
ATOM     78  C   UNL A   1      32.760  25.837  20.990  1.00  0.00     0.197 A 
ATOM     79  H   UNL A   1      30.710  25.380  21.197  1.00  0.00     0.167 HD
ATOM     80  N   UNL A   1      33.826  25.578  21.716  1.00  0.00    -0.240 NA
BRANCH  73  81
ATOM     81  C   UNL A   1      34.281  23.224  25.999  1.00  0.00     0.256 C 
ATOM     82  O   UNL A   1      34.034  23.280  27.202  1.00  0.00    -0.269 OA
BRANCH  81  83
ATOM     83  C   UNL A   1      35.457  22.427  25.621  1.00  0.00     0.061 A 
ATOM     84  C   UNL A   1      36.690  23.075  25.701  1.00  0.00     0.035 A 
ATOM     85  C   UNL A   1      35.391  21.117  25.167  1.00  0.00     0.072 A 
ATOM     86  C   UNL A   1      37.836  22.342  25.462  1.00  0.00     0.112 A 
ATOM     87  C   UNL A   1      36.597  20.470  24.940  1.00  0.00     0.132 A 
ATOM     88  Cl  UNL A   1      33.913  20.302  24.842  1.00  0.00    -0.082 Cl
ATOM     89  N   UNL A   1      37.816  21.045  25.101  1.00  0.00    -0.263 NA
ENDBRANCH  81  83
ENDBRANCH  73  81
ENDBRANCH  68  71
ENDBRANCH  66  67
ENDBRANCH  65  66
ENDBRANCH  64  65
ENDBRANCH   1  64
TORSDOF 15
ENDMDL
MODEL 3
REMARK VINA RESULT:     -12.6      1.767      5.780
REMARK SMILES O=C(NCCCCCCNC(=O)[C@H]1Cc2[nH]cnc2CN1C(=O)c1ccncc1Cl)c1ccc(-c2c3nc(c(-c4c(F)cccc4F)c4ccc([nH]4)c(-c4c(F)cccc4F)c4nc(c(-c5c(F)cccc5F)c5ccc2[nH]5)C=C4)C=C3)cc1
REMARK SMILES IDX 6 1 5 2 4 3 3 4 1 5 2 6 31 8 32 9 84 10 33 11 83 12 34 13
REMARK SMILES IDX 35 14 36 15 77 16 37 17 82 18 76 19 78 20 38 21 81 22 75 23
REMARK SMILES IDX 74 24 39 26 65 27 48 28 64 29 49 30 52 31 63 32 79 33 50 34
REMARK SMILES IDX 51 35 62 37 80 38 53 39 40 40 41 41 46 42 42 43 43 44 45 45
REMARK SMILES IDX 47 46 44 47 66 48 67 49 72 50 68 51 69 52 71 53 73 54 70 55
REMARK SMILES IDX 54 56 55 57 60 58 56 59 57 60 59 61 61 62 58 63 7 64 8 65
REMARK SMILES IDX 9 66 10 67 11 68 12 70 13 71 14 72 21 73 15 74 20 75 16 76
REMARK SMILES IDX 19 77 17 78 18 80 22 81 23 82 24 83 25 84 29 85 26 86 28 87
REMARK SMILES IDX 30 88 27 89
REMARK H PARENT 3 7 78 25 52 36 10 69 16 79
REMARK Flexibility Score: inf
ROOT
ATOM      1  C   UNL A   1      31.769  28.228  27.483  1.00  0.00     0.002 C 
ENDROOT
BRANCH   1   2
ATOM      2  C   UNL A   1      31.948  29.649  26.948  1.00  0.00     0.021 C 
BRANCH   2   3
ATOM      3  C   UNL A   1      33.396  30.135  26.885  1.00  0.00     0.116 C 
BRANCH   3   4
ATOM      4  N   UNL A   1      33.650  31.340  27.650  1.00  0.00    -0.352 N 
ATOM      5  O   UNL A   1      34.521  32.935  28.901  1.00  0.00    -0.269 OA
ATOM      6  C   UNL A   1      34.679  31.809  28.418  1.00  0.00     0.251 C 
ATOM      7  H   UNL A   1      32.900  31.976  27.605  1.00  0.00     0.163 HD
BRANCH   6   8
ATOM      8  C   UNL A   1      35.940  31.077  28.726  1.00  0.00     0.039 A 
ATOM      9  C   UNL A   1      36.102  29.692  28.712  1.00  0.00     0.014 A 
ATOM     10  C   UNL A   1      37.067  31.873  29.018  1.00  0.00     0.014 A 
ATOM     11  C   UNL A   1      37.341  29.118  28.998  1.00  0.00     0.010 A 
ATOM     12  C   UNL A   1      38.314  31.305  29.283  1.00  0.00     0.010 A 
ATOM     13  C   UNL A   1      38.452  29.921  29.275  1.00  0.00    -0.014 A 
BRANCH  13  14
ATOM     14  C   UNL A   1      39.759  29.265  29.366  1.00  0.00     0.031 A 
ATOM     15  C   UNL A   1      40.288  29.060  30.750  1.00  0.00     0.074 A 
ATOM     16  C   UNL A   1      40.420  28.690  28.343  1.00  0.00     0.049 A 
ATOM     17  N   UNL A   1      41.403  29.477  31.261  1.00  0.00    -0.248 NA
ATOM     18  C   UNL A   1      39.441  28.314  31.694  1.00  0.00     0.031 C 
ATOM     19  C   UNL A   1      39.948  28.451  26.980  1.00  0.00     0.029 A 
ATOM     20  N   UNL A   1      41.652  28.097  28.360  1.00  0.00    -0.354 N 
ATOM     21  C   UNL A   1      41.474  28.931  32.542  1.00  0.00     0.074 A 
ATOM     22  C   UNL A   1      40.203  28.297  32.788  1.00  0.00     0.031 C 
ATOM     23  C   UNL A   1      40.794  27.593  26.365  1.00  0.00     0.029 A 
ATOM     24  C   UNL A   1      41.923  27.324  27.244  1.00  0.00     0.049 A 
ATOM     25  H   UNL A   1      42.291  28.210  29.101  1.00  0.00     0.167 HD
ATOM     26  C   UNL A   1      42.627  28.900  33.267  1.00  0.00     0.037 A 
ATOM     27  C   UNL A   1      42.968  26.479  27.074  1.00  0.00     0.037 A 
ATOM     28  C   UNL A   1      43.619  29.803  32.756  1.00  0.00     0.049 A 
ATOM     29  C   UNL A   1      44.023  26.831  28.053  1.00  0.00     0.074 A 
ATOM     30  C   UNL A   1      43.697  31.167  32.563  1.00  0.00     0.029 A 
ATOM     31  N   UNL A   1      44.693  29.276  32.088  1.00  0.00    -0.354 N 
ATOM     32  N   UNL A   1      44.772  27.894  27.988  1.00  0.00    -0.248 NA
ATOM     33  C   UNL A   1      44.037  26.137  29.332  1.00  0.00     0.031 C 
ATOM     34  C   UNL A   1      44.513  31.332  31.405  1.00  0.00     0.029 A 
ATOM     35  C   UNL A   1      44.883  30.056  30.979  1.00  0.00     0.049 A 
ATOM     36  H   UNL A   1      45.225  28.490  32.353  1.00  0.00     0.167 HD
ATOM     37  C   UNL A   1      45.017  28.236  29.309  1.00  0.00     0.074 A 
ATOM     38  C   UNL A   1      44.657  27.052  30.080  1.00  0.00     0.031 C 
ATOM     39  C   UNL A   1      45.219  29.533  29.677  1.00  0.00     0.037 A 
BRANCH  26  40
ATOM     40  C   UNL A   1      42.974  27.839  34.280  1.00  0.00     0.057 A 
ATOM     41  C   UNL A   1      43.275  26.533  33.852  1.00  0.00     0.134 A 
ATOM     42  C   UNL A   1      42.740  27.981  35.661  1.00  0.00     0.134 A 
ATOM     43  F   UNL A   1      43.490  26.266  32.555  1.00  0.00    -0.206 F 
ATOM     44  C   UNL A   1      43.288  25.440  34.726  1.00  0.00     0.040 A 
ATOM     45  C   UNL A   1      42.800  26.904  36.552  1.00  0.00     0.040 A 
ATOM     46  F   UNL A   1      42.347  29.143  36.197  1.00  0.00    -0.206 F 
ATOM     47  C   UNL A   1      43.047  25.623  36.082  1.00  0.00     0.006 A 
ENDBRANCH  26  40
BRANCH  27  48
ATOM     48  C   UNL A   1      43.046  25.248  26.259  1.00  0.00     0.057 A 
ATOM     49  C   UNL A   1      44.029  25.088  25.272  1.00  0.00     0.134 A 
ATOM     50  C   UNL A   1      42.320  24.094  26.600  1.00  0.00     0.134 A 
ATOM     51  F   UNL A   1      44.806  26.118  24.908  1.00  0.00    -0.206 F 
ATOM     52  C   UNL A   1      44.285  23.849  24.670  1.00  0.00     0.040 A 
ATOM     53  C   UNL A   1      42.557  22.854  25.999  1.00  0.00     0.040 A 
ATOM     54  F   UNL A   1      41.416  24.112  27.589  1.00  0.00    -0.206 F 
ATOM     55  C   UNL A   1      43.553  22.725  25.039  1.00  0.00     0.006 A 
ENDBRANCH  27  48
BRANCH  39  56
ATOM     56  C   UNL A   1      45.505  30.536  28.598  1.00  0.00     0.057 A 
ATOM     57  C   UNL A   1      44.510  31.167  27.837  1.00  0.00     0.134 A 
ATOM     58  C   UNL A   1      46.820  30.983  28.423  1.00  0.00     0.134 A 
ATOM     59  F   UNL A   1      43.213  30.883  28.016  1.00  0.00    -0.206 F 
ATOM     60  C   UNL A   1      44.821  32.160  26.904  1.00  0.00     0.040 A 
ATOM     61  C   UNL A   1      47.138  32.000  27.520  1.00  0.00     0.040 A 
ATOM     62  F   UNL A   1      47.815  30.468  29.164  1.00  0.00    -0.206 F 
ATOM     63  C   UNL A   1      46.138  32.584  26.748  1.00  0.00     0.006 A 
ENDBRANCH  39  56
ENDBRANCH  13  14
ENDBRANCH   6   8
ENDBRANCH   3   4
ENDBRANCH   2   3
ENDBRANCH   1   2
BRANCH   1  64
ATOM     64  C   UNL A   1      32.028  27.083  26.504  1.00  0.00     0.002 C 
BRANCH  64  65
ATOM     65  C   UNL A   1      30.820  26.219  26.106  1.00  0.00     0.021 C 
BRANCH  65  66
ATOM     66  C   UNL A   1      31.099  24.746  25.785  1.00  0.00     0.116 C 
BRANCH  66  67
ATOM     67  N   UNL A   1      31.502  23.985  26.954  1.00  0.00    -0.354 N 
ATOM     68  C   UNL A   1      32.576  23.167  27.141  1.00  0.00     0.243 C 
ATOM     69  H   UNL A   1      30.905  24.072  27.732  1.00  0.00     0.163 HD
ATOM     70  O   UNL A   1      32.653  22.576  28.223  1.00  0.00    -0.273 OA
BRANCH  68  71
ATOM     71  C   UNL A   1      33.559  22.817  26.003  1.00  0.00     0.181 C 
ATOM     72  C   UNL A   1      34.885  23.518  26.444  1.00  0.00     0.091 C 
ATOM     73  N   UNL A   1      33.611  21.369  25.588  1.00  0.00    -0.320 N 
ATOM     74  C   UNL A   1      36.071  22.767  26.022  1.00  0.00     0.042 A 
ATOM     75  C   UNL A   1      34.860  20.783  25.044  1.00  0.00     0.178 C 
ATOM     76  N   UNL A   1      37.380  23.121  26.164  1.00  0.00    -0.348 N 
ATOM     77  C   UNL A   1      36.071  21.538  25.426  1.00  0.00     0.081 A 
ATOM     78  C   UNL A   1      38.122  22.091  25.652  1.00  0.00     0.197 A 
ATOM     79  H   UNL A   1      37.725  23.955  26.557  1.00  0.00     0.167 HD
ATOM     80  N   UNL A   1      37.357  21.121  25.198  1.00  0.00    -0.240 NA
BRANCH  73  81
ATOM     81  C   UNL A   1      32.472  20.648  25.168  1.00  0.00     0.256 C 
ATOM     82  O   UNL A   1      31.322  21.049  25.334  1.00  0.00    -0.269 OA
BRANCH  81  83
ATOM     83  C   UNL A   1      32.616  19.417  24.377  1.00  0.00     0.061 A 
ATOM     84  C   UNL A   1      33.058  18.290  25.069  1.00  0.00     0.035 A 
ATOM     85  C   UNL A   1      32.376  19.342  23.011  1.00  0.00     0.072 A 
ATOM     86  C   UNL A   1      33.107  17.083  24.400  1.00  0.00     0.112 A 
ATOM     87  C   UNL A   1      32.465  18.087  22.427  1.00  0.00     0.132 A 
ATOM     88  Cl  UNL A   1      32.025  20.713  22.036  1.00  0.00    -0.082 Cl
ATOM     89  N   UNL A   1      32.801  16.954  23.095  1.00  0.00    -0.263 NA
ENDBRANCH  81  83
ENDBRANCH  73  81
ENDBRANCH  68  71
ENDBRANCH  66  67
ENDBRANCH  65  66
ENDBRANCH  64  65
ENDBRANCH   1  64
TORSDOF 15
ENDMDL
