MODEL 1
REMARK VINA RESULT:     -12.9      0.000      0.000
REMARK SMILES Cc1ccccc1NC(=O)CSc1nc(C(=O)NCCCCCCNC(=O)c2ccc(-c3c4nc(c(-c5c(F)cccc5F)c5ccc([nH]5)c(-c5c(F)cccc5F)c5nc(c(-c6c(F)cccc6F)c6ccc3[nH]6)C=C5)C=C4)cc2)c2ccccc2n1
REMARK SMILES IDX 20 1 19 2 18 3 16 4 17 5 15 7 13 8 14 9 88 10 87 11 82 12
REMARK SMILES IDX 86 13 83 14 85 15 84 16 12 17 11 18 9 19 8 20 10 22 7 23
REMARK SMILES IDX 1 24 2 25 3 26 4 27 6 28 5 29 21 30 22 31 23 32 24 33 25 34
REMARK SMILES IDX 26 35 27 37 28 38 29 39 81 40 30 41 80 42 31 43 32 44 33 45
REMARK SMILES IDX 74 46 34 47 79 48 73 49 75 50 35 51 78 52 72 53 71 54 36 56
REMARK SMILES IDX 62 57 45 58 61 59 46 60 49 61 60 62 76 63 47 64 48 65 59 67
REMARK SMILES IDX 77 68 50 69 37 70 38 71 43 72 39 73 40 74 42 75 44 76 41 77
REMARK SMILES IDX 63 78 64 79 69 80 65 81 66 82 68 83 70 84 67 85 51 86 52 87
REMARK SMILES IDX 57 88 53 89 54 90 56 91 58 92 55 93
REMARK H PARENT 18 6 8 21 25 36 75 55 49 66
REMARK Flexibility Score: inf
ROOT
ATOM      1  C   UNL A   1      36.860  21.911  24.496  1.00  0.00     0.021 C 
ENDROOT
BRANCH   1   2
ATOM      2  C   UNL A   1      36.172  20.779  25.257  1.00  0.00     0.116 C 
BRANCH   2   3
ATOM      3  N   UNL A   1      35.360  21.160  26.392  1.00  0.00    -0.351 N 
ATOM      4  C   UNL A   1      33.985  21.303  26.487  1.00  0.00     0.270 C 
ATOM      5  O   UNL A   1      33.507  21.535  27.597  1.00  0.00    -0.267 OA
ATOM      6  H   UNL A   1      35.859  21.345  27.221  1.00  0.00     0.163 HD
BRANCH   4   7
ATOM      7  C   UNL A   1      33.084  21.277  25.280  1.00  0.00     0.140 A 
ATOM      8  C   UNL A   1      31.868  22.580  23.863  1.00  0.00     0.189 A 
ATOM      9  N   UNL A   1      32.572  22.497  24.989  1.00  0.00    -0.217 NA
ATOM     10  N   UNL A   1      31.740  21.597  22.965  1.00  0.00    -0.222 NA
ATOM     11  C   UNL A   1      32.235  20.400  23.281  1.00  0.00     0.076 A 
ATOM     12  C   UNL A   1      32.857  20.133  24.502  1.00  0.00     0.032 A 
ATOM     13  C   UNL A   1      32.132  19.378  22.344  1.00  0.00     0.029 A 
ATOM     14  C   UNL A   1      33.191  18.791  24.821  1.00  0.00     0.013 A 
ATOM     15  C   UNL A   1      32.579  18.083  22.612  1.00  0.00     0.002 A 
ATOM     16  C   UNL A   1      33.080  17.780  23.868  1.00  0.00     0.001 A 
BRANCH   8  17
ATOM     17  S   UNL A   1      31.134  24.129  23.440  1.00  0.00    -0.076 SA
BRANCH  17  18
ATOM     18  C   UNL A   1      32.424  24.807  22.356  1.00  0.00     0.178 C 
BRANCH  18  19
ATOM     19  C   UNL A   1      33.764  24.999  23.033  1.00  0.00     0.234 C 
ATOM     20  N   UNL A   1      34.051  25.946  23.968  1.00  0.00    -0.325 N 
ATOM     21  H   UNL A   1      35.001  25.933  24.223  1.00  0.00     0.169 HD
ATOM     22  O   UNL A   1      34.713  24.267  22.713  1.00  0.00    -0.274 OA
BRANCH  20  23
ATOM     23  C   UNL A   1      33.336  26.941  24.666  1.00  0.00     0.044 A 
ATOM     24  C   UNL A   1      34.008  28.711  22.888  1.00  0.00     0.046 C 
ATOM     25  C   UNL A   1      33.371  28.272  24.183  1.00  0.00    -0.027 A 
ATOM     26  C   UNL A   1      32.806  29.307  24.959  1.00  0.00     0.005 A 
ATOM     27  C   UNL A   1      32.164  29.037  26.161  1.00  0.00     0.000 A 
ATOM     28  C   UNL A   1      32.610  26.688  25.834  1.00  0.00     0.026 A 
ATOM     29  C   UNL A   1      32.043  27.723  26.584  1.00  0.00     0.002 A 
ENDBRANCH  20  23
ENDBRANCH  18  19
ENDBRANCH  17  18
ENDBRANCH   8  17
ENDBRANCH   4   7
ENDBRANCH   2   3
ENDBRANCH   1   2
BRANCH   1  30
ATOM     30  C   UNL A   1      37.020  23.284  25.165  1.00  0.00     0.002 C 
BRANCH  30  31
ATOM     31  C   UNL A   1      38.194  23.554  26.118  1.00  0.00     0.002 C 
BRANCH  31  32
ATOM     32  C   UNL A   1      39.213  22.442  26.355  1.00  0.00     0.021 C 
BRANCH  32  33
ATOM     33  C   UNL A   1      40.238  22.698  27.451  1.00  0.00     0.116 C 
BRANCH  33  34
ATOM     34  N   UNL A   1      41.517  23.221  26.975  1.00  0.00    -0.352 N 
ATOM     35  C   UNL A   1      41.893  24.549  26.816  1.00  0.00     0.251 C 
ATOM     36  H   UNL A   1      42.197  22.550  26.738  1.00  0.00     0.163 HD
ATOM     37  O   UNL A   1      43.021  24.855  26.475  1.00  0.00    -0.269 OA
BRANCH  35  38
ATOM     38  C   UNL A   1      40.914  25.596  27.196  1.00  0.00     0.039 A 
ATOM     39  C   UNL A   1      40.855  26.747  26.408  1.00  0.00     0.014 A 
ATOM     40  C   UNL A   1      40.300  25.553  28.444  1.00  0.00     0.014 A 
ATOM     41  C   UNL A   1      40.429  27.938  26.988  1.00  0.00     0.010 A 
ATOM     42  C   UNL A   1      39.963  26.748  29.051  1.00  0.00     0.010 A 
ATOM     43  C   UNL A   1      40.117  27.950  28.347  1.00  0.00    -0.014 A 
BRANCH  43  44
ATOM     44  C   UNL A   1      40.106  29.176  29.141  1.00  0.00     0.031 A 
ATOM     45  C   UNL A   1      39.048  30.188  28.962  1.00  0.00     0.074 A 
ATOM     46  C   UNL A   1      41.049  29.357  30.092  1.00  0.00     0.049 A 
ATOM     47  N   UNL A   1      39.129  31.409  29.371  1.00  0.00    -0.248 NA
ATOM     48  C   UNL A   1      37.822  29.907  28.233  1.00  0.00     0.031 C 
ATOM     49  C   UNL A   1      41.074  30.370  31.143  1.00  0.00     0.029 A 
ATOM     50  N   UNL A   1      42.333  28.793  30.124  1.00  0.00    -0.354 N 
ATOM     51  C   UNL A   1      37.897  31.998  29.208  1.00  0.00     0.074 A 
ATOM     52  C   UNL A   1      37.150  31.047  28.418  1.00  0.00     0.031 C 
ATOM     53  C   UNL A   1      42.349  30.590  31.497  1.00  0.00     0.029 A 
ATOM     54  C   UNL A   1      43.185  29.822  30.591  1.00  0.00     0.049 A 
ATOM     55  H   UNL A   1      42.587  27.875  29.875  1.00  0.00     0.167 HD
ATOM     56  C   UNL A   1      37.636  33.168  29.863  1.00  0.00     0.037 A 
ATOM     57  C   UNL A   1      44.159  30.337  29.787  1.00  0.00     0.037 A 
ATOM     58  C   UNL A   1      38.860  33.738  30.443  1.00  0.00     0.049 A 
ATOM     59  C   UNL A   1      44.020  31.815  29.480  1.00  0.00     0.074 A 
ATOM     60  C   UNL A   1      39.407  33.818  31.714  1.00  0.00     0.029 A 
ATOM     61  N   UNL A   1      39.869  34.130  29.579  1.00  0.00    -0.354 N 
ATOM     62  N   UNL A   1      43.041  32.571  29.893  1.00  0.00    -0.248 NA
ATOM     63  C   UNL A   1      44.935  32.530  28.586  1.00  0.00     0.031 C 
ATOM     64  C   UNL A   1      40.761  34.253  31.594  1.00  0.00     0.029 A 
ATOM     65  C   UNL A   1      41.034  34.436  30.252  1.00  0.00     0.049 A 
ATOM     66  H   UNL A   1      39.766  34.182  28.601  1.00  0.00     0.167 HD
ATOM     67  C   UNL A   1      43.142  33.806  29.305  1.00  0.00     0.074 A 
ATOM     68  C   UNL A   1      44.346  33.735  28.500  1.00  0.00     0.031 C 
ATOM     69  C   UNL A   1      42.210  34.787  29.473  1.00  0.00     0.037 A 
BRANCH  56  70
ATOM     70  C   UNL A   1      36.244  33.702  30.167  1.00  0.00     0.057 A 
ATOM     71  C   UNL A   1      35.399  34.134  29.123  1.00  0.00     0.134 A 
ATOM     72  C   UNL A   1      35.695  33.894  31.447  1.00  0.00     0.134 A 
ATOM     73  F   UNL A   1      35.711  33.940  27.834  1.00  0.00    -0.206 F 
ATOM     74  C   UNL A   1      34.181  34.797  29.341  1.00  0.00     0.040 A 
ATOM     75  C   UNL A   1      34.500  34.592  31.683  1.00  0.00     0.040 A 
ATOM     76  F   UNL A   1      36.240  33.366  32.544  1.00  0.00    -0.206 F 
ATOM     77  C   UNL A   1      33.743  35.061  30.626  1.00  0.00     0.006 A 
ENDBRANCH  56  70
BRANCH  57  78
ATOM     78  C   UNL A   1      44.748  29.324  28.870  1.00  0.00     0.057 A 
ATOM     79  C   UNL A   1      44.261  29.241  27.552  1.00  0.00     0.134 A 
ATOM     80  C   UNL A   1      45.967  28.699  29.138  1.00  0.00     0.134 A 
ATOM     81  F   UNL A   1      43.095  29.821  27.225  1.00  0.00    -0.206 F 
ATOM     82  C   UNL A   1      45.009  28.665  26.524  1.00  0.00     0.040 A 
ATOM     83  C   UNL A   1      46.716  28.100  28.119  1.00  0.00     0.040 A 
ATOM     84  F   UNL A   1      46.512  28.756  30.362  1.00  0.00    -0.206 F 
ATOM     85  C   UNL A   1      46.257  28.117  26.803  1.00  0.00     0.006 A 
ENDBRANCH  57  78
BRANCH  69  86
ATOM     86  C   UNL A   1      42.335  36.158  28.867  1.00  0.00     0.057 A 
ATOM     87  C   UNL A   1      41.796  36.479  27.613  1.00  0.00     0.134 A 
ATOM     88  C   UNL A   1      43.103  37.169  29.476  1.00  0.00     0.134 A 
ATOM     89  F   UNL A   1      41.105  35.573  26.906  1.00  0.00    -0.206 F 
ATOM     90  C   UNL A   1      41.964  37.740  27.027  1.00  0.00     0.040 A 
ATOM     91  C   UNL A   1      43.318  38.415  28.879  1.00  0.00     0.040 A 
ATOM     92  F   UNL A   1      43.658  37.001  30.684  1.00  0.00    -0.206 F 
ATOM     93  C   UNL A   1      42.737  38.710  27.655  1.00  0.00     0.006 A 
ENDBRANCH  69  86
ENDBRANCH  43  44
ENDBRANCH  35  38
ENDBRANCH  33  34
ENDBRANCH  32  33
ENDBRANCH  31  32
ENDBRANCH  30  31
ENDBRANCH   1  30
TORSDOF 17
ENDMDL
MODEL 2
REMARK VINA RESULT:     -12.5      2.728      4.153
REMARK SMILES Cc1ccccc1NC(=O)CSc1nc(C(=O)NCCCCCCNC(=O)c2ccc(-c3c4nc(c(-c5c(F)cccc5F)c5ccc([nH]5)c(-c5c(F)cccc5F)c5nc(c(-c6c(F)cccc6F)c6ccc3[nH]6)C=C5)C=C4)cc2)c2ccccc2n1
REMARK SMILES IDX 20 1 19 2 18 3 16 4 17 5 15 7 13 8 14 9 88 10 87 11 82 12
REMARK SMILES IDX 86 13 83 14 85 15 84 16 12 17 11 18 9 19 8 20 10 22 7 23
REMARK SMILES IDX 1 24 2 25 3 26 4 27 6 28 5 29 21 30 22 31 23 32 24 33 25 34
REMARK SMILES IDX 26 35 27 37 28 38 29 39 81 40 30 41 80 42 31 43 32 44 33 45
REMARK SMILES IDX 74 46 34 47 79 48 73 49 75 50 35 51 78 52 72 53 71 54 36 56
REMARK SMILES IDX 62 57 45 58 61 59 46 60 49 61 60 62 76 63 47 64 48 65 59 67
REMARK SMILES IDX 77 68 50 69 37 70 38 71 43 72 39 73 40 74 42 75 44 76 41 77
REMARK SMILES IDX 63 78 64 79 69 80 65 81 66 82 68 83 70 84 67 85 51 86 52 87
REMARK SMILES IDX 57 88 53 89 54 90 56 91 58 92 55 93
REMARK H PARENT 18 6 8 21 25 36 75 55 49 66
REMARK Flexibility Score: inf
ROOT
ATOM      1  C   UNL A   1      38.116  21.444  25.404  1.00  0.00     0.021 C 
ENDROOT
BRANCH   1   2
ATOM      2  C   UNL A   1      36.605  21.441  25.184  1.00  0.00     0.116 C 
BRANCH   2   3
ATOM      3  N   UNL A   1      35.776  21.501  26.368  1.00  0.00    -0.351 N 
ATOM      4  C   UNL A   1      34.399  21.395  26.489  1.00  0.00     0.270 C 
ATOM      5  O   UNL A   1      33.923  21.370  27.624  1.00  0.00    -0.267 OA
ATOM      6  H   UNL A   1      36.262  21.640  27.213  1.00  0.00     0.163 HD
BRANCH   4   7
ATOM      7  C   UNL A   1      33.479  21.402  25.297  1.00  0.00     0.140 A 
ATOM      8  C   UNL A   1      32.444  22.748  23.780  1.00  0.00     0.189 A 
ATOM      9  N   UNL A   1      33.151  22.656  24.903  1.00  0.00    -0.217 NA
ATOM     10  N   UNL A   1      32.150  21.722  22.973  1.00  0.00    -0.222 NA
ATOM     11  C   UNL A   1      32.464  20.495  23.390  1.00  0.00     0.076 A 
ATOM     12  C   UNL A   1      33.065  20.243  24.625  1.00  0.00     0.032 A 
ATOM     13  C   UNL A   1      32.188  19.424  22.548  1.00  0.00     0.029 A 
ATOM     14  C   UNL A   1      33.199  18.898  25.059  1.00  0.00     0.013 A 
ATOM     15  C   UNL A   1      32.439  18.104  22.927  1.00  0.00     0.002 A 
ATOM     16  C   UNL A   1      32.916  17.837  24.201  1.00  0.00     0.001 A 
BRANCH   8  17
ATOM     17  S   UNL A   1      31.943  24.348  23.227  1.00  0.00    -0.076 SA
BRANCH  17  18
ATOM     18  C   UNL A   1      33.453  25.294  23.581  1.00  0.00     0.178 C 
BRANCH  18  19
ATOM     19  C   UNL A   1      33.548  26.610  22.841  1.00  0.00     0.234 C 
ATOM     20  N   UNL A   1      33.340  27.841  23.382  1.00  0.00    -0.325 N 
ATOM     21  H   UNL A   1      33.388  28.553  22.704  1.00  0.00     0.169 HD
ATOM     22  O   UNL A   1      33.810  26.603  21.628  1.00  0.00    -0.274 OA
BRANCH  20  23
ATOM     23  C   UNL A   1      33.073  28.360  24.667  1.00  0.00     0.044 A 
ATOM     24  C   UNL A   1      30.764  29.236  23.864  1.00  0.00     0.046 C 
ATOM     25  C   UNL A   1      31.872  29.081  24.876  1.00  0.00    -0.027 A 
ATOM     26  C   UNL A   1      31.669  29.750  26.102  1.00  0.00     0.005 A 
ATOM     27  C   UNL A   1      32.600  29.667  27.130  1.00  0.00     0.000 A 
ATOM     28  C   UNL A   1      33.951  28.223  25.747  1.00  0.00     0.026 A 
ATOM     29  C   UNL A   1      33.727  28.881  26.960  1.00  0.00     0.002 A 
ENDBRANCH  20  23
ENDBRANCH  18  19
ENDBRANCH  17  18
ENDBRANCH   8  17
ENDBRANCH   4   7
ENDBRANCH   2   3
ENDBRANCH   1   2
BRANCH   1  30
ATOM     30  C   UNL A   1      38.763  22.593  26.192  1.00  0.00     0.002 C 
BRANCH  30  31
ATOM     31  C   UNL A   1      40.154  22.421  26.818  1.00  0.00     0.002 C 
BRANCH  31  32
ATOM     32  C   UNL A   1      40.659  21.007  27.099  1.00  0.00     0.021 C 
BRANCH  32  33
ATOM     33  C   UNL A   1      42.166  20.854  27.252  1.00  0.00     0.116 C 
BRANCH  33  34
ATOM     34  N   UNL A   1      42.817  20.137  26.159  1.00  0.00    -0.352 N 
ATOM     35  C   UNL A   1      43.742  20.626  25.245  1.00  0.00     0.251 C 
ATOM     36  H   UNL A   1      42.571  19.190  26.056  1.00  0.00     0.163 HD
ATOM     37  O   UNL A   1      44.267  19.901  24.419  1.00  0.00    -0.269 OA
BRANCH  35  38
ATOM     38  C   UNL A   1      44.173  22.038  25.384  1.00  0.00     0.039 A 
ATOM     39  C   UNL A   1      45.227  22.314  26.256  1.00  0.00     0.014 A 
ATOM     40  C   UNL A   1      43.368  23.062  24.891  1.00  0.00     0.014 A 
ATOM     41  C   UNL A   1      45.296  23.569  26.854  1.00  0.00     0.010 A 
ATOM     42  C   UNL A   1      43.376  24.277  25.548  1.00  0.00     0.010 A 
ATOM     43  C   UNL A   1      44.284  24.493  26.593  1.00  0.00    -0.014 A 
BRANCH  43  44
ATOM     44  C   UNL A   1      44.004  25.622  27.477  1.00  0.00     0.031 A 
ATOM     45  C   UNL A   1      42.723  26.348  27.401  1.00  0.00     0.074 A 
ATOM     46  C   UNL A   1      44.913  25.969  28.416  1.00  0.00     0.049 A 
ATOM     47  N   UNL A   1      42.517  27.520  27.899  1.00  0.00    -0.248 NA
ATOM     48  C   UNL A   1      41.574  25.819  26.683  1.00  0.00     0.031 C 
ATOM     49  C   UNL A   1      44.732  26.884  29.539  1.00  0.00     0.029 A 
ATOM     50  N   UNL A   1      46.297  25.743  28.374  1.00  0.00    -0.354 N 
ATOM     51  C   UNL A   1      41.172  27.793  27.811  1.00  0.00     0.074 A 
ATOM     52  C   UNL A   1      40.650  26.740  26.970  1.00  0.00     0.031 C 
ATOM     53  C   UNL A   1      45.927  27.391  29.877  1.00  0.00     0.029 A 
ATOM     54  C   UNL A   1      46.887  26.918  28.895  1.00  0.00     0.049 A 
ATOM     55  H   UNL A   1      46.759  24.935  28.050  1.00  0.00     0.167 HD
ATOM     56  C   UNL A   1      40.658  28.815  28.558  1.00  0.00     0.037 A 
ATOM     57  C   UNL A   1      47.669  27.712  28.108  1.00  0.00     0.037 A 
ATOM     58  C   UNL A   1      41.727  29.632  29.148  1.00  0.00     0.049 A 
ATOM     59  C   UNL A   1      47.156  29.126  27.916  1.00  0.00     0.074 A 
ATOM     60  C   UNL A   1      42.290  29.761  30.408  1.00  0.00     0.029 A 
ATOM     61  N   UNL A   1      42.569  30.319  28.292  1.00  0.00    -0.354 N 
ATOM     62  N   UNL A   1      46.039  29.585  28.409  1.00  0.00    -0.248 NA
ATOM     63  C   UNL A   1      47.827  30.104  27.057  1.00  0.00     0.031 C 
ATOM     64  C   UNL A   1      43.489  30.527  30.288  1.00  0.00     0.029 A 
ATOM     65  C   UNL A   1      43.650  30.862  28.956  1.00  0.00     0.049 A 
ATOM     66  H   UNL A   1      42.416  30.410  27.324  1.00  0.00     0.167 HD
ATOM     67  C   UNL A   1      45.807  30.841  27.914  1.00  0.00     0.074 A 
ATOM     68  C   UNL A   1      46.955  31.127  27.075  1.00  0.00     0.031 C 
ATOM     69  C   UNL A   1      44.669  31.546  28.178  1.00  0.00     0.037 A 
BRANCH  56  70
ATOM     70  C   UNL A   1      39.191  28.963  28.935  1.00  0.00     0.057 A 
ATOM     71  C   UNL A   1      38.268  29.511  28.019  1.00  0.00     0.134 A 
ATOM     72  C   UNL A   1      38.628  28.667  30.189  1.00  0.00     0.134 A 
ATOM     73  F   UNL A   1      38.600  29.763  26.746  1.00  0.00    -0.206 F 
ATOM     74  C   UNL A   1      36.946  29.838  28.360  1.00  0.00     0.040 A 
ATOM     75  C   UNL A   1      37.322  29.026  30.557  1.00  0.00     0.040 A 
ATOM     76  F   UNL A   1      39.276  27.957  31.112  1.00  0.00    -0.206 F 
ATOM     77  C   UNL A   1      36.477  29.630  29.645  1.00  0.00     0.006 A 
ENDBRANCH  56  70
BRANCH  57  78
ATOM     78  C   UNL A   1      48.450  26.941  27.104  1.00  0.00     0.057 A 
ATOM     79  C   UNL A   1      47.928  26.801  25.805  1.00  0.00     0.134 A 
ATOM     80  C   UNL A   1      49.804  26.650  27.280  1.00  0.00     0.134 A 
ATOM     81  F   UNL A   1      46.634  27.066  25.564  1.00  0.00    -0.206 F 
ATOM     82  C   UNL A   1      48.741  26.498  24.711  1.00  0.00     0.040 A 
ATOM     83  C   UNL A   1      50.625  26.325  26.194  1.00  0.00     0.040 A 
ATOM     84  F   UNL A   1      50.383  26.786  28.481  1.00  0.00    -0.206 F 
ATOM     85  C   UNL A   1      50.102  26.288  24.901  1.00  0.00     0.006 A 
ENDBRANCH  57  78
BRANCH  69  86
ATOM     86  C   UNL A   1      44.426  32.941  27.673  1.00  0.00     0.057 A 
ATOM     87  C   UNL A   1      43.997  33.206  26.364  1.00  0.00     0.134 A 
ATOM     88  C   UNL A   1      44.726  34.074  28.454  1.00  0.00     0.134 A 
ATOM     89  F   UNL A   1      43.748  32.206  25.505  1.00  0.00    -0.206 F 
ATOM     90  C   UNL A   1      43.827  34.509  25.881  1.00  0.00     0.040 A 
ATOM     91  C   UNL A   1      44.606  35.380  27.968  1.00  0.00     0.040 A 
ATOM     92  F   UNL A   1      45.127  33.964  29.729  1.00  0.00    -0.206 F 
ATOM     93  C   UNL A   1      44.143  35.602  26.680  1.00  0.00     0.006 A 
ENDBRANCH  69  86
ENDBRANCH  43  44
ENDBRANCH  35  38
ENDBRANCH  33  34
ENDBRANCH  32  33
ENDBRANCH  31  32
ENDBRANCH  30  31
ENDBRANCH   1  30
TORSDOF 17
ENDMDL
MODEL 3
REMARK VINA RESULT:     -12.5      3.690      8.918
REMARK SMILES Cc1ccccc1NC(=O)CSc1nc(C(=O)NCCCCCCNC(=O)c2ccc(-c3c4nc(c(-c5c(F)cccc5F)c5ccc([nH]5)c(-c5c(F)cccc5F)c5nc(c(-c6c(F)cccc6F)c6ccc3[nH]6)C=C5)C=C4)cc2)c2ccccc2n1
REMARK SMILES IDX 20 1 19 2 18 3 16 4 17 5 15 7 13 8 14 9 88 10 87 11 82 12
REMARK SMILES IDX 86 13 83 14 85 15 84 16 12 17 11 18 9 19 8 20 10 22 7 23
REMARK SMILES IDX 1 24 2 25 3 26 4 27 6 28 5 29 21 30 22 31 23 32 24 33 25 34
REMARK SMILES IDX 26 35 27 37 28 38 29 39 81 40 30 41 80 42 31 43 32 44 33 45
REMARK SMILES IDX 74 46 34 47 79 48 73 49 75 50 35 51 78 52 72 53 71 54 36 56
REMARK SMILES IDX 62 57 45 58 61 59 46 60 49 61 60 62 76 63 47 64 48 65 59 67
REMARK SMILES IDX 77 68 50 69 37 70 38 71 43 72 39 73 40 74 42 75 44 76 41 77
REMARK SMILES IDX 63 78 64 79 69 80 65 81 66 82 68 83 70 84 67 85 51 86 52 87
REMARK SMILES IDX 57 88 53 89 54 90 56 91 58 92 55 93
REMARK H PARENT 18 6 8 21 25 36 75 55 49 66
REMARK Flexibility Score: inf
ROOT
ATOM      1  C   UNL A   1      32.402  29.281  26.983  1.00  0.00     0.021 C 
ENDROOT
BRANCH   1   2
ATOM      2  C   UNL A   1      32.021  30.047  25.718  1.00  0.00     0.116 C 
BRANCH   2   3
ATOM      3  N   UNL A   1      32.789  29.756  24.527  1.00  0.00    -0.351 N 
ATOM      4  C   UNL A   1      32.468  28.955  23.442  1.00  0.00     0.270 C 
ATOM      5  O   UNL A   1      33.245  28.945  22.487  1.00  0.00    -0.267 OA
ATOM      6  H   UNL A   1      33.670  30.192  24.481  1.00  0.00     0.163 HD
BRANCH   4   7
ATOM      7  C   UNL A   1      31.270  28.042  23.436  1.00  0.00     0.140 A 
ATOM      8  C   UNL A   1      30.557  25.940  23.939  1.00  0.00     0.189 A 
ATOM      9  N   UNL A   1      31.582  26.774  23.798  1.00  0.00    -0.217 NA
ATOM     10  N   UNL A   1      29.268  26.290  23.869  1.00  0.00    -0.222 NA
ATOM     11  C   UNL A   1      28.984  27.537  23.491  1.00  0.00     0.076 A 
ATOM     12  C   UNL A   1      29.966  28.472  23.157  1.00  0.00     0.032 A 
ATOM     13  C   UNL A   1      27.648  27.921  23.441  1.00  0.00     0.029 A 
ATOM     14  C   UNL A   1      29.566  29.713  22.596  1.00  0.00     0.013 A 
ATOM     15  C   UNL A   1      27.261  29.191  23.010  1.00  0.00     0.002 A 
ATOM     16  C   UNL A   1      28.222  30.080  22.553  1.00  0.00     0.001 A 
BRANCH   8  17
ATOM     17  S   UNL A   1      30.889  24.260  24.369  1.00  0.00    -0.076 SA
BRANCH  17  18
ATOM     18  C   UNL A   1      31.201  24.442  26.149  1.00  0.00     0.178 C 
BRANCH  18  19
ATOM     19  C   UNL A   1      31.152  23.143  26.923  1.00  0.00     0.234 C 
ATOM     20  N   UNL A   1      32.106  22.172  26.903  1.00  0.00    -0.325 N 
ATOM     21  H   UNL A   1      31.837  21.384  27.428  1.00  0.00     0.169 HD
ATOM     22  O   UNL A   1      30.160  22.895  27.625  1.00  0.00    -0.274 OA
BRANCH  20  23
ATOM     23  C   UNL A   1      33.381  22.006  26.324  1.00  0.00     0.044 A 
ATOM     24  C   UNL A   1      32.528  19.964  24.964  1.00  0.00     0.046 C 
ATOM     25  C   UNL A   1      33.596  20.912  25.450  1.00  0.00    -0.027 A 
ATOM     26  C   UNL A   1      34.903  20.632  24.997  1.00  0.00     0.005 A 
ATOM     27  C   UNL A   1      35.976  21.443  25.348  1.00  0.00     0.000 A 
ATOM     28  C   UNL A   1      34.461  22.852  26.591  1.00  0.00     0.026 A 
ATOM     29  C   UNL A   1      35.748  22.568  26.123  1.00  0.00     0.002 A 
ENDBRANCH  20  23
ENDBRANCH  18  19
ENDBRANCH  17  18
ENDBRANCH   8  17
ENDBRANCH   4   7
ENDBRANCH   2   3
ENDBRANCH   1   2
BRANCH   1  30
ATOM     30  C   UNL A   1      33.762  28.572  27.056  1.00  0.00     0.002 C 
BRANCH  30  31
ATOM     31  C   UNL A   1      35.023  29.348  27.464  1.00  0.00     0.002 C 
BRANCH  31  32
ATOM     32  C   UNL A   1      34.905  30.846  27.733  1.00  0.00     0.021 C 
BRANCH  32  33
ATOM     33  C   UNL A   1      34.896  31.263  29.197  1.00  0.00     0.116 C 
BRANCH  33  34
ATOM     34  N   UNL A   1      34.073  32.433  29.490  1.00  0.00    -0.352 N 
ATOM     35  C   UNL A   1      34.448  33.604  30.137  1.00  0.00     0.251 C 
ATOM     36  H   UNL A   1      33.136  32.388  29.192  1.00  0.00     0.163 HD
ATOM     37  O   UNL A   1      33.678  34.541  30.257  1.00  0.00    -0.269 OA
BRANCH  35  38
ATOM     38  C   UNL A   1      35.860  33.734  30.570  1.00  0.00     0.039 A 
ATOM     39  C   UNL A   1      36.791  34.176  29.628  1.00  0.00     0.014 A 
ATOM     40  C   UNL A   1      36.275  33.160  31.769  1.00  0.00     0.014 A 
ATOM     41  C   UNL A   1      38.120  33.787  29.763  1.00  0.00     0.010 A 
ATOM     42  C   UNL A   1      37.573  32.695  31.859  1.00  0.00     0.010 A 
ATOM     43  C   UNL A   1      38.468  32.933  30.809  1.00  0.00    -0.014 A 
BRANCH  43  44
ATOM     44  C   UNL A   1      39.680  32.117  30.788  1.00  0.00     0.031 A 
ATOM     45  C   UNL A   1      39.702  30.803  30.120  1.00  0.00     0.074 A 
ATOM     46  C   UNL A   1      40.814  32.603  31.342  1.00  0.00     0.049 A 
ATOM     47  N   UNL A   1      40.598  29.897  30.319  1.00  0.00    -0.248 NA
ATOM     48  C   UNL A   1      38.651  30.381  29.207  1.00  0.00     0.031 C 
ATOM     49  C   UNL A   1      42.168  32.072  31.215  1.00  0.00     0.029 A 
ATOM     50  N   UNL A   1      40.910  33.554  32.368  1.00  0.00    -0.354 N 
ATOM     51  C   UNL A   1      40.411  28.898  29.393  1.00  0.00     0.074 A 
ATOM     52  C   UNL A   1      39.137  29.210  28.786  1.00  0.00     0.031 C 
ATOM     53  C   UNL A   1      42.877  32.441  32.292  1.00  0.00     0.029 A 
ATOM     54  C   UNL A   1      41.960  33.103  33.203  1.00  0.00     0.049 A 
ATOM     55  H   UNL A   1      40.363  34.365  32.482  1.00  0.00     0.167 HD
ATOM     56  C   UNL A   1      41.417  27.998  29.183  1.00  0.00     0.037 A 
ATOM     57  C   UNL A   1      41.712  32.724  34.489  1.00  0.00     0.037 A 
ATOM     58  C   UNL A   1      42.460  28.117  30.212  1.00  0.00     0.049 A 
ATOM     59  C   UNL A   1      42.040  31.277  34.804  1.00  0.00     0.074 A 
ATOM     60  C   UNL A   1      43.734  28.659  30.269  1.00  0.00     0.029 A 
ATOM     61  N   UNL A   1      42.115  27.837  31.523  1.00  0.00    -0.354 N 
ATOM     62  N   UNL A   1      42.487  30.411  33.938  1.00  0.00    -0.248 NA
ATOM     63  C   UNL A   1      41.784  30.671  36.113  1.00  0.00     0.031 C 
ATOM     64  C   UNL A   1      44.140  28.709  31.637  1.00  0.00     0.029 A 
ATOM     65  C   UNL A   1      43.112  28.197  32.407  1.00  0.00     0.049 A 
ATOM     66  H   UNL A   1      41.260  27.431  31.793  1.00  0.00     0.167 HD
ATOM     67  C   UNL A   1      42.524  29.169  34.516  1.00  0.00     0.074 A 
ATOM     68  C   UNL A   1      42.080  29.382  35.880  1.00  0.00     0.031 C 
ATOM     69  C   UNL A   1      42.865  28.040  33.830  1.00  0.00     0.037 A 
BRANCH  56  70
ATOM     70  C   UNL A   1      41.575  27.147  27.932  1.00  0.00     0.057 A 
ATOM     71  C   UNL A   1      42.394  27.582  26.868  1.00  0.00     0.134 A 
ATOM     72  C   UNL A   1      40.906  25.940  27.665  1.00  0.00     0.134 A 
ATOM     73  F   UNL A   1      43.184  28.658  26.979  1.00  0.00    -0.206 F 
ATOM     74  C   UNL A   1      42.446  26.939  25.622  1.00  0.00     0.040 A 
ATOM     75  C   UNL A   1      40.914  25.308  26.412  1.00  0.00     0.040 A 
ATOM     76  F   UNL A   1      40.256  25.260  28.610  1.00  0.00    -0.206 F 
ATOM     77  C   UNL A   1      41.676  25.815  25.376  1.00  0.00     0.006 A 
ENDBRANCH  56  70
BRANCH  57  78
ATOM     78  C   UNL A   1      40.622  33.512  35.125  1.00  0.00     0.057 A 
ATOM     79  C   UNL A   1      39.340  32.940  35.218  1.00  0.00     0.134 A 
ATOM     80  C   UNL A   1      40.880  34.626  35.925  1.00  0.00     0.134 A 
ATOM     81  F   UNL A   1      39.024  31.865  34.478  1.00  0.00    -0.206 F 
ATOM     82  C   UNL A   1      38.399  33.383  36.150  1.00  0.00     0.040 A 
ATOM     83  C   UNL A   1      39.938  35.093  36.849  1.00  0.00     0.040 A 
ATOM     84  F   UNL A   1      42.086  35.212  35.916  1.00  0.00    -0.206 F 
ATOM     85  C   UNL A   1      38.710  34.447  36.990  1.00  0.00     0.006 A 
ENDBRANCH  57  78
BRANCH  69  86
ATOM     86  C   UNL A   1      42.950  26.680  34.467  1.00  0.00     0.057 A 
ATOM     87  C   UNL A   1      41.812  25.962  34.865  1.00  0.00     0.134 A 
ATOM     88  C   UNL A   1      44.186  26.098  34.807  1.00  0.00     0.134 A 
ATOM     89  F   UNL A   1      40.580  26.450  34.658  1.00  0.00    -0.206 F 
ATOM     90  C   UNL A   1      41.898  24.722  35.510  1.00  0.00     0.040 A 
ATOM     91  C   UNL A   1      44.284  24.883  35.493  1.00  0.00     0.040 A 
ATOM     92  F   UNL A   1      45.350  26.669  34.469  1.00  0.00    -0.206 F 
ATOM     93  C   UNL A   1      43.138  24.183  35.837  1.00  0.00     0.006 A 
ENDBRANCH  69  86
ENDBRANCH  43  44
ENDBRANCH  35  38
ENDBRANCH  33  34
ENDBRANCH  32  33
ENDBRANCH  31  32
ENDBRANCH  30  31
ENDBRANCH   1  30
TORSDOF 17
ENDMDL
