MODEL 1
REMARK VINA RESULT:     -11.8      0.000      0.000
REMARK SMILES O=C(NCCCCCCNC(=O)[C@@]1(CCc2ccccc2)CCC[N@@H+](Cc2cccnc2)C1)c1ccc(-c2c3nc(c(-c4c(F)cccc4F)c4ccc([nH]4)c(-c4c(F)cccc4F)c4nc(c(-c5c(F)cccc5F)c5ccc2[nH]5)C=C4)C=C3)cc1
REMARK SMILES IDX 7 1 6 2 5 3 4 4 3 5 1 6 2 7 34 9 35 10 87 11 36 12 86 13
REMARK SMILES IDX 37 14 38 15 39 16 80 17 40 18 85 19 79 20 81 21 41 22 84 23
REMARK SMILES IDX 78 24 77 25 42 27 68 28 51 29 67 30 52 31 55 32 66 33 82 34
REMARK SMILES IDX 53 35 54 36 65 38 83 39 56 40 43 41 44 42 49 43 45 44 46 45
REMARK SMILES IDX 48 46 50 47 47 48 69 49 70 50 75 51 71 52 72 53 74 54 76 55
REMARK SMILES IDX 73 56 57 57 58 58 63 59 59 60 60 61 62 62 64 63 61 64 8 65
REMARK SMILES IDX 9 66 10 67 11 68 12 70 13 71 22 72 33 73 23 74 25 75 24 76
REMARK SMILES IDX 14 78 15 79 16 80 17 81 21 82 18 83 20 84 19 85 26 86 27 87
REMARK SMILES IDX 28 88 32 89 29 90 31 91 30 92
REMARK H PARENT 3 8 81 26 55 37 10 69 25 77
REMARK Flexibility Score: inf
ROOT
ATOM      1  C   UNL A   1      31.933  27.130  26.921  1.00  0.00     0.002 C 
ENDROOT
BRANCH   1   2
ATOM      2  C   UNL A   1      33.338  27.603  26.526  1.00  0.00     0.002 C 
BRANCH   2   3
ATOM      3  C   UNL A   1      33.617  29.079  26.809  1.00  0.00     0.021 C 
BRANCH   3   4
ATOM      4  C   UNL A   1      34.988  29.342  27.415  1.00  0.00     0.116 C 
BRANCH   4   5
ATOM      5  N   UNL A   1      34.930  30.336  28.473  1.00  0.00    -0.352 N 
ATOM      6  O   UNL A   1      35.624  31.373  30.355  1.00  0.00    -0.269 OA
ATOM      7  C   UNL A   1      35.893  30.663  29.399  1.00  0.00     0.251 C 
ATOM      8  H   UNL A   1      34.088  30.844  28.536  1.00  0.00     0.163 HD
BRANCH   7   9
ATOM      9  C   UNL A   1      37.262  30.131  29.225  1.00  0.00     0.039 A 
ATOM     10  C   UNL A   1      37.894  30.220  27.983  1.00  0.00     0.014 A 
ATOM     11  C   UNL A   1      37.916  29.545  30.311  1.00  0.00     0.014 A 
ATOM     12  C   UNL A   1      39.124  29.608  27.793  1.00  0.00     0.010 A 
ATOM     13  C   UNL A   1      39.198  29.012  30.142  1.00  0.00     0.010 A 
ATOM     14  C   UNL A   1      39.804  29.025  28.877  1.00  0.00    -0.014 A 
BRANCH  14  15
ATOM     15  C   UNL A   1      41.188  28.536  28.661  1.00  0.00     0.031 A 
ATOM     16  C   UNL A   1      41.472  27.115  28.271  1.00  0.00     0.074 A 
ATOM     17  C   UNL A   1      42.192  29.429  28.769  1.00  0.00     0.049 A 
ATOM     18  N   UNL A   1      42.622  26.561  27.982  1.00  0.00    -0.248 NA
ATOM     19  C   UNL A   1      40.328  26.195  28.200  1.00  0.00     0.031 C 
ATOM     20  C   UNL A   1      42.031  30.831  29.168  1.00  0.00     0.029 A 
ATOM     21  N   UNL A   1      43.534  29.308  28.523  1.00  0.00    -0.354 N 
ATOM     22  C   UNL A   1      42.346  25.229  27.705  1.00  0.00     0.074 A 
ATOM     23  C   UNL A   1      40.920  25.050  27.886  1.00  0.00     0.031 C 
ATOM     24  C   UNL A   1      43.213  31.454  29.079  1.00  0.00     0.029 A 
ATOM     25  C   UNL A   1      44.226  30.484  28.682  1.00  0.00     0.049 A 
ATOM     26  H   UNL A   1      43.962  28.461  28.260  1.00  0.00     0.167 HD
ATOM     27  C   UNL A   1      43.203  24.251  27.326  1.00  0.00     0.037 A 
ATOM     28  C   UNL A   1      45.535  30.754  28.534  1.00  0.00     0.037 A 
ATOM     29  C   UNL A   1      44.621  24.439  27.145  1.00  0.00     0.049 A 
ATOM     30  C   UNL A   1      46.458  29.649  28.115  1.00  0.00     0.074 A 
ATOM     31  C   UNL A   1      45.573  23.512  26.755  1.00  0.00     0.029 A 
ATOM     32  N   UNL A   1      45.291  25.638  27.340  1.00  0.00    -0.354 N 
ATOM     33  N   UNL A   1      46.174  28.399  27.838  1.00  0.00    -0.248 NA
ATOM     34  C   UNL A   1      47.881  29.989  27.995  1.00  0.00     0.031 C 
ATOM     35  C   UNL A   1      46.822  24.141  26.748  1.00  0.00     0.029 A 
ATOM     36  C   UNL A   1      46.645  25.471  27.091  1.00  0.00     0.049 A 
ATOM     37  H   UNL A   1      44.867  26.483  27.614  1.00  0.00     0.167 HD
ATOM     38  C   UNL A   1      47.383  27.803  27.507  1.00  0.00     0.074 A 
ATOM     39  C   UNL A   1      48.393  28.839  27.583  1.00  0.00     0.031 C 
ATOM     40  C   UNL A   1      47.635  26.512  27.184  1.00  0.00     0.037 A 
BRANCH  27  41
ATOM     41  C   UNL A   1      42.639  22.880  27.085  1.00  0.00     0.057 A 
ATOM     42  C   UNL A   1      42.477  22.368  25.792  1.00  0.00     0.134 A 
ATOM     43  C   UNL A   1      42.319  22.038  28.158  1.00  0.00     0.134 A 
ATOM     44  F   UNL A   1      42.754  23.127  24.720  1.00  0.00    -0.206 F 
ATOM     45  C   UNL A   1      42.010  21.070  25.573  1.00  0.00     0.040 A 
ATOM     46  C   UNL A   1      41.871  20.731  27.952  1.00  0.00     0.040 A 
ATOM     47  F   UNL A   1      42.457  22.463  29.423  1.00  0.00    -0.206 F 
ATOM     48  C   UNL A   1      41.713  20.245  26.657  1.00  0.00     0.006 A 
ENDBRANCH  27  41
BRANCH  28  49
ATOM     49  C   UNL A   1      46.044  32.122  28.799  1.00  0.00     0.057 A 
ATOM     50  C   UNL A   1      46.429  32.520  30.083  1.00  0.00     0.134 A 
ATOM     51  C   UNL A   1      46.160  33.063  27.769  1.00  0.00     0.134 A 
ATOM     52  F   UNL A   1      46.328  31.668  31.114  1.00  0.00    -0.206 F 
ATOM     53  C   UNL A   1      46.893  33.812  30.337  1.00  0.00     0.040 A 
ATOM     54  C   UNL A   1      46.651  34.347  28.003  1.00  0.00     0.040 A 
ATOM     55  F   UNL A   1      45.817  32.738  26.513  1.00  0.00    -0.206 F 
ATOM     56  C   UNL A   1      47.011  34.728  29.292  1.00  0.00     0.006 A 
ENDBRANCH  28  49
BRANCH  40  57
ATOM     57  C   UNL A   1      49.063  26.164  26.884  1.00  0.00     0.057 A 
ATOM     58  C   UNL A   1      49.608  26.342  25.606  1.00  0.00     0.134 A 
ATOM     59  C   UNL A   1      49.897  25.642  27.880  1.00  0.00     0.134 A 
ATOM     60  F   UNL A   1      48.854  26.822  24.606  1.00  0.00    -0.206 F 
ATOM     61  C   UNL A   1      50.926  25.981  25.321  1.00  0.00     0.040 A 
ATOM     62  C   UNL A   1      51.222  25.301  27.612  1.00  0.00     0.040 A 
ATOM     63  F   UNL A   1      49.436  25.453  29.126  1.00  0.00    -0.206 F 
ATOM     64  C   UNL A   1      51.738  25.461  26.327  1.00  0.00     0.006 A 
ENDBRANCH  40  57
ENDBRANCH  14  15
ENDBRANCH   7   9
ENDBRANCH   4   5
ENDBRANCH   3   4
ENDBRANCH   2   3
ENDBRANCH   1   2
BRANCH   1  65
ATOM     65  C   UNL A   1      30.887  27.224  25.800  1.00  0.00     0.021 C 
BRANCH  65  66
ATOM     66  C   UNL A   1      30.250  25.871  25.467  1.00  0.00     0.116 C 
BRANCH  66  67
ATOM     67  N   UNL A   1      30.451  24.973  26.582  1.00  0.00    -0.355 N 
ATOM     68  C   UNL A   1      30.987  23.726  26.647  1.00  0.00     0.231 C 
ATOM     69  H   UNL A   1      30.146  25.328  27.448  1.00  0.00     0.163 HD
ATOM     70  O   UNL A   1      30.504  23.009  27.529  1.00  0.00    -0.274 OA
BRANCH  68  71
ATOM     71  C   UNL A   1      32.154  23.246  25.743  1.00  0.00     0.098 C 
ATOM     72  C   UNL A   1      31.896  21.743  25.416  1.00  0.00     0.028 C 
ATOM     73  C   UNL A   1      32.094  23.990  24.382  1.00  0.00     0.279 C 
ATOM     74  C   UNL A   1      32.760  21.204  24.278  1.00  0.00     0.063 C 
ATOM     75  N   UNL A   1      32.875  23.435  23.263  1.00  0.00    -0.330 N 
ATOM     76  C   UNL A   1      32.553  22.031  23.014  1.00  0.00     0.262 C 
ATOM     77  H   UNL A   1      33.855  23.462  23.547  1.00  0.00     0.348 HD
BRANCH  71  78
ATOM     78  C   UNL A   1      33.532  23.453  26.454  1.00  0.00     0.027 C 
BRANCH  78  79
ATOM     79  C   UNL A   1      34.673  24.154  25.676  1.00  0.00     0.037 C 
BRANCH  79  80
ATOM     80  C   UNL A   1      35.962  23.390  25.531  1.00  0.00    -0.048 A 
ATOM     81  C   UNL A   1      36.019  22.195  24.802  1.00  0.00     0.004 A 
ATOM     82  C   UNL A   1      37.125  23.842  26.172  1.00  0.00     0.004 A 
ATOM     83  C   UNL A   1      37.192  21.437  24.779  1.00  0.00     0.000 A 
ATOM     84  C   UNL A   1      38.295  23.082  26.154  1.00  0.00     0.000 A 
ATOM     85  C   UNL A   1      38.323  21.872  25.467  1.00  0.00     0.000 A 
ENDBRANCH  79  80
ENDBRANCH  78  79
ENDBRANCH  71  78
BRANCH  75  86
ATOM     86  C   UNL A   1      32.775  24.267  22.041  1.00  0.00     0.300 C 
BRANCH  86  87
ATOM     87  C   UNL A   1      32.686  25.764  22.244  1.00  0.00     0.025 A 
ATOM     88  C   UNL A   1      33.778  26.524  22.680  1.00  0.00     0.013 A 
ATOM     89  C   UNL A   1      31.489  26.443  22.042  1.00  0.00     0.120 A 
ATOM     90  C   UNL A   1      33.618  27.875  22.967  1.00  0.00     0.021 A 
ATOM     91  N   UNL A   1      31.311  27.763  22.283  1.00  0.00    -0.264 NA
ATOM     92  C   UNL A   1      32.374  28.444  22.758  1.00  0.00     0.111 A 
ENDBRANCH  86  87
ENDBRANCH  75  86
ENDBRANCH  68  71
ENDBRANCH  66  67
ENDBRANCH  65  66
ENDBRANCH   1  65
TORSDOF 18
ENDMDL
MODEL 2
REMARK VINA RESULT:     -11.8      2.876      7.846
REMARK SMILES O=C(NCCCCCCNC(=O)[C@@]1(CCc2ccccc2)CCC[N@@H+](Cc2cccnc2)C1)c1ccc(-c2c3nc(c(-c4c(F)cccc4F)c4ccc([nH]4)c(-c4c(F)cccc4F)c4nc(c(-c5c(F)cccc5F)c5ccc2[nH]5)C=C4)C=C3)cc1
REMARK SMILES IDX 7 1 6 2 5 3 4 4 3 5 1 6 2 7 34 9 35 10 87 11 36 12 86 13
REMARK SMILES IDX 37 14 38 15 39 16 80 17 40 18 85 19 79 20 81 21 41 22 84 23
REMARK SMILES IDX 78 24 77 25 42 27 68 28 51 29 67 30 52 31 55 32 66 33 82 34
REMARK SMILES IDX 53 35 54 36 65 38 83 39 56 40 43 41 44 42 49 43 45 44 46 45
REMARK SMILES IDX 48 46 50 47 47 48 69 49 70 50 75 51 71 52 72 53 74 54 76 55
REMARK SMILES IDX 73 56 57 57 58 58 63 59 59 60 60 61 62 62 64 63 61 64 8 65
REMARK SMILES IDX 9 66 10 67 11 68 12 70 13 71 22 72 33 73 23 74 25 75 24 76
REMARK SMILES IDX 14 78 15 79 16 80 17 81 21 82 18 83 20 84 19 85 26 86 27 87
REMARK SMILES IDX 28 88 32 89 29 90 31 91 30 92
REMARK H PARENT 3 8 81 26 55 37 10 69 25 77
REMARK Flexibility Score: inf
ROOT
ATOM      1  C   UNL A   1      35.857  20.995  24.977  1.00  0.00     0.002 C 
ENDROOT
BRANCH   1   2
ATOM      2  C   UNL A   1      36.685  19.703  24.950  1.00  0.00     0.002 C 
BRANCH   2   3
ATOM      3  C   UNL A   1      38.174  19.906  24.677  1.00  0.00     0.021 C 
BRANCH   3   4
ATOM      4  C   UNL A   1      39.029  19.961  25.935  1.00  0.00     0.116 C 
BRANCH   4   5
ATOM      5  N   UNL A   1      40.234  19.158  25.806  1.00  0.00    -0.352 N 
ATOM      6  O   UNL A   1      42.456  18.810  25.611  1.00  0.00    -0.269 OA
ATOM      7  C   UNL A   1      41.544  19.546  25.953  1.00  0.00     0.251 C 
ATOM      8  H   UNL A   1      40.092  18.209  25.582  1.00  0.00     0.163 HD
BRANCH   7   9
ATOM      9  C   UNL A   1      41.836  20.879  26.525  1.00  0.00     0.039 A 
ATOM     10  C   UNL A   1      41.775  21.076  27.907  1.00  0.00     0.014 A 
ATOM     11  C   UNL A   1      42.175  21.935  25.675  1.00  0.00     0.014 A 
ATOM     12  C   UNL A   1      41.924  22.353  28.425  1.00  0.00     0.010 A 
ATOM     13  C   UNL A   1      42.419  23.203  26.210  1.00  0.00     0.010 A 
ATOM     14  C   UNL A   1      42.279  23.425  27.588  1.00  0.00    -0.014 A 
BRANCH  14  15
ATOM     15  C   UNL A   1      42.594  24.734  28.212  1.00  0.00     0.031 A 
ATOM     16  C   UNL A   1      43.994  25.103  28.607  1.00  0.00     0.074 A 
ATOM     17  C   UNL A   1      41.586  25.615  28.362  1.00  0.00     0.049 A 
ATOM     18  N   UNL A   1      44.434  26.234  29.099  1.00  0.00    -0.248 NA
ATOM     19  C   UNL A   1      45.034  24.078  28.437  1.00  0.00     0.031 C 
ATOM     20  C   UNL A   1      40.182  25.350  28.035  1.00  0.00     0.029 A 
ATOM     21  N   UNL A   1      41.585  26.916  28.792  1.00  0.00    -0.354 N 
ATOM     22  C   UNL A   1      45.795  26.058  29.306  1.00  0.00     0.074 A 
ATOM     23  C   UNL A   1      46.107  24.699  28.912  1.00  0.00     0.031 C 
ATOM     24  C   UNL A   1      39.467  26.468  28.215  1.00  0.00     0.029 A 
ATOM     25  C   UNL A   1      40.347  27.509  28.731  1.00  0.00     0.049 A 
ATOM     26  H   UNL A   1      42.391  27.380  29.114  1.00  0.00     0.167 HD
ATOM     27  C   UNL A   1      46.699  26.951  29.774  1.00  0.00     0.037 A 
ATOM     28  C   UNL A   1      39.958  28.752  29.065  1.00  0.00     0.037 A 
ATOM     29  C   UNL A   1      46.379  28.303  30.161  1.00  0.00     0.049 A 
ATOM     30  C   UNL A   1      40.983  29.717  29.581  1.00  0.00     0.074 A 
ATOM     31  C   UNL A   1      47.228  29.288  30.640  1.00  0.00     0.029 A 
ATOM     32  N   UNL A   1      45.110  28.861  30.111  1.00  0.00    -0.354 N 
ATOM     33  N   UNL A   1      42.271  29.538  29.752  1.00  0.00    -0.248 NA
ATOM     34  C   UNL A   1      40.502  31.051  29.957  1.00  0.00     0.031 C 
ATOM     35  C   UNL A   1      46.466  30.430  30.912  1.00  0.00     0.029 A 
ATOM     36  C   UNL A   1      45.151  30.172  30.563  1.00  0.00     0.049 A 
ATOM     37  H   UNL A   1      44.301  28.395  29.801  1.00  0.00     0.167 HD
ATOM     38  C   UNL A   1      42.754  30.738  30.252  1.00  0.00     0.074 A 
ATOM     39  C   UNL A   1      41.628  31.646  30.320  1.00  0.00     0.031 C 
ATOM     40  C   UNL A   1      44.016  31.055  30.634  1.00  0.00     0.037 A 
BRANCH  27  41
ATOM     41  C   UNL A   1      48.126  26.501  29.903  1.00  0.00     0.057 A 
ATOM     42  C   UNL A   1      48.615  25.936  31.087  1.00  0.00     0.134 A 
ATOM     43  C   UNL A   1      49.000  26.571  28.811  1.00  0.00     0.134 A 
ATOM     44  F   UNL A   1      47.833  25.850  32.174  1.00  0.00    -0.206 F 
ATOM     45  C   UNL A   1      49.926  25.463  31.183  1.00  0.00     0.040 A 
ATOM     46  C   UNL A   1      50.307  26.083  28.888  1.00  0.00     0.040 A 
ATOM     47  F   UNL A   1      48.594  27.096  27.645  1.00  0.00    -0.206 F 
ATOM     48  C   UNL A   1      50.773  25.528  30.078  1.00  0.00     0.006 A 
ENDBRANCH  27  41
BRANCH  28  49
ATOM     49  C   UNL A   1      38.533  29.143  28.932  1.00  0.00     0.057 A 
ATOM     50  C   UNL A   1      37.661  29.100  30.025  1.00  0.00     0.134 A 
ATOM     51  C   UNL A   1      38.011  29.571  27.705  1.00  0.00     0.134 A 
ATOM     52  F   UNL A   1      38.098  28.685  31.223  1.00  0.00    -0.206 F 
ATOM     53  C   UNL A   1      36.316  29.452  29.898  1.00  0.00     0.040 A 
ATOM     54  C   UNL A   1      36.677  29.954  27.572  1.00  0.00     0.040 A 
ATOM     55  F   UNL A   1      38.799  29.644  26.623  1.00  0.00    -0.206 F 
ATOM     56  C   UNL A   1      35.823  29.887  28.669  1.00  0.00     0.006 A 
ENDBRANCH  28  49
BRANCH  40  57
ATOM     57  C   UNL A   1      44.228  32.446  31.150  1.00  0.00     0.057 A 
ATOM     58  C   UNL A   1      44.120  32.747  32.514  1.00  0.00     0.134 A 
ATOM     59  C   UNL A   1      44.537  33.495  30.276  1.00  0.00     0.134 A 
ATOM     60  F   UNL A   1      43.808  31.788  33.400  1.00  0.00    -0.206 F 
ATOM     61  C   UNL A   1      44.279  34.051  32.986  1.00  0.00     0.040 A 
ATOM     62  C   UNL A   1      44.724  34.797  30.740  1.00  0.00     0.040 A 
ATOM     63  F   UNL A   1      44.661  33.271  28.959  1.00  0.00    -0.206 F 
ATOM     64  C   UNL A   1      44.586  35.079  32.098  1.00  0.00     0.006 A 
ENDBRANCH  40  57
ENDBRANCH  14  15
ENDBRANCH   7   9
ENDBRANCH   4   5
ENDBRANCH   3   4
ENDBRANCH   2   3
ENDBRANCH   1   2
BRANCH   1  65
ATOM     65  C   UNL A   1      36.569  22.224  24.390  1.00  0.00     0.021 C 
BRANCH  65  66
ATOM     66  C   UNL A   1      35.734  22.941  23.325  1.00  0.00     0.116 C 
BRANCH  66  67
ATOM     67  N   UNL A   1      34.349  22.558  23.481  1.00  0.00    -0.355 N 
ATOM     68  C   UNL A   1      33.271  23.247  23.941  1.00  0.00     0.231 C 
ATOM     69  H   UNL A   1      34.151  21.634  23.206  1.00  0.00     0.163 HD
ATOM     70  O   UNL A   1      32.423  22.550  24.506  1.00  0.00    -0.274 OA
BRANCH  68  71
ATOM     71  C   UNL A   1      33.073  24.771  23.725  1.00  0.00     0.098 C 
ATOM     72  C   UNL A   1      33.401  25.072  22.230  1.00  0.00     0.028 C 
ATOM     73  C   UNL A   1      31.573  25.129  23.907  1.00  0.00     0.279 C 
ATOM     74  C   UNL A   1      32.942  26.452  21.765  1.00  0.00     0.063 C 
ATOM     75  N   UNL A   1      31.114  26.433  23.401  1.00  0.00    -0.330 N 
ATOM     76  C   UNL A   1      31.444  26.619  21.989  1.00  0.00     0.262 C 
ATOM     77  H   UNL A   1      31.630  27.147  23.916  1.00  0.00     0.348 HD
BRANCH  71  78
ATOM     78  C   UNL A   1      33.984  25.595  24.693  1.00  0.00     0.027 C 
BRANCH  78  79
ATOM     79  C   UNL A   1      33.419  26.012  26.072  1.00  0.00     0.037 C 
BRANCH  79  80
ATOM     80  C   UNL A   1      33.047  27.462  26.241  1.00  0.00    -0.048 A 
ATOM     81  C   UNL A   1      32.137  27.866  27.226  1.00  0.00     0.004 A 
ATOM     82  C   UNL A   1      33.575  28.431  25.375  1.00  0.00     0.004 A 
ATOM     83  C   UNL A   1      31.711  29.195  27.291  1.00  0.00     0.000 A 
ATOM     84  C   UNL A   1      33.144  29.756  25.436  1.00  0.00     0.000 A 
ATOM     85  C   UNL A   1      32.202  30.136  26.387  1.00  0.00     0.000 A 
ENDBRANCH  79  80
ENDBRANCH  78  79
ENDBRANCH  71  78
BRANCH  75  86
ATOM     86  C   UNL A   1      29.679  26.673  23.685  1.00  0.00     0.300 C 
BRANCH  86  87
ATOM     87  C   UNL A   1      29.171  28.082  23.466  1.00  0.00     0.025 A 
ATOM     88  C   UNL A   1      29.986  29.205  23.646  1.00  0.00     0.013 A 
ATOM     89  C   UNL A   1      27.846  28.317  23.113  1.00  0.00     0.120 A 
ATOM     90  C   UNL A   1      29.446  30.484  23.550  1.00  0.00     0.021 A 
ATOM     91  N   UNL A   1      27.299  29.548  22.983  1.00  0.00    -0.264 NA
ATOM     92  C   UNL A   1      28.107  30.603  23.222  1.00  0.00     0.111 A 
ENDBRANCH  86  87
ENDBRANCH  75  86
ENDBRANCH  68  71
ENDBRANCH  66  67
ENDBRANCH  65  66
ENDBRANCH   1  65
TORSDOF 18
ENDMDL
MODEL 3
REMARK VINA RESULT:     -11.7      5.219     10.076
REMARK SMILES O=C(NCCCCCCNC(=O)[C@@]1(CCc2ccccc2)CCC[N@@H+](Cc2cccnc2)C1)c1ccc(-c2c3nc(c(-c4c(F)cccc4F)c4ccc([nH]4)c(-c4c(F)cccc4F)c4nc(c(-c5c(F)cccc5F)c5ccc2[nH]5)C=C4)C=C3)cc1
REMARK SMILES IDX 7 1 6 2 5 3 4 4 3 5 1 6 2 7 34 9 35 10 87 11 36 12 86 13
REMARK SMILES IDX 37 14 38 15 39 16 80 17 40 18 85 19 79 20 81 21 41 22 84 23
REMARK SMILES IDX 78 24 77 25 42 27 68 28 51 29 67 30 52 31 55 32 66 33 82 34
REMARK SMILES IDX 53 35 54 36 65 38 83 39 56 40 43 41 44 42 49 43 45 44 46 45
REMARK SMILES IDX 48 46 50 47 47 48 69 49 70 50 75 51 71 52 72 53 74 54 76 55
REMARK SMILES IDX 73 56 57 57 58 58 63 59 59 60 60 61 62 62 64 63 61 64 8 65
REMARK SMILES IDX 9 66 10 67 11 68 12 70 13 71 22 72 33 73 23 74 25 75 24 76
REMARK SMILES IDX 14 78 15 79 16 80 17 81 21 82 18 83 20 84 19 85 26 86 27 87
REMARK SMILES IDX 28 88 32 89 29 90 31 91 30 92
REMARK H PARENT 3 8 81 26 55 37 10 69 25 77
REMARK Flexibility Score: inf
ROOT
ATOM      1  C   UNL A   1      35.378  23.450  23.759  1.00  0.00     0.002 C 
ENDROOT
BRANCH   1   2
ATOM      2  C   UNL A   1      35.822  24.020  25.113  1.00  0.00     0.002 C 
BRANCH   2   3
ATOM      3  C   UNL A   1      37.043  23.333  25.724  1.00  0.00     0.021 C 
BRANCH   3   4
ATOM      4  C   UNL A   1      38.047  24.295  26.341  1.00  0.00     0.116 C 
BRANCH   4   5
ATOM      5  N   UNL A   1      39.417  23.863  26.119  1.00  0.00    -0.352 N 
ATOM      6  O   UNL A   1      41.663  24.092  26.099  1.00  0.00    -0.269 OA
ATOM      7  C   UNL A   1      40.584  24.458  26.537  1.00  0.00     0.251 C 
ATOM      8  H   UNL A   1      39.523  23.032  25.600  1.00  0.00     0.163 HD
BRANCH   7   9
ATOM      9  C   UNL A   1      40.513  25.560  27.520  1.00  0.00     0.039 A 
ATOM     10  C   UNL A   1      39.651  25.465  28.616  1.00  0.00     0.014 A 
ATOM     11  C   UNL A   1      41.314  26.692  27.347  1.00  0.00     0.014 A 
ATOM     12  C   UNL A   1      39.496  26.552  29.464  1.00  0.00     0.010 A 
ATOM     13  C   UNL A   1      41.225  27.748  28.257  1.00  0.00     0.010 A 
ATOM     14  C   UNL A   1      40.303  27.693  29.313  1.00  0.00    -0.014 A 
BRANCH  14  15
ATOM     15  C   UNL A   1      40.220  28.757  30.344  1.00  0.00     0.031 A 
ATOM     16  C   UNL A   1      39.195  29.851  30.270  1.00  0.00     0.074 A 
ATOM     17  C   UNL A   1      41.062  28.680  31.393  1.00  0.00     0.049 A 
ATOM     18  N   UNL A   1      38.957  30.809  31.130  1.00  0.00    -0.248 NA
ATOM     19  C   UNL A   1      38.330  29.883  29.081  1.00  0.00     0.031 C 
ATOM     20  C   UNL A   1      42.115  27.672  31.554  1.00  0.00     0.029 A 
ATOM     21  N   UNL A   1      41.149  29.433  32.535  1.00  0.00    -0.354 N 
ATOM     22  C   UNL A   1      37.925  31.562  30.587  1.00  0.00     0.074 A 
ATOM     23  C   UNL A   1      37.598  30.967  29.308  1.00  0.00     0.031 C 
ATOM     24  C   UNL A   1      42.698  27.829  32.749  1.00  0.00     0.029 A 
ATOM     25  C   UNL A   1      42.108  28.986  33.411  1.00  0.00     0.049 A 
ATOM     26  H   UNL A   1      40.581  30.217  32.710  1.00  0.00     0.167 HD
ATOM     27  C   UNL A   1      37.305  32.645  31.114  1.00  0.00     0.037 A 
ATOM     28  C   UNL A   1      42.481  29.460  34.613  1.00  0.00     0.037 A 
ATOM     29  C   UNL A   1      37.634  33.229  32.390  1.00  0.00     0.049 A 
ATOM     30  C   UNL A   1      41.775  30.661  35.167  1.00  0.00     0.074 A 
ATOM     31  C   UNL A   1      37.057  34.323  33.014  1.00  0.00     0.029 A 
ATOM     32  N   UNL A   1      38.629  32.766  33.239  1.00  0.00    -0.354 N 
ATOM     33  N   UNL A   1      40.787  31.348  34.647  1.00  0.00    -0.248 NA
ATOM     34  C   UNL A   1      42.239  31.154  36.469  1.00  0.00     0.031 C 
ATOM     35  C   UNL A   1      37.726  34.541  34.224  1.00  0.00     0.029 A 
ATOM     36  C   UNL A   1      38.691  33.559  34.375  1.00  0.00     0.049 A 
ATOM     37  H   UNL A   1      39.206  31.988  33.060  1.00  0.00     0.167 HD
ATOM     38  C   UNL A   1      40.508  32.355  35.560  1.00  0.00     0.074 A 
ATOM     39  C   UNL A   1      41.407  32.163  36.681  1.00  0.00     0.031 C 
ATOM     40  C   UNL A   1      39.600  33.357  35.472  1.00  0.00     0.037 A 
BRANCH  27  41
ATOM     41  C   UNL A   1      36.205  33.281  30.312  1.00  0.00     0.057 A 
ATOM     42  C   UNL A   1      36.477  34.117  29.223  1.00  0.00     0.134 A 
ATOM     43  C   UNL A   1      34.861  32.999  30.591  1.00  0.00     0.134 A 
ATOM     44  F   UNL A   1      37.742  34.436  28.910  1.00  0.00    -0.206 F 
ATOM     45  C   UNL A   1      35.452  34.657  28.443  1.00  0.00     0.040 A 
ATOM     46  C   UNL A   1      33.828  33.516  29.806  1.00  0.00     0.040 A 
ATOM     47  F   UNL A   1      34.531  32.200  31.617  1.00  0.00    -0.206 F 
ATOM     48  C   UNL A   1      34.123  34.349  28.729  1.00  0.00     0.006 A 
ENDBRANCH  27  41
BRANCH  28  49
ATOM     49  C   UNL A   1      43.584  28.804  35.358  1.00  0.00     0.057 A 
ATOM     50  C   UNL A   1      44.921  29.136  35.122  1.00  0.00     0.134 A 
ATOM     51  C   UNL A   1      43.321  27.828  36.328  1.00  0.00     0.134 A 
ATOM     52  F   UNL A   1      45.237  30.053  34.196  1.00  0.00    -0.206 F 
ATOM     53  C   UNL A   1      45.960  28.509  35.811  1.00  0.00     0.040 A 
ATOM     54  C   UNL A   1      44.348  27.215  37.045  1.00  0.00     0.040 A 
ATOM     55  F   UNL A   1      42.058  27.473  36.607  1.00  0.00    -0.206 F 
ATOM     56  C   UNL A   1      45.673  27.549  36.781  1.00  0.00     0.006 A 
ENDBRANCH  28  49
BRANCH  40  57
ATOM     57  C   UNL A   1      39.541  34.309  36.629  1.00  0.00     0.057 A 
ATOM     58  C   UNL A   1      38.821  34.006  37.792  1.00  0.00     0.134 A 
ATOM     59  C   UNL A   1      40.203  35.541  36.578  1.00  0.00     0.134 A 
ATOM     60  F   UNL A   1      38.150  32.849  37.895  1.00  0.00    -0.206 F 
ATOM     61  C   UNL A   1      38.735  34.912  38.851  1.00  0.00     0.040 A 
ATOM     62  C   UNL A   1      40.145  36.443  37.640  1.00  0.00     0.040 A 
ATOM     63  F   UNL A   1      40.915  35.888  35.494  1.00  0.00    -0.206 F 
ATOM     64  C   UNL A   1      39.402  36.133  38.778  1.00  0.00     0.006 A 
ENDBRANCH  40  57
ENDBRANCH  14  15
ENDBRANCH   7   9
ENDBRANCH   4   5
ENDBRANCH   3   4
ENDBRANCH   2   3
ENDBRANCH   1   2
BRANCH   1  65
ATOM     65  C   UNL A   1      34.214  22.449  23.837  1.00  0.00     0.021 C 
BRANCH  65  66
ATOM     66  C   UNL A   1      33.067  22.799  22.884  1.00  0.00     0.116 C 
BRANCH  66  67
ATOM     67  N   UNL A   1      33.448  23.949  22.096  1.00  0.00    -0.355 N 
ATOM     68  C   UNL A   1      32.798  25.113  21.832  1.00  0.00     0.231 C 
ATOM     69  H   UNL A   1      34.335  23.876  21.675  1.00  0.00     0.163 HD
ATOM     70  O   UNL A   1      33.055  25.601  20.726  1.00  0.00    -0.274 OA
BRANCH  68  71
ATOM     71  C   UNL A   1      31.862  25.821  22.847  1.00  0.00     0.098 C 
ATOM     72  C   UNL A   1      30.785  24.781  23.284  1.00  0.00     0.028 C 
ATOM     73  C   UNL A   1      32.659  26.168  24.132  1.00  0.00     0.279 C 
ATOM     74  C   UNL A   1      29.989  25.202  24.517  1.00  0.00     0.063 C 
ATOM     75  N   UNL A   1      31.892  26.511  25.342  1.00  0.00    -0.330 N 
ATOM     76  C   UNL A   1      30.924  25.471  25.689  1.00  0.00     0.262 C 
ATOM     77  H   UNL A   1      31.353  27.348  25.121  1.00  0.00     0.348 HD
BRANCH  71  78
ATOM     78  C   UNL A   1      31.210  27.093  22.211  1.00  0.00     0.027 C 
BRANCH  78  79
ATOM     79  C   UNL A   1      31.244  28.422  23.005  1.00  0.00     0.037 C 
BRANCH  79  80
ATOM     80  C   UNL A   1      29.957  29.202  23.074  1.00  0.00    -0.048 A 
ATOM     81  C   UNL A   1      29.934  30.520  23.546  1.00  0.00     0.004 A 
ATOM     82  C   UNL A   1      28.746  28.597  22.708  1.00  0.00     0.004 A 
ATOM     83  C   UNL A   1      28.718  31.188  23.717  1.00  0.00     0.000 A 
ATOM     84  C   UNL A   1      27.532  29.261  22.885  1.00  0.00     0.000 A 
ATOM     85  C   UNL A   1      27.518  30.553  23.403  1.00  0.00     0.000 A 
ENDBRANCH  79  80
ENDBRANCH  78  79
ENDBRANCH  71  78
BRANCH  75  86
ATOM     86  C   UNL A   1      32.770  26.873  26.480  1.00  0.00     0.300 C 
BRANCH  86  87
ATOM     87  C   UNL A   1      32.898  28.347  26.796  1.00  0.00     0.025 A 
ATOM     88  C   UNL A   1      31.852  29.251  26.576  1.00  0.00     0.013 A 
ATOM     89  C   UNL A   1      34.090  28.874  27.283  1.00  0.00     0.120 A 
ATOM     90  C   UNL A   1      32.053  30.614  26.768  1.00  0.00     0.021 A 
ATOM     91  N   UNL A   1      34.306  30.190  27.509  1.00  0.00    -0.264 NA
ATOM     92  C   UNL A   1      33.289  31.032  27.228  1.00  0.00     0.111 A 
ENDBRANCH  86  87
ENDBRANCH  75  86
ENDBRANCH  68  71
ENDBRANCH  66  67
ENDBRANCH  65  66
ENDBRANCH   1  65
TORSDOF 18
ENDMDL
