MODEL 1
REMARK VINA RESULT:     -11.5      0.000      0.000
REMARK SMILES Cc1cc(C(=O)Nc2ccn(C)n2)sc1/C=C/C(=O)NCCCCCCNC(=O)c1ccc(-c2c3nc(c(-c4c(F)cccc4F)c4ccc([nH]4)c(-c4c(F)cccc4F)c4nc(c(-c5c(F)cccc5F)c5ccc2[nH]5)C=C4)C=C3)cc1
REMARK SMILES IDX 23 1 22 2 21 3 20 4 18 5 19 6 17 8 16 9 15 10 1 11 2 12 3 13
REMARK SMILES IDX 4 14 14 15 5 16 6 17 7 18 8 20 9 21 13 22 10 23 11 24 12 25
REMARK SMILES IDX 24 26 25 27 26 28 27 29 28 30 29 32 30 33 31 34 83 35 32 36
REMARK SMILES IDX 82 37 33 38 34 39 35 40 76 41 36 42 81 43 75 44 77 45 37 46
REMARK SMILES IDX 80 47 74 48 73 49 38 51 64 52 47 53 63 54 48 55 51 56 62 57
REMARK SMILES IDX 78 58 49 59 50 60 61 62 79 63 52 64 39 65 40 66 45 67 41 68
REMARK SMILES IDX 42 69 44 70 46 71 43 72 65 73 66 74 71 75 67 76 68 77 70 78
REMARK SMILES IDX 72 79 69 80 53 81 54 82 59 83 55 84 56 85 58 86 60 87 57 88
REMARK H PARENT 20 7 7 19 27 31 77 50 51 61
REMARK Flexibility Score: inf
ROOT
ATOM      1  C   UNL A   1      34.058  21.598  26.577  1.00  0.00     0.002 C 
ENDROOT
BRANCH   1   2
ATOM      2  C   UNL A   1      33.228  20.848  25.529  1.00  0.00     0.021 C 
BRANCH   2   3
ATOM      3  C   UNL A   1      32.024  21.654  25.044  1.00  0.00     0.116 C 
BRANCH   3   4
ATOM      4  N   UNL A   1      31.109  21.884  26.146  1.00  0.00    -0.353 N 
ATOM      5  C   UNL A   1      30.609  23.039  26.656  1.00  0.00     0.244 C 
ATOM      6  O   UNL A   1      29.802  23.000  27.582  1.00  0.00    -0.270 OA
ATOM      7  H   UNL A   1      30.798  21.067  26.599  1.00  0.00     0.163 HD
BRANCH   5   8
ATOM      8  C   UNL A   1      30.947  24.339  26.042  1.00  0.00     0.072 C 
ATOM      9  C   UNL A   1      31.804  25.224  26.571  1.00  0.00     0.025 C 
BRANCH   9  10
ATOM     10  C   UNL A   1      32.109  26.489  25.988  1.00  0.00     0.031 A 
ATOM     11  C   UNL A   1      31.523  28.125  27.889  1.00  0.00     0.046 C 
ATOM     12  C   UNL A   1      31.868  27.769  26.478  1.00  0.00    -0.032 A 
ATOM     13  C   UNL A   1      31.930  28.736  25.413  1.00  0.00     0.029 A 
ATOM     14  C   UNL A   1      32.308  28.183  24.200  1.00  0.00     0.093 A 
ATOM     15  S   UNL A   1      32.966  26.637  24.509  1.00  0.00    -0.130 S 
BRANCH  14  16
ATOM     16  C   UNL A   1      32.393  28.851  22.904  1.00  0.00     0.266 C 
ATOM     17  O   UNL A   1      33.486  29.061  22.369  1.00  0.00    -0.268 OA
ATOM     18  N   UNL A   1      31.267  29.193  22.185  1.00  0.00    -0.304 N 
ATOM     19  H   UNL A   1      31.412  29.325  21.221  1.00  0.00     0.171 HD
BRANCH  18  20
ATOM     20  C   UNL A   1      29.975  29.379  22.607  1.00  0.00     0.154 A 
ATOM     21  C   UNL A   1      28.856  28.517  22.504  1.00  0.00     0.068 A 
ATOM     22  N   UNL A   1      29.645  30.521  23.211  1.00  0.00    -0.155 NA
ATOM     23  C   UNL A   1      27.781  29.277  22.904  1.00  0.00     0.110 A 
ATOM     24  N   UNL A   1      28.300  30.492  23.236  1.00  0.00    -0.274 N 
ATOM     25  C   UNL A   1      27.568  31.710  23.486  1.00  0.00     0.173 C 
ENDBRANCH  18  20
ENDBRANCH  14  16
ENDBRANCH   9  10
ENDBRANCH   5   8
ENDBRANCH   3   4
ENDBRANCH   2   3
ENDBRANCH   1   2
BRANCH   1  26
ATOM     26  C   UNL A   1      35.492  21.921  26.137  1.00  0.00     0.002 C 
BRANCH  26  27
ATOM     27  C   UNL A   1      35.820  23.415  26.069  1.00  0.00     0.021 C 
BRANCH  27  28
ATOM     28  C   UNL A   1      37.062  23.739  25.247  1.00  0.00     0.116 C 
BRANCH  28  29
ATOM     29  N   UNL A   1      38.135  22.793  25.509  1.00  0.00    -0.352 N 
ATOM     30  C   UNL A   1      39.358  23.006  26.092  1.00  0.00     0.251 C 
ATOM     31  H   UNL A   1      37.958  21.866  25.227  1.00  0.00     0.163 HD
ATOM     32  O   UNL A   1      40.239  22.158  26.011  1.00  0.00    -0.269 OA
BRANCH  30  33
ATOM     33  C   UNL A   1      39.611  24.269  26.814  1.00  0.00     0.039 A 
ATOM     34  C   UNL A   1      39.096  24.427  28.102  1.00  0.00     0.014 A 
ATOM     35  C   UNL A   1      40.340  25.299  26.213  1.00  0.00     0.014 A 
ATOM     36  C   UNL A   1      39.357  25.602  28.809  1.00  0.00     0.010 A 
ATOM     37  C   UNL A   1      40.662  26.436  26.944  1.00  0.00     0.010 A 
ATOM     38  C   UNL A   1      40.166  26.603  28.247  1.00  0.00    -0.014 A 
BRANCH  38  39
ATOM     39  C   UNL A   1      40.502  27.834  29.004  1.00  0.00     0.031 A 
ATOM     40  C   UNL A   1      41.835  27.963  29.685  1.00  0.00     0.074 A 
ATOM     41  C   UNL A   1      39.581  28.809  29.129  1.00  0.00     0.049 A 
ATOM     42  N   UNL A   1      42.289  28.932  30.440  1.00  0.00    -0.248 NA
ATOM     43  C   UNL A   1      42.774  26.842  29.519  1.00  0.00     0.031 C 
ATOM     44  C   UNL A   1      38.235  28.779  28.553  1.00  0.00     0.029 A 
ATOM     45  N   UNL A   1      39.634  30.010  29.788  1.00  0.00    -0.354 N 
ATOM     46  C   UNL A   1      43.556  28.533  30.846  1.00  0.00     0.074 A 
ATOM     47  C   UNL A   1      43.776  27.210  30.304  1.00  0.00     0.031 C 
ATOM     48  C   UNL A   1      37.600  29.920  28.862  1.00  0.00     0.029 A 
ATOM     49  C   UNL A   1      38.476  30.743  29.691  1.00  0.00     0.049 A 
ATOM     50  H   UNL A   1      40.427  30.318  30.285  1.00  0.00     0.167 HD
ATOM     51  C   UNL A   1      44.461  29.217  31.585  1.00  0.00     0.037 A 
ATOM     52  C   UNL A   1      38.155  31.940  30.215  1.00  0.00     0.037 A 
ATOM     53  C   UNL A   1      44.243  30.541  32.107  1.00  0.00     0.049 A 
ATOM     54  C   UNL A   1      39.172  32.674  31.044  1.00  0.00     0.074 A 
ATOM     55  C   UNL A   1      45.119  31.344  32.815  1.00  0.00     0.029 A 
ATOM     56  N   UNL A   1      43.060  31.255  31.980  1.00  0.00    -0.354 N 
ATOM     57  N   UNL A   1      40.393  32.315  31.362  1.00  0.00    -0.248 NA
ATOM     58  C   UNL A   1      38.770  33.981  31.582  1.00  0.00     0.031 C 
ATOM     59  C   UNL A   1      44.449  32.522  33.162  1.00  0.00     0.029 A 
ATOM     60  C   UNL A   1      43.174  32.478  32.621  1.00  0.00     0.049 A 
ATOM     61  H   UNL A   1      42.258  30.939  31.505  1.00  0.00     0.167 HD
ATOM     62  C   UNL A   1      40.914  33.363  32.113  1.00  0.00     0.074 A 
ATOM     63  C   UNL A   1      39.880  34.375  32.189  1.00  0.00     0.031 C 
ATOM     64  C   UNL A   1      42.137  33.475  32.686  1.00  0.00     0.037 A 
BRANCH  51  65
ATOM     65  C   UNL A   1      45.771  28.541  31.873  1.00  0.00     0.057 A 
ATOM     66  C   UNL A   1      46.875  28.669  31.018  1.00  0.00     0.134 A 
ATOM     67  C   UNL A   1      45.939  27.769  33.030  1.00  0.00     0.134 A 
ATOM     68  F   UNL A   1      46.779  29.384  29.886  1.00  0.00    -0.206 F 
ATOM     69  C   UNL A   1      48.086  28.030  31.287  1.00  0.00     0.040 A 
ATOM     70  C   UNL A   1      47.156  27.150  33.325  1.00  0.00     0.040 A 
ATOM     71  F   UNL A   1      44.927  27.608  33.895  1.00  0.00    -0.206 F 
ATOM     72  C   UNL A   1      48.231  27.273  32.448  1.00  0.00     0.006 A 
ENDBRANCH  51  65
BRANCH  52  73
ATOM     73  C   UNL A   1      36.819  32.532  29.952  1.00  0.00     0.057 A 
ATOM     74  C   UNL A   1      35.720  32.221  30.761  1.00  0.00     0.134 A 
ATOM     75  C   UNL A   1      36.608  33.420  28.890  1.00  0.00     0.134 A 
ATOM     76  F   UNL A   1      35.857  31.364  31.783  1.00  0.00    -0.206 F 
ATOM     77  C   UNL A   1      34.455  32.756  30.514  1.00  0.00     0.040 A 
ATOM     78  C   UNL A   1      35.354  33.983  28.647  1.00  0.00     0.040 A 
ATOM     79  F   UNL A   1      37.622  33.766  28.083  1.00  0.00    -0.206 F 
ATOM     80  C   UNL A   1      34.271  33.645  29.456  1.00  0.00     0.006 A 
ENDBRANCH  52  73
BRANCH  64  81
ATOM     81  C   UNL A   1      42.435  34.751  33.419  1.00  0.00     0.057 A 
ATOM     82  C   UNL A   1      43.049  35.842  32.790  1.00  0.00     0.134 A 
ATOM     83  C   UNL A   1      42.069  34.902  34.763  1.00  0.00     0.134 A 
ATOM     84  F   UNL A   1      43.438  35.758  31.508  1.00  0.00    -0.206 F 
ATOM     85  C   UNL A   1      43.309  37.028  33.478  1.00  0.00     0.040 A 
ATOM     86  C   UNL A   1      42.296  36.094  35.453  1.00  0.00     0.040 A 
ATOM     87  F   UNL A   1      41.468  33.901  35.423  1.00  0.00    -0.206 F 
ATOM     88  C   UNL A   1      42.926  37.159  34.812  1.00  0.00     0.006 A 
ENDBRANCH  64  81
ENDBRANCH  38  39
ENDBRANCH  30  33
ENDBRANCH  28  29
ENDBRANCH  27  28
ENDBRANCH  26  27
ENDBRANCH   1  26
TORSDOF 16
ENDMDL
MODEL 2
REMARK VINA RESULT:     -11.4      3.420      8.839
REMARK SMILES Cc1cc(C(=O)Nc2ccn(C)n2)sc1/C=C/C(=O)NCCCCCCNC(=O)c1ccc(-c2c3nc(c(-c4c(F)cccc4F)c4ccc([nH]4)c(-c4c(F)cccc4F)c4nc(c(-c5c(F)cccc5F)c5ccc2[nH]5)C=C4)C=C3)cc1
REMARK SMILES IDX 23 1 22 2 21 3 20 4 18 5 19 6 17 8 16 9 15 10 1 11 2 12 3 13
REMARK SMILES IDX 4 14 14 15 5 16 6 17 7 18 8 20 9 21 13 22 10 23 11 24 12 25
REMARK SMILES IDX 24 26 25 27 26 28 27 29 28 30 29 32 30 33 31 34 83 35 32 36
REMARK SMILES IDX 82 37 33 38 34 39 35 40 76 41 36 42 81 43 75 44 77 45 37 46
REMARK SMILES IDX 80 47 74 48 73 49 38 51 64 52 47 53 63 54 48 55 51 56 62 57
REMARK SMILES IDX 78 58 49 59 50 60 61 62 79 63 52 64 39 65 40 66 45 67 41 68
REMARK SMILES IDX 42 69 44 70 46 71 43 72 65 73 66 74 71 75 67 76 68 77 70 78
REMARK SMILES IDX 72 79 69 80 53 81 54 82 59 83 55 84 56 85 58 86 60 87 57 88
REMARK H PARENT 20 7 7 19 27 31 77 50 51 61
REMARK Flexibility Score: inf
ROOT
ATOM      1  C   UNL A   1      34.520  32.618  29.132  1.00  0.00     0.002 C 
ENDROOT
BRANCH   1   2
ATOM      2  C   UNL A   1      35.273  31.644  28.219  1.00  0.00     0.021 C 
BRANCH   2   3
ATOM      3  C   UNL A   1      34.370  30.546  27.657  1.00  0.00     0.116 C 
BRANCH   3   4
ATOM      4  N   UNL A   1      33.188  31.137  27.059  1.00  0.00    -0.353 N 
ATOM      5  C   UNL A   1      32.147  30.564  26.403  1.00  0.00     0.244 C 
ATOM      6  O   UNL A   1      31.215  31.261  26.007  1.00  0.00    -0.270 OA
ATOM      7  H   UNL A   1      33.131  32.116  27.144  1.00  0.00     0.163 HD
BRANCH   5   8
ATOM      8  C   UNL A   1      32.073  29.097  26.248  1.00  0.00     0.072 C 
ATOM      9  C   UNL A   1      31.384  28.474  25.281  1.00  0.00     0.025 C 
BRANCH   9  10
ATOM     10  C   UNL A   1      31.293  27.057  25.149  1.00  0.00     0.031 A 
ATOM     11  C   UNL A   1      30.868  26.765  22.627  1.00  0.00     0.046 C 
ATOM     12  C   UNL A   1      30.933  26.293  24.043  1.00  0.00    -0.032 A 
ATOM     13  C   UNL A   1      30.556  24.965  24.451  1.00  0.00     0.029 A 
ATOM     14  C   UNL A   1      30.737  24.741  25.806  1.00  0.00     0.093 A 
ATOM     15  S   UNL A   1      31.733  25.986  26.417  1.00  0.00    -0.130 S 
BRANCH  14  16
ATOM     16  C   UNL A   1      30.384  23.545  26.567  1.00  0.00     0.266 C 
ATOM     17  O   UNL A   1      29.507  23.582  27.436  1.00  0.00    -0.268 OA
ATOM     18  N   UNL A   1      30.946  22.316  26.294  1.00  0.00    -0.304 N 
ATOM     19  H   UNL A   1      30.429  21.542  26.612  1.00  0.00     0.171 HD
BRANCH  18  20
ATOM     20  C   UNL A   1      32.114  22.004  25.645  1.00  0.00     0.154 A 
ATOM     21  C   UNL A   1      32.316  21.325  24.419  1.00  0.00     0.068 A 
ATOM     22  N   UNL A   1      33.277  22.359  26.194  1.00  0.00    -0.155 NA
ATOM     23  C   UNL A   1      33.674  21.114  24.347  1.00  0.00     0.110 A 
ATOM     24  N   UNL A   1      34.189  21.680  25.475  1.00  0.00    -0.274 N 
ATOM     25  C   UNL A   1      35.527  21.524  25.992  1.00  0.00     0.173 C 
ENDBRANCH  18  20
ENDBRANCH  14  16
ENDBRANCH   9  10
ENDBRANCH   5   8
ENDBRANCH   3   4
ENDBRANCH   2   3
ENDBRANCH   1   2
BRANCH   1  26
ATOM     26  C   UNL A   1      34.569  34.081  28.675  1.00  0.00     0.002 C 
BRANCH  26  27
ATOM     27  C   UNL A   1      33.262  34.856  28.865  1.00  0.00     0.021 C 
BRANCH  27  28
ATOM     28  C   UNL A   1      33.425  36.165  29.629  1.00  0.00     0.116 C 
BRANCH  28  29
ATOM     29  N   UNL A   1      32.493  36.250  30.742  1.00  0.00    -0.352 N 
ATOM     30  C   UNL A   1      32.520  35.601  31.950  1.00  0.00     0.251 C 
ATOM     31  H   UNL A   1      31.732  36.861  30.609  1.00  0.00     0.163 HD
ATOM     32  O   UNL A   1      31.530  35.594  32.672  1.00  0.00    -0.269 OA
BRANCH  30  33
ATOM     33  C   UNL A   1      33.750  34.901  32.374  1.00  0.00     0.039 A 
ATOM     34  C   UNL A   1      33.652  33.598  32.865  1.00  0.00     0.014 A 
ATOM     35  C   UNL A   1      34.992  35.538  32.303  1.00  0.00     0.014 A 
ATOM     36  C   UNL A   1      34.809  32.913  33.237  1.00  0.00     0.010 A 
ATOM     37  C   UNL A   1      36.150  34.830  32.603  1.00  0.00     0.010 A 
ATOM     38  C   UNL A   1      36.070  33.513  33.081  1.00  0.00    -0.014 A 
BRANCH  38  39
ATOM     39  C   UNL A   1      37.315  32.781  33.417  1.00  0.00     0.031 A 
ATOM     40  C   UNL A   1      38.057  33.093  34.687  1.00  0.00     0.074 A 
ATOM     41  C   UNL A   1      37.810  31.878  32.549  1.00  0.00     0.049 A 
ATOM     42  N   UNL A   1      39.189  32.605  35.126  1.00  0.00    -0.248 NA
ATOM     43  C   UNL A   1      37.460  34.110  35.568  1.00  0.00     0.031 C 
ATOM     44  C   UNL A   1      37.207  31.523  31.263  1.00  0.00     0.029 A 
ATOM     45  N   UNL A   1      38.939  31.103  32.612  1.00  0.00    -0.354 N 
ATOM     46  C   UNL A   1      39.445  33.261  36.323  1.00  0.00     0.074 A 
ATOM     47  C   UNL A   1      38.382  34.223  36.513  1.00  0.00     0.031 C 
ATOM     48  C   UNL A   1      37.958  30.580  30.672  1.00  0.00     0.029 A 
ATOM     49  C   UNL A   1      39.115  30.296  31.515  1.00  0.00     0.049 A 
ATOM     50  H   UNL A   1      39.566  31.123  33.372  1.00  0.00     0.167 HD
ATOM     51  C   UNL A   1      40.462  33.064  37.194  1.00  0.00     0.037 A 
ATOM     52  C   UNL A   1      40.101  29.429  31.219  1.00  0.00     0.037 A 
ATOM     53  C   UNL A   1      41.508  32.092  37.009  1.00  0.00     0.049 A 
ATOM     54  C   UNL A   1      41.227  29.237  32.197  1.00  0.00     0.074 A 
ATOM     55  C   UNL A   1      42.549  31.772  37.861  1.00  0.00     0.029 A 
ATOM     56  N   UNL A   1      41.648  31.286  35.887  1.00  0.00    -0.354 N 
ATOM     57  N   UNL A   1      41.419  29.814  33.359  1.00  0.00    -0.248 NA
ATOM     58  C   UNL A   1      42.269  28.270  31.825  1.00  0.00     0.031 C 
ATOM     59  C   UNL A   1      43.349  30.810  37.234  1.00  0.00     0.029 A 
ATOM     60  C   UNL A   1      42.774  30.489  36.014  1.00  0.00     0.049 A 
ATOM     61  H   UNL A   1      41.036  31.282  35.116  1.00  0.00     0.167 HD
ATOM     62  C   UNL A   1      42.588  29.260  33.869  1.00  0.00     0.074 A 
ATOM     63  C   UNL A   1      43.050  28.292  32.895  1.00  0.00     0.031 C 
ATOM     64  C   UNL A   1      43.219  29.529  35.038  1.00  0.00     0.037 A 
BRANCH  51  65
ATOM     65  C   UNL A   1      40.491  33.919  38.429  1.00  0.00     0.057 A 
ATOM     66  C   UNL A   1      39.782  33.572  39.588  1.00  0.00     0.134 A 
ATOM     67  C   UNL A   1      41.253  35.094  38.469  1.00  0.00     0.134 A 
ATOM     68  F   UNL A   1      39.022  32.466  39.614  1.00  0.00    -0.206 F 
ATOM     69  C   UNL A   1      39.806  34.376  40.728  1.00  0.00     0.040 A 
ATOM     70  C   UNL A   1      41.308  35.891  39.614  1.00  0.00     0.040 A 
ATOM     71  F   UNL A   1      41.961  35.484  37.398  1.00  0.00    -0.206 F 
ATOM     72  C   UNL A   1      40.576  35.536  40.745  1.00  0.00     0.006 A 
ENDBRANCH  51  65
BRANCH  52  73
ATOM     73  C   UNL A   1      40.055  28.657  29.951  1.00  0.00     0.057 A 
ATOM     74  C   UNL A   1      39.337  27.459  29.862  1.00  0.00     0.134 A 
ATOM     75  C   UNL A   1      40.722  29.097  28.802  1.00  0.00     0.134 A 
ATOM     76  F   UNL A   1      38.690  26.979  30.933  1.00  0.00    -0.206 F 
ATOM     77  C   UNL A   1      39.300  26.715  28.681  1.00  0.00     0.040 A 
ATOM     78  C   UNL A   1      40.673  28.376  27.608  1.00  0.00     0.040 A 
ATOM     79  F   UNL A   1      41.420  30.242  28.819  1.00  0.00    -0.206 F 
ATOM     80  C   UNL A   1      39.966  27.177  27.547  1.00  0.00     0.006 A 
ENDBRANCH  52  73
BRANCH  64  81
ATOM     81  C   UNL A   1      44.461  28.743  35.342  1.00  0.00     0.057 A 
ATOM     82  C   UNL A   1      45.735  29.196  34.976  1.00  0.00     0.134 A 
ATOM     83  C   UNL A   1      44.382  27.533  36.045  1.00  0.00     0.134 A 
ATOM     84  F   UNL A   1      45.878  30.340  34.289  1.00  0.00    -0.206 F 
ATOM     85  C   UNL A   1      46.884  28.463  35.277  1.00  0.00     0.040 A 
ATOM     86  C   UNL A   1      45.526  26.806  36.378  1.00  0.00     0.040 A 
ATOM     87  F   UNL A   1      43.195  27.046  36.434  1.00  0.00    -0.206 F 
ATOM     88  C   UNL A   1      46.782  27.267  35.987  1.00  0.00     0.006 A 
ENDBRANCH  64  81
ENDBRANCH  38  39
ENDBRANCH  30  33
ENDBRANCH  28  29
ENDBRANCH  27  28
ENDBRANCH  26  27
ENDBRANCH   1  26
TORSDOF 16
ENDMDL
MODEL 3
REMARK VINA RESULT:     -11.2      2.920      4.299
REMARK SMILES Cc1cc(C(=O)Nc2ccn(C)n2)sc1/C=C/C(=O)NCCCCCCNC(=O)c1ccc(-c2c3nc(c(-c4c(F)cccc4F)c4ccc([nH]4)c(-c4c(F)cccc4F)c4nc(c(-c5c(F)cccc5F)c5ccc2[nH]5)C=C4)C=C3)cc1
REMARK SMILES IDX 23 1 22 2 21 3 20 4 18 5 19 6 17 8 16 9 15 10 1 11 2 12 3 13
REMARK SMILES IDX 4 14 14 15 5 16 6 17 7 18 8 20 9 21 13 22 10 23 11 24 12 25
REMARK SMILES IDX 24 26 25 27 26 28 27 29 28 30 29 32 30 33 31 34 83 35 32 36
REMARK SMILES IDX 82 37 33 38 34 39 35 40 76 41 36 42 81 43 75 44 77 45 37 46
REMARK SMILES IDX 80 47 74 48 73 49 38 51 64 52 47 53 63 54 48 55 51 56 62 57
REMARK SMILES IDX 78 58 49 59 50 60 61 62 79 63 52 64 39 65 40 66 45 67 41 68
REMARK SMILES IDX 42 69 44 70 46 71 43 72 65 73 66 74 71 75 67 76 68 77 70 78
REMARK SMILES IDX 72 79 69 80 53 81 54 82 59 83 55 84 56 85 58 86 60 87 57 88
REMARK H PARENT 20 7 7 19 27 31 77 50 51 61
REMARK Flexibility Score: inf
ROOT
ATOM      1  C   UNL A   1      35.657  20.394  25.010  1.00  0.00     0.002 C 
ENDROOT
BRANCH   1   2
ATOM      2  C   UNL A   1      34.631  21.520  24.839  1.00  0.00     0.021 C 
BRANCH   2   3
ATOM      3  C   UNL A   1      33.189  21.018  24.910  1.00  0.00     0.116 C 
BRANCH   3   4
ATOM      4  N   UNL A   1      32.587  21.423  26.166  1.00  0.00    -0.353 N 
ATOM      5  C   UNL A   1      32.077  22.617  26.559  1.00  0.00     0.244 C 
ATOM      6  O   UNL A   1      31.571  22.730  27.673  1.00  0.00    -0.270 OA
ATOM      7  H   UNL A   1      32.542  20.713  26.847  1.00  0.00     0.163 HD
BRANCH   5   8
ATOM      8  C   UNL A   1      32.030  23.759  25.622  1.00  0.00     0.072 C 
ATOM      9  C   UNL A   1      31.120  23.898  24.647  1.00  0.00     0.025 C 
BRANCH   9  10
ATOM     10  C   UNL A   1      31.093  24.988  23.728  1.00  0.00     0.031 A 
ATOM     11  C   UNL A   1      32.872  24.296  22.001  1.00  0.00     0.046 C 
ATOM     12  C   UNL A   1      31.933  25.259  22.653  1.00  0.00    -0.032 A 
ATOM     13  C   UNL A   1      31.831  26.644  22.271  1.00  0.00     0.029 A 
ATOM     14  C   UNL A   1      30.866  27.334  22.986  1.00  0.00     0.093 A 
ATOM     15  S   UNL A   1      29.865  26.188  23.762  1.00  0.00    -0.130 S 
BRANCH  14  16
ATOM     16  C   UNL A   1      30.554  28.759  22.917  1.00  0.00     0.266 C 
ATOM     17  O   UNL A   1      30.068  29.253  21.895  1.00  0.00    -0.268 OA
ATOM     18  N   UNL A   1      30.704  29.592  24.006  1.00  0.00    -0.304 N 
ATOM     19  H   UNL A   1      30.178  30.422  23.971  1.00  0.00     0.171 HD
BRANCH  18  20
ATOM     20  C   UNL A   1      31.474  29.441  25.132  1.00  0.00     0.154 A 
ATOM     21  C   UNL A   1      31.465  28.411  26.104  1.00  0.00     0.068 A 
ATOM     22  N   UNL A   1      32.388  30.367  25.423  1.00  0.00    -0.155 NA
ATOM     23  C   UNL A   1      32.291  28.860  27.108  1.00  0.00     0.110 A 
ATOM     24  N   UNL A   1      32.750  30.072  26.686  1.00  0.00    -0.274 N 
ATOM     25  C   UNL A   1      33.452  31.057  27.471  1.00  0.00     0.173 C 
ENDBRANCH  18  20
ENDBRANCH  14  16
ENDBRANCH   9  10
ENDBRANCH   5   8
ENDBRANCH   3   4
ENDBRANCH   2   3
ENDBRANCH   1   2
BRANCH   1  26
ATOM     26  C   UNL A   1      37.086  20.772  24.597  1.00  0.00     0.002 C 
BRANCH  26  27
ATOM     27  C   UNL A   1      38.137  19.693  24.868  1.00  0.00     0.021 C 
BRANCH  27  28
ATOM     28  C   UNL A   1      39.146  20.069  25.947  1.00  0.00     0.116 C 
BRANCH  28  29
ATOM     29  N   UNL A   1      40.296  19.180  25.933  1.00  0.00    -0.352 N 
ATOM     30  C   UNL A   1      41.629  19.482  26.050  1.00  0.00     0.251 C 
ATOM     31  H   UNL A   1      40.089  18.224  25.823  1.00  0.00     0.163 HD
ATOM     32  O   UNL A   1      42.480  18.647  25.767  1.00  0.00    -0.269 OA
BRANCH  30  33
ATOM     33  C   UNL A   1      42.035  20.825  26.511  1.00  0.00     0.039 A 
ATOM     34  C   UNL A   1      42.369  21.794  25.563  1.00  0.00     0.014 A 
ATOM     35  C   UNL A   1      42.100  21.120  27.876  1.00  0.00     0.014 A 
ATOM     36  C   UNL A   1      42.721  23.077  25.984  1.00  0.00     0.010 A 
ATOM     37  C   UNL A   1      42.378  22.417  28.291  1.00  0.00     0.010 A 
ATOM     38  C   UNL A   1      42.699  23.407  27.349  1.00  0.00    -0.014 A 
BRANCH  38  39
ATOM     39  C   UNL A   1      43.015  24.780  27.813  1.00  0.00     0.031 A 
ATOM     40  C   UNL A   1      44.443  25.197  28.026  1.00  0.00     0.074 A 
ATOM     41  C   UNL A   1      42.011  25.632  28.099  1.00  0.00     0.049 A 
ATOM     42  N   UNL A   1      44.916  26.330  28.482  1.00  0.00    -0.248 NA
ATOM     43  C   UNL A   1      45.477  24.198  27.713  1.00  0.00     0.031 C 
ATOM     44  C   UNL A   1      40.584  25.328  27.977  1.00  0.00     0.029 A 
ATOM     45  N   UNL A   1      42.038  26.922  28.561  1.00  0.00    -0.354 N 
ATOM     46  C   UNL A   1      46.295  26.175  28.520  1.00  0.00     0.074 A 
ATOM     47  C   UNL A   1      46.581  24.821  28.098  1.00  0.00     0.031 C 
ATOM     48  C   UNL A   1      39.874  26.411  28.329  1.00  0.00     0.029 A 
ATOM     49  C   UNL A   1      40.791  27.469  28.741  1.00  0.00     0.049 A 
ATOM     50  H   UNL A   1      42.873  27.411  28.747  1.00  0.00     0.167 HD
ATOM     51  C   UNL A   1      47.239  27.087  28.855  1.00  0.00     0.037 A 
ATOM     52  C   UNL A   1      40.428  28.684  29.192  1.00  0.00     0.037 A 
ATOM     53  C   UNL A   1      46.950  28.438  29.257  1.00  0.00     0.049 A 
ATOM     54  C   UNL A   1      41.495  29.674  29.571  1.00  0.00     0.074 A 
ATOM     55  C   UNL A   1      47.837  29.457  29.558  1.00  0.00     0.029 A 
ATOM     56  N   UNL A   1      45.674  28.958  29.419  1.00  0.00    -0.354 N 
ATOM     57  N   UNL A   1      42.799  29.538  29.535  1.00  0.00    -0.248 NA
ATOM     58  C   UNL A   1      41.039  30.987  30.047  1.00  0.00     0.031 C 
ATOM     59  C   UNL A   1      47.097  30.578  29.952  1.00  0.00     0.029 A 
ATOM     60  C   UNL A   1      45.749  30.275  29.842  1.00  0.00     0.049 A 
ATOM     61  H   UNL A   1      44.838  28.464  29.256  1.00  0.00     0.167 HD
ATOM     62  C   UNL A   1      43.319  30.756  29.957  1.00  0.00     0.074 A 
ATOM     63  C   UNL A   1      42.189  31.621  30.228  1.00  0.00     0.031 C 
ATOM     64  C   UNL A   1      44.615  31.124  30.105  1.00  0.00     0.037 A 
BRANCH  51  65
ATOM     65  C   UNL A   1      48.675  26.647  28.801  1.00  0.00     0.057 A 
ATOM     66  C   UNL A   1      49.450  26.788  27.642  1.00  0.00     0.134 A 
ATOM     67  C   UNL A   1      49.297  26.096  29.929  1.00  0.00     0.134 A 
ATOM     68  F   UNL A   1      48.913  27.298  26.522  1.00  0.00    -0.206 F 
ATOM     69  C   UNL A   1      50.780  26.369  27.596  1.00  0.00     0.040 A 
ATOM     70  C   UNL A   1      50.637  25.701  29.904  1.00  0.00     0.040 A 
ATOM     71  F   UNL A   1      48.617  25.937  31.074  1.00  0.00    -0.206 F 
ATOM     72  C   UNL A   1      51.379  25.830  28.733  1.00  0.00     0.006 A 
ENDBRANCH  51  65
BRANCH  52  73
ATOM     73  C   UNL A   1      38.991  29.041  29.287  1.00  0.00     0.057 A 
ATOM     74  C   UNL A   1      38.290  29.518  28.172  1.00  0.00     0.134 A 
ATOM     75  C   UNL A   1      38.282  28.915  30.488  1.00  0.00     0.134 A 
ATOM     76  F   UNL A   1      38.918  29.676  26.998  1.00  0.00    -0.206 F 
ATOM     77  C   UNL A   1      36.943  29.874  28.252  1.00  0.00     0.040 A 
ATOM     78  C   UNL A   1      36.929  29.243  30.575  1.00  0.00     0.040 A 
ATOM     79  F   UNL A   1      38.893  28.455  31.590  1.00  0.00    -0.206 F 
ATOM     80  C   UNL A   1      36.257  29.731  29.457  1.00  0.00     0.006 A 
ENDBRANCH  52  73
BRANCH  64  81
ATOM     81  C   UNL A   1      44.881  32.532  30.552  1.00  0.00     0.057 A 
ATOM     82  C   UNL A   1      44.927  33.601  29.648  1.00  0.00     0.134 A 
ATOM     83  C   UNL A   1      45.057  32.826  31.911  1.00  0.00     0.134 A 
ATOM     84  F   UNL A   1      44.781  33.385  28.331  1.00  0.00    -0.206 F 
ATOM     85  C   UNL A   1      45.162  34.909  30.076  1.00  0.00     0.040 A 
ATOM     86  C   UNL A   1      45.263  34.134  32.354  1.00  0.00     0.040 A 
ATOM     87  F   UNL A   1      45.015  31.852  32.831  1.00  0.00    -0.206 F 
ATOM     88  C   UNL A   1      45.323  35.179  31.434  1.00  0.00     0.006 A 
ENDBRANCH  64  81
ENDBRANCH  38  39
ENDBRANCH  30  33
ENDBRANCH  28  29
ENDBRANCH  27  28
ENDBRANCH  26  27
ENDBRANCH   1  26
TORSDOF 16
ENDMDL
