MODEL 1
REMARK VINA RESULT:     -13.9      0.000      0.000
REMARK SMILES Cc1cccc(N2C(=O)/C(=C/c3ccc(C(=O)NCCCCCCNC(=O)c4ccc(-c5c6nc(c(-c7c(F)cccc7F)c7ccc([nH]7)c(-c7c(F)cccc7F)c7nc(c(-c8c(F)cccc8F)c8ccc5[nH]8)C=C7)C=C6)cc4)cc3)c3ccccc3C2=O)c1
REMARK SMILES IDX 21 1 20 2 19 3 18 4 16 5 17 6 15 8 12 9 13 10 83 11 14 12
REMARK SMILES IDX 82 13 11 14 7 15 8 16 90 17 9 18 10 19 89 20 91 21 84 22
REMARK SMILES IDX 88 23 85 24 87 25 86 26 6 27 1 28 2 29 3 30 92 31 4 32 5 33
REMARK SMILES IDX 22 34 23 35 24 36 25 37 26 38 27 40 28 41 29 42 81 43 30 44
REMARK SMILES IDX 80 45 31 46 32 47 33 48 74 49 34 50 79 51 73 52 75 53 35 54
REMARK SMILES IDX 78 55 72 56 71 57 36 59 62 60 45 61 61 62 46 63 49 64 60 65
REMARK SMILES IDX 76 66 47 67 48 68 59 70 77 71 50 72 37 73 38 74 43 75 39 76
REMARK SMILES IDX 40 77 42 78 44 79 41 80 63 81 64 82 69 83 65 84 66 85 68 86
REMARK SMILES IDX 70 87 67 88 51 89 52 90 57 91 53 92 54 93 56 94 58 95 55 96
REMARK H PARENT 18 7 25 39 75 58 49 69
REMARK Flexibility Score: inf
ROOT
ATOM      1  C   UNL A   1      36.802  23.589  24.783  1.00  0.00     0.002 C 
ENDROOT
BRANCH   1   2
ATOM      2  C   UNL A   1      35.883  22.365  24.692  1.00  0.00     0.021 C 
BRANCH   2   3
ATOM      3  C   UNL A   1      34.970  22.085  25.887  1.00  0.00     0.116 C 
BRANCH   3   4
ATOM      4  N   UNL A   1      34.263  20.820  25.806  1.00  0.00    -0.352 N 
ATOM      5  C   UNL A   1      32.982  20.564  25.374  1.00  0.00     0.251 C 
ATOM      6  O   UNL A   1      32.539  19.420  25.415  1.00  0.00    -0.269 OA
ATOM      7  H   UNL A   1      34.773  20.033  26.104  1.00  0.00     0.163 HD
BRANCH   5   8
ATOM      8  C   UNL A   1      32.109  21.669  24.918  1.00  0.00     0.039 A 
ATOM      9  C   UNL A   1      30.631  23.943  24.221  1.00  0.00    -0.025 A 
ATOM     10  C   UNL A   1      30.508  23.388  25.500  1.00  0.00     0.009 A 
ATOM     11  C   UNL A   1      31.395  23.272  23.255  1.00  0.00     0.009 A 
ATOM     12  C   UNL A   1      31.244  22.253  25.847  1.00  0.00     0.014 A 
ATOM     13  C   UNL A   1      32.135  22.139  23.602  1.00  0.00     0.014 A 
BRANCH   9  14
ATOM     14  C   UNL A   1      29.973  25.224  23.935  1.00  0.00     0.022 C 
ATOM     15  N   UNL A   1      30.295  28.730  23.167  1.00  0.00    -0.242 N 
ATOM     16  C   UNL A   1      29.600  27.595  23.636  1.00  0.00     0.265 C 
ATOM     17  C   UNL A   1      31.706  28.760  23.137  1.00  0.00     0.265 C 
ATOM     18  O   UNL A   1      28.382  27.413  23.604  1.00  0.00    -0.268 OA
ATOM     19  C   UNL A   1      30.468  26.468  24.136  1.00  0.00     0.049 C 
ATOM     20  C   UNL A   1      32.424  27.906  24.114  1.00  0.00     0.048 A 
ATOM     21  O   UNL A   1      32.428  29.438  22.408  1.00  0.00    -0.268 OA
ATOM     22  C   UNL A   1      31.786  26.808  24.676  1.00  0.00    -0.000 A 
ATOM     23  C   UNL A   1      33.738  28.234  24.485  1.00  0.00     0.014 A 
ATOM     24  C   UNL A   1      32.433  26.107  25.705  1.00  0.00     0.010 A 
ATOM     25  C   UNL A   1      34.399  27.488  25.459  1.00  0.00     0.001 A 
ATOM     26  C   UNL A   1      33.738  26.436  26.084  1.00  0.00     0.001 A 
BRANCH  15  27
ATOM     27  C   UNL A   1      29.533  29.846  22.603  1.00  0.00     0.053 A 
ATOM     28  C   UNL A   1      28.935  33.582  23.292  1.00  0.00     0.044 C 
ATOM     29  C   UNL A   1      28.864  32.228  22.647  1.00  0.00    -0.049 A 
ATOM     30  C   UNL A   1      28.076  32.043  21.515  1.00  0.00     0.003 A 
ATOM     31  C   UNL A   1      29.596  31.140  23.164  1.00  0.00     0.030 A 
ATOM     32  C   UNL A   1      28.010  30.791  20.921  1.00  0.00     0.002 A 
ATOM     33  C   UNL A   1      28.724  29.713  21.461  1.00  0.00     0.027 A 
ENDBRANCH  15  27
ENDBRANCH   9  14
ENDBRANCH   5   8
ENDBRANCH   3   4
ENDBRANCH   2   3
ENDBRANCH   1   2
BRANCH   1  34
ATOM     34  C   UNL A   1      37.851  23.609  25.904  1.00  0.00     0.002 C 
BRANCH  34  35
ATOM     35  C   UNL A   1      38.825  22.434  25.959  1.00  0.00     0.021 C 
BRANCH  35  36
ATOM     36  C   UNL A   1      39.756  22.413  27.163  1.00  0.00     0.116 C 
BRANCH  36  37
ATOM     37  N   UNL A   1      41.116  22.867  26.902  1.00  0.00    -0.352 N 
ATOM     38  C   UNL A   1      41.610  24.158  26.773  1.00  0.00     0.251 C 
ATOM     39  H   UNL A   1      41.784  22.151  26.802  1.00  0.00     0.163 HD
ATOM     40  O   UNL A   1      42.784  24.335  26.499  1.00  0.00    -0.269 OA
BRANCH  38  41
ATOM     41  C   UNL A   1      40.748  25.322  27.119  1.00  0.00     0.039 A 
ATOM     42  C   UNL A   1      40.824  26.457  26.300  1.00  0.00     0.014 A 
ATOM     43  C   UNL A   1      40.065  25.391  28.328  1.00  0.00     0.014 A 
ATOM     44  C   UNL A   1      40.481  27.703  26.820  1.00  0.00     0.010 A 
ATOM     45  C   UNL A   1      39.836  26.630  28.890  1.00  0.00     0.010 A 
ATOM     46  C   UNL A   1      40.117  27.789  28.162  1.00  0.00    -0.014 A 
BRANCH  46  47
ATOM     47  C   UNL A   1      40.146  29.027  28.932  1.00  0.00     0.031 A 
ATOM     48  C   UNL A   1      39.061  30.019  28.819  1.00  0.00     0.074 A 
ATOM     49  C   UNL A   1      41.102  29.193  29.874  1.00  0.00     0.049 A 
ATOM     50  N   UNL A   1      39.170  31.247  29.197  1.00  0.00    -0.248 NA
ATOM     51  C   UNL A   1      37.757  29.707  28.247  1.00  0.00     0.031 C 
ATOM     52  C   UNL A   1      41.114  30.163  30.965  1.00  0.00     0.029 A 
ATOM     53  N   UNL A   1      42.382  28.623  29.904  1.00  0.00    -0.354 N 
ATOM     54  C   UNL A   1      37.915  31.806  29.183  1.00  0.00     0.074 A 
ATOM     55  C   UNL A   1      37.079  30.823  28.530  1.00  0.00     0.031 C 
ATOM     56  C   UNL A   1      42.380  30.344  31.369  1.00  0.00     0.029 A 
ATOM     57  C   UNL A   1      43.234  29.611  30.453  1.00  0.00     0.049 A 
ATOM     58  H   UNL A   1      42.636  27.720  29.605  1.00  0.00     0.167 HD
ATOM     59  C   UNL A   1      37.703  32.987  29.833  1.00  0.00     0.037 A 
ATOM     60  C   UNL A   1      44.244  30.154  29.712  1.00  0.00     0.037 A 
ATOM     61  C   UNL A   1      38.937  33.514  30.415  1.00  0.00     0.049 A 
ATOM     62  C   UNL A   1      44.132  31.647  29.478  1.00  0.00     0.074 A 
ATOM     63  C   UNL A   1      39.485  33.524  31.687  1.00  0.00     0.029 A 
ATOM     64  N   UNL A   1      39.950  33.914  29.565  1.00  0.00    -0.354 N 
ATOM     65  N   UNL A   1      43.130  32.381  29.875  1.00  0.00    -0.248 NA
ATOM     66  C   UNL A   1      45.099  32.414  28.689  1.00  0.00     0.031 C 
ATOM     67  C   UNL A   1      40.838  33.952  31.588  1.00  0.00     0.029 A 
ATOM     68  C   UNL A   1      41.111  34.198  30.255  1.00  0.00     0.049 A 
ATOM     69  H   UNL A   1      39.856  33.988  28.588  1.00  0.00     0.167 HD
ATOM     70  C   UNL A   1      43.254  33.641  29.353  1.00  0.00     0.074 A 
ATOM     71  C   UNL A   1      44.512  33.622  28.633  1.00  0.00     0.031 C 
ATOM     72  C   UNL A   1      42.289  34.593  29.504  1.00  0.00     0.037 A 
BRANCH  59  73
ATOM     73  C   UNL A   1      36.336  33.551  30.136  1.00  0.00     0.057 A 
ATOM     74  C   UNL A   1      35.494  34.002  29.100  1.00  0.00     0.134 A 
ATOM     75  C   UNL A   1      35.800  33.708  31.425  1.00  0.00     0.134 A 
ATOM     76  F   UNL A   1      35.799  33.817  27.809  1.00  0.00    -0.206 F 
ATOM     77  C   UNL A   1      34.285  34.669  29.335  1.00  0.00     0.040 A 
ATOM     78  C   UNL A   1      34.621  34.424  31.679  1.00  0.00     0.040 A 
ATOM     79  F   UNL A   1      36.360  33.125  32.493  1.00  0.00    -0.206 F 
ATOM     80  C   UNL A   1      33.865  34.922  30.630  1.00  0.00     0.006 A 
ENDBRANCH  59  73
BRANCH  60  81
ATOM     81  C   UNL A   1      44.827  29.181  28.750  1.00  0.00     0.057 A 
ATOM     82  C   UNL A   1      45.757  28.241  29.227  1.00  0.00     0.134 A 
ATOM     83  C   UNL A   1      44.207  28.904  27.529  1.00  0.00     0.134 A 
ATOM     84  F   UNL A   1      46.383  28.446  30.398  1.00  0.00    -0.206 F 
ATOM     85  C   UNL A   1      45.969  27.021  28.583  1.00  0.00     0.040 A 
ATOM     86  C   UNL A   1      44.423  27.691  26.865  1.00  0.00     0.040 A 
ATOM     87  F   UNL A   1      43.289  29.741  27.023  1.00  0.00    -0.206 F 
ATOM     88  C   UNL A   1      45.271  26.730  27.414  1.00  0.00     0.006 A 
ENDBRANCH  60  81
BRANCH  72  89
ATOM     89  C   UNL A   1      42.374  35.981  28.941  1.00  0.00     0.057 A 
ATOM     90  C   UNL A   1      41.833  36.324  27.695  1.00  0.00     0.134 A 
ATOM     91  C   UNL A   1      43.131  36.985  29.577  1.00  0.00     0.134 A 
ATOM     92  F   UNL A   1      41.137  35.433  26.976  1.00  0.00    -0.206 F 
ATOM     93  C   UNL A   1      42.015  37.594  27.131  1.00  0.00     0.040 A 
ATOM     94  C   UNL A   1      43.360  38.237  29.002  1.00  0.00     0.040 A 
ATOM     95  F   UNL A   1      43.665  36.800  30.794  1.00  0.00    -0.206 F 
ATOM     96  C   UNL A   1      42.793  38.550  27.776  1.00  0.00     0.006 A 
ENDBRANCH  72  89
ENDBRANCH  46  47
ENDBRANCH  38  41
ENDBRANCH  36  37
ENDBRANCH  35  36
ENDBRANCH  34  35
ENDBRANCH   1  34
TORSDOF 15
ENDMDL
MODEL 2
REMARK VINA RESULT:     -13.8      2.745      4.793
REMARK SMILES Cc1cccc(N2C(=O)/C(=C/c3ccc(C(=O)NCCCCCCNC(=O)c4ccc(-c5c6nc(c(-c7c(F)cccc7F)c7ccc([nH]7)c(-c7c(F)cccc7F)c7nc(c(-c8c(F)cccc8F)c8ccc5[nH]8)C=C7)C=C6)cc4)cc3)c3ccccc3C2=O)c1
REMARK SMILES IDX 21 1 20 2 19 3 18 4 16 5 17 6 15 8 12 9 13 10 83 11 14 12
REMARK SMILES IDX 82 13 11 14 7 15 8 16 90 17 9 18 10 19 89 20 91 21 84 22
REMARK SMILES IDX 88 23 85 24 87 25 86 26 6 27 1 28 2 29 3 30 92 31 4 32 5 33
REMARK SMILES IDX 22 34 23 35 24 36 25 37 26 38 27 40 28 41 29 42 81 43 30 44
REMARK SMILES IDX 80 45 31 46 32 47 33 48 74 49 34 50 79 51 73 52 75 53 35 54
REMARK SMILES IDX 78 55 72 56 71 57 36 59 62 60 45 61 61 62 46 63 49 64 60 65
REMARK SMILES IDX 76 66 47 67 48 68 59 70 77 71 50 72 37 73 38 74 43 75 39 76
REMARK SMILES IDX 40 77 42 78 44 79 41 80 63 81 64 82 69 83 65 84 66 85 68 86
REMARK SMILES IDX 70 87 67 88 51 89 52 90 57 91 53 92 54 93 56 94 58 95 55 96
REMARK H PARENT 18 7 25 39 75 58 49 69
REMARK Flexibility Score: inf
ROOT
ATOM      1  C   UNL A   1      41.340  19.849  27.303  1.00  0.00     0.002 C 
ENDROOT
BRANCH   1   2
ATOM      2  C   UNL A   1      40.717  21.248  27.225  1.00  0.00     0.021 C 
BRANCH   2   3
ATOM      3  C   UNL A   1      39.793  21.538  26.042  1.00  0.00     0.116 C 
BRANCH   3   4
ATOM      4  N   UNL A   1      38.906  20.440  25.703  1.00  0.00    -0.352 N 
ATOM      5  C   UNL A   1      37.633  20.476  25.182  1.00  0.00     0.251 C 
ATOM      6  O   UNL A   1      37.017  19.431  24.995  1.00  0.00    -0.269 OA
ATOM      7  H   UNL A   1      39.267  19.539  25.870  1.00  0.00     0.163 HD
BRANCH   5   8
ATOM      8  C   UNL A   1      36.973  21.772  24.904  1.00  0.00     0.039 A 
ATOM      9  C   UNL A   1      35.491  24.063  24.274  1.00  0.00    -0.025 A 
ATOM     10  C   UNL A   1      36.082  23.305  23.257  1.00  0.00     0.009 A 
ATOM     11  C   UNL A   1      35.761  23.741  25.612  1.00  0.00     0.009 A 
ATOM     12  C   UNL A   1      36.822  22.163  23.571  1.00  0.00     0.014 A 
ATOM     13  C   UNL A   1      36.498  22.597  25.928  1.00  0.00     0.014 A 
BRANCH   9  14
ATOM     14  C   UNL A   1      34.586  25.161  23.910  1.00  0.00     0.022 C 
ATOM     15  N   UNL A   1      31.484  26.897  24.496  1.00  0.00    -0.242 N 
ATOM     16  C   UNL A   1      32.602  26.531  23.718  1.00  0.00     0.265 C 
ATOM     17  C   UNL A   1      31.049  26.094  25.572  1.00  0.00     0.265 C 
ATOM     18  O   UNL A   1      33.136  27.203  22.834  1.00  0.00    -0.268 OA
ATOM     19  C   UNL A   1      33.246  25.220  24.091  1.00  0.00     0.049 C 
ATOM     20  C   UNL A   1      31.358  24.645  25.505  1.00  0.00     0.048 A 
ATOM     21  O   UNL A   1      30.411  26.446  26.562  1.00  0.00    -0.268 OA
ATOM     22  C   UNL A   1      32.402  24.194  24.707  1.00  0.00    -0.000 A 
ATOM     23  C   UNL A   1      30.571  23.736  26.231  1.00  0.00     0.014 A 
ATOM     24  C   UNL A   1      32.577  22.811  24.545  1.00  0.00     0.010 A 
ATOM     25  C   UNL A   1      30.798  22.366  26.118  1.00  0.00     0.001 A 
ATOM     26  C   UNL A   1      31.789  21.902  25.259  1.00  0.00     0.001 A 
BRANCH  15  27
ATOM     27  C   UNL A   1      30.836  28.187  24.244  1.00  0.00     0.053 A 
ATOM     28  C   UNL A   1      28.020  29.633  22.061  1.00  0.00     0.044 C 
ATOM     29  C   UNL A   1      29.134  29.540  23.063  1.00  0.00    -0.049 A 
ATOM     30  C   UNL A   1      29.543  30.680  23.749  1.00  0.00     0.003 A 
ATOM     31  C   UNL A   1      29.767  28.309  23.330  1.00  0.00     0.030 A 
ATOM     32  C   UNL A   1      30.573  30.592  24.674  1.00  0.00     0.002 A 
ATOM     33  C   UNL A   1      31.209  29.366  24.911  1.00  0.00     0.027 A 
ENDBRANCH  15  27
ENDBRANCH   9  14
ENDBRANCH   5   8
ENDBRANCH   3   4
ENDBRANCH   2   3
ENDBRANCH   1   2
BRANCH   1  34
ATOM     34  C   UNL A   1      41.804  19.204  25.989  1.00  0.00     0.002 C 
BRANCH  34  35
ATOM     35  C   UNL A   1      43.300  18.929  25.845  1.00  0.00     0.021 C 
BRANCH  35  36
ATOM     36  C   UNL A   1      43.925  19.383  24.534  1.00  0.00     0.116 C 
BRANCH  36  37
ATOM     37  N   UNL A   1      45.247  19.984  24.654  1.00  0.00    -0.352 N 
ATOM     38  C   UNL A   1      45.604  21.294  24.944  1.00  0.00     0.251 C 
ATOM     39  H   UNL A   1      46.001  19.368  24.507  1.00  0.00     0.163 HD
ATOM     40  O   UNL A   1      46.778  21.618  24.948  1.00  0.00    -0.269 OA
BRANCH  38  41
ATOM     41  C   UNL A   1      44.567  22.262  25.398  1.00  0.00     0.039 A 
ATOM     42  C   UNL A   1      44.366  23.413  24.624  1.00  0.00     0.014 A 
ATOM     43  C   UNL A   1      43.979  22.167  26.654  1.00  0.00     0.014 A 
ATOM     44  C   UNL A   1      43.836  24.557  25.219  1.00  0.00     0.010 A 
ATOM     45  C   UNL A   1      43.565  23.322  27.282  1.00  0.00     0.010 A 
ATOM     46  C   UNL A   1      43.567  24.533  26.585  1.00  0.00    -0.014 A 
BRANCH  46  47
ATOM     47  C   UNL A   1      43.422  25.732  27.403  1.00  0.00     0.031 A 
ATOM     48  C   UNL A   1      42.142  26.462  27.464  1.00  0.00     0.074 A 
ATOM     49  C   UNL A   1      44.429  26.088  28.233  1.00  0.00     0.049 A 
ATOM     50  N   UNL A   1      42.029  27.676  27.883  1.00  0.00    -0.248 NA
ATOM     51  C   UNL A   1      40.877  25.880  27.036  1.00  0.00     0.031 C 
ATOM     52  C   UNL A   1      44.367  27.016  29.358  1.00  0.00     0.029 A 
ATOM     53  N   UNL A   1      45.796  25.814  28.086  1.00  0.00    -0.354 N 
ATOM     54  C   UNL A   1      40.690  27.944  28.042  1.00  0.00     0.074 A 
ATOM     55  C   UNL A   1      40.013  26.814  27.448  1.00  0.00     0.031 C 
ATOM     56  C   UNL A   1      45.603  27.464  29.619  1.00  0.00     0.029 A 
ATOM     57  C   UNL A   1      46.475  26.955  28.577  1.00  0.00     0.049 A 
ATOM     58  H   UNL A   1      46.200  24.996  27.718  1.00  0.00     0.167 HD
ATOM     59  C   UNL A   1      40.310  29.036  28.766  1.00  0.00     0.037 A 
ATOM     60  C   UNL A   1      47.242  27.722  27.748  1.00  0.00     0.037 A 
ATOM     61  C   UNL A   1      41.462  29.812  29.223  1.00  0.00     0.049 A 
ATOM     62  C   UNL A   1      46.781  29.158  27.598  1.00  0.00     0.074 A 
ATOM     63  C   UNL A   1      42.150  29.918  30.422  1.00  0.00     0.029 A 
ATOM     64  N   UNL A   1      42.251  30.442  28.280  1.00  0.00    -0.354 N 
ATOM     65  N   UNL A   1      45.701  29.644  28.143  1.00  0.00    -0.248 NA
ATOM     66  C   UNL A   1      47.453  30.135  26.738  1.00  0.00     0.031 C 
ATOM     67  C   UNL A   1      43.354  30.637  30.184  1.00  0.00     0.029 A 
ATOM     68  C   UNL A   1      43.399  30.962  28.841  1.00  0.00     0.049 A 
ATOM     69  H   UNL A   1      42.022  30.512  27.325  1.00  0.00     0.167 HD
ATOM     70  C   UNL A   1      45.482  30.911  27.669  1.00  0.00     0.074 A 
ATOM     71  C   UNL A   1      46.615  31.184  26.806  1.00  0.00     0.031 C 
ATOM     72  C   UNL A   1      44.360  31.622  27.976  1.00  0.00     0.037 A 
BRANCH  59  73
ATOM     73  C   UNL A   1      38.902  29.279  29.254  1.00  0.00     0.057 A 
ATOM     74  C   UNL A   1      37.889  29.686  28.363  1.00  0.00     0.134 A 
ATOM     75  C   UNL A   1      38.483  29.159  30.589  1.00  0.00     0.134 A 
ATOM     76  F   UNL A   1      38.087  29.734  27.040  1.00  0.00    -0.206 F 
ATOM     77  C   UNL A   1      36.609  30.068  28.786  1.00  0.00     0.040 A 
ATOM     78  C   UNL A   1      37.225  29.591  31.036  1.00  0.00     0.040 A 
ATOM     79  F   UNL A   1      39.247  28.563  31.513  1.00  0.00    -0.206 F 
ATOM     80  C   UNL A   1      36.287  30.064  30.133  1.00  0.00     0.006 A 
ENDBRANCH  59  73
BRANCH  60  81
ATOM     81  C   UNL A   1      47.898  26.921  26.681  1.00  0.00     0.057 A 
ATOM     82  C   UNL A   1      47.291  26.865  25.414  1.00  0.00     0.134 A 
ATOM     83  C   UNL A   1      49.249  26.573  26.758  1.00  0.00     0.134 A 
ATOM     84  F   UNL A   1      45.996  27.192  25.272  1.00  0.00    -0.206 F 
ATOM     85  C   UNL A   1      48.024  26.597  24.257  1.00  0.00     0.040 A 
ATOM     86  C   UNL A   1      49.991  26.287  25.607  1.00  0.00     0.040 A 
ATOM     87  F   UNL A   1      49.903  26.627  27.928  1.00  0.00    -0.206 F 
ATOM     88  C   UNL A   1      49.389  26.342  24.350  1.00  0.00     0.006 A 
ENDBRANCH  60  81
BRANCH  72  89
ATOM     89  C   UNL A   1      44.071  33.005  27.471  1.00  0.00     0.057 A 
ATOM     90  C   UNL A   1      43.890  34.099  28.327  1.00  0.00     0.134 A 
ATOM     91  C   UNL A   1      43.828  33.251  26.104  1.00  0.00     0.134 A 
ATOM     92  F   UNL A   1      44.045  33.971  29.652  1.00  0.00    -0.206 F 
ATOM     93  C   UNL A   1      43.513  35.362  27.850  1.00  0.00     0.040 A 
ATOM     94  C   UNL A   1      43.404  34.491  25.623  1.00  0.00     0.040 A 
ATOM     95  F   UNL A   1      44.011  32.301  25.175  1.00  0.00    -0.206 F 
ATOM     96  C   UNL A   1      43.253  35.557  26.497  1.00  0.00     0.006 A 
ENDBRANCH  72  89
ENDBRANCH  46  47
ENDBRANCH  38  41
ENDBRANCH  36  37
ENDBRANCH  35  36
ENDBRANCH  34  35
ENDBRANCH   1  34
TORSDOF 15
ENDMDL
MODEL 3
REMARK VINA RESULT:     -13.7      2.271      3.694
REMARK SMILES Cc1cccc(N2C(=O)/C(=C/c3ccc(C(=O)NCCCCCCNC(=O)c4ccc(-c5c6nc(c(-c7c(F)cccc7F)c7ccc([nH]7)c(-c7c(F)cccc7F)c7nc(c(-c8c(F)cccc8F)c8ccc5[nH]8)C=C7)C=C6)cc4)cc3)c3ccccc3C2=O)c1
REMARK SMILES IDX 21 1 20 2 19 3 18 4 16 5 17 6 15 8 12 9 13 10 83 11 14 12
REMARK SMILES IDX 82 13 11 14 7 15 8 16 90 17 9 18 10 19 89 20 91 21 84 22
REMARK SMILES IDX 88 23 85 24 87 25 86 26 6 27 1 28 2 29 3 30 92 31 4 32 5 33
REMARK SMILES IDX 22 34 23 35 24 36 25 37 26 38 27 40 28 41 29 42 81 43 30 44
REMARK SMILES IDX 80 45 31 46 32 47 33 48 74 49 34 50 79 51 73 52 75 53 35 54
REMARK SMILES IDX 78 55 72 56 71 57 36 59 62 60 45 61 61 62 46 63 49 64 60 65
REMARK SMILES IDX 76 66 47 67 48 68 59 70 77 71 50 72 37 73 38 74 43 75 39 76
REMARK SMILES IDX 40 77 42 78 44 79 41 80 63 81 64 82 69 83 65 84 66 85 68 86
REMARK SMILES IDX 70 87 67 88 51 89 52 90 57 91 53 92 54 93 56 94 58 95 55 96
REMARK H PARENT 18 7 25 39 75 58 49 69
REMARK Flexibility Score: inf
ROOT
ATOM      1  C   UNL A   1      36.075  22.627  25.116  1.00  0.00     0.002 C 
ENDROOT
BRANCH   1   2
ATOM      2  C   UNL A   1      35.098  23.190  26.157  1.00  0.00     0.021 C 
BRANCH   2   3
ATOM      3  C   UNL A   1      34.410  22.187  27.084  1.00  0.00     0.116 C 
BRANCH   3   4
ATOM      4  N   UNL A   1      34.066  20.931  26.444  1.00  0.00    -0.352 N 
ATOM      5  C   UNL A   1      33.107  20.671  25.492  1.00  0.00     0.251 C 
ATOM      6  O   UNL A   1      32.935  19.523  25.093  1.00  0.00    -0.269 OA
ATOM      7  H   UNL A   1      34.595  20.152  26.732  1.00  0.00     0.163 HD
BRANCH   5   8
ATOM      8  C   UNL A   1      32.234  21.757  24.990  1.00  0.00     0.039 A 
ATOM      9  C   UNL A   1      30.730  23.993  24.233  1.00  0.00    -0.025 A 
ATOM     10  C   UNL A   1      30.499  23.376  25.467  1.00  0.00     0.009 A 
ATOM     11  C   UNL A   1      31.623  23.402  23.327  1.00  0.00     0.009 A 
ATOM     12  C   UNL A   1      31.249  22.259  25.845  1.00  0.00     0.014 A 
ATOM     13  C   UNL A   1      32.376  22.288  23.706  1.00  0.00     0.014 A 
BRANCH   9  14
ATOM     14  C   UNL A   1      30.044  25.257  23.930  1.00  0.00     0.022 C 
ATOM     15  N   UNL A   1      30.290  28.773  23.184  1.00  0.00    -0.242 N 
ATOM     16  C   UNL A   1      29.613  27.618  23.627  1.00  0.00     0.265 C 
ATOM     17  C   UNL A   1      31.700  28.844  23.198  1.00  0.00     0.265 C 
ATOM     18  O   UNL A   1      28.403  27.401  23.556  1.00  0.00    -0.268 OA
ATOM     19  C   UNL A   1      30.497  26.514  24.150  1.00  0.00     0.049 C 
ATOM     20  C   UNL A   1      32.411  28.007  24.194  1.00  0.00     0.048 A 
ATOM     21  O   UNL A   1      32.425  29.545  22.495  1.00  0.00    -0.268 OA
ATOM     22  C   UNL A   1      31.787  26.888  24.733  1.00  0.00    -0.000 A 
ATOM     23  C   UNL A   1      33.704  28.370  24.607  1.00  0.00     0.014 A 
ATOM     24  C   UNL A   1      32.422  26.202  25.780  1.00  0.00     0.010 A 
ATOM     25  C   UNL A   1      34.354  27.639  25.599  1.00  0.00     0.001 A 
ATOM     26  C   UNL A   1      33.704  26.566  26.200  1.00  0.00     0.001 A 
BRANCH  15  27
ATOM     27  C   UNL A   1      29.514  29.870  22.600  1.00  0.00     0.053 A 
ATOM     28  C   UNL A   1      28.864  33.608  23.226  1.00  0.00     0.044 C 
ATOM     29  C   UNL A   1      28.813  32.243  22.604  1.00  0.00    -0.049 A 
ATOM     30  C   UNL A   1      28.030  32.029  21.473  1.00  0.00     0.003 A 
ATOM     31  C   UNL A   1      29.558  31.174  23.140  1.00  0.00     0.030 A 
ATOM     32  C   UNL A   1      27.984  30.766  20.899  1.00  0.00     0.002 A 
ATOM     33  C   UNL A   1      28.711  29.707  21.458  1.00  0.00     0.027 A 
ENDBRANCH  15  27
ENDBRANCH   9  14
ENDBRANCH   5   8
ENDBRANCH   3   4
ENDBRANCH   2   3
ENDBRANCH   1   2
BRANCH   1  34
ATOM     34  C   UNL A   1      37.577  22.772  25.400  1.00  0.00     0.002 C 
BRANCH  34  35
ATOM     35  C   UNL A   1      38.355  21.486  25.676  1.00  0.00     0.021 C 
BRANCH  35  36
ATOM     36  C   UNL A   1      39.780  21.680  26.176  1.00  0.00     0.116 C 
BRANCH  36  37
ATOM     37  N   UNL A   1      40.729  20.661  25.748  1.00  0.00    -0.352 N 
ATOM     38  C   UNL A   1      42.112  20.631  25.866  1.00  0.00     0.251 C 
ATOM     39  H   UNL A   1      40.329  19.875  25.309  1.00  0.00     0.163 HD
ATOM     40  O   UNL A   1      42.743  19.703  25.392  1.00  0.00    -0.269 OA
BRANCH  38  41
ATOM     41  C   UNL A   1      42.809  21.650  26.700  1.00  0.00     0.039 A 
ATOM     42  C   UNL A   1      42.633  21.586  28.089  1.00  0.00     0.014 A 
ATOM     43  C   UNL A   1      43.419  22.763  26.134  1.00  0.00     0.014 A 
ATOM     44  C   UNL A   1      42.796  22.739  28.855  1.00  0.00     0.010 A 
ATOM     45  C   UNL A   1      43.468  23.933  26.862  1.00  0.00     0.010 A 
ATOM     46  C   UNL A   1      43.082  23.936  28.204  1.00  0.00    -0.014 A 
BRANCH  46  47
ATOM     47  C   UNL A   1      42.865  25.252  28.796  1.00  0.00     0.031 A 
ATOM     48  C   UNL A   1      41.687  26.063  28.437  1.00  0.00     0.074 A 
ATOM     49  C   UNL A   1      43.674  25.663  29.799  1.00  0.00     0.049 A 
ATOM     50  N   UNL A   1      41.597  27.331  28.652  1.00  0.00    -0.248 NA
ATOM     51  C   UNL A   1      40.510  25.505  27.783  1.00  0.00     0.031 C 
ATOM     52  C   UNL A   1      43.435  26.752  30.742  1.00  0.00     0.029 A 
ATOM     53  N   UNL A   1      45.001  25.283  30.038  1.00  0.00    -0.354 N 
ATOM     54  C   UNL A   1      40.293  27.705  28.433  1.00  0.00     0.074 A 
ATOM     55  C   UNL A   1      39.670  26.543  27.839  1.00  0.00     0.031 C 
ATOM     56  C   UNL A   1      44.611  27.155  31.245  1.00  0.00     0.029 A 
ATOM     57  C   UNL A   1      45.652  26.440  30.531  1.00  0.00     0.049 A 
ATOM     58  H   UNL A   1      45.399  24.395  29.894  1.00  0.00     0.167 HD
ATOM     59  C   UNL A   1      39.860  28.916  28.889  1.00  0.00     0.037 A 
ATOM     60  C   UNL A   1      46.669  27.022  29.830  1.00  0.00     0.037 A 
ATOM     61  C   UNL A   1      40.941  29.676  29.517  1.00  0.00     0.049 A 
ATOM     62  C   UNL A   1      46.402  28.445  29.383  1.00  0.00     0.074 A 
ATOM     63  C   UNL A   1      41.327  29.918  30.825  1.00  0.00     0.029 A 
ATOM     64  N   UNL A   1      41.991  30.105  28.729  1.00  0.00    -0.354 N 
ATOM     65  N   UNL A   1      45.277  29.077  29.570  1.00  0.00    -0.248 NA
ATOM     66  C   UNL A   1      47.354  29.237  28.600  1.00  0.00     0.031 C 
ATOM     67  C   UNL A   1      42.619  30.514  30.807  1.00  0.00     0.029 A 
ATOM     68  C   UNL A   1      43.016  30.630  29.488  1.00  0.00     0.049 A 
ATOM     69  H   UNL A   1      42.006  30.045  27.746  1.00  0.00     0.167 HD
ATOM     70  C   UNL A   1      45.305  30.269  28.896  1.00  0.00     0.074 A 
ATOM     71  C   UNL A   1      46.633  30.335  28.318  1.00  0.00     0.031 C 
ATOM     72  C   UNL A   1      44.218  31.089  28.815  1.00  0.00     0.037 A 
BRANCH  59  73
ATOM     73  C   UNL A   1      38.408  29.318  28.970  1.00  0.00     0.057 A 
ATOM     74  C   UNL A   1      37.727  29.800  27.835  1.00  0.00     0.134 A 
ATOM     75  C   UNL A   1      37.630  29.286  30.139  1.00  0.00     0.134 A 
ATOM     76  F   UNL A   1      38.282  29.784  26.617  1.00  0.00    -0.206 F 
ATOM     77  C   UNL A   1      36.430  30.326  27.889  1.00  0.00     0.040 A 
ATOM     78  C   UNL A   1      36.353  29.861  30.223  1.00  0.00     0.040 A 
ATOM     79  F   UNL A   1      38.044  28.644  31.240  1.00  0.00    -0.206 F 
ATOM     80  C   UNL A   1      35.753  30.399  29.095  1.00  0.00     0.006 A 
ENDBRANCH  59  73
BRANCH  60  81
ATOM     81  C   UNL A   1      47.479  26.029  29.076  1.00  0.00     0.057 A 
ATOM     82  C   UNL A   1      47.196  25.828  27.714  1.00  0.00     0.134 A 
ATOM     83  C   UNL A   1      48.726  25.605  29.540  1.00  0.00     0.134 A 
ATOM     84  F   UNL A   1      46.016  26.218  27.205  1.00  0.00    -0.206 F 
ATOM     85  C   UNL A   1      48.158  25.342  26.826  1.00  0.00     0.040 A 
ATOM     86  C   UNL A   1      49.693  25.102  28.662  1.00  0.00     0.040 A 
ATOM     87  F   UNL A   1      49.077  25.787  30.822  1.00  0.00    -0.206 F 
ATOM     88  C   UNL A   1      49.425  25.011  27.297  1.00  0.00     0.006 A 
ENDBRANCH  60  81
BRANCH  72  89
ATOM     89  C   UNL A   1      44.198  32.395  28.078  1.00  0.00     0.057 A 
ATOM     90  C   UNL A   1      43.982  33.621  28.720  1.00  0.00     0.134 A 
ATOM     91  C   UNL A   1      44.257  32.444  26.670  1.00  0.00     0.134 A 
ATOM     92  F   UNL A   1      43.859  33.689  30.053  1.00  0.00    -0.206 F 
ATOM     93  C   UNL A   1      43.856  34.822  28.008  1.00  0.00     0.040 A 
ATOM     94  C   UNL A   1      44.084  33.626  25.947  1.00  0.00     0.040 A 
ATOM     95  F   UNL A   1      44.506  31.348  25.938  1.00  0.00    -0.206 F 
ATOM     96  C   UNL A   1      43.891  34.825  26.617  1.00  0.00     0.006 A 
ENDBRANCH  72  89
ENDBRANCH  46  47
ENDBRANCH  38  41
ENDBRANCH  36  37
ENDBRANCH  35  36
ENDBRANCH  34  35
ENDBRANCH   1  34
TORSDOF 15
ENDMDL
