MODEL 1
REMARK VINA RESULT:      -9.8      0.000      0.000
REMARK SMILES NC(=O)c1ccc(Oc2cccc(C(=O)NCCCCCCNC(=O)c3ccc(-c4c5nc(c(-c6c(F)cccc6F)c6ccc([nH]6)c(-c6c(F)cccc6F)c6nc(c(-c7c(F)cccc7F)c7ccc4[nH]7)C=C6)C=C5)cc3)c2)nc1
REMARK SMILES IDX 19 1 18 2 17 3 16 4 14 5 15 6 13 8 9 9 10 10 80 11 11 12
REMARK SMILES IDX 12 13 8 14 7 15 4 16 5 17 82 18 6 19 81 20 2 21 1 22 3 25
REMARK SMILES IDX 20 26 21 27 22 28 23 29 24 30 25 32 26 33 27 34 79 35 28 36
REMARK SMILES IDX 78 37 29 38 30 39 31 40 72 41 32 42 77 43 71 44 73 45 33 46
REMARK SMILES IDX 76 47 70 48 69 49 34 51 60 52 43 53 59 54 44 55 47 56 58 57
REMARK SMILES IDX 74 58 45 59 46 60 57 62 75 63 48 64 35 65 36 66 41 67 37 68
REMARK SMILES IDX 38 69 40 70 42 71 39 72 61 73 62 74 67 75 63 76 64 77 66 78
REMARK SMILES IDX 68 79 65 80 49 81 50 82 55 83 51 84 52 85 54 86 56 87 53 88
REMARK H PARENT 16 7 1 23 1 24 23 31 73 50 47 61
REMARK Flexibility Score: inf
ROOT
ATOM      1  C   UNL A   1      34.321  35.983  33.255  1.00  0.00     0.002 C 
ENDROOT
BRANCH   1   2
ATOM      2  C   UNL A   1      35.511  35.024  33.106  1.00  0.00     0.021 C 
BRANCH   2   3
ATOM      3  C   UNL A   1      35.365  33.765  33.965  1.00  0.00     0.116 C 
BRANCH   3   4
ATOM      4  N   UNL A   1      36.209  33.871  35.138  1.00  0.00    -0.352 N 
ATOM      5  C   UNL A   1      37.295  33.172  35.593  1.00  0.00     0.251 C 
ATOM      6  O   UNL A   1      37.741  33.499  36.694  1.00  0.00    -0.269 OA
ATOM      7  H   UNL A   1      35.944  34.605  35.738  1.00  0.00     0.163 HD
BRANCH   5   8
ATOM      8  C   UNL A   1      38.007  32.121  34.810  1.00  0.00     0.043 A 
ATOM      9  C   UNL A   1      39.871  30.662  34.313  1.00  0.00     0.130 A 
ATOM     10  C   UNL A   1      39.093  29.923  33.425  1.00  0.00     0.047 A 
ATOM     11  C   UNL A   1      39.363  31.815  34.920  1.00  0.00     0.061 A 
ATOM     12  C   UNL A   1      37.771  30.293  33.206  1.00  0.00     0.005 A 
ATOM     13  C   UNL A   1      37.226  31.366  33.917  1.00  0.00     0.014 A 
BRANCH   9  14
ATOM     14  O   UNL A   1      41.155  30.239  34.556  1.00  0.00    -0.439 OA
BRANCH  14  15
ATOM     15  C   UNL A   1      41.359  28.899  34.838  1.00  0.00     0.219 A 
ATOM     16  C   UNL A   1      41.821  26.300  35.646  1.00  0.00     0.058 A 
ATOM     17  C   UNL A   1      41.931  26.621  34.295  1.00  0.00     0.021 A 
ATOM     18  C   UNL A   1      41.460  27.310  36.526  1.00  0.00     0.129 A 
ATOM     19  C   UNL A   1      41.713  27.941  33.887  1.00  0.00     0.070 A 
ATOM     20  N   UNL A   1      41.233  28.597  36.150  1.00  0.00    -0.221 NA
BRANCH  16  21
ATOM     21  C   UNL A   1      42.064  24.943  36.177  1.00  0.00     0.250 C 
ATOM     22  N   UNL A   1      42.768  24.848  37.346  1.00  0.00    -0.366 N 
ATOM     23  H   UNL A   1      42.954  23.964  37.739  1.00  0.00     0.159 HD
ATOM     24  H   UNL A   1      43.088  25.663  37.797  1.00  0.00     0.159 HD
ATOM     25  O   UNL A   1      41.629  23.953  35.615  1.00  0.00    -0.269 OA
ENDBRANCH  16  21
ENDBRANCH  14  15
ENDBRANCH   9  14
ENDBRANCH   5   8
ENDBRANCH   3   4
ENDBRANCH   2   3
ENDBRANCH   1   2
BRANCH   1  26
ATOM     26  C   UNL A   1      33.083  35.596  32.435  1.00  0.00     0.002 C 
BRANCH  26  27
ATOM     27  C   UNL A   1      32.640  36.644  31.410  1.00  0.00     0.021 C 
BRANCH  27  28
ATOM     28  C   UNL A   1      33.324  36.509  30.053  1.00  0.00     0.116 C 
BRANCH  28  29
ATOM     29  N   UNL A   1      32.639  35.544  29.206  1.00  0.00    -0.352 N 
ATOM     30  C   UNL A   1      33.131  34.410  28.613  1.00  0.00     0.251 C 
ATOM     31  H   UNL A   1      31.689  35.733  29.035  1.00  0.00     0.163 HD
ATOM     32  O   UNL A   1      32.491  33.848  27.730  1.00  0.00    -0.269 OA
BRANCH  30  33
ATOM     33  C   UNL A   1      34.438  33.870  29.038  1.00  0.00     0.039 A 
ATOM     34  C   UNL A   1      34.490  33.004  30.132  1.00  0.00     0.014 A 
ATOM     35  C   UNL A   1      35.610  34.233  28.368  1.00  0.00     0.014 A 
ATOM     36  C   UNL A   1      35.715  32.460  30.523  1.00  0.00     0.010 A 
ATOM     37  C   UNL A   1      36.817  33.633  28.711  1.00  0.00     0.010 A 
ATOM     38  C   UNL A   1      36.883  32.748  29.797  1.00  0.00    -0.014 A 
BRANCH  38  39
ATOM     39  C   UNL A   1      38.185  32.134  30.163  1.00  0.00     0.031 A 
ATOM     40  C   UNL A   1      39.148  32.877  31.046  1.00  0.00     0.074 A 
ATOM     41  C   UNL A   1      38.521  30.935  29.648  1.00  0.00     0.049 A 
ATOM     42  N   UNL A   1      40.357  32.538  31.419  1.00  0.00    -0.248 NA
ATOM     43  C   UNL A   1      38.708  34.185  31.558  1.00  0.00     0.031 C 
ATOM     44  C   UNL A   1      37.692  30.142  28.737  1.00  0.00     0.029 A 
ATOM     45  N   UNL A   1      39.657  30.181  29.805  1.00  0.00    -0.354 N 
ATOM     46  C   UNL A   1      40.824  33.594  32.191  1.00  0.00     0.074 A 
ATOM     47  C   UNL A   1      39.792  34.606  32.196  1.00  0.00     0.031 C 
ATOM     48  C   UNL A   1      38.340  29.006  28.432  1.00  0.00     0.029 A 
ATOM     49  C   UNL A   1      39.642  29.008  29.089  1.00  0.00     0.049 A 
ATOM     50  H   UNL A   1      40.409  30.454  30.378  1.00  0.00     0.167 HD
ATOM     51  C   UNL A   1      42.000  33.699  32.854  1.00  0.00     0.037 A 
ATOM     52  C   UNL A   1      40.581  28.050  28.966  1.00  0.00     0.037 A 
ATOM     53  C   UNL A   1      43.013  32.677  32.869  1.00  0.00     0.049 A 
ATOM     54  C   UNL A   1      41.879  28.197  29.711  1.00  0.00     0.074 A 
ATOM     55  C   UNL A   1      44.210  32.662  33.564  1.00  0.00     0.029 A 
ATOM     56  N   UNL A   1      42.951  31.492  32.152  1.00  0.00    -0.354 N 
ATOM     57  N   UNL A   1      42.275  29.165  30.501  1.00  0.00    -0.248 NA
ATOM     58  C   UNL A   1      42.859  27.114  29.552  1.00  0.00     0.031 C 
ATOM     59  C   UNL A   1      44.894  31.490  33.230  1.00  0.00     0.029 A 
ATOM     60  C   UNL A   1      44.099  30.749  32.370  1.00  0.00     0.049 A 
ATOM     61  H   UNL A   1      42.202  31.219  31.574  1.00  0.00     0.167 HD
ATOM     62  C   UNL A   1      43.533  28.792  30.958  1.00  0.00     0.074 A 
ATOM     63  C   UNL A   1      43.827  27.503  30.369  1.00  0.00     0.031 C 
ATOM     64  C   UNL A   1      44.370  29.459  31.790  1.00  0.00     0.037 A 
BRANCH  51  65
ATOM     65  C   UNL A   1      42.258  34.960  33.625  1.00  0.00     0.057 A 
ATOM     66  C   UNL A   1      41.926  35.078  34.982  1.00  0.00     0.134 A 
ATOM     67  C   UNL A   1      42.903  36.048  33.023  1.00  0.00     0.134 A 
ATOM     68  F   UNL A   1      41.298  34.078  35.617  1.00  0.00    -0.206 F 
ATOM     69  C   UNL A   1      42.213  36.238  35.706  1.00  0.00     0.040 A 
ATOM     70  C   UNL A   1      43.219  37.201  33.743  1.00  0.00     0.040 A 
ATOM     71  F   UNL A   1      43.255  35.999  31.729  1.00  0.00    -0.206 F 
ATOM     72  C   UNL A   1      42.869  37.299  35.088  1.00  0.00     0.006 A 
ENDBRANCH  51  65
BRANCH  52  73
ATOM     73  C   UNL A   1      40.332  26.863  28.108  1.00  0.00     0.057 A 
ATOM     74  C   UNL A   1      39.528  25.806  28.548  1.00  0.00     0.134 A 
ATOM     75  C   UNL A   1      40.916  26.744  26.841  1.00  0.00     0.134 A 
ATOM     76  F   UNL A   1      38.957  25.851  29.761  1.00  0.00    -0.206 F 
ATOM     77  C   UNL A   1      39.338  24.659  27.774  1.00  0.00     0.040 A 
ATOM     78  C   UNL A   1      40.709  25.618  26.043  1.00  0.00     0.040 A 
ATOM     79  F   UNL A   1      41.693  27.724  26.359  1.00  0.00    -0.206 F 
ATOM     80  C   UNL A   1      39.927  24.565  26.515  1.00  0.00     0.006 A 
ENDBRANCH  52  73
BRANCH  64  81
ATOM     81  C   UNL A   1      45.661  28.785  32.152  1.00  0.00     0.057 A 
ATOM     82  C   UNL A   1      45.820  28.074  33.347  1.00  0.00     0.134 A 
ATOM     83  C   UNL A   1      46.749  28.816  31.268  1.00  0.00     0.134 A 
ATOM     84  F   UNL A   1      44.821  28.016  34.242  1.00  0.00    -0.206 F 
ATOM     85  C   UNL A   1      47.021  27.438  33.663  1.00  0.00     0.040 A 
ATOM     86  C   UNL A   1      47.944  28.159  31.559  1.00  0.00     0.040 A 
ATOM     87  F   UNL A   1      46.660  29.471  30.100  1.00  0.00    -0.206 F 
ATOM     88  C   UNL A   1      48.085  27.473  32.764  1.00  0.00     0.006 A 
ENDBRANCH  64  81
ENDBRANCH  38  39
ENDBRANCH  30  33
ENDBRANCH  28  29
ENDBRANCH  27  28
ENDBRANCH  26  27
ENDBRANCH   1  26
TORSDOF 16
ENDMDL
MODEL 2
REMARK VINA RESULT:      -9.4      5.293     10.405
REMARK SMILES NC(=O)c1ccc(Oc2cccc(C(=O)NCCCCCCNC(=O)c3ccc(-c4c5nc(c(-c6c(F)cccc6F)c6ccc([nH]6)c(-c6c(F)cccc6F)c6nc(c(-c7c(F)cccc7F)c7ccc4[nH]7)C=C6)C=C5)cc3)c2)nc1
REMARK SMILES IDX 19 1 18 2 17 3 16 4 14 5 15 6 13 8 9 9 10 10 80 11 11 12
REMARK SMILES IDX 12 13 8 14 7 15 4 16 5 17 82 18 6 19 81 20 2 21 1 22 3 25
REMARK SMILES IDX 20 26 21 27 22 28 23 29 24 30 25 32 26 33 27 34 79 35 28 36
REMARK SMILES IDX 78 37 29 38 30 39 31 40 72 41 32 42 77 43 71 44 73 45 33 46
REMARK SMILES IDX 76 47 70 48 69 49 34 51 60 52 43 53 59 54 44 55 47 56 58 57
REMARK SMILES IDX 74 58 45 59 46 60 57 62 75 63 48 64 35 65 36 66 41 67 37 68
REMARK SMILES IDX 38 69 40 70 42 71 39 72 61 73 62 74 67 75 63 76 64 77 66 78
REMARK SMILES IDX 68 79 65 80 49 81 50 82 55 83 51 84 52 85 54 86 56 87 53 88
REMARK H PARENT 16 7 1 23 1 24 23 31 73 50 47 61
REMARK Flexibility Score: inf
ROOT
ATOM      1  C   UNL A   1      34.078  24.916  23.874  1.00  0.00     0.002 C 
ENDROOT
BRANCH   1   2
ATOM      2  C   UNL A   1      33.283  25.260  22.607  1.00  0.00     0.021 C 
BRANCH   2   3
ATOM      3  C   UNL A   1      33.548  26.685  22.114  1.00  0.00     0.116 C 
BRANCH   3   4
ATOM      4  N   UNL A   1      32.293  27.336  21.798  1.00  0.00    -0.352 N 
ATOM      5  C   UNL A   1      31.179  27.656  22.526  1.00  0.00     0.251 C 
ATOM      6  O   UNL A   1      30.241  28.162  21.909  1.00  0.00    -0.269 OA
ATOM      7  H   UNL A   1      32.227  27.606  20.853  1.00  0.00     0.163 HD
BRANCH   5   8
ATOM      8  C   UNL A   1      31.073  27.514  24.008  1.00  0.00     0.043 A 
ATOM      9  C   UNL A   1      30.672  26.291  26.055  1.00  0.00     0.130 A 
ATOM     10  C   UNL A   1      31.214  27.326  26.814  1.00  0.00     0.047 A 
ATOM     11  C   UNL A   1      30.506  26.428  24.673  1.00  0.00     0.061 A 
ATOM     12  C   UNL A   1      31.670  28.473  26.174  1.00  0.00     0.005 A 
ATOM     13  C   UNL A   1      31.626  28.552  24.780  1.00  0.00     0.014 A 
BRANCH   9  14
ATOM     14  O   UNL A   1      30.284  25.145  26.707  1.00  0.00    -0.439 OA
BRANCH  14  15
ATOM     15  C   UNL A   1      31.025  23.995  26.502  1.00  0.00     0.219 A 
ATOM     16  C   UNL A   1      32.692  21.810  26.234  1.00  0.00     0.058 A 
ATOM     17  C   UNL A   1      31.693  22.023  25.287  1.00  0.00     0.021 A 
ATOM     18  C   UNL A   1      32.786  22.707  27.289  1.00  0.00     0.129 A 
ATOM     19  C   UNL A   1      30.859  23.139  25.412  1.00  0.00     0.070 A 
ATOM     20  N   UNL A   1      31.980  23.790  27.437  1.00  0.00    -0.221 NA
BRANCH  16  21
ATOM     21  C   UNL A   1      33.641  20.680  26.169  1.00  0.00     0.250 C 
ATOM     22  N   UNL A   1      33.126  19.423  26.331  1.00  0.00    -0.366 N 
ATOM     23  H   UNL A   1      33.720  18.639  26.295  1.00  0.00     0.159 HD
ATOM     24  H   UNL A   1      32.160  19.303  26.484  1.00  0.00     0.159 HD
ATOM     25  O   UNL A   1      34.826  20.856  25.948  1.00  0.00    -0.269 OA
ENDBRANCH  16  21
ENDBRANCH  14  15
ENDBRANCH   9  14
ENDBRANCH   5   8
ENDBRANCH   3   4
ENDBRANCH   2   3
ENDBRANCH   1   2
BRANCH   1  26
ATOM     26  C   UNL A   1      34.870  23.603  23.794  1.00  0.00     0.002 C 
BRANCH  26  27
ATOM     27  C   UNL A   1      36.352  23.725  24.159  1.00  0.00     0.021 C 
BRANCH  27  28
ATOM     28  C   UNL A   1      36.626  23.670  25.658  1.00  0.00     0.116 C 
BRANCH  28  29
ATOM     29  N   UNL A   1      37.569  22.612  25.987  1.00  0.00    -0.352 N 
ATOM     30  C   UNL A   1      38.871  22.712  26.407  1.00  0.00     0.251 C 
ATOM     31  H   UNL A   1      37.224  21.695  25.896  1.00  0.00     0.163 HD
ATOM     32  O   UNL A   1      39.600  21.725  26.398  1.00  0.00    -0.269 OA
BRANCH  30  33
ATOM     33  C   UNL A   1      39.394  24.014  26.865  1.00  0.00     0.039 A 
ATOM     34  C   UNL A   1      39.996  24.867  25.937  1.00  0.00     0.014 A 
ATOM     35  C   UNL A   1      39.305  24.384  28.210  1.00  0.00     0.014 A 
ATOM     36  C   UNL A   1      40.465  26.114  26.350  1.00  0.00     0.010 A 
ATOM     37  C   UNL A   1      39.706  25.656  28.606  1.00  0.00     0.010 A 
ATOM     38  C   UNL A   1      40.297  26.530  27.682  1.00  0.00    -0.014 A 
BRANCH  38  39
ATOM     39  C   UNL A   1      40.738  27.876  28.127  1.00  0.00     0.031 A 
ATOM     40  C   UNL A   1      42.200  28.223  28.149  1.00  0.00     0.074 A 
ATOM     41  C   UNL A   1      39.823  28.762  28.569  1.00  0.00     0.049 A 
ATOM     42  N   UNL A   1      42.784  29.317  28.569  1.00  0.00    -0.248 NA
ATOM     43  C   UNL A   1      43.135  27.196  27.660  1.00  0.00     0.031 C 
ATOM     44  C   UNL A   1      38.380  28.522  28.645  1.00  0.00     0.029 A 
ATOM     45  N   UNL A   1      39.974  30.037  29.052  1.00  0.00    -0.354 N 
ATOM     46  C   UNL A   1      44.147  29.104  28.410  1.00  0.00     0.074 A 
ATOM     47  C   UNL A   1      44.310  27.760  27.902  1.00  0.00     0.031 C 
ATOM     48  C   UNL A   1      37.778  29.621  29.129  1.00  0.00     0.029 A 
ATOM     49  C   UNL A   1      38.791  30.625  29.434  1.00  0.00     0.049 A 
ATOM     50  H   UNL A   1      40.846  30.489  29.118  1.00  0.00     0.167 HD
ATOM     51  C   UNL A   1      45.169  29.960  28.647  1.00  0.00     0.037 A 
ATOM     52  C   UNL A   1      38.554  31.831  29.983  1.00  0.00     0.037 A 
ATOM     53  C   UNL A   1      45.000  31.306  29.127  1.00  0.00     0.049 A 
ATOM     54  C   UNL A   1      39.711  32.759  30.238  1.00  0.00     0.074 A 
ATOM     55  C   UNL A   1      45.968  32.273  29.335  1.00  0.00     0.029 A 
ATOM     56  N   UNL A   1      43.785  31.873  29.478  1.00  0.00    -0.354 N 
ATOM     57  N   UNL A   1      40.987  32.573  30.009  1.00  0.00    -0.248 NA
ATOM     58  C   UNL A   1      39.391  34.069  30.822  1.00  0.00     0.031 C 
ATOM     59  C   UNL A   1      45.346  33.409  29.859  1.00  0.00     0.029 A 
ATOM     60  C   UNL A   1      43.982  33.170  29.923  1.00  0.00     0.049 A 
ATOM     61  H   UNL A   1      42.912  31.423  29.419  1.00  0.00     0.167 HD
ATOM     62  C   UNL A   1      41.618  33.751  30.390  1.00  0.00     0.074 A 
ATOM     63  C   UNL A   1      40.581  34.650  30.849  1.00  0.00     0.031 C 
ATOM     64  C   UNL A   1      42.937  34.059  30.362  1.00  0.00     0.037 A 
BRANCH  51  65
ATOM     65  C   UNL A   1      46.565  29.473  28.386  1.00  0.00     0.057 A 
ATOM     66  C   UNL A   1      47.322  28.836  29.378  1.00  0.00     0.134 A 
ATOM     67  C   UNL A   1      47.135  29.587  27.112  1.00  0.00     0.134 A 
ATOM     68  F   UNL A   1      46.840  28.702  30.622  1.00  0.00    -0.206 F 
ATOM     69  C   UNL A   1      48.602  28.343  29.115  1.00  0.00     0.040 A 
ATOM     70  C   UNL A   1      48.403  29.075  26.831  1.00  0.00     0.040 A 
ATOM     71  F   UNL A   1      46.463  30.181  26.116  1.00  0.00    -0.206 F 
ATOM     72  C   UNL A   1      49.142  28.454  27.836  1.00  0.00     0.006 A 
ENDBRANCH  51  65
BRANCH  52  73
ATOM     73  C   UNL A   1      37.168  32.239  30.326  1.00  0.00     0.057 A 
ATOM     74  C   UNL A   1      36.382  32.967  29.425  1.00  0.00     0.134 A 
ATOM     75  C   UNL A   1      36.607  31.939  31.573  1.00  0.00     0.134 A 
ATOM     76  F   UNL A   1      36.871  33.305  28.222  1.00  0.00    -0.206 F 
ATOM     77  C   UNL A   1      35.100  33.409  29.761  1.00  0.00     0.040 A 
ATOM     78  C   UNL A   1      35.315  32.345  31.910  1.00  0.00     0.040 A 
ATOM     79  F   UNL A   1      37.305  31.240  32.479  1.00  0.00    -0.206 F 
ATOM     80  C   UNL A   1      34.562  33.093  31.007  1.00  0.00     0.006 A 
ENDBRANCH  52  73
BRANCH  64  81
ATOM     81  C   UNL A   1      43.330  35.442  30.796  1.00  0.00     0.057 A 
ATOM     82  C   UNL A   1      43.596  35.753  32.135  1.00  0.00     0.134 A 
ATOM     83  C   UNL A   1      43.484  36.465  29.850  1.00  0.00     0.134 A 
ATOM     84  F   UNL A   1      43.454  34.822  33.091  1.00  0.00    -0.206 F 
ATOM     85  C   UNL A   1      43.976  37.038  32.522  1.00  0.00     0.040 A 
ATOM     86  C   UNL A   1      43.893  37.745  30.221  1.00  0.00     0.040 A 
ATOM     87  F   UNL A   1      43.256  36.230  28.549  1.00  0.00    -0.206 F 
ATOM     88  C   UNL A   1      44.133  38.037  31.562  1.00  0.00     0.006 A 
ENDBRANCH  64  81
ENDBRANCH  38  39
ENDBRANCH  30  33
ENDBRANCH  28  29
ENDBRANCH  27  28
ENDBRANCH  26  27
ENDBRANCH   1  26
TORSDOF 16
ENDMDL
MODEL 3
REMARK VINA RESULT:      -9.1      5.276     11.781
REMARK SMILES NC(=O)c1ccc(Oc2cccc(C(=O)NCCCCCCNC(=O)c3ccc(-c4c5nc(c(-c6c(F)cccc6F)c6ccc([nH]6)c(-c6c(F)cccc6F)c6nc(c(-c7c(F)cccc7F)c7ccc4[nH]7)C=C6)C=C5)cc3)c2)nc1
REMARK SMILES IDX 19 1 18 2 17 3 16 4 14 5 15 6 13 8 9 9 10 10 80 11 11 12
REMARK SMILES IDX 12 13 8 14 7 15 4 16 5 17 82 18 6 19 81 20 2 21 1 22 3 25
REMARK SMILES IDX 20 26 21 27 22 28 23 29 24 30 25 32 26 33 27 34 79 35 28 36
REMARK SMILES IDX 78 37 29 38 30 39 31 40 72 41 32 42 77 43 71 44 73 45 33 46
REMARK SMILES IDX 76 47 70 48 69 49 34 51 60 52 43 53 59 54 44 55 47 56 58 57
REMARK SMILES IDX 74 58 45 59 46 60 57 62 75 63 48 64 35 65 36 66 41 67 37 68
REMARK SMILES IDX 38 69 40 70 42 71 39 72 61 73 62 74 67 75 63 76 64 77 66 78
REMARK SMILES IDX 68 79 65 80 49 81 50 82 55 83 51 84 52 85 54 86 56 87 53 88
REMARK H PARENT 16 7 1 23 1 24 23 31 73 50 47 61
REMARK Flexibility Score: inf
ROOT
ATOM      1  C   UNL A   1      35.042  23.604  23.440  1.00  0.00     0.002 C 
ENDROOT
BRANCH   1   2
ATOM      2  C   UNL A   1      33.787  22.724  23.525  1.00  0.00     0.021 C 
BRANCH   2   3
ATOM      3  C   UNL A   1      32.538  23.426  22.988  1.00  0.00     0.116 C 
BRANCH   3   4
ATOM      4  N   UNL A   1      32.824  24.017  21.697  1.00  0.00    -0.352 N 
ATOM      5  C   UNL A   1      32.820  25.300  21.217  1.00  0.00     0.251 C 
ATOM      6  O   UNL A   1      33.056  25.442  20.017  1.00  0.00    -0.269 OA
ATOM      7  H   UNL A   1      33.075  23.352  21.016  1.00  0.00     0.163 HD
BRANCH   5   8
ATOM      8  C   UNL A   1      32.638  26.514  22.065  1.00  0.00     0.043 A 
ATOM      9  C   UNL A   1      31.349  28.074  23.388  1.00  0.00     0.130 A 
ATOM     10  C   UNL A   1      32.511  28.651  23.894  1.00  0.00     0.047 A 
ATOM     11  C   UNL A   1      31.412  27.085  22.402  1.00  0.00     0.061 A 
ATOM     12  C   UNL A   1      33.748  28.178  23.469  1.00  0.00     0.005 A 
ATOM     13  C   UNL A   1      33.808  27.097  22.585  1.00  0.00     0.014 A 
BRANCH   9  14
ATOM     14  O   UNL A   1      30.142  28.522  23.869  1.00  0.00    -0.439 OA
BRANCH  14  15
ATOM     15  C   UNL A   1      29.536  29.586  23.223  1.00  0.00     0.219 A 
ATOM     16  C   UNL A   1      28.419  31.608  21.712  1.00  0.00     0.058 A 
ATOM     17  C   UNL A   1      28.687  31.836  23.059  1.00  0.00     0.021 A 
ATOM     18  C   UNL A   1      28.711  30.354  21.196  1.00  0.00     0.129 A 
ATOM     19  C   UNL A   1      29.269  30.818  23.822  1.00  0.00     0.070 A 
ATOM     20  N   UNL A   1      29.266  29.347  21.920  1.00  0.00    -0.221 NA
BRANCH  16  21
ATOM     21  C   UNL A   1      27.837  32.631  20.819  1.00  0.00     0.250 C 
ATOM     22  N   UNL A   1      27.552  32.250  19.537  1.00  0.00    -0.366 N 
ATOM     23  H   UNL A   1      27.163  32.897  18.905  1.00  0.00     0.159 HD
ATOM     24  H   UNL A   1      27.736  31.327  19.244  1.00  0.00     0.159 HD
ATOM     25  O   UNL A   1      27.591  33.757  21.216  1.00  0.00    -0.269 OA
ENDBRANCH  16  21
ENDBRANCH  14  15
ENDBRANCH   9  14
ENDBRANCH   5   8
ENDBRANCH   3   4
ENDBRANCH   2   3
ENDBRANCH   1   2
BRANCH   1  26
ATOM     26  C   UNL A   1      36.367  22.841  23.577  1.00  0.00     0.002 C 
BRANCH  26  27
ATOM     27  C   UNL A   1      36.596  22.195  24.947  1.00  0.00     0.021 C 
BRANCH  27  28
ATOM     28  C   UNL A   1      37.635  22.912  25.803  1.00  0.00     0.116 C 
BRANCH  28  29
ATOM     29  N   UNL A   1      38.792  22.067  26.053  1.00  0.00    -0.352 N 
ATOM     30  C   UNL A   1      40.068  22.427  26.403  1.00  0.00     0.251 C 
ATOM     31  H   UNL A   1      38.638  21.100  25.957  1.00  0.00     0.163 HD
ATOM     32  O   UNL A   1      40.982  21.613  26.329  1.00  0.00    -0.269 OA
BRANCH  30  33
ATOM     33  C   UNL A   1      40.339  23.804  26.865  1.00  0.00     0.039 A 
ATOM     34  C   UNL A   1      40.552  24.032  28.225  1.00  0.00     0.014 A 
ATOM     35  C   UNL A   1      40.365  24.867  25.957  1.00  0.00     0.014 A 
ATOM     36  C   UNL A   1      40.842  25.323  28.670  1.00  0.00     0.010 A 
ATOM     37  C   UNL A   1      40.727  26.138  26.391  1.00  0.00     0.010 A 
ATOM     38  C   UNL A   1      40.961  26.380  27.752  1.00  0.00    -0.014 A 
BRANCH  38  39
ATOM     39  C   UNL A   1      41.325  27.748  28.200  1.00  0.00     0.031 A 
ATOM     40  C   UNL A   1      42.766  28.176  28.227  1.00  0.00     0.074 A 
ATOM     41  C   UNL A   1      40.361  28.580  28.641  1.00  0.00     0.049 A 
ATOM     42  N   UNL A   1      43.286  29.300  28.649  1.00  0.00    -0.248 NA
ATOM     43  C   UNL A   1      43.757  27.203  27.739  1.00  0.00     0.031 C 
ATOM     44  C   UNL A   1      38.933  28.260  28.713  1.00  0.00     0.029 A 
ATOM     45  N   UNL A   1      40.439  29.861  29.126  1.00  0.00    -0.354 N 
ATOM     46  C   UNL A   1      44.659  29.164  28.494  1.00  0.00     0.074 A 
ATOM     47  C   UNL A   1      44.899  27.832  27.984  1.00  0.00     0.031 C 
ATOM     48  C   UNL A   1      38.269  29.322  29.196  1.00  0.00     0.029 A 
ATOM     49  C   UNL A   1      39.224  30.381  29.506  1.00  0.00     0.049 A 
ATOM     50  H   UNL A   1      41.284  30.361  29.195  1.00  0.00     0.167 HD
ATOM     51  C   UNL A   1      45.631  30.075  28.735  1.00  0.00     0.037 A 
ATOM     52  C   UNL A   1      38.919  31.572  30.055  1.00  0.00     0.037 A 
ATOM     53  C   UNL A   1      45.386  31.410  29.216  1.00  0.00     0.049 A 
ATOM     54  C   UNL A   1      40.020  32.562  30.315  1.00  0.00     0.074 A 
ATOM     55  C   UNL A   1      46.298  32.429  29.428  1.00  0.00     0.029 A 
ATOM     56  N   UNL A   1      44.140  31.907  29.565  1.00  0.00    -0.354 N 
ATOM     57  N   UNL A   1      41.306  32.449  30.089  1.00  0.00    -0.248 NA
ATOM     58  C   UNL A   1      39.626  33.851  30.900  1.00  0.00     0.031 C 
ATOM     59  C   UNL A   1      45.611  33.527  29.952  1.00  0.00     0.029 A 
ATOM     60  C   UNL A   1      44.262  33.212  30.012  1.00  0.00     0.049 A 
ATOM     61  H   UNL A   1      43.293  31.409  29.503  1.00  0.00     0.167 HD
ATOM     62  C   UNL A   1      41.869  33.659  30.474  1.00  0.00     0.074 A 
ATOM     63  C   UNL A   1      40.782  34.498  30.932  1.00  0.00     0.031 C 
ATOM     64  C   UNL A   1      43.169  34.041  30.450  1.00  0.00     0.037 A 
BRANCH  51  65
ATOM     65  C   UNL A   1      47.052  29.668  28.478  1.00  0.00     0.057 A 
ATOM     66  C   UNL A   1      47.661  29.858  27.230  1.00  0.00     0.134 A 
ATOM     67  C   UNL A   1      47.841  29.138  29.506  1.00  0.00     0.134 A 
ATOM     68  F   UNL A   1      46.961  30.353  26.199  1.00  0.00    -0.206 F 
ATOM     69  C   UNL A   1      48.999  29.521  27.011  1.00  0.00     0.040 A 
ATOM     70  C   UNL A   1      49.187  28.821  29.307  1.00  0.00     0.040 A 
ATOM     71  F   UNL A   1      47.323  28.935  30.727  1.00  0.00    -0.206 F 
ATOM     72  C   UNL A   1      49.767  29.010  28.054  1.00  0.00     0.006 A 
ENDBRANCH  51  65
BRANCH  52  73
ATOM     73  C   UNL A   1      37.510  31.901  30.395  1.00  0.00     0.057 A 
ATOM     74  C   UNL A   1      36.958  31.537  31.628  1.00  0.00     0.134 A 
ATOM     75  C   UNL A   1      36.675  32.559  29.484  1.00  0.00     0.134 A 
ATOM     76  F   UNL A   1      37.701  30.886  32.536  1.00  0.00    -0.206 F 
ATOM     77  C   UNL A   1      35.618  31.787  31.933  1.00  0.00     0.040 A 
ATOM     78  C   UNL A   1      35.343  32.844  29.787  1.00  0.00     0.040 A 
ATOM     79  F   UNL A   1      37.144  32.938  28.287  1.00  0.00    -0.206 F 
ATOM     80  C   UNL A   1      34.807  32.447  31.011  1.00  0.00     0.006 A 
ENDBRANCH  52  73
BRANCH  64  81
ATOM     81  C   UNL A   1      43.482  35.442  30.887  1.00  0.00     0.057 A 
ATOM     82  C   UNL A   1      43.732  35.765  32.226  1.00  0.00     0.134 A 
ATOM     83  C   UNL A   1      43.575  36.475  29.943  1.00  0.00     0.134 A 
ATOM     84  F   UNL A   1      43.646  34.825  33.180  1.00  0.00    -0.206 F 
ATOM     85  C   UNL A   1      44.039  37.069  32.616  1.00  0.00     0.040 A 
ATOM     86  C   UNL A   1      43.911  37.776  30.317  1.00  0.00     0.040 A 
ATOM     87  F   UNL A   1      43.359  36.231  28.642  1.00  0.00    -0.206 F 
ATOM     88  C   UNL A   1      44.136  38.078  31.659  1.00  0.00     0.006 A 
ENDBRANCH  64  81
ENDBRANCH  38  39
ENDBRANCH  30  33
ENDBRANCH  28  29
ENDBRANCH  27  28
ENDBRANCH  26  27
ENDBRANCH   1  26
TORSDOF 16
ENDMDL
