MODEL 1
REMARK VINA RESULT:     -12.4      0.000      0.000
REMARK SMILES O=C(NCCCCCCNC(=O)c1cc(F)c(F)cc1NS(=O)(=O)c1ccc2c(c1)CCC2)c1ccc(-c2c3nc(c(-c4c(F)cccc4F)c4ccc([nH]4)c(-c4c(F)cccc4F)c4nc(c(-c5c(F)cccc5F)c5ccc2[nH]5)C=C4)C=C3)cc1
REMARK SMILES IDX 7 1 6 2 5 3 4 4 3 5 1 6 2 7 34 9 35 10 87 11 36 12 86 13
REMARK SMILES IDX 37 14 38 15 39 16 80 17 40 18 85 19 79 20 81 21 41 22 84 23
REMARK SMILES IDX 78 24 77 25 42 27 68 28 51 29 67 30 52 31 55 32 66 33 82 34
REMARK SMILES IDX 53 35 54 36 65 38 83 39 56 40 43 41 44 42 49 43 45 44 46 45
REMARK SMILES IDX 48 46 50 47 47 48 69 49 70 50 75 51 71 52 72 53 74 54 76 55
REMARK SMILES IDX 73 56 57 57 58 58 63 59 59 60 60 61 62 62 64 63 61 64 8 65
REMARK SMILES IDX 9 66 10 67 11 68 12 70 13 71 14 72 20 73 15 74 19 75 16 76
REMARK SMILES IDX 17 77 18 78 21 79 22 81 23 82 24 83 25 84 26 85 30 86 27 87
REMARK SMILES IDX 29 88 28 89 31 90 33 91 32 92
REMARK H PARENT 3 8 81 26 55 37 10 69 21 80
REMARK Flexibility Score: inf
ROOT
ATOM      1  C   UNL A   1      35.871  21.611  24.724  1.00  0.00     0.002 C 
ENDROOT
BRANCH   1   2
ATOM      2  C   UNL A   1      36.395  20.199  25.001  1.00  0.00     0.002 C 
BRANCH   2   3
ATOM      3  C   UNL A   1      37.854  19.954  24.616  1.00  0.00     0.021 C 
BRANCH   3   4
ATOM      4  C   UNL A   1      38.857  20.124  25.749  1.00  0.00     0.116 C 
BRANCH   4   5
ATOM      5  N   UNL A   1      39.881  19.091  25.760  1.00  0.00    -0.352 N 
ATOM      6  O   UNL A   1      41.972  18.239  25.811  1.00  0.00    -0.269 OA
ATOM      7  C   UNL A   1      41.235  19.206  25.975  1.00  0.00     0.251 C 
ATOM      8  H   UNL A   1      39.559  18.177  25.591  1.00  0.00     0.163 HD
BRANCH   7   9
ATOM      9  C   UNL A   1      41.808  20.512  26.370  1.00  0.00     0.039 A 
ATOM     10  C   UNL A   1      41.922  20.862  27.716  1.00  0.00     0.014 A 
ATOM     11  C   UNL A   1      42.219  21.406  25.377  1.00  0.00     0.014 A 
ATOM     12  C   UNL A   1      42.280  22.159  28.062  1.00  0.00     0.010 A 
ATOM     13  C   UNL A   1      42.674  22.680  25.733  1.00  0.00     0.010 A 
ATOM     14  C   UNL A   1      42.666  23.083  27.076  1.00  0.00    -0.014 A 
BRANCH  14  15
ATOM     15  C   UNL A   1      43.084  24.449  27.489  1.00  0.00     0.031 A 
ATOM     16  C   UNL A   1      44.520  24.888  27.396  1.00  0.00     0.074 A 
ATOM     17  C   UNL A   1      42.142  25.315  27.908  1.00  0.00     0.049 A 
ATOM     18  N   UNL A   1      45.041  26.061  27.659  1.00  0.00    -0.248 NA
ATOM     19  C   UNL A   1      45.502  23.883  26.961  1.00  0.00     0.031 C 
ATOM     20  C   UNL A   1      40.718  25.004  28.055  1.00  0.00     0.029 A 
ATOM     21  N   UNL A   1      42.230  26.638  28.260  1.00  0.00    -0.354 N 
ATOM     22  C   UNL A   1      46.408  25.929  27.448  1.00  0.00     0.074 A 
ATOM     23  C   UNL A   1      46.641  24.555  27.056  1.00  0.00     0.031 C 
ATOM     24  C   UNL A   1      40.058  26.117  28.405  1.00  0.00     0.029 A 
ATOM     25  C   UNL A   1      41.017  27.203  28.568  1.00  0.00     0.049 A 
ATOM     26  H   UNL A   1      43.079  27.133  28.289  1.00  0.00     0.167 HD
ATOM     27  C   UNL A   1      47.379  26.869  27.563  1.00  0.00     0.037 A 
ATOM     28  C   UNL A   1      40.707  28.456  28.948  1.00  0.00     0.037 A 
ATOM     29  C   UNL A   1      47.140  28.242  27.930  1.00  0.00     0.049 A 
ATOM     30  C   UNL A   1      41.803  29.473  29.076  1.00  0.00     0.074 A 
ATOM     31  C   UNL A   1      48.052  29.281  28.024  1.00  0.00     0.029 A 
ATOM     32  N   UNL A   1      45.902  28.768  28.268  1.00  0.00    -0.354 N 
ATOM     33  N   UNL A   1      43.084  29.344  28.828  1.00  0.00    -0.248 NA
ATOM     34  C   UNL A   1      41.410  30.810  29.539  1.00  0.00     0.031 C 
ATOM     35  C   UNL A   1      47.373  30.422  28.466  1.00  0.00     0.029 A 
ATOM     36  C   UNL A   1      46.030  30.109  28.597  1.00  0.00     0.049 A 
ATOM     37  H   UNL A   1      45.057  28.264  28.275  1.00  0.00     0.167 HD
ATOM     38  C   UNL A   1      43.646  30.586  29.083  1.00  0.00     0.074 A 
ATOM     39  C   UNL A   1      42.563  31.460  29.487  1.00  0.00     0.031 C 
ATOM     40  C   UNL A   1      44.943  30.969  28.993  1.00  0.00     0.037 A 
BRANCH  27  41
ATOM     41  C   UNL A   1      48.797  26.442  27.309  1.00  0.00     0.057 A 
ATOM     42  C   UNL A   1      49.633  25.985  28.336  1.00  0.00     0.134 A 
ATOM     43  C   UNL A   1      49.319  26.448  26.008  1.00  0.00     0.134 A 
ATOM     44  F   UNL A   1      49.200  25.962  29.606  1.00  0.00    -0.206 F 
ATOM     45  C   UNL A   1      50.942  25.572  28.083  1.00  0.00     0.040 A 
ATOM     46  C   UNL A   1      50.618  26.013  25.739  1.00  0.00     0.040 A 
ATOM     47  F   UNL A   1      48.571  26.865  24.977  1.00  0.00    -0.206 F 
ATOM     48  C   UNL A   1      51.436  25.579  26.780  1.00  0.00     0.006 A 
ENDBRANCH  27  41
BRANCH  28  49
ATOM     49  C   UNL A   1      39.294  28.818  29.221  1.00  0.00     0.057 A 
ATOM     50  C   UNL A   1      38.732  28.624  30.487  1.00  0.00     0.134 A 
ATOM     51  C   UNL A   1      38.477  29.371  28.228  1.00  0.00     0.134 A 
ATOM     52  F   UNL A   1      39.460  28.084  31.476  1.00  0.00    -0.206 F 
ATOM     53  C   UNL A   1      37.402  28.954  30.753  1.00  0.00     0.040 A 
ATOM     54  C   UNL A   1      37.155  29.730  28.487  1.00  0.00     0.040 A 
ATOM     55  F   UNL A   1      38.961  29.589  26.997  1.00  0.00    -0.206 F 
ATOM     56  C   UNL A   1      36.611  29.516  29.751  1.00  0.00     0.006 A 
ENDBRANCH  28  49
BRANCH  40  57
ATOM     57  C   UNL A   1      45.251  32.405  29.300  1.00  0.00     0.057 A 
ATOM     58  C   UNL A   1      45.185  33.401  28.318  1.00  0.00     0.134 A 
ATOM     59  C   UNL A   1      45.607  32.795  30.597  1.00  0.00     0.134 A 
ATOM     60  F   UNL A   1      44.866  33.091  27.053  1.00  0.00    -0.206 F 
ATOM     61  C   UNL A   1      45.491  34.732  28.610  1.00  0.00     0.040 A 
ATOM     62  C   UNL A   1      45.888  34.126  30.906  1.00  0.00     0.040 A 
ATOM     63  F   UNL A   1      45.682  31.890  31.584  1.00  0.00    -0.206 F 
ATOM     64  C   UNL A   1      45.840  35.098  29.909  1.00  0.00     0.006 A 
ENDBRANCH  40  57
ENDBRANCH  14  15
ENDBRANCH   7   9
ENDBRANCH   4   5
ENDBRANCH   3   4
ENDBRANCH   2   3
ENDBRANCH   1   2
BRANCH   1  65
ATOM     65  C   UNL A   1      35.660  22.493  25.960  1.00  0.00     0.021 C 
BRANCH  65  66
ATOM     66  C   UNL A   1      35.548  23.989  25.670  1.00  0.00     0.116 C 
BRANCH  66  67
ATOM     67  N   UNL A   1      35.070  24.235  24.318  1.00  0.00    -0.352 N 
ATOM     68  C   UNL A   1      33.976  24.959  23.919  1.00  0.00     0.253 C 
ATOM     69  H   UNL A   1      35.601  23.828  23.595  1.00  0.00     0.163 HD
ATOM     70  O   UNL A   1      33.511  24.833  22.793  1.00  0.00    -0.269 OA
BRANCH  68  71
ATOM     71  C   UNL A   1      33.323  25.860  24.883  1.00  0.00     0.067 A 
ATOM     72  C   UNL A   1      34.027  27.012  25.278  1.00  0.00     0.058 A 
ATOM     73  C   UNL A   1      32.068  25.537  25.433  1.00  0.00     0.065 A 
ATOM     74  C   UNL A   1      33.518  27.802  26.295  1.00  0.00     0.159 A 
ATOM     75  C   UNL A   1      31.624  26.323  26.501  1.00  0.00     0.070 A 
ATOM     76  F   UNL A   1      34.214  28.865  26.719  1.00  0.00    -0.204 F 
ATOM     77  C   UNL A   1      32.331  27.451  26.914  1.00  0.00     0.160 A 
ATOM     78  F   UNL A   1      31.870  28.166  27.949  1.00  0.00    -0.204 F 
BRANCH  73  79
ATOM     79  N   UNL A   1      31.373  24.312  25.080  1.00  0.00    -0.279 N 
ATOM     80  H   UNL A   1      30.822  24.281  24.265  1.00  0.00     0.180 HD
BRANCH  79  81
ATOM     81  S   UNL A   1      31.507  22.917  26.069  1.00  0.00     0.261 S 
ATOM     82  O   UNL A   1      32.544  23.187  27.047  1.00  0.00    -0.201 OA
ATOM     83  O   UNL A   1      30.165  22.578  26.484  1.00  0.00    -0.201 OA
BRANCH  81  84
ATOM     84  C   UNL A   1      32.079  21.617  25.007  1.00  0.00     0.088 A 
ATOM     85  C   UNL A   1      31.945  21.774  23.614  1.00  0.00     0.022 A 
ATOM     86  C   UNL A   1      32.527  20.415  25.573  1.00  0.00     0.026 A 
ATOM     87  C   UNL A   1      32.163  20.690  22.766  1.00  0.00     0.005 A 
ATOM     88  C   UNL A   1      32.730  19.347  24.714  1.00  0.00    -0.043 A 
ATOM     89  C   UNL A   1      32.528  19.480  23.333  1.00  0.00    -0.045 A 
ATOM     90  C   UNL A   1      33.032  17.923  25.068  1.00  0.00     0.036 C 
ATOM     91  C   UNL A   1      32.649  18.156  22.644  1.00  0.00     0.036 C 
ATOM     92  C   UNL A   1      33.405  17.338  23.698  1.00  0.00     0.010 C 
ENDBRANCH  81  84
ENDBRANCH  79  81
ENDBRANCH  73  79
ENDBRANCH  68  71
ENDBRANCH  66  67
ENDBRANCH  65  66
ENDBRANCH   1  65
TORSDOF 16
ENDMDL
MODEL 2
REMARK VINA RESULT:     -12.2      4.978      9.959
REMARK SMILES O=C(NCCCCCCNC(=O)c1cc(F)c(F)cc1NS(=O)(=O)c1ccc2c(c1)CCC2)c1ccc(-c2c3nc(c(-c4c(F)cccc4F)c4ccc([nH]4)c(-c4c(F)cccc4F)c4nc(c(-c5c(F)cccc5F)c5ccc2[nH]5)C=C4)C=C3)cc1
REMARK SMILES IDX 7 1 6 2 5 3 4 4 3 5 1 6 2 7 34 9 35 10 87 11 36 12 86 13
REMARK SMILES IDX 37 14 38 15 39 16 80 17 40 18 85 19 79 20 81 21 41 22 84 23
REMARK SMILES IDX 78 24 77 25 42 27 68 28 51 29 67 30 52 31 55 32 66 33 82 34
REMARK SMILES IDX 53 35 54 36 65 38 83 39 56 40 43 41 44 42 49 43 45 44 46 45
REMARK SMILES IDX 48 46 50 47 47 48 69 49 70 50 75 51 71 52 72 53 74 54 76 55
REMARK SMILES IDX 73 56 57 57 58 58 63 59 59 60 60 61 62 62 64 63 61 64 8 65
REMARK SMILES IDX 9 66 10 67 11 68 12 70 13 71 14 72 20 73 15 74 19 75 16 76
REMARK SMILES IDX 17 77 18 78 21 79 22 81 23 82 24 83 25 84 26 85 30 86 27 87
REMARK SMILES IDX 29 88 28 89 31 90 33 91 32 92
REMARK H PARENT 3 8 81 26 55 37 10 69 21 80
REMARK Flexibility Score: inf
ROOT
ATOM      1  C   UNL A   1      31.789  29.163  26.854  1.00  0.00     0.002 C 
ENDROOT
BRANCH   1   2
ATOM      2  C   UNL A   1      31.637  30.328  25.871  1.00  0.00     0.002 C 
BRANCH   2   3
ATOM      3  C   UNL A   1      31.397  31.696  26.507  1.00  0.00     0.021 C 
BRANCH   3   4
ATOM      4  C   UNL A   1      32.651  32.410  26.995  1.00  0.00     0.116 C 
BRANCH   4   5
ATOM      5  N   UNL A   1      32.396  33.777  27.422  1.00  0.00    -0.352 N 
ATOM      6  O   UNL A   1      32.579  35.615  28.721  1.00  0.00    -0.269 OA
ATOM      7  C   UNL A   1      33.019  34.515  28.402  1.00  0.00     0.251 C 
ATOM      8  H   UNL A   1      31.675  34.241  26.940  1.00  0.00     0.163 HD
BRANCH   7   9
ATOM      9  C   UNL A   1      34.203  33.963  29.097  1.00  0.00     0.039 A 
ATOM     10  C   UNL A   1      35.490  34.377  28.751  1.00  0.00     0.014 A 
ATOM     11  C   UNL A   1      34.021  33.004  30.098  1.00  0.00     0.014 A 
ATOM     12  C   UNL A   1      36.592  33.712  29.277  1.00  0.00     0.010 A 
ATOM     13  C   UNL A   1      35.134  32.405  30.697  1.00  0.00     0.010 A 
ATOM     14  C   UNL A   1      36.429  32.722  30.259  1.00  0.00    -0.014 A 
BRANCH  14  15
ATOM     15  C   UNL A   1      37.634  32.064  30.829  1.00  0.00     0.031 A 
ATOM     16  C   UNL A   1      38.106  32.369  32.225  1.00  0.00     0.074 A 
ATOM     17  C   UNL A   1      38.279  31.142  30.088  1.00  0.00     0.049 A 
ATOM     18  N   UNL A   1      39.102  31.840  32.892  1.00  0.00    -0.248 NA
ATOM     19  C   UNL A   1      37.375  33.408  32.967  1.00  0.00     0.031 C 
ATOM     20  C   UNL A   1      37.926  30.768  28.716  1.00  0.00     0.029 A 
ATOM     21  N   UNL A   1      39.345  30.333  30.388  1.00  0.00    -0.354 N 
ATOM     22  C   UNL A   1      39.134  32.496  34.117  1.00  0.00     0.074 A 
ATOM     23  C   UNL A   1      38.072  33.479  34.093  1.00  0.00     0.031 C 
ATOM     24  C   UNL A   1      38.717  29.762  28.317  1.00  0.00     0.029 A 
ATOM     25  C   UNL A   1      39.672  29.463  29.377  1.00  0.00     0.049 A 
ATOM     26  H   UNL A   1      39.827  30.372  31.244  1.00  0.00     0.167 HD
ATOM     27  C   UNL A   1      39.968  32.292  35.166  1.00  0.00     0.037 A 
ATOM     28  C   UNL A   1      40.639  28.530  29.305  1.00  0.00     0.037 A 
ATOM     29  C   UNL A   1      41.009  31.295  35.194  1.00  0.00     0.049 A 
ATOM     30  C   UNL A   1      41.553  28.333  30.478  1.00  0.00     0.074 A 
ATOM     31  C   UNL A   1      41.873  30.979  36.230  1.00  0.00     0.029 A 
ATOM     32  N   UNL A   1      41.332  30.457  34.137  1.00  0.00    -0.354 N 
ATOM     33  N   UNL A   1      41.541  28.929  31.645  1.00  0.00    -0.248 NA
ATOM     34  C   UNL A   1      42.618  27.333  30.323  1.00  0.00     0.031 C 
ATOM     35  C   UNL A   1      42.748  29.984  35.783  1.00  0.00     0.029 A 
ATOM     36  C   UNL A   1      42.398  29.642  34.487  1.00  0.00     0.049 A 
ATOM     37  H   UNL A   1      40.873  30.443  33.267  1.00  0.00     0.167 HD
ATOM     38  C   UNL A   1      42.579  28.363  32.371  1.00  0.00     0.074 A 
ATOM     39  C   UNL A   1      43.188  27.362  31.518  1.00  0.00     0.031 C 
ATOM     40  C   UNL A   1      42.992  28.648  33.630  1.00  0.00     0.037 A 
BRANCH  27  41
ATOM     41  C   UNL A   1      39.805  33.177  36.369  1.00  0.00     0.057 A 
ATOM     42  C   UNL A   1      38.912  32.873  37.404  1.00  0.00     0.134 A 
ATOM     43  C   UNL A   1      40.587  34.331  36.512  1.00  0.00     0.134 A 
ATOM     44  F   UNL A   1      38.125  31.788  37.326  1.00  0.00    -0.206 F 
ATOM     45  C   UNL A   1      38.786  33.694  38.526  1.00  0.00     0.040 A 
ATOM     46  C   UNL A   1      40.489  35.147  37.641  1.00  0.00     0.040 A 
ATOM     47  F   UNL A   1      41.469  34.678  35.563  1.00  0.00    -0.206 F 
ATOM     48  C   UNL A   1      39.581  34.832  38.650  1.00  0.00     0.006 A 
ENDBRANCH  27  41
BRANCH  28  49
ATOM     49  C   UNL A   1      40.781  27.706  28.079  1.00  0.00     0.057 A 
ATOM     50  C   UNL A   1      41.546  28.149  26.996  1.00  0.00     0.134 A 
ATOM     51  C   UNL A   1      40.161  26.455  27.966  1.00  0.00     0.134 A 
ATOM     52  F   UNL A   1      42.151  29.345  27.039  1.00  0.00    -0.206 F 
ATOM     53  C   UNL A   1      41.679  27.384  25.836  1.00  0.00     0.040 A 
ATOM     54  C   UNL A   1      40.308  25.669  26.824  1.00  0.00     0.040 A 
ATOM     55  F   UNL A   1      39.421  25.972  28.975  1.00  0.00    -0.206 F 
ATOM     56  C   UNL A   1      41.064  26.136  25.751  1.00  0.00     0.006 A 
ENDBRANCH  28  49
BRANCH  40  57
ATOM     57  C   UNL A   1      44.133  27.836  34.171  1.00  0.00     0.057 A 
ATOM     58  C   UNL A   1      43.930  26.601  34.798  1.00  0.00     0.134 A 
ATOM     59  C   UNL A   1      45.451  28.293  34.050  1.00  0.00     0.134 A 
ATOM     60  F   UNL A   1      42.690  26.115  34.959  1.00  0.00    -0.206 F 
ATOM     61  C   UNL A   1      44.997  25.862  35.314  1.00  0.00     0.040 A 
ATOM     62  C   UNL A   1      46.527  27.551  34.538  1.00  0.00     0.040 A 
ATOM     63  F   UNL A   1      45.715  29.466  33.454  1.00  0.00    -0.206 F 
ATOM     64  C   UNL A   1      46.301  26.335  35.180  1.00  0.00     0.006 A 
ENDBRANCH  40  57
ENDBRANCH  14  15
ENDBRANCH   7   9
ENDBRANCH   4   5
ENDBRANCH   3   4
ENDBRANCH   2   3
ENDBRANCH   1   2
BRANCH   1  65
ATOM     65  C   UNL A   1      33.198  28.568  26.961  1.00  0.00     0.021 C 
BRANCH  65  66
ATOM     66  C   UNL A   1      33.414  27.282  26.164  1.00  0.00     0.116 C 
BRANCH  66  67
ATOM     67  N   UNL A   1      32.429  26.269  26.510  1.00  0.00    -0.352 N 
ATOM     68  C   UNL A   1      32.345  24.976  26.064  1.00  0.00     0.253 C 
ATOM     69  H   UNL A   1      31.732  26.549  27.147  1.00  0.00     0.163 HD
ATOM     70  O   UNL A   1      31.310  24.332  26.185  1.00  0.00    -0.269 OA
BRANCH  68  71
ATOM     71  C   UNL A   1      33.503  24.376  25.381  1.00  0.00     0.067 A 
ATOM     72  C   UNL A   1      34.621  24.042  26.167  1.00  0.00     0.058 A 
ATOM     73  C   UNL A   1      33.507  24.208  23.983  1.00  0.00     0.065 A 
ATOM     74  C   UNL A   1      35.785  23.621  25.546  1.00  0.00     0.159 A 
ATOM     75  C   UNL A   1      34.721  23.845  23.393  1.00  0.00     0.070 A 
ATOM     76  F   UNL A   1      36.872  23.361  26.283  1.00  0.00    -0.204 F 
ATOM     77  C   UNL A   1      35.839  23.538  24.165  1.00  0.00     0.160 A 
ATOM     78  F   UNL A   1      36.984  23.206  23.553  1.00  0.00    -0.204 F 
BRANCH  73  79
ATOM     79  N   UNL A   1      32.381  24.620  23.163  1.00  0.00    -0.279 N 
ATOM     80  H   UNL A   1      31.591  24.038  23.093  1.00  0.00     0.180 HD
BRANCH  79  81
ATOM     81  S   UNL A   1      32.417  26.113  22.320  1.00  0.00     0.261 S 
ATOM     82  O   UNL A   1      33.575  26.844  22.797  1.00  0.00    -0.201 OA
ATOM     83  O   UNL A   1      32.264  25.796  20.918  1.00  0.00    -0.201 OA
BRANCH  81  84
ATOM     84  C   UNL A   1      30.964  26.995  22.825  1.00  0.00     0.088 A 
ATOM     85  C   UNL A   1      29.961  26.300  23.528  1.00  0.00     0.022 A 
ATOM     86  C   UNL A   1      30.784  28.321  22.406  1.00  0.00     0.026 A 
ATOM     87  C   UNL A   1      28.716  26.891  23.734  1.00  0.00     0.005 A 
ATOM     88  C   UNL A   1      29.537  28.888  22.613  1.00  0.00    -0.043 A 
ATOM     89  C   UNL A   1      28.513  28.172  23.247  1.00  0.00    -0.045 A 
ATOM     90  C   UNL A   1      29.028  30.205  22.111  1.00  0.00     0.036 C 
ATOM     91  C   UNL A   1      27.223  28.932  23.205  1.00  0.00     0.036 C 
ATOM     92  C   UNL A   1      27.720  30.350  22.903  1.00  0.00     0.010 C 
ENDBRANCH  81  84
ENDBRANCH  79  81
ENDBRANCH  73  79
ENDBRANCH  68  71
ENDBRANCH  66  67
ENDBRANCH  65  66
ENDBRANCH   1  65
TORSDOF 16
ENDMDL
MODEL 3
REMARK VINA RESULT:     -12.0      2.194      3.957
REMARK SMILES O=C(NCCCCCCNC(=O)c1cc(F)c(F)cc1NS(=O)(=O)c1ccc2c(c1)CCC2)c1ccc(-c2c3nc(c(-c4c(F)cccc4F)c4ccc([nH]4)c(-c4c(F)cccc4F)c4nc(c(-c5c(F)cccc5F)c5ccc2[nH]5)C=C4)C=C3)cc1
REMARK SMILES IDX 7 1 6 2 5 3 4 4 3 5 1 6 2 7 34 9 35 10 87 11 36 12 86 13
REMARK SMILES IDX 37 14 38 15 39 16 80 17 40 18 85 19 79 20 81 21 41 22 84 23
REMARK SMILES IDX 78 24 77 25 42 27 68 28 51 29 67 30 52 31 55 32 66 33 82 34
REMARK SMILES IDX 53 35 54 36 65 38 83 39 56 40 43 41 44 42 49 43 45 44 46 45
REMARK SMILES IDX 48 46 50 47 47 48 69 49 70 50 75 51 71 52 72 53 74 54 76 55
REMARK SMILES IDX 73 56 57 57 58 58 63 59 59 60 60 61 62 62 64 63 61 64 8 65
REMARK SMILES IDX 9 66 10 67 11 68 12 70 13 71 14 72 20 73 15 74 19 75 16 76
REMARK SMILES IDX 17 77 18 78 21 79 22 81 23 82 24 83 25 84 26 85 30 86 27 87
REMARK SMILES IDX 29 88 28 89 31 90 33 91 32 92
REMARK H PARENT 3 8 81 26 55 37 10 69 21 80
REMARK Flexibility Score: inf
ROOT
ATOM      1  C   UNL A   1      38.213  22.267  25.762  1.00  0.00     0.002 C 
ENDROOT
BRANCH   1   2
ATOM      2  C   UNL A   1      37.752  21.322  24.648  1.00  0.00     0.002 C 
BRANCH   2   3
ATOM      3  C   UNL A   1      38.250  19.882  24.762  1.00  0.00     0.021 C 
BRANCH   3   4
ATOM      4  C   UNL A   1      39.026  19.566  26.033  1.00  0.00     0.116 C 
BRANCH   4   5
ATOM      5  N   UNL A   1      40.329  18.975  25.772  1.00  0.00    -0.352 N 
ATOM      6  O   UNL A   1      42.571  18.924  25.504  1.00  0.00    -0.269 OA
ATOM      7  C   UNL A   1      41.581  19.530  25.903  1.00  0.00     0.251 C 
ATOM      8  H   UNL A   1      40.313  18.043  25.456  1.00  0.00     0.163 HD
BRANCH   7   9
ATOM      9  C   UNL A   1      41.729  20.878  26.496  1.00  0.00     0.039 A 
ATOM     10  C   UNL A   1      41.931  21.995  25.683  1.00  0.00     0.014 A 
ATOM     11  C   UNL A   1      41.683  21.022  27.885  1.00  0.00     0.014 A 
ATOM     12  C   UNL A   1      42.257  23.216  26.261  1.00  0.00     0.010 A 
ATOM     13  C   UNL A   1      41.916  22.274  28.462  1.00  0.00     0.010 A 
ATOM     14  C   UNL A   1      42.250  23.373  27.657  1.00  0.00    -0.014 A 
BRANCH  14  15
ATOM     15  C   UNL A   1      42.563  24.705  28.236  1.00  0.00     0.031 A 
ATOM     16  C   UNL A   1      43.974  25.092  28.590  1.00  0.00     0.074 A 
ATOM     17  C   UNL A   1      41.563  25.593  28.398  1.00  0.00     0.049 A 
ATOM     18  N   UNL A   1      44.425  26.234  29.047  1.00  0.00    -0.248 NA
ATOM     19  C   UNL A   1      45.013  24.065  28.418  1.00  0.00     0.031 C 
ATOM     20  C   UNL A   1      40.151  25.332  28.104  1.00  0.00     0.029 A 
ATOM     21  N   UNL A   1      41.579  26.898  28.819  1.00  0.00    -0.354 N 
ATOM     22  C   UNL A   1      45.790  26.056  29.242  1.00  0.00     0.074 A 
ATOM     23  C   UNL A   1      46.091  24.689  28.875  1.00  0.00     0.031 C 
ATOM     24  C   UNL A   1      39.447  26.457  28.294  1.00  0.00     0.029 A 
ATOM     25  C   UNL A   1      40.344  27.499  28.782  1.00  0.00     0.049 A 
ATOM     26  H   UNL A   1      42.394  27.358  29.120  1.00  0.00     0.167 HD
ATOM     27  C   UNL A   1      46.707  26.953  29.680  1.00  0.00     0.037 A 
ATOM     28  C   UNL A   1      39.969  28.748  29.110  1.00  0.00     0.037 A 
ATOM     29  C   UNL A   1      46.407  28.321  30.022  1.00  0.00     0.049 A 
ATOM     30  C   UNL A   1      41.005  29.717  29.601  1.00  0.00     0.074 A 
ATOM     31  C   UNL A   1      47.278  29.319  30.428  1.00  0.00     0.029 A 
ATOM     32  N   UNL A   1      45.139  28.882  30.005  1.00  0.00    -0.354 N 
ATOM     33  N   UNL A   1      42.298  29.547  29.736  1.00  0.00    -0.248 NA
ATOM     34  C   UNL A   1      40.528  31.051  29.988  1.00  0.00     0.031 C 
ATOM     35  C   UNL A   1      46.530  30.469  30.702  1.00  0.00     0.029 A 
ATOM     36  C   UNL A   1      45.200  30.205  30.417  1.00  0.00     0.049 A 
ATOM     37  H   UNL A   1      44.317  28.411  29.739  1.00  0.00     0.167 HD
ATOM     38  C   UNL A   1      42.792  30.756  30.201  1.00  0.00     0.074 A 
ATOM     39  C   UNL A   1      41.662  31.657  30.307  1.00  0.00     0.031 C 
ATOM     40  C   UNL A   1      44.068  31.091  30.514  1.00  0.00     0.037 A 
BRANCH  27  41
ATOM     41  C   UNL A   1      48.125  26.480  29.836  1.00  0.00     0.057 A 
ATOM     42  C   UNL A   1      48.574  25.843  31.000  1.00  0.00     0.134 A 
ATOM     43  C   UNL A   1      49.043  26.628  28.787  1.00  0.00     0.134 A 
ATOM     44  F   UNL A   1      47.751  25.677  32.046  1.00  0.00    -0.206 F 
ATOM     45  C   UNL A   1      49.890  25.390  31.124  1.00  0.00     0.040 A 
ATOM     46  C   UNL A   1      50.353  26.157  28.890  1.00  0.00     0.040 A 
ATOM     47  F   UNL A   1      48.677  27.222  27.642  1.00  0.00    -0.206 F 
ATOM     48  C   UNL A   1      50.781  25.541  30.063  1.00  0.00     0.006 A 
ENDBRANCH  27  41
BRANCH  28  49
ATOM     49  C   UNL A   1      38.549  29.155  28.971  1.00  0.00     0.057 A 
ATOM     50  C   UNL A   1      37.670  29.088  30.057  1.00  0.00     0.134 A 
ATOM     51  C   UNL A   1      38.040  29.625  27.755  1.00  0.00     0.134 A 
ATOM     52  F   UNL A   1      38.095  28.631  31.245  1.00  0.00    -0.206 F 
ATOM     53  C   UNL A   1      36.331  29.461  29.936  1.00  0.00     0.040 A 
ATOM     54  C   UNL A   1      36.711  30.027  27.627  1.00  0.00     0.040 A 
ATOM     55  F   UNL A   1      38.835  29.720  26.680  1.00  0.00    -0.206 F 
ATOM     56  C   UNL A   1      35.850  29.939  28.718  1.00  0.00     0.006 A 
ENDBRANCH  28  49
BRANCH  40  57
ATOM     57  C   UNL A   1      44.310  32.503  30.963  1.00  0.00     0.057 A 
ATOM     58  C   UNL A   1      44.580  33.532  30.053  1.00  0.00     0.134 A 
ATOM     59  C   UNL A   1      44.259  32.836  32.322  1.00  0.00     0.134 A 
ATOM     60  F   UNL A   1      44.658  33.275  28.738  1.00  0.00    -0.206 F 
ATOM     61  C   UNL A   1      44.822  34.838  30.482  1.00  0.00     0.040 A 
ATOM     62  C   UNL A   1      44.471  34.143  32.760  1.00  0.00     0.040 A 
ATOM     63  F   UNL A   1      43.998  31.897  33.245  1.00  0.00    -0.206 F 
ATOM     64  C   UNL A   1      44.763  35.147  31.840  1.00  0.00     0.006 A 
ENDBRANCH  40  57
ENDBRANCH  14  15
ENDBRANCH   7   9
ENDBRANCH   4   5
ENDBRANCH   3   4
ENDBRANCH   2   3
ENDBRANCH   1   2
BRANCH   1  65
ATOM     65  C   UNL A   1      37.369  23.535  25.945  1.00  0.00     0.021 C 
BRANCH  65  66
ATOM     66  C   UNL A   1      35.875  23.288  26.145  1.00  0.00     0.116 C 
BRANCH  66  67
ATOM     67  N   UNL A   1      35.097  23.802  25.028  1.00  0.00    -0.352 N 
ATOM     68  C   UNL A   1      34.228  23.125  24.211  1.00  0.00     0.253 C 
ATOM     69  H   UNL A   1      35.209  24.762  24.833  1.00  0.00     0.163 HD
ATOM     70  O   UNL A   1      33.881  23.591  23.134  1.00  0.00    -0.269 OA
BRANCH  68  71
ATOM     71  C   UNL A   1      33.751  21.793  24.619  1.00  0.00     0.067 A 
ATOM     72  C   UNL A   1      34.627  20.706  24.444  1.00  0.00     0.058 A 
ATOM     73  C   UNL A   1      32.442  21.615  25.105  1.00  0.00     0.065 A 
ATOM     74  C   UNL A   1      34.164  19.420  24.669  1.00  0.00     0.159 A 
ATOM     75  C   UNL A   1      31.996  20.299  25.255  1.00  0.00     0.070 A 
ATOM     76  F   UNL A   1      34.973  18.377  24.443  1.00  0.00    -0.204 F 
ATOM     77  C   UNL A   1      32.852  19.217  25.057  1.00  0.00     0.160 A 
ATOM     78  F   UNL A   1      32.375  17.973  25.203  1.00  0.00    -0.204 F 
BRANCH  73  79
ATOM     79  N   UNL A   1      31.514  22.726  25.218  1.00  0.00    -0.279 N 
ATOM     80  H   UNL A   1      30.937  22.959  24.454  1.00  0.00     0.180 HD
BRANCH  79  81
ATOM     81  S   UNL A   1      31.412  23.634  26.669  1.00  0.00     0.261 S 
ATOM     82  O   UNL A   1      30.128  23.335  27.270  1.00  0.00    -0.201 OA
ATOM     83  O   UNL A   1      32.643  23.396  27.388  1.00  0.00    -0.201 OA
BRANCH  81  84
ATOM     84  C   UNL A   1      31.406  25.339  26.180  1.00  0.00     0.088 A 
ATOM     85  C   UNL A   1      30.257  25.858  25.553  1.00  0.00     0.022 A 
ATOM     86  C   UNL A   1      32.581  26.095  26.306  1.00  0.00     0.026 A 
ATOM     87  C   UNL A   1      30.299  27.114  24.949  1.00  0.00     0.005 A 
ATOM     88  C   UNL A   1      32.605  27.336  25.692  1.00  0.00    -0.043 A 
ATOM     89  C   UNL A   1      31.486  27.826  25.004  1.00  0.00    -0.045 A 
ATOM     90  C   UNL A   1      33.774  28.258  25.522  1.00  0.00     0.036 C 
ATOM     91  C   UNL A   1      31.811  29.103  24.293  1.00  0.00     0.036 C 
ATOM     92  C   UNL A   1      33.085  29.538  25.026  1.00  0.00     0.010 C 
ENDBRANCH  81  84
ENDBRANCH  79  81
ENDBRANCH  73  79
ENDBRANCH  68  71
ENDBRANCH  66  67
ENDBRANCH  65  66
ENDBRANCH   1  65
TORSDOF 16
ENDMDL
