MODEL 1
REMARK VINA RESULT:     -12.8      0.000      0.000
REMARK SMILES O=C(NCCCCCCNC(=O)[C@H]1[C@H]2CC[C@H](C2)[C@@H]1C(=O)Nc1sc2c(c1C(=O)NC1CCCCC1)CCCC2)c1ccc(-c2c3nc(c(-c4c(F)cccc4F)c4ccc([nH]4)c(-c4c(F)cccc4F)c4nc(c(-c5c(F)cccc5F)c5ccc2[nH]5)C=C4)C=C3)cc1
REMARK SMILES IDX 7 1 6 2 5 3 4 4 3 5 1 6 2 7 41 9 42 10 94 11 43 12 93 13
REMARK SMILES IDX 44 14 45 15 46 16 87 17 47 18 92 19 86 20 88 21 48 22 91 23
REMARK SMILES IDX 85 24 84 25 49 27 75 28 58 29 74 30 59 31 62 32 73 33 89 34
REMARK SMILES IDX 60 35 61 36 72 38 90 39 63 40 50 41 51 42 56 43 52 44 53 45
REMARK SMILES IDX 55 46 57 47 54 48 76 49 77 50 82 51 78 52 79 53 81 54 83 55
REMARK SMILES IDX 80 56 64 57 65 58 70 59 66 60 67 61 69 62 71 63 68 64 8 65
REMARK SMILES IDX 9 66 10 67 11 68 12 70 13 71 14 72 19 73 15 74 18 75 17 76
REMARK SMILES IDX 16 77 20 78 21 79 22 80 23 82 24 83 27 84 25 85 26 86 40 87
REMARK SMILES IDX 37 88 39 89 38 90 28 91 29 92 30 93 31 95 32 96 36 97 33 98
REMARK SMILES IDX 35 99 34 100
REMARK H PARENT 3 8 88 26 62 37 10 69 22 81 30 94
REMARK Flexibility Score: inf
ROOT
ATOM      1  C   UNL A   1      38.301  22.827  26.265  1.00  0.00     0.002 C 
ENDROOT
BRANCH   1   2
ATOM      2  C   UNL A   1      39.674  22.155  26.154  1.00  0.00     0.002 C 
BRANCH   2   3
ATOM      3  C   UNL A   1      39.730  20.719  26.674  1.00  0.00     0.021 C 
BRANCH   3   4
ATOM      4  C   UNL A   1      39.955  19.672  25.594  1.00  0.00     0.116 C 
BRANCH   4   5
ATOM      5  N   UNL A   1      41.015  18.742  25.940  1.00  0.00    -0.352 N 
ATOM      6  O   UNL A   1      43.138  18.102  26.364  1.00  0.00    -0.269 OA
ATOM      7  C   UNL A   1      42.321  19.004  26.277  1.00  0.00     0.251 C 
ATOM      8  H   UNL A   1      40.763  17.790  25.933  1.00  0.00     0.163 HD
BRANCH   7   9
ATOM      9  C   UNL A   1      42.730  20.406  26.514  1.00  0.00     0.039 A 
ATOM     10  C   UNL A   1      42.719  20.934  27.806  1.00  0.00     0.014 A 
ATOM     11  C   UNL A   1      43.122  21.194  25.429  1.00  0.00     0.014 A 
ATOM     12  C   UNL A   1      42.966  22.286  27.997  1.00  0.00     0.010 A 
ATOM     13  C   UNL A   1      43.466  22.531  25.638  1.00  0.00     0.010 A 
ATOM     14  C   UNL A   1      43.369  23.093  26.921  1.00  0.00    -0.014 A 
BRANCH  14  15
ATOM     15  C   UNL A   1      43.770  24.496  27.182  1.00  0.00     0.031 A 
ATOM     16  C   UNL A   1      42.767  25.532  27.602  1.00  0.00     0.074 A 
ATOM     17  C   UNL A   1      45.070  24.823  27.047  1.00  0.00     0.049 A 
ATOM     18  N   UNL A   1      42.959  26.798  27.874  1.00  0.00    -0.248 NA
ATOM     19  C   UNL A   1      41.368  25.097  27.729  1.00  0.00     0.031 C 
ATOM     20  C   UNL A   1      46.129  23.900  26.630  1.00  0.00     0.029 A 
ATOM     21  N   UNL A   1      45.726  26.007  27.257  1.00  0.00    -0.354 N 
ATOM     22  C   UNL A   1      41.709  27.316  28.187  1.00  0.00     0.074 A 
ATOM     23  C   UNL A   1      40.759  26.232  28.046  1.00  0.00     0.031 C 
ATOM     24  C   UNL A   1      47.307  24.540  26.657  1.00  0.00     0.029 A 
ATOM     25  C   UNL A   1      47.076  25.932  27.020  1.00  0.00     0.049 A 
ATOM     26  H   UNL A   1      45.273  26.831  27.549  1.00  0.00     0.167 HD
ATOM     27  C   UNL A   1      41.388  28.578  28.562  1.00  0.00     0.037 A 
ATOM     28  C   UNL A   1      48.025  26.885  27.063  1.00  0.00     0.037 A 
ATOM     29  C   UNL A   1      42.345  29.649  28.699  1.00  0.00     0.049 A 
ATOM     30  C   UNL A   1      47.633  28.282  27.440  1.00  0.00     0.074 A 
ATOM     31  C   UNL A   1      42.124  30.954  29.105  1.00  0.00     0.029 A 
ATOM     32  N   UNL A   1      43.700  29.543  28.419  1.00  0.00    -0.354 N 
ATOM     33  N   UNL A   1      46.455  28.746  27.778  1.00  0.00    -0.248 NA
ATOM     34  C   UNL A   1      48.701  29.289  27.442  1.00  0.00     0.031 C 
ATOM     35  C   UNL A   1      43.334  31.651  29.019  1.00  0.00     0.029 A 
ATOM     36  C   UNL A   1      44.322  30.767  28.618  1.00  0.00     0.049 A 
ATOM     37  H   UNL A   1      44.152  28.721  28.122  1.00  0.00     0.167 HD
ATOM     38  C   UNL A   1      46.642  30.093  28.052  1.00  0.00     0.074 A 
ATOM     39  C   UNL A   1      48.052  30.364  27.862  1.00  0.00     0.031 C 
ATOM     40  C   UNL A   1      45.728  31.021  28.426  1.00  0.00     0.037 A 
BRANCH  27  41
ATOM     41  C   UNL A   1      39.942  28.881  28.832  1.00  0.00     0.057 A 
ATOM     42  C   UNL A   1      39.389  28.784  30.115  1.00  0.00     0.134 A 
ATOM     43  C   UNL A   1      39.102  29.324  27.801  1.00  0.00     0.134 A 
ATOM     44  F   UNL A   1      40.133  28.357  31.147  1.00  0.00    -0.206 F 
ATOM     45  C   UNL A   1      38.049  29.097  30.360  1.00  0.00     0.040 A 
ATOM     46  C   UNL A   1      37.769  29.666  28.039  1.00  0.00     0.040 A 
ATOM     47  F   UNL A   1      39.567  29.449  26.550  1.00  0.00    -0.206 F 
ATOM     48  C   UNL A   1      37.238  29.546  29.321  1.00  0.00     0.006 A 
ENDBRANCH  27  41
BRANCH  28  49
ATOM     49  C   UNL A   1      49.430  26.544  26.728  1.00  0.00     0.057 A 
ATOM     50  C   UNL A   1      50.319  26.088  27.706  1.00  0.00     0.134 A 
ATOM     51  C   UNL A   1      49.913  26.657  25.418  1.00  0.00     0.134 A 
ATOM     52  F   UNL A   1      49.918  25.972  28.980  1.00  0.00    -0.206 F 
ATOM     53  C   UNL A   1      51.644  25.776  27.400  1.00  0.00     0.040 A 
ATOM     54  C   UNL A   1      51.226  26.318  25.091  1.00  0.00     0.040 A 
ATOM     55  F   UNL A   1      49.107  27.075  24.431  1.00  0.00    -0.206 F 
ATOM     56  C   UNL A   1      52.098  25.884  26.086  1.00  0.00     0.006 A 
ENDBRANCH  28  49
BRANCH  40  57
ATOM     57  C   UNL A   1      46.236  32.409  28.693  1.00  0.00     0.057 A 
ATOM     58  C   UNL A   1      46.685  32.804  29.959  1.00  0.00     0.134 A 
ATOM     59  C   UNL A   1      46.294  33.354  27.660  1.00  0.00     0.134 A 
ATOM     60  F   UNL A   1      46.639  31.953  30.994  1.00  0.00    -0.206 F 
ATOM     61  C   UNL A   1      47.150  34.100  30.194  1.00  0.00     0.040 A 
ATOM     62  C   UNL A   1      46.787  34.641  27.876  1.00  0.00     0.040 A 
ATOM     63  F   UNL A   1      45.886  33.038  26.422  1.00  0.00    -0.206 F 
ATOM     64  C   UNL A   1      47.208  35.019  29.149  1.00  0.00     0.006 A 
ENDBRANCH  40  57
ENDBRANCH  14  15
ENDBRANCH   7   9
ENDBRANCH   4   5
ENDBRANCH   3   4
ENDBRANCH   2   3
ENDBRANCH   1   2
BRANCH   1  65
ATOM     65  C   UNL A   1      37.276  22.367  25.226  1.00  0.00     0.021 C 
BRANCH  65  66
ATOM     66  C   UNL A   1      36.716  23.501  24.379  1.00  0.00     0.116 C 
BRANCH  66  67
ATOM     67  N   UNL A   1      35.763  24.294  25.132  1.00  0.00    -0.356 N 
ATOM     68  C   UNL A   1      34.474  24.609  24.805  1.00  0.00     0.224 C 
ATOM     69  H   UNL A   1      36.086  24.652  25.991  1.00  0.00     0.163 HD
ATOM     70  O   UNL A   1      33.834  25.357  25.538  1.00  0.00    -0.275 OA
BRANCH  68  71
ATOM     71  C   UNL A   1      33.899  23.936  23.578  1.00  0.00     0.094 C 
ATOM     72  C   UNL A   1      33.558  22.458  23.934  1.00  0.00     0.002 C 
ATOM     73  C   UNL A   1      32.565  24.488  23.039  1.00  0.00     0.094 C 
ATOM     74  C   UNL A   1      32.474  22.340  25.018  1.00  0.00     0.005 C 
ATOM     75  C   UNL A   1      32.763  22.075  22.710  1.00  0.00     0.009 C 
ATOM     76  C   UNL A   1      31.729  23.197  22.892  1.00  0.00     0.002 C 
ATOM     77  C   UNL A   1      31.204  22.822  24.297  1.00  0.00     0.005 C 
BRANCH  73  78
ATOM     78  C   UNL A   1      32.725  25.484  21.864  1.00  0.00     0.229 C 
ATOM     79  O   UNL A   1      32.921  25.013  20.733  1.00  0.00    -0.274 OA
ATOM     80  N   UNL A   1      32.487  26.827  21.909  1.00  0.00    -0.317 N 
ATOM     81  H   UNL A   1      32.246  27.226  21.042  1.00  0.00     0.170 HD
BRANCH  80  82
ATOM     82  C   UNL A   1      32.525  27.719  22.953  1.00  0.00     0.108 A 
ATOM     83  S   UNL A   1      33.980  28.561  23.205  1.00  0.00    -0.122 S 
ATOM     84  C   UNL A   1      31.463  28.266  23.686  1.00  0.00     0.078 A 
ATOM     85  C   UNL A   1      33.420  29.040  24.727  1.00  0.00     0.011 A 
ATOM     86  C   UNL A   1      32.033  29.072  24.770  1.00  0.00    -0.019 A 
ATOM     87  C   UNL A   1      34.353  29.397  25.843  1.00  0.00     0.047 C 
ATOM     88  C   UNL A   1      31.371  29.787  25.911  1.00  0.00     0.037 C 
ATOM     89  C   UNL A   1      33.555  29.479  27.150  1.00  0.00     0.006 C 
ATOM     90  C   UNL A   1      32.344  30.392  26.937  1.00  0.00     0.005 C 
BRANCH  84  91
ATOM     91  C   UNL A   1      30.088  27.910  23.279  1.00  0.00     0.254 C 
ATOM     92  O   UNL A   1      29.689  26.749  23.436  1.00  0.00    -0.269 OA
ATOM     93  N   UNL A   1      29.134  28.771  22.800  1.00  0.00    -0.349 N 
ATOM     94  H   UNL A   1      28.257  28.340  22.689  1.00  0.00     0.164 HD
BRANCH  93  95
ATOM     95  C   UNL A   1      29.117  30.172  22.420  1.00  0.00     0.082 C 
ATOM     96  C   UNL A   1      28.147  30.439  21.255  1.00  0.00     0.025 C 
ATOM     97  C   UNL A   1      28.742  31.105  23.578  1.00  0.00     0.025 C 
ATOM     98  C   UNL A   1      28.252  31.894  20.790  1.00  0.00     0.002 C 
ATOM     99  C   UNL A   1      28.897  32.568  23.155  1.00  0.00     0.002 C 
ATOM    100  C   UNL A   1      28.051  32.895  21.928  1.00  0.00     0.000 C 
ENDBRANCH  93  95
ENDBRANCH  84  91
ENDBRANCH  80  82
ENDBRANCH  73  78
ENDBRANCH  68  71
ENDBRANCH  66  67
ENDBRANCH  65  66
ENDBRANCH   1  65
TORSDOF 17
ENDMDL
MODEL 2
REMARK VINA RESULT:     -12.7      0.370      5.740
REMARK SMILES O=C(NCCCCCCNC(=O)[C@H]1[C@H]2CC[C@H](C2)[C@@H]1C(=O)Nc1sc2c(c1C(=O)NC1CCCCC1)CCCC2)c1ccc(-c2c3nc(c(-c4c(F)cccc4F)c4ccc([nH]4)c(-c4c(F)cccc4F)c4nc(c(-c5c(F)cccc5F)c5ccc2[nH]5)C=C4)C=C3)cc1
REMARK SMILES IDX 7 1 6 2 5 3 4 4 3 5 1 6 2 7 41 9 42 10 94 11 43 12 93 13
REMARK SMILES IDX 44 14 45 15 46 16 87 17 47 18 92 19 86 20 88 21 48 22 91 23
REMARK SMILES IDX 85 24 84 25 49 27 75 28 58 29 74 30 59 31 62 32 73 33 89 34
REMARK SMILES IDX 60 35 61 36 72 38 90 39 63 40 50 41 51 42 56 43 52 44 53 45
REMARK SMILES IDX 55 46 57 47 54 48 76 49 77 50 82 51 78 52 79 53 81 54 83 55
REMARK SMILES IDX 80 56 64 57 65 58 70 59 66 60 67 61 69 62 71 63 68 64 8 65
REMARK SMILES IDX 9 66 10 67 11 68 12 70 13 71 14 72 19 73 15 74 18 75 17 76
REMARK SMILES IDX 16 77 20 78 21 79 22 80 23 82 24 83 27 84 25 85 26 86 40 87
REMARK SMILES IDX 37 88 39 89 38 90 28 91 29 92 30 93 31 95 32 96 36 97 33 98
REMARK SMILES IDX 35 99 34 100
REMARK H PARENT 3 8 88 26 62 37 10 69 22 81 30 94
REMARK Flexibility Score: inf
ROOT
ATOM      1  C   UNL A   1      38.197  22.788  26.481  1.00  0.00     0.002 C 
ENDROOT
BRANCH   1   2
ATOM      2  C   UNL A   1      39.504  22.056  26.154  1.00  0.00     0.002 C 
BRANCH   2   3
ATOM      3  C   UNL A   1      39.542  20.589  26.582  1.00  0.00     0.021 C 
BRANCH   3   4
ATOM      4  C   UNL A   1      39.919  19.624  25.468  1.00  0.00     0.116 C 
BRANCH   4   5
ATOM      5  N   UNL A   1      40.952  18.689  25.876  1.00  0.00    -0.352 N 
ATOM      6  O   UNL A   1      43.041  18.040  26.435  1.00  0.00    -0.269 OA
ATOM      7  C   UNL A   1      42.233  18.945  26.302  1.00  0.00     0.251 C 
ATOM      8  H   UNL A   1      40.700  17.737  25.842  1.00  0.00     0.163 HD
BRANCH   7   9
ATOM      9  C   UNL A   1      42.627  20.344  26.579  1.00  0.00     0.039 A 
ATOM     10  C   UNL A   1      42.567  20.848  27.880  1.00  0.00     0.014 A 
ATOM     11  C   UNL A   1      43.054  21.153  25.524  1.00  0.00     0.014 A 
ATOM     12  C   UNL A   1      42.800  22.197  28.105  1.00  0.00     0.010 A 
ATOM     13  C   UNL A   1      43.384  22.488  25.770  1.00  0.00     0.010 A 
ATOM     14  C   UNL A   1      43.238  23.025  27.059  1.00  0.00    -0.014 A 
BRANCH  14  15
ATOM     15  C   UNL A   1      43.623  24.425  27.361  1.00  0.00     0.031 A 
ATOM     16  C   UNL A   1      45.047  24.887  27.249  1.00  0.00     0.074 A 
ATOM     17  C   UNL A   1      42.655  25.287  27.729  1.00  0.00     0.049 A 
ATOM     18  N   UNL A   1      45.544  26.077  27.473  1.00  0.00    -0.248 NA
ATOM     19  C   UNL A   1      46.045  23.887  26.840  1.00  0.00     0.031 C 
ATOM     20  C   UNL A   1      41.239  24.943  27.884  1.00  0.00     0.029 A 
ATOM     21  N   UNL A   1      42.706  26.623  28.025  1.00  0.00    -0.354 N 
ATOM     22  C   UNL A   1      46.911  25.968  27.249  1.00  0.00     0.074 A 
ATOM     23  C   UNL A   1      47.170  24.588  26.898  1.00  0.00     0.031 C 
ATOM     24  C   UNL A   1      40.550  26.047  28.204  1.00  0.00     0.029 A 
ATOM     25  C   UNL A   1      41.483  27.158  28.348  1.00  0.00     0.049 A 
ATOM     26  H   UNL A   1      43.538  27.149  28.009  1.00  0.00     0.167 HD
ATOM     27  C   UNL A   1      47.858  26.936  27.326  1.00  0.00     0.037 A 
ATOM     28  C   UNL A   1      41.149  28.399  28.743  1.00  0.00     0.037 A 
ATOM     29  C   UNL A   1      47.586  28.308  27.678  1.00  0.00     0.049 A 
ATOM     30  C   UNL A   1      42.224  29.437  28.859  1.00  0.00     0.074 A 
ATOM     31  C   UNL A   1      48.471  29.370  27.751  1.00  0.00     0.029 A 
ATOM     32  N   UNL A   1      46.339  28.805  28.030  1.00  0.00    -0.354 N 
ATOM     33  N   UNL A   1      43.505  29.331  28.601  1.00  0.00    -0.248 NA
ATOM     34  C   UNL A   1      41.810  30.766  29.324  1.00  0.00     0.031 C 
ATOM     35  C   UNL A   1      47.772  30.495  28.199  1.00  0.00     0.029 A 
ATOM     36  C   UNL A   1      46.437  30.151  28.347  1.00  0.00     0.049 A 
ATOM     37  H   UNL A   1      45.508  28.279  28.052  1.00  0.00     0.167 HD
ATOM     38  C   UNL A   1      44.047  30.584  28.851  1.00  0.00     0.074 A 
ATOM     39  C   UNL A   1      42.951  31.438  29.260  1.00  0.00     0.031 C 
ATOM     40  C   UNL A   1      45.336  30.989  28.751  1.00  0.00     0.037 A 
BRANCH  27  41
ATOM     41  C   UNL A   1      49.281  26.544  27.046  1.00  0.00     0.057 A 
ATOM     42  C   UNL A   1      50.110  25.999  28.035  1.00  0.00     0.134 A 
ATOM     43  C   UNL A   1      49.814  26.667  25.756  1.00  0.00     0.134 A 
ATOM     44  F   UNL A   1      49.669  25.862  29.295  1.00  0.00    -0.206 F 
ATOM     45  C   UNL A   1      51.423  25.611  27.756  1.00  0.00     0.040 A 
ATOM     46  C   UNL A   1      51.115  26.257  25.458  1.00  0.00     0.040 A 
ATOM     47  F   UNL A   1      49.073  27.172  24.759  1.00  0.00    -0.206 F 
ATOM     48  C   UNL A   1      51.925  25.733  26.462  1.00  0.00     0.006 A 
ENDBRANCH  27  41
BRANCH  28  49
ATOM     49  C   UNL A   1      39.735  28.716  29.066  1.00  0.00     0.057 A 
ATOM     50  C   UNL A   1      38.857  29.194  28.087  1.00  0.00     0.134 A 
ATOM     51  C   UNL A   1      39.227  28.540  30.359  1.00  0.00     0.134 A 
ATOM     52  F   UNL A   1      39.289  29.396  26.834  1.00  0.00    -0.206 F 
ATOM     53  C   UNL A   1      37.530  29.504  28.386  1.00  0.00     0.040 A 
ATOM     54  C   UNL A   1      37.894  28.815  30.665  1.00  0.00     0.040 A 
ATOM     55  F   UNL A   1      40.014  28.072  31.339  1.00  0.00    -0.206 F 
ATOM     56  C   UNL A   1      37.044  29.307  29.678  1.00  0.00     0.006 A 
ENDBRANCH  28  49
BRANCH  40  57
ATOM     57  C   UNL A   1      45.622  32.431  29.054  1.00  0.00     0.057 A 
ATOM     58  C   UNL A   1      45.989  32.862  30.335  1.00  0.00     0.134 A 
ATOM     59  C   UNL A   1      45.551  33.398  28.042  1.00  0.00     0.134 A 
ATOM     60  F   UNL A   1      46.059  31.990  31.352  1.00  0.00    -0.206 F 
ATOM     61  C   UNL A   1      46.248  34.207  30.605  1.00  0.00     0.040 A 
ATOM     62  C   UNL A   1      45.838  34.740  28.292  1.00  0.00     0.040 A 
ATOM     63  F   UNL A   1      45.213  33.051  26.791  1.00  0.00    -0.206 F 
ATOM     64  C   UNL A   1      46.180  35.148  29.580  1.00  0.00     0.006 A 
ENDBRANCH  40  57
ENDBRANCH  14  15
ENDBRANCH   7   9
ENDBRANCH   4   5
ENDBRANCH   3   4
ENDBRANCH   2   3
ENDBRANCH   1   2
BRANCH   1  65
ATOM     65  C   UNL A   1      37.044  22.502  25.518  1.00  0.00     0.021 C 
BRANCH  65  66
ATOM     66  C   UNL A   1      36.638  23.706  24.680  1.00  0.00     0.116 C 
BRANCH  66  67
ATOM     67  N   UNL A   1      35.623  24.494  25.354  1.00  0.00    -0.356 N 
ATOM     68  C   UNL A   1      34.347  24.764  24.946  1.00  0.00     0.224 C 
ATOM     69  H   UNL A   1      35.888  24.886  26.218  1.00  0.00     0.163 HD
ATOM     70  O   UNL A   1      33.647  25.515  25.619  1.00  0.00    -0.275 OA
BRANCH  68  71
ATOM     71  C   UNL A   1      33.861  24.040  23.710  1.00  0.00     0.094 C 
ATOM     72  C   UNL A   1      33.553  22.560  24.088  1.00  0.00     0.002 C 
ATOM     73  C   UNL A   1      32.538  24.529  23.088  1.00  0.00     0.094 C 
ATOM     74  C   UNL A   1      32.420  22.430  25.118  1.00  0.00     0.005 C 
ATOM     75  C   UNL A   1      32.836  22.117  22.836  1.00  0.00     0.009 C 
ATOM     76  C   UNL A   1      31.755  23.205  22.935  1.00  0.00     0.002 C 
ATOM     77  C   UNL A   1      31.173  22.847  24.321  1.00  0.00     0.005 C 
BRANCH  73  78
ATOM     78  C   UNL A   1      32.724  25.501  21.897  1.00  0.00     0.229 C 
ATOM     79  O   UNL A   1      32.938  25.005  20.780  1.00  0.00    -0.274 OA
ATOM     80  N   UNL A   1      32.489  26.844  21.910  1.00  0.00    -0.317 N 
ATOM     81  H   UNL A   1      32.266  27.227  21.031  1.00  0.00     0.170 HD
BRANCH  80  82
ATOM     82  C   UNL A   1      32.511  27.758  22.937  1.00  0.00     0.108 A 
ATOM     83  S   UNL A   1      33.964  28.601  23.197  1.00  0.00    -0.122 S 
ATOM     84  C   UNL A   1      31.437  28.323  23.638  1.00  0.00     0.078 A 
ATOM     85  C   UNL A   1      33.377  29.112  24.699  1.00  0.00     0.011 A 
ATOM     86  C   UNL A   1      31.990  29.149  24.716  1.00  0.00    -0.019 A 
ATOM     87  C   UNL A   1      34.291  29.490  25.824  1.00  0.00     0.047 C 
ATOM     88  C   UNL A   1      31.310  29.889  25.829  1.00  0.00     0.037 C 
ATOM     89  C   UNL A   1      33.469  29.600  27.114  1.00  0.00     0.006 C 
ATOM     90  C   UNL A   1      32.266  30.512  26.861  1.00  0.00     0.005 C 
BRANCH  84  91
ATOM     91  C   UNL A   1      30.069  27.963  23.213  1.00  0.00     0.254 C 
ATOM     92  O   UNL A   1      29.674  26.799  23.359  1.00  0.00    -0.269 OA
ATOM     93  N   UNL A   1      29.116  28.822  22.729  1.00  0.00    -0.349 N 
ATOM     94  H   UNL A   1      28.243  28.386  22.605  1.00  0.00     0.164 HD
BRANCH  93  95
ATOM     95  C   UNL A   1      29.097  30.224  22.356  1.00  0.00     0.082 C 
ATOM     96  C   UNL A   1      28.114  30.499  21.205  1.00  0.00     0.025 C 
ATOM     97  C   UNL A   1      28.738  31.151  23.524  1.00  0.00     0.025 C 
ATOM     98  C   UNL A   1      28.215  31.957  20.746  1.00  0.00     0.002 C 
ATOM     99  C   UNL A   1      28.889  32.617  23.107  1.00  0.00     0.002 C 
ATOM    100  C   UNL A   1      28.030  32.951  21.892  1.00  0.00     0.000 C 
ENDBRANCH  93  95
ENDBRANCH  84  91
ENDBRANCH  80  82
ENDBRANCH  73  78
ENDBRANCH  68  71
ENDBRANCH  66  67
ENDBRANCH  65  66
ENDBRANCH   1  65
TORSDOF 17
ENDMDL
MODEL 3
REMARK VINA RESULT:     -12.6      4.783     10.020
REMARK SMILES O=C(NCCCCCCNC(=O)[C@H]1[C@H]2CC[C@H](C2)[C@@H]1C(=O)Nc1sc2c(c1C(=O)NC1CCCCC1)CCCC2)c1ccc(-c2c3nc(c(-c4c(F)cccc4F)c4ccc([nH]4)c(-c4c(F)cccc4F)c4nc(c(-c5c(F)cccc5F)c5ccc2[nH]5)C=C4)C=C3)cc1
REMARK SMILES IDX 7 1 6 2 5 3 4 4 3 5 1 6 2 7 41 9 42 10 94 11 43 12 93 13
REMARK SMILES IDX 44 14 45 15 46 16 87 17 47 18 92 19 86 20 88 21 48 22 91 23
REMARK SMILES IDX 85 24 84 25 49 27 75 28 58 29 74 30 59 31 62 32 73 33 89 34
REMARK SMILES IDX 60 35 61 36 72 38 90 39 63 40 50 41 51 42 56 43 52 44 53 45
REMARK SMILES IDX 55 46 57 47 54 48 76 49 77 50 82 51 78 52 79 53 81 54 83 55
REMARK SMILES IDX 80 56 64 57 65 58 70 59 66 60 67 61 69 62 71 63 68 64 8 65
REMARK SMILES IDX 9 66 10 67 11 68 12 70 13 71 14 72 19 73 15 74 18 75 17 76
REMARK SMILES IDX 16 77 20 78 21 79 22 80 23 82 24 83 27 84 25 85 26 86 40 87
REMARK SMILES IDX 37 88 39 89 38 90 28 91 29 92 30 93 31 95 32 96 36 97 33 98
REMARK SMILES IDX 35 99 34 100
REMARK H PARENT 3 8 88 26 62 37 10 69 22 81 30 94
REMARK Flexibility Score: inf
ROOT
ATOM      1  C   UNL A   1      34.392  30.187  27.512  1.00  0.00     0.002 C 
ENDROOT
BRANCH   1   2
ATOM      2  C   UNL A   1      34.603  31.671  27.831  1.00  0.00     0.002 C 
BRANCH   2   3
ATOM      3  C   UNL A   1      33.322  32.503  27.891  1.00  0.00     0.021 C 
BRANCH   3   4
ATOM      4  C   UNL A   1      33.536  33.995  27.686  1.00  0.00     0.116 C 
BRANCH   4   5
ATOM      5  N   UNL A   1      33.015  34.783  28.789  1.00  0.00    -0.352 N 
ATOM      6  O   UNL A   1      32.767  35.396  30.947  1.00  0.00    -0.269 OA
ATOM      7  C   UNL A   1      33.426  34.815  30.099  1.00  0.00     0.251 C 
ATOM      8  H   UNL A   1      32.262  35.377  28.566  1.00  0.00     0.163 HD
BRANCH   7   9
ATOM      9  C   UNL A   1      34.675  34.117  30.474  1.00  0.00     0.039 A 
ATOM     10  C   UNL A   1      35.890  34.484  29.892  1.00  0.00     0.014 A 
ATOM     11  C   UNL A   1      34.622  33.083  31.412  1.00  0.00     0.014 A 
ATOM     12  C   UNL A   1      37.027  33.730  30.143  1.00  0.00     0.010 A 
ATOM     13  C   UNL A   1      35.788  32.388  31.737  1.00  0.00     0.010 A 
ATOM     14  C   UNL A   1      36.995  32.691  31.089  1.00  0.00    -0.014 A 
BRANCH  14  15
ATOM     15  C   UNL A   1      38.259  32.003  31.445  1.00  0.00     0.031 A 
ATOM     16  C   UNL A   1      39.090  32.446  32.614  1.00  0.00     0.074 A 
ATOM     17  C   UNL A   1      38.644  30.950  30.697  1.00  0.00     0.049 A 
ATOM     18  N   UNL A   1      40.215  31.946  33.059  1.00  0.00    -0.248 NA
ATOM     19  C   UNL A   1      38.603  33.602  33.382  1.00  0.00     0.031 C 
ATOM     20  C   UNL A   1      37.921  30.441  29.528  1.00  0.00     0.029 A 
ATOM     21  N   UNL A   1      39.721  30.113  30.810  1.00  0.00    -0.354 N 
ATOM     22  C   UNL A   1      40.580  32.732  34.145  1.00  0.00     0.074 A 
ATOM     23  C   UNL A   1      39.569  33.760  34.277  1.00  0.00     0.031 C 
ATOM     24  C   UNL A   1      38.550  29.355  29.059  1.00  0.00     0.029 A 
ATOM     25  C   UNL A   1      39.757  29.135  29.846  1.00  0.00     0.049 A 
ATOM     26  H   UNL A   1      40.404  30.203  31.514  1.00  0.00     0.167 HD
ATOM     27  C   UNL A   1      41.657  32.600  34.957  1.00  0.00     0.037 A 
ATOM     28  C   UNL A   1      40.673  28.181  29.603  1.00  0.00     0.037 A 
ATOM     29  C   UNL A   1      42.657  31.571  34.814  1.00  0.00     0.049 A 
ATOM     30  C   UNL A   1      41.876  28.087  30.493  1.00  0.00     0.074 A 
ATOM     31  C   UNL A   1      43.768  31.333  35.606  1.00  0.00     0.029 A 
ATOM     32  N   UNL A   1      42.677  30.618  33.805  1.00  0.00    -0.354 N 
ATOM     33  N   UNL A   1      42.184  28.808  31.543  1.00  0.00    -0.248 NA
ATOM     34  C   UNL A   1      42.860  27.048  30.164  1.00  0.00     0.031 C 
ATOM     35  C   UNL A   1      44.487  30.272  35.046  1.00  0.00     0.029 A 
ATOM     36  C   UNL A   1      43.794  29.808  33.940  1.00  0.00     0.049 A 
ATOM     37  H   UNL A   1      41.998  30.530  33.098  1.00  0.00     0.167 HD
ATOM     38  C   UNL A   1      43.386  28.298  32.014  1.00  0.00     0.074 A 
ATOM     39  C   UNL A   1      43.737  27.192  31.146  1.00  0.00     0.031 C 
ATOM     40  C   UNL A   1      44.130  28.709  33.069  1.00  0.00     0.037 A 
BRANCH  27  41
ATOM     41  C   UNL A   1      41.826  33.604  36.061  1.00  0.00     0.057 A 
ATOM     42  C   UNL A   1      41.269  33.412  37.332  1.00  0.00     0.134 A 
ATOM     43  C   UNL A   1      42.600  34.757  35.866  1.00  0.00     0.134 A 
ATOM     44  F   UNL A   1      40.509  32.337  37.587  1.00  0.00    -0.206 F 
ATOM     45  C   UNL A   1      41.457  34.339  38.361  1.00  0.00     0.040 A 
ATOM     46  C   UNL A   1      42.818  35.676  36.894  1.00  0.00     0.040 A 
ATOM     47  F   UNL A   1      43.171  35.000  34.677  1.00  0.00    -0.206 F 
ATOM     48  C   UNL A   1      42.240  35.471  38.144  1.00  0.00     0.006 A 
ENDBRANCH  27  41
BRANCH  28  49
ATOM     49  C   UNL A   1      40.487  27.253  28.460  1.00  0.00     0.057 A 
ATOM     50  C   UNL A   1      41.128  27.471  27.237  1.00  0.00     0.134 A 
ATOM     51  C   UNL A   1      39.669  26.121  28.568  1.00  0.00     0.134 A 
ATOM     52  F   UNL A   1      41.913  28.544  27.068  1.00  0.00    -0.206 F 
ATOM     53  C   UNL A   1      40.949  26.608  26.154  1.00  0.00     0.040 A 
ATOM     54  C   UNL A   1      39.506  25.232  27.505  1.00  0.00     0.040 A 
ATOM     55  F   UNL A   1      39.036  25.848  29.719  1.00  0.00    -0.206 F 
ATOM     56  C   UNL A   1      40.140  25.481  26.290  1.00  0.00     0.006 A 
ENDBRANCH  28  49
BRANCH  40  57
ATOM     57  C   UNL A   1      45.381  27.933  33.365  1.00  0.00     0.057 A 
ATOM     58  C   UNL A   1      46.625  28.302  32.839  1.00  0.00     0.134 A 
ATOM     59  C   UNL A   1      45.339  26.813  34.205  1.00  0.00     0.134 A 
ATOM     60  F   UNL A   1      46.730  29.354  32.014  1.00  0.00    -0.206 F 
ATOM     61  C   UNL A   1      47.780  27.568  33.118  1.00  0.00     0.040 A 
ATOM     62  C   UNL A   1      46.492  26.090  34.517  1.00  0.00     0.040 A 
ATOM     63  F   UNL A   1      44.180  26.409  34.748  1.00  0.00    -0.206 F 
ATOM     64  C   UNL A   1      47.715  26.464  33.964  1.00  0.00     0.006 A 
ENDBRANCH  40  57
ENDBRANCH  14  15
ENDBRANCH   7   9
ENDBRANCH   4   5
ENDBRANCH   3   4
ENDBRANCH   2   3
ENDBRANCH   1   2
BRANCH   1  65
ATOM     65  C   UNL A   1      32.944  29.796  27.208  1.00  0.00     0.021 C 
BRANCH  65  66
ATOM     66  C   UNL A   1      32.672  28.306  27.358  1.00  0.00     0.116 C 
BRANCH  66  67
ATOM     67  N   UNL A   1      33.485  27.530  26.440  1.00  0.00    -0.356 N 
ATOM     68  C   UNL A   1      33.108  26.477  25.654  1.00  0.00     0.224 C 
ATOM     69  H   UNL A   1      34.430  27.797  26.375  1.00  0.00     0.163 HD
ATOM     70  O   UNL A   1      33.957  25.893  24.986  1.00  0.00    -0.275 OA
BRANCH  68  71
ATOM     71  C   UNL A   1      31.631  26.156  25.608  1.00  0.00     0.094 C 
ATOM     72  C   UNL A   1      30.941  27.124  24.602  1.00  0.00     0.002 C 
ATOM     73  C   UNL A   1      31.235  24.761  25.086  1.00  0.00     0.094 C 
ATOM     74  C   UNL A   1      31.448  26.949  23.161  1.00  0.00     0.005 C 
ATOM     75  C   UNL A   1      29.587  26.466  24.497  1.00  0.00     0.009 C 
ATOM     76  C   UNL A   1      30.156  25.113  24.039  1.00  0.00     0.002 C 
ATOM     77  C   UNL A   1      30.886  25.576  22.757  1.00  0.00     0.005 C 
BRANCH  73  78
ATOM     78  C   UNL A   1      30.968  23.724  26.205  1.00  0.00     0.229 C 
ATOM     79  O   UNL A   1      29.894  23.808  26.822  1.00  0.00    -0.274 OA
ATOM     80  N   UNL A   1      31.706  22.606  26.459  1.00  0.00    -0.317 N 
ATOM     81  H   UNL A   1      31.207  21.879  26.898  1.00  0.00     0.170 HD
BRANCH  80  82
ATOM     82  C   UNL A   1      33.027  22.317  26.210  1.00  0.00     0.108 A 
ATOM     83  S   UNL A   1      34.150  22.701  27.426  1.00  0.00    -0.122 S 
ATOM     84  C   UNL A   1      33.578  21.489  25.222  1.00  0.00     0.078 A 
ATOM     85  C   UNL A   1      35.404  22.483  26.313  1.00  0.00     0.011 A 
ATOM     86  C   UNL A   1      35.037  21.607  25.300  1.00  0.00    -0.019 A 
ATOM     87  C   UNL A   1      36.732  23.158  26.466  1.00  0.00     0.047 C 
ATOM     88  C   UNL A   1      36.114  21.037  24.426  1.00  0.00     0.037 C 
ATOM     89  C   UNL A   1      37.519  23.008  25.159  1.00  0.00     0.006 C 
ATOM     90  C   UNL A   1      37.533  21.533  24.752  1.00  0.00     0.005 C 
BRANCH  84  91
ATOM     91  C   UNL A   1      32.648  20.758  24.337  1.00  0.00     0.254 C 
ATOM     92  O   UNL A   1      31.903  21.393  23.580  1.00  0.00    -0.269 OA
ATOM     93  N   UNL A   1      32.567  19.397  24.191  1.00  0.00    -0.349 N 
ATOM     94  H   UNL A   1      31.950  19.130  23.473  1.00  0.00     0.164 HD
BRANCH  93  95
ATOM     95  C   UNL A   1      33.180  18.258  24.850  1.00  0.00     0.082 C 
ATOM     96  C   UNL A   1      32.202  17.078  24.985  1.00  0.00     0.025 C 
ATOM     97  C   UNL A   1      34.440  17.756  24.134  1.00  0.00     0.025 C 
ATOM     98  C   UNL A   1      32.833  15.946  25.802  1.00  0.00     0.002 C 
ATOM     99  C   UNL A   1      35.123  16.663  24.960  1.00  0.00     0.002 C 
ATOM    100  C   UNL A   1      34.182  15.495  25.242  1.00  0.00     0.000 C 
ENDBRANCH  93  95
ENDBRANCH  84  91
ENDBRANCH  80  82
ENDBRANCH  73  78
ENDBRANCH  68  71
ENDBRANCH  66  67
ENDBRANCH  65  66
ENDBRANCH   1  65
TORSDOF 17
ENDMDL
