MODEL 1
REMARK VINA RESULT:     -12.5      0.000      0.000
REMARK SMILES O=C(NCCCCCCNC(=O)c1ccc2c(c1)[C@@H]1C=CC[C@@H]1[C@H](c1ccncc1)N2)c1ccc(-c2c3nc(c(-c4c(F)cccc4F)c4ccc([nH]4)c(-c4c(F)cccc4F)c4nc(c(-c5c(F)cccc5F)c5ccc2[nH]5)C=C4)C=C3)cc1
REMARK SMILES IDX 6 1 5 2 4 3 3 4 1 5 2 6 32 8 33 9 85 10 34 11 84 12 35 13
REMARK SMILES IDX 36 14 37 15 78 16 38 17 83 18 77 19 79 20 39 21 82 22 76 23
REMARK SMILES IDX 75 24 40 26 66 27 49 28 65 29 50 30 53 31 64 32 80 33 51 34
REMARK SMILES IDX 52 35 63 37 81 38 54 39 41 40 42 41 47 42 43 43 44 44 46 45
REMARK SMILES IDX 48 46 45 47 67 48 68 49 73 50 69 51 70 52 72 53 74 54 71 55
REMARK SMILES IDX 55 56 56 57 61 58 57 59 58 60 60 61 62 62 59 63 7 64 8 65
REMARK SMILES IDX 9 66 10 67 11 68 12 70 13 71 14 72 18 73 15 74 17 75 16 76
REMARK SMILES IDX 19 77 31 78 20 79 23 80 24 81 21 83 22 84 25 85 26 86 30 87
REMARK SMILES IDX 27 88 29 89 28 90
REMARK H PARENT 3 7 79 25 53 36 10 69 31 82
REMARK Flexibility Score: inf
ROOT
ATOM      1  C   UNL A   1      31.779  28.166  26.662  1.00  0.00     0.002 C 
ENDROOT
BRANCH   1   2
ATOM      2  C   UNL A   1      33.267  27.824  26.720  1.00  0.00     0.021 C 
BRANCH   2   3
ATOM      3  C   UNL A   1      34.198  28.906  26.187  1.00  0.00     0.116 C 
BRANCH   3   4
ATOM      4  N   UNL A   1      33.889  30.223  26.717  1.00  0.00    -0.352 N 
ATOM      5  O   UNL A   1      34.044  31.975  28.131  1.00  0.00    -0.269 OA
ATOM      6  C   UNL A   1      34.535  30.937  27.696  1.00  0.00     0.251 C 
ATOM      7  H   UNL A   1      33.106  30.666  26.317  1.00  0.00     0.163 HD
BRANCH   6   8
ATOM      8  C   UNL A   1      35.814  30.441  28.245  1.00  0.00     0.039 A 
ATOM      9  C   UNL A   1      37.023  30.716  27.600  1.00  0.00     0.014 A 
ATOM     10  C   UNL A   1      35.804  29.699  29.431  1.00  0.00     0.014 A 
ATOM     11  C   UNL A   1      38.201  30.143  28.066  1.00  0.00     0.010 A 
ATOM     12  C   UNL A   1      37.003  29.193  29.944  1.00  0.00     0.010 A 
ATOM     13  C   UNL A   1      38.207  29.391  29.252  1.00  0.00    -0.014 A 
BRANCH  13  14
ATOM     14  C   UNL A   1      39.497  28.887  29.787  1.00  0.00     0.031 A 
ATOM     15  C   UNL A   1      40.123  29.489  31.013  1.00  0.00     0.074 A 
ATOM     16  C   UNL A   1      40.095  27.859  29.156  1.00  0.00     0.049 A 
ATOM     17  N   UNL A   1      41.240  29.160  31.611  1.00  0.00    -0.248 NA
ATOM     18  C   UNL A   1      39.409  30.606  31.649  1.00  0.00     0.031 C 
ATOM     19  C   UNL A   1      39.588  27.204  27.947  1.00  0.00     0.029 A 
ATOM     20  N   UNL A   1      41.247  27.175  29.444  1.00  0.00    -0.354 N 
ATOM     21  C   UNL A   1      41.374  30.035  32.681  1.00  0.00     0.074 A 
ATOM     22  C   UNL A   1      40.235  30.929  32.636  1.00  0.00     0.031 C 
ATOM     23  C   UNL A   1      40.401  26.189  27.622  1.00  0.00     0.029 A 
ATOM     24  C   UNL A   1      41.518  26.161  28.559  1.00  0.00     0.049 A 
ATOM     25  H   UNL A   1      41.826  27.391  30.212  1.00  0.00     0.167 HD
ATOM     26  C   UNL A   1      42.353  30.084  33.616  1.00  0.00     0.037 A 
ATOM     27  C   UNL A   1      42.559  25.312  28.495  1.00  0.00     0.037 A 
ATOM     28  C   UNL A   1      43.479  29.185  33.659  1.00  0.00     0.049 A 
ATOM     29  C   UNL A   1      43.642  25.406  29.528  1.00  0.00     0.074 A 
ATOM     30  C   UNL A   1      44.505  29.132  34.588  1.00  0.00     0.029 A 
ATOM     31  N   UNL A   1      43.731  28.186  32.730  1.00  0.00    -0.354 N 
ATOM     32  N   UNL A   1      43.734  26.215  30.554  1.00  0.00    -0.248 NA
ATOM     33  C   UNL A   1      44.767  24.472  29.392  1.00  0.00     0.031 C 
ATOM     34  C   UNL A   1      45.400  28.131  34.196  1.00  0.00     0.029 A 
ATOM     35  C   UNL A   1      44.908  27.527  33.051  1.00  0.00     0.049 A 
ATOM     36  H   UNL A   1      43.159  27.976  31.957  1.00  0.00     0.167 HD
ATOM     37  C   UNL A   1      44.916  25.878  31.198  1.00  0.00     0.074 A 
ATOM     38  C   UNL A   1      45.496  24.778  30.457  1.00  0.00     0.031 C 
ATOM     39  C   UNL A   1      45.472  26.432  32.303  1.00  0.00     0.037 A 
BRANCH  26  40
ATOM     40  C   UNL A   1      42.265  31.154  34.665  1.00  0.00     0.057 A 
ATOM     41  C   UNL A   1      41.683  30.918  35.918  1.00  0.00     0.134 A 
ATOM     42  C   UNL A   1      42.819  32.421  34.440  1.00  0.00     0.134 A 
ATOM     43  F   UNL A   1      41.125  29.730  36.195  1.00  0.00    -0.206 F 
ATOM     44  C   UNL A   1      41.639  31.908  36.902  1.00  0.00     0.040 A 
ATOM     45  C   UNL A   1      42.802  33.412  35.425  1.00  0.00     0.040 A 
ATOM     46  F   UNL A   1      43.398  32.713  33.267  1.00  0.00    -0.206 F 
ATOM     47  C   UNL A   1      42.208  33.157  36.659  1.00  0.00     0.006 A 
ENDBRANCH  26  40
BRANCH  27  48
ATOM     48  C   UNL A   1      42.622  24.305  27.407  1.00  0.00     0.057 A 
ATOM     49  C   UNL A   1      43.180  24.616  26.163  1.00  0.00     0.134 A 
ATOM     50  C   UNL A   1      42.137  23.004  27.592  1.00  0.00     0.134 A 
ATOM     51  F   UNL A   1      43.646  25.850  25.921  1.00  0.00    -0.206 F 
ATOM     52  C   UNL A   1      43.241  23.674  25.134  1.00  0.00     0.040 A 
ATOM     53  C   UNL A   1      42.217  22.045  26.582  1.00  0.00     0.040 A 
ATOM     54  F   UNL A   1      41.599  22.642  28.765  1.00  0.00    -0.206 F 
ATOM     55  C   UNL A   1      42.765  22.381  25.346  1.00  0.00     0.006 A 
ENDBRANCH  27  48
BRANCH  39  56
ATOM     56  C   UNL A   1      46.757  25.833  32.790  1.00  0.00     0.057 A 
ATOM     57  C   UNL A   1      46.779  24.814  33.750  1.00  0.00     0.134 A 
ATOM     58  C   UNL A   1      47.985  26.266  32.274  1.00  0.00     0.134 A 
ATOM     59  F   UNL A   1      45.638  24.367  34.295  1.00  0.00    -0.206 F 
ATOM     60  C   UNL A   1      47.981  24.263  34.198  1.00  0.00     0.040 A 
ATOM     61  C   UNL A   1      49.190  25.704  32.696  1.00  0.00     0.040 A 
ATOM     62  F   UNL A   1      48.031  27.234  31.347  1.00  0.00    -0.206 F 
ATOM     63  C   UNL A   1      49.191  24.704  33.666  1.00  0.00     0.006 A 
ENDBRANCH  39  56
ENDBRANCH  13  14
ENDBRANCH   6   8
ENDBRANCH   3   4
ENDBRANCH   2   3
ENDBRANCH   1   2
BRANCH   1  64
ATOM     64  C   UNL A   1      31.101  27.934  25.308  1.00  0.00     0.002 C 
BRANCH  64  65
ATOM     65  C   UNL A   1      31.053  29.147  24.375  1.00  0.00     0.021 C 
BRANCH  65  66
ATOM     66  C   UNL A   1      31.164  28.827  22.887  1.00  0.00     0.116 C 
BRANCH  66  67
ATOM     67  N   UNL A   1      32.512  29.021  22.381  1.00  0.00    -0.352 N 
ATOM     68  C   UNL A   1      33.530  28.108  22.264  1.00  0.00     0.251 C 
ATOM     69  H   UNL A   1      32.725  29.934  22.080  1.00  0.00     0.163 HD
ATOM     70  O   UNL A   1      34.665  28.474  21.976  1.00  0.00    -0.269 OA
BRANCH  68  71
ATOM     71  C   UNL A   1      33.255  26.676  22.501  1.00  0.00     0.040 A 
ATOM     72  C   UNL A   1      32.672  25.920  21.488  1.00  0.00     0.016 A 
ATOM     73  C   UNL A   1      33.590  26.079  23.718  1.00  0.00     0.020 A 
ATOM     74  C   UNL A   1      32.451  24.556  21.691  1.00  0.00     0.027 A 
ATOM     75  C   UNL A   1      33.432  24.696  23.897  1.00  0.00    -0.017 A 
ATOM     76  C   UNL A   1      32.800  23.936  22.900  1.00  0.00     0.038 A 
ATOM     77  C   UNL A   1      33.957  24.046  25.157  1.00  0.00     0.049 C 
ATOM     78  N   UNL A   1      32.594  22.569  23.047  1.00  0.00    -0.378 N 
ATOM     79  C   UNL A   1      35.438  24.274  25.351  1.00  0.00    -0.023 C 
ATOM     80  C   UNL A   1      33.911  22.508  25.132  1.00  0.00     0.031 C 
ATOM     81  C   UNL A   1      32.692  21.975  24.374  1.00  0.00     0.114 C 
ATOM     82  H   UNL A   1      32.383  22.010  22.265  1.00  0.00     0.161 HD
ATOM     83  C   UNL A   1      36.161  23.192  25.039  1.00  0.00    -0.030 C 
ATOM     84  C   UNL A   1      35.283  22.063  24.598  1.00  0.00     0.034 C 
BRANCH  81  85
ATOM     85  C   UNL A   1      32.669  20.454  24.326  1.00  0.00    -0.022 A 
ATOM     86  C   UNL A   1      32.417  19.811  23.105  1.00  0.00     0.026 A 
ATOM     87  C   UNL A   1      32.868  19.646  25.452  1.00  0.00     0.026 A 
ATOM     88  C   UNL A   1      32.382  18.426  23.063  1.00  0.00     0.111 A 
ATOM     89  C   UNL A   1      32.831  18.266  25.305  1.00  0.00     0.111 A 
ATOM     90  N   UNL A   1      32.591  17.639  24.136  1.00  0.00    -0.265 NA
ENDBRANCH  81  85
ENDBRANCH  68  71
ENDBRANCH  66  67
ENDBRANCH  65  66
ENDBRANCH  64  65
ENDBRANCH   1  64
TORSDOF 14
ENDMDL
MODEL 2
REMARK VINA RESULT:     -12.4      1.646      4.546
REMARK SMILES O=C(NCCCCCCNC(=O)c1ccc2c(c1)[C@@H]1C=CC[C@@H]1[C@H](c1ccncc1)N2)c1ccc(-c2c3nc(c(-c4c(F)cccc4F)c4ccc([nH]4)c(-c4c(F)cccc4F)c4nc(c(-c5c(F)cccc5F)c5ccc2[nH]5)C=C4)C=C3)cc1
REMARK SMILES IDX 6 1 5 2 4 3 3 4 1 5 2 6 32 8 33 9 85 10 34 11 84 12 35 13
REMARK SMILES IDX 36 14 37 15 78 16 38 17 83 18 77 19 79 20 39 21 82 22 76 23
REMARK SMILES IDX 75 24 40 26 66 27 49 28 65 29 50 30 53 31 64 32 80 33 51 34
REMARK SMILES IDX 52 35 63 37 81 38 54 39 41 40 42 41 47 42 43 43 44 44 46 45
REMARK SMILES IDX 48 46 45 47 67 48 68 49 73 50 69 51 70 52 72 53 74 54 71 55
REMARK SMILES IDX 55 56 56 57 61 58 57 59 58 60 60 61 62 62 59 63 7 64 8 65
REMARK SMILES IDX 9 66 10 67 11 68 12 70 13 71 14 72 18 73 15 74 17 75 16 76
REMARK SMILES IDX 19 77 31 78 20 79 23 80 24 81 21 83 22 84 25 85 26 86 30 87
REMARK SMILES IDX 27 88 29 89 28 90
REMARK H PARENT 3 7 79 25 53 36 10 69 31 82
REMARK Flexibility Score: inf
ROOT
ATOM      1  C   UNL A   1      33.369  26.495  26.308  1.00  0.00     0.002 C 
ENDROOT
BRANCH   1   2
ATOM      2  C   UNL A   1      33.045  27.976  26.114  1.00  0.00     0.021 C 
BRANCH   2   3
ATOM      3  C   UNL A   1      34.249  28.910  26.157  1.00  0.00     0.116 C 
BRANCH   3   4
ATOM      4  N   UNL A   1      33.930  30.210  26.721  1.00  0.00    -0.352 N 
ATOM      5  O   UNL A   1      34.068  31.925  28.182  1.00  0.00    -0.269 OA
ATOM      6  C   UNL A   1      34.567  30.902  27.721  1.00  0.00     0.251 C 
ATOM      7  H   UNL A   1      33.145  30.659  26.329  1.00  0.00     0.163 HD
BRANCH   6   8
ATOM      8  C   UNL A   1      35.847  30.399  28.262  1.00  0.00     0.039 A 
ATOM      9  C   UNL A   1      37.054  30.676  27.615  1.00  0.00     0.014 A 
ATOM     10  C   UNL A   1      35.840  29.649  29.443  1.00  0.00     0.014 A 
ATOM     11  C   UNL A   1      38.233  30.097  28.073  1.00  0.00     0.010 A 
ATOM     12  C   UNL A   1      37.038  29.136  29.948  1.00  0.00     0.010 A 
ATOM     13  C   UNL A   1      38.241  29.337  29.254  1.00  0.00    -0.014 A 
BRANCH  13  14
ATOM     14  C   UNL A   1      39.531  28.826  29.781  1.00  0.00     0.031 A 
ATOM     15  C   UNL A   1      40.173  29.431  30.997  1.00  0.00     0.074 A 
ATOM     16  C   UNL A   1      40.116  27.789  29.151  1.00  0.00     0.049 A 
ATOM     17  N   UNL A   1      41.293  29.097  31.588  1.00  0.00    -0.248 NA
ATOM     18  C   UNL A   1      39.474  30.558  31.631  1.00  0.00     0.031 C 
ATOM     19  C   UNL A   1      39.593  27.130  27.952  1.00  0.00     0.029 A 
ATOM     20  N   UNL A   1      41.265  27.098  29.433  1.00  0.00    -0.354 N 
ATOM     21  C   UNL A   1      41.443  29.979  32.650  1.00  0.00     0.074 A 
ATOM     22  C   UNL A   1      40.310  30.881  32.609  1.00  0.00     0.031 C 
ATOM     23  C   UNL A   1      40.395  26.107  27.625  1.00  0.00     0.029 A 
ATOM     24  C   UNL A   1      41.520  26.076  28.553  1.00  0.00     0.049 A 
ATOM     25  H   UNL A   1      41.852  27.315  30.195  1.00  0.00     0.167 HD
ATOM     26  C   UNL A   1      42.431  30.025  33.576  1.00  0.00     0.037 A 
ATOM     27  C   UNL A   1      42.554  25.218  28.485  1.00  0.00     0.037 A 
ATOM     28  C   UNL A   1      43.550  29.118  33.615  1.00  0.00     0.049 A 
ATOM     29  C   UNL A   1      43.646  25.310  29.508  1.00  0.00     0.074 A 
ATOM     30  C   UNL A   1      44.584  29.063  34.536  1.00  0.00     0.029 A 
ATOM     31  N   UNL A   1      43.786  28.111  32.691  1.00  0.00    -0.354 N 
ATOM     32  N   UNL A   1      43.754  26.126  30.529  1.00  0.00    -0.248 NA
ATOM     33  C   UNL A   1      44.763  24.366  29.369  1.00  0.00     0.031 C 
ATOM     34  C   UNL A   1      45.467  28.052  34.143  1.00  0.00     0.029 A 
ATOM     35  C   UNL A   1      44.960  27.445  33.006  1.00  0.00     0.049 A 
ATOM     36  H   UNL A   1      43.205  27.900  31.924  1.00  0.00     0.167 HD
ATOM     37  C   UNL A   1      44.939  25.783  31.164  1.00  0.00     0.074 A 
ATOM     38  C   UNL A   1      45.504  24.673  30.425  1.00  0.00     0.031 C 
ATOM     39  C   UNL A   1      45.509  26.340  32.261  1.00  0.00     0.037 A 
BRANCH  26  40
ATOM     40  C   UNL A   1      42.360  31.103  34.619  1.00  0.00     0.057 A 
ATOM     41  C   UNL A   1      42.889  32.382  34.401  1.00  0.00     0.134 A 
ATOM     42  C   UNL A   1      41.704  30.875  35.836  1.00  0.00     0.134 A 
ATOM     43  F   UNL A   1      43.539  32.664  33.262  1.00  0.00    -0.206 F 
ATOM     44  C   UNL A   1      42.784  33.389  35.363  1.00  0.00     0.040 A 
ATOM     45  C   UNL A   1      41.573  31.882  36.796  1.00  0.00     0.040 A 
ATOM     46  F   UNL A   1      41.168  29.677  36.107  1.00  0.00    -0.206 F 
ATOM     47  C   UNL A   1      42.117  33.143  36.561  1.00  0.00     0.006 A 
ENDBRANCH  26  40
BRANCH  27  48
ATOM     48  C   UNL A   1      42.599  24.204  27.404  1.00  0.00     0.057 A 
ATOM     49  C   UNL A   1      43.143  24.503  26.151  1.00  0.00     0.134 A 
ATOM     50  C   UNL A   1      42.111  22.906  27.604  1.00  0.00     0.134 A 
ATOM     51  F   UNL A   1      43.611  25.734  25.895  1.00  0.00    -0.206 F 
ATOM     52  C   UNL A   1      43.188  23.555  25.128  1.00  0.00     0.040 A 
ATOM     53  C   UNL A   1      42.175  21.939  26.600  1.00  0.00     0.040 A 
ATOM     54  F   UNL A   1      41.587  22.554  28.786  1.00  0.00    -0.206 F 
ATOM     55  C   UNL A   1      42.708  22.265  25.355  1.00  0.00     0.006 A 
ENDBRANCH  27  48
BRANCH  39  56
ATOM     56  C   UNL A   1      46.793  25.734  32.741  1.00  0.00     0.057 A 
ATOM     57  C   UNL A   1      48.032  26.110  32.206  1.00  0.00     0.134 A 
ATOM     58  C   UNL A   1      46.792  24.781  33.767  1.00  0.00     0.134 A 
ATOM     59  F   UNL A   1      48.099  27.006  31.210  1.00  0.00    -0.206 F 
ATOM     60  C   UNL A   1      49.223  25.540  32.659  1.00  0.00     0.040 A 
ATOM     61  C   UNL A   1      47.978  24.224  34.245  1.00  0.00     0.040 A 
ATOM     62  F   UNL A   1      45.638  24.383  34.326  1.00  0.00    -0.206 F 
ATOM     63  C   UNL A   1      49.198  24.599  33.686  1.00  0.00     0.006 A 
ENDBRANCH  39  56
ENDBRANCH  13  14
ENDBRANCH   6   8
ENDBRANCH   3   4
ENDBRANCH   2   3
ENDBRANCH   1   2
BRANCH   1  64
ATOM     64  C   UNL A   1      34.411  25.916  25.346  1.00  0.00     0.002 C 
BRANCH  64  65
ATOM     65  C   UNL A   1      34.621  24.401  25.430  1.00  0.00     0.021 C 
BRANCH  65  66
ATOM     66  C   UNL A   1      33.870  23.703  26.560  1.00  0.00     0.116 C 
BRANCH  66  67
ATOM     67  N   UNL A   1      33.075  22.584  26.083  1.00  0.00    -0.352 N 
ATOM     68  C   UNL A   1      31.830  22.594  25.504  1.00  0.00     0.251 C 
ATOM     69  H   UNL A   1      33.485  21.696  26.189  1.00  0.00     0.163 HD
ATOM     70  O   UNL A   1      31.223  21.546  25.315  1.00  0.00    -0.269 OA
BRANCH  68  71
ATOM     71  C   UNL A   1      31.214  23.882  25.122  1.00  0.00     0.040 A 
ATOM     72  C   UNL A   1      30.402  24.545  26.038  1.00  0.00     0.016 A 
ATOM     73  C   UNL A   1      31.454  24.439  23.864  1.00  0.00     0.020 A 
ATOM     74  C   UNL A   1      29.853  25.783  25.697  1.00  0.00     0.027 A 
ATOM     75  C   UNL A   1      30.960  25.715  23.548  1.00  0.00    -0.017 A 
ATOM     76  C   UNL A   1      30.101  26.368  24.447  1.00  0.00     0.038 A 
ATOM     77  C   UNL A   1      31.373  26.370  22.249  1.00  0.00     0.049 C 
ATOM     78  N   UNL A   1      29.564  27.618  24.162  1.00  0.00    -0.378 N 
ATOM     79  C   UNL A   1      32.872  26.515  22.127  1.00  0.00    -0.023 C 
ATOM     80  C   UNL A   1      30.936  27.839  22.125  1.00  0.00     0.031 C 
ATOM     81  C   UNL A   1      29.582  28.102  22.788  1.00  0.00     0.114 C 
ATOM     82  H   UNL A   1      29.174  28.167  24.880  1.00  0.00     0.161 HD
ATOM     83  C   UNL A   1      33.278  27.770  22.356  1.00  0.00    -0.030 C 
ATOM     84  C   UNL A   1      32.119  28.667  22.658  1.00  0.00     0.034 C 
BRANCH  81  85
ATOM     85  C   UNL A   1      29.170  29.565  22.689  1.00  0.00    -0.022 A 
ATOM     86  C   UNL A   1      28.650  30.048  21.478  1.00  0.00     0.026 A 
ATOM     87  C   UNL A   1      29.299  30.474  23.746  1.00  0.00     0.026 A 
ATOM     88  C   UNL A   1      28.287  31.382  21.383  1.00  0.00     0.111 A 
ATOM     89  C   UNL A   1      28.892  31.787  23.557  1.00  0.00     0.111 A 
ATOM     90  N   UNL A   1      28.389  32.261  22.399  1.00  0.00    -0.265 NA
ENDBRANCH  81  85
ENDBRANCH  68  71
ENDBRANCH  66  67
ENDBRANCH  65  66
ENDBRANCH  64  65
ENDBRANCH   1  64
TORSDOF 14
ENDMDL
MODEL 3
REMARK VINA RESULT:     -12.4      3.208      8.367
REMARK SMILES O=C(NCCCCCCNC(=O)c1ccc2c(c1)[C@@H]1C=CC[C@@H]1[C@H](c1ccncc1)N2)c1ccc(-c2c3nc(c(-c4c(F)cccc4F)c4ccc([nH]4)c(-c4c(F)cccc4F)c4nc(c(-c5c(F)cccc5F)c5ccc2[nH]5)C=C4)C=C3)cc1
REMARK SMILES IDX 6 1 5 2 4 3 3 4 1 5 2 6 32 8 33 9 85 10 34 11 84 12 35 13
REMARK SMILES IDX 36 14 37 15 78 16 38 17 83 18 77 19 79 20 39 21 82 22 76 23
REMARK SMILES IDX 75 24 40 26 66 27 49 28 65 29 50 30 53 31 64 32 80 33 51 34
REMARK SMILES IDX 52 35 63 37 81 38 54 39 41 40 42 41 47 42 43 43 44 44 46 45
REMARK SMILES IDX 48 46 45 47 67 48 68 49 73 50 69 51 70 52 72 53 74 54 71 55
REMARK SMILES IDX 55 56 56 57 61 58 57 59 58 60 60 61 62 62 59 63 7 64 8 65
REMARK SMILES IDX 9 66 10 67 11 68 12 70 13 71 14 72 18 73 15 74 17 75 16 76
REMARK SMILES IDX 19 77 31 78 20 79 23 80 24 81 21 83 22 84 25 85 26 86 30 87
REMARK SMILES IDX 27 88 29 89 28 90
REMARK H PARENT 3 7 79 25 53 36 10 69 31 82
REMARK Flexibility Score: inf
ROOT
ATOM      1  C   UNL A   1      36.728  20.347  24.948  1.00  0.00     0.002 C 
ENDROOT
BRANCH   1   2
ATOM      2  C   UNL A   1      38.039  19.566  24.857  1.00  0.00     0.021 C 
BRANCH   2   3
ATOM      3  C   UNL A   1      39.100  19.970  25.872  1.00  0.00     0.116 C 
BRANCH   3   4
ATOM      4  N   UNL A   1      40.292  19.142  25.797  1.00  0.00    -0.352 N 
ATOM      5  O   UNL A   1      42.504  18.693  25.764  1.00  0.00    -0.269 OA
ATOM      6  C   UNL A   1      41.602  19.484  26.026  1.00  0.00     0.251 C 
ATOM      7  H   UNL A   1      40.138  18.202  25.545  1.00  0.00     0.163 HD
BRANCH   6   8
ATOM      8  C   UNL A   1      41.929  20.819  26.568  1.00  0.00     0.039 A 
ATOM      9  C   UNL A   1      41.903  21.058  27.944  1.00  0.00     0.014 A 
ATOM     10  C   UNL A   1      42.280  21.845  25.684  1.00  0.00     0.014 A 
ATOM     11  C   UNL A   1      42.098  22.347  28.426  1.00  0.00     0.010 A 
ATOM     12  C   UNL A   1      42.557  23.123  26.179  1.00  0.00     0.010 A 
ATOM     13  C   UNL A   1      42.446  23.390  27.552  1.00  0.00    -0.014 A 
BRANCH  13  14
ATOM     14  C   UNL A   1      42.760  24.730  28.107  1.00  0.00     0.031 A 
ATOM     15  C   UNL A   1      44.164  25.112  28.479  1.00  0.00     0.074 A 
ATOM     16  C   UNL A   1      41.755  25.614  28.258  1.00  0.00     0.049 A 
ATOM     17  N   UNL A   1      44.606  26.244  28.969  1.00  0.00    -0.248 NA
ATOM     18  C   UNL A   1      45.208  24.096  28.283  1.00  0.00     0.031 C 
ATOM     19  C   UNL A   1      40.348  25.349  27.944  1.00  0.00     0.029 A 
ATOM     20  N   UNL A   1      41.757  26.911  28.698  1.00  0.00    -0.354 N 
ATOM     21  C   UNL A   1      45.971  26.073  29.155  1.00  0.00     0.074 A 
ATOM     22  C   UNL A   1      46.284  24.718  28.748  1.00  0.00     0.031 C 
ATOM     23  C   UNL A   1      39.631  26.460  28.163  1.00  0.00     0.029 A 
ATOM     24  C   UNL A   1      40.513  27.494  28.690  1.00  0.00     0.049 A 
ATOM     25  H   UNL A   1      42.572  27.380  28.992  1.00  0.00     0.167 HD
ATOM     26  C   UNL A   1      46.879  26.966  29.616  1.00  0.00     0.037 A 
ATOM     27  C   UNL A   1      40.121  28.720  29.081  1.00  0.00     0.037 A 
ATOM     28  C   UNL A   1      46.562  28.316  30.009  1.00  0.00     0.049 A 
ATOM     29  C   UNL A   1      41.144  29.679  29.612  1.00  0.00     0.074 A 
ATOM     30  C   UNL A   1      47.420  29.308  30.456  1.00  0.00     0.029 A 
ATOM     31  N   UNL A   1      45.287  28.862  30.009  1.00  0.00    -0.354 N 
ATOM     32  N   UNL A   1      42.437  29.515  29.746  1.00  0.00    -0.248 NA
ATOM     33  C   UNL A   1      40.654  30.993  30.048  1.00  0.00     0.031 C 
ATOM     34  C   UNL A   1      46.657  30.439  30.768  1.00  0.00     0.029 A 
ATOM     35  C   UNL A   1      45.332  30.169  30.471  1.00  0.00     0.049 A 
ATOM     36  H   UNL A   1      44.471  28.391  29.725  1.00  0.00     0.167 HD
ATOM     37  C   UNL A   1      42.919  30.708  30.266  1.00  0.00     0.074 A 
ATOM     38  C   UNL A   1      41.781  31.593  30.403  1.00  0.00     0.031 C 
ATOM     39  C   UNL A   1      44.190  31.039  30.600  1.00  0.00     0.037 A 
BRANCH  26  40
ATOM     40  C   UNL A   1      48.306  26.513  29.737  1.00  0.00     0.057 A 
ATOM     41  C   UNL A   1      49.249  26.757  28.730  1.00  0.00     0.134 A 
ATOM     42  C   UNL A   1      48.754  25.874  30.900  1.00  0.00     0.134 A 
ATOM     43  F   UNL A   1      48.884  27.356  27.587  1.00  0.00    -0.206 F 
ATOM     44  C   UNL A   1      50.583  26.366  28.869  1.00  0.00     0.040 A 
ATOM     45  C   UNL A   1      50.090  25.498  31.060  1.00  0.00     0.040 A 
ATOM     46  F   UNL A   1      47.906  25.616  31.906  1.00  0.00    -0.206 F 
ATOM     47  C   UNL A   1      51.008  25.742  30.040  1.00  0.00     0.006 A 
ENDBRANCH  26  40
BRANCH  27  48
ATOM     48  C   UNL A   1      38.690  29.100  28.986  1.00  0.00     0.057 A 
ATOM     49  C   UNL A   1      37.845  29.028  30.098  1.00  0.00     0.134 A 
ATOM     50  C   UNL A   1      38.137  29.555  27.782  1.00  0.00     0.134 A 
ATOM     51  F   UNL A   1      38.314  28.584  31.274  1.00  0.00    -0.206 F 
ATOM     52  C   UNL A   1      36.498  29.382  30.016  1.00  0.00     0.040 A 
ATOM     53  C   UNL A   1      36.799  29.939  27.692  1.00  0.00     0.040 A 
ATOM     54  F   UNL A   1      38.897  29.656  26.682  1.00  0.00    -0.206 F 
ATOM     55  C   UNL A   1      35.974  29.846  28.810  1.00  0.00     0.006 A 
ENDBRANCH  27  48
BRANCH  39  56
ATOM     56  C   UNL A   1      44.416  32.427  31.119  1.00  0.00     0.057 A 
ATOM     57  C   UNL A   1      44.673  33.503  30.260  1.00  0.00     0.134 A 
ATOM     58  C   UNL A   1      44.352  32.693  32.493  1.00  0.00     0.134 A 
ATOM     59  F   UNL A   1      44.763  33.310  28.936  1.00  0.00    -0.206 F 
ATOM     60  C   UNL A   1      44.883  34.792  30.753  1.00  0.00     0.040 A 
ATOM     61  C   UNL A   1      44.535  33.982  32.993  1.00  0.00     0.040 A 
ATOM     62  F   UNL A   1      44.103  31.707  33.367  1.00  0.00    -0.206 F 
ATOM     63  C   UNL A   1      44.808  35.036  32.122  1.00  0.00     0.006 A 
ENDBRANCH  39  56
ENDBRANCH  13  14
ENDBRANCH   6   8
ENDBRANCH   3   4
ENDBRANCH   2   3
ENDBRANCH   1   2
BRANCH   1  64
ATOM     64  C   UNL A   1      36.729  21.721  24.271  1.00  0.00     0.002 C 
BRANCH  64  65
ATOM     65  C   UNL A   1      37.304  22.870  25.105  1.00  0.00     0.021 C 
BRANCH  65  66
ATOM     66  C   UNL A   1      36.271  23.716  25.843  1.00  0.00     0.116 C 
BRANCH  66  67
ATOM     67  N   UNL A   1      35.489  22.933  26.784  1.00  0.00    -0.352 N 
ATOM     68  C   UNL A   1      34.153  23.030  27.087  1.00  0.00     0.251 C 
ATOM     69  H   UNL A   1      35.984  22.237  27.273  1.00  0.00     0.163 HD
ATOM     70  O   UNL A   1      33.683  22.407  28.033  1.00  0.00    -0.269 OA
BRANCH  68  71
ATOM     71  C   UNL A   1      33.283  23.904  26.274  1.00  0.00     0.040 A 
ATOM     72  C   UNL A   1      32.005  23.465  25.936  1.00  0.00     0.016 A 
ATOM     73  C   UNL A   1      33.725  25.162  25.860  1.00  0.00     0.020 A 
ATOM     74  C   UNL A   1      31.163  24.305  25.205  1.00  0.00     0.027 A 
ATOM     75  C   UNL A   1      32.855  26.033  25.186  1.00  0.00    -0.017 A 
ATOM     76  C   UNL A   1      31.583  25.580  24.799  1.00  0.00     0.038 A 
ATOM     77  C   UNL A   1      33.298  27.450  24.898  1.00  0.00     0.049 C 
ATOM     78  N   UNL A   1      30.700  26.397  24.103  1.00  0.00    -0.378 N 
ATOM     79  C   UNL A   1      33.673  28.203  26.153  1.00  0.00    -0.023 C 
ATOM     80  C   UNL A   1      32.180  28.354  24.350  1.00  0.00     0.031 C 
ATOM     81  C   UNL A   1      31.208  27.593  23.445  1.00  0.00     0.114 C 
ATOM     82  H   UNL A   1      29.744  26.169  24.055  1.00  0.00     0.161 HD
ATOM     83  C   UNL A   1      32.720  29.065  26.528  1.00  0.00    -0.030 C 
ATOM     84  C   UNL A   1      31.561  29.037  25.582  1.00  0.00     0.034 C 
BRANCH  81  85
ATOM     85  C   UNL A   1      30.088  28.487  22.930  1.00  0.00    -0.022 A 
ATOM     86  C   UNL A   1      28.758  28.167  23.246  1.00  0.00     0.026 A 
ATOM     87  C   UNL A   1      30.309  29.616  22.133  1.00  0.00     0.026 A 
ATOM     88  C   UNL A   1      27.737  28.972  22.766  1.00  0.00     0.111 A 
ATOM     89  C   UNL A   1      29.221  30.369  21.716  1.00  0.00     0.111 A 
ATOM     90  N   UNL A   1      27.939  30.072  22.015  1.00  0.00    -0.265 NA
ENDBRANCH  81  85
ENDBRANCH  68  71
ENDBRANCH  66  67
ENDBRANCH  65  66
ENDBRANCH  64  65
ENDBRANCH   1  64
TORSDOF 14
ENDMDL
