MODEL 1
REMARK VINA RESULT:     -11.2      0.000      0.000
REMARK SMILES C[C@@H](c1ccco1)n1c(SCC(=O)NCCCCCCNC(=O)c2ccc(-c3c4nc(c(-c5c(F)cccc5F)c5ccc([nH]5)c(-c5c(F)cccc5F)c5nc(c(-c6c(F)cccc6F)c6ccc3[nH]6)C=C5)C=C4)cc2)nc2cnccc21
REMARK SMILES IDX 16 1 15 2 14 3 12 4 13 5 11 7 10 8 9 9 8 10 84 11 78 12
REMARK SMILES IDX 79 13 83 14 80 15 82 16 81 17 2 18 1 19 3 20 4 21 7 22 5 23
REMARK SMILES IDX 6 24 17 25 18 26 19 27 20 28 21 29 22 30 23 32 24 33 25 34
REMARK SMILES IDX 77 35 26 36 76 37 27 38 28 39 29 40 70 41 30 42 75 43 69 44
REMARK SMILES IDX 71 45 31 46 74 47 68 48 67 49 32 51 58 52 41 53 57 54 42 55
REMARK SMILES IDX 45 56 56 57 72 58 43 59 44 60 55 62 73 63 46 64 33 65 34 66
REMARK SMILES IDX 39 67 35 68 36 69 38 70 40 71 37 72 59 73 60 74 65 75 61 76
REMARK SMILES IDX 62 77 64 78 66 79 63 80 47 81 48 82 53 83 49 84 50 85 52 86
REMARK SMILES IDX 54 87 51 88
REMARK H PARENT 14 6 21 31 71 50 45 61
REMARK Flexibility Score: inf
ROOT
ATOM      1  C   UNL A   1      40.002  20.550  25.782  1.00  0.00     0.021 C 
ENDROOT
BRANCH   1   2
ATOM      2  C   UNL A   1      38.665  21.293  25.732  1.00  0.00     0.116 C 
BRANCH   2   3
ATOM      3  N   UNL A   1      38.748  22.657  26.214  1.00  0.00    -0.355 N 
ATOM      4  C   UNL A   1      37.868  23.688  26.061  1.00  0.00     0.230 C 
ATOM      5  O   UNL A   1      38.064  24.724  26.702  1.00  0.00    -0.274 OA
ATOM      6  H   UNL A   1      39.560  22.872  26.729  1.00  0.00     0.163 HD
BRANCH   4   7
ATOM      7  C   UNL A   1      36.615  23.533  25.239  1.00  0.00     0.178 C 
BRANCH   7   8
ATOM      8  S   UNL A   1      35.237  22.726  26.002  1.00  0.00    -0.078 SA
BRANCH   8   9
ATOM      9  C   UNL A   1      34.436  21.404  25.238  1.00  0.00     0.170 A 
ATOM     10  N   UNL A   1      33.199  21.176  24.662  1.00  0.00    -0.308 N 
ATOM     11  C   UNL A   1      33.189  19.833  24.250  1.00  0.00     0.073 A 
ATOM     12  N   UNL A   1      35.174  20.308  25.192  1.00  0.00    -0.221 NA
ATOM     13  C   UNL A   1      34.433  19.336  24.600  1.00  0.00     0.108 A 
ATOM     14  C   UNL A   1      32.241  19.018  23.618  1.00  0.00     0.049 A 
ATOM     15  C   UNL A   1      34.746  18.000  24.330  1.00  0.00     0.141 A 
ATOM     16  C   UNL A   1      32.633  17.703  23.400  1.00  0.00     0.113 A 
ATOM     17  N   UNL A   1      33.835  17.188  23.735  1.00  0.00    -0.262 NA
BRANCH  10  18
ATOM     18  C   UNL A   1      32.017  22.001  24.442  1.00  0.00     0.153 C 
ATOM     19  C   UNL A   1      31.145  22.330  25.644  1.00  0.00     0.040 C 
BRANCH  18  20
ATOM     20  C   UNL A   1      32.254  23.096  23.447  1.00  0.00     0.126 A 
ATOM     21  C   UNL A   1      33.301  23.332  22.571  1.00  0.00     0.048 A 
ATOM     22  O   UNL A   1      31.352  24.111  23.354  1.00  0.00    -0.467 OA
ATOM     23  C   UNL A   1      32.995  24.524  21.879  1.00  0.00     0.042 A 
ATOM     24  C   UNL A   1      31.784  24.942  22.369  1.00  0.00     0.195 A 
ENDBRANCH  18  20
ENDBRANCH  10  18
ENDBRANCH   8   9
ENDBRANCH   7   8
ENDBRANCH   4   7
ENDBRANCH   2   3
ENDBRANCH   1   2
BRANCH   1  25
ATOM     25  C   UNL A   1      40.939  20.931  26.931  1.00  0.00     0.002 C 
BRANCH  25  26
ATOM     26  C   UNL A   1      42.195  20.074  27.092  1.00  0.00     0.002 C 
BRANCH  26  27
ATOM     27  C   UNL A   1      42.279  18.858  26.164  1.00  0.00     0.021 C 
BRANCH  27  28
ATOM     28  C   UNL A   1      43.679  18.259  26.028  1.00  0.00     0.116 C 
BRANCH  28  29
ATOM     29  N   UNL A   1      44.314  18.571  24.764  1.00  0.00    -0.352 N 
ATOM     30  C   UNL A   1      44.907  19.680  24.234  1.00  0.00     0.251 C 
ATOM     31  H   UNL A   1      44.318  17.805  24.145  1.00  0.00     0.163 HD
ATOM     32  O   UNL A   1      45.472  19.523  23.146  1.00  0.00    -0.269 OA
BRANCH  30  33
ATOM     33  C   UNL A   1      44.868  21.048  24.821  1.00  0.00     0.039 A 
ATOM     34  C   UNL A   1      45.664  21.507  25.868  1.00  0.00     0.014 A 
ATOM     35  C   UNL A   1      43.871  21.906  24.314  1.00  0.00     0.014 A 
ATOM     36  C   UNL A   1      45.399  22.736  26.463  1.00  0.00     0.010 A 
ATOM     37  C   UNL A   1      43.611  23.143  24.893  1.00  0.00     0.010 A 
ATOM     38  C   UNL A   1      44.341  23.533  26.006  1.00  0.00    -0.014 A 
BRANCH  38  39
ATOM     39  C   UNL A   1      44.106  24.797  26.698  1.00  0.00     0.031 A 
ATOM     40  C   UNL A   1      45.188  25.806  26.535  1.00  0.00     0.074 A 
ATOM     41  C   UNL A   1      43.001  25.087  27.414  1.00  0.00     0.049 A 
ATOM     42  N   UNL A   1      46.010  26.236  27.435  1.00  0.00    -0.248 NA
ATOM     43  C   UNL A   1      45.464  26.304  25.180  1.00  0.00     0.031 C 
ATOM     44  C   UNL A   1      41.735  24.358  27.496  1.00  0.00     0.029 A 
ATOM     45  N   UNL A   1      42.776  26.175  28.206  1.00  0.00    -0.354 N 
ATOM     46  C   UNL A   1      46.806  27.192  26.807  1.00  0.00     0.074 A 
ATOM     47  C   UNL A   1      46.512  27.100  25.399  1.00  0.00     0.031 C 
ATOM     48  C   UNL A   1      40.813  25.127  28.123  1.00  0.00     0.029 A 
ATOM     49  C   UNL A   1      41.460  26.330  28.617  1.00  0.00     0.049 A 
ATOM     50  H   UNL A   1      43.491  26.802  28.464  1.00  0.00     0.167 HD
ATOM     51  C   UNL A   1      47.502  28.118  27.522  1.00  0.00     0.037 A 
ATOM     52  C   UNL A   1      40.940  27.388  29.290  1.00  0.00     0.037 A 
ATOM     53  C   UNL A   1      47.682  27.701  28.890  1.00  0.00     0.049 A 
ATOM     54  C   UNL A   1      42.059  28.097  29.955  1.00  0.00     0.074 A 
ATOM     55  C   UNL A   1      48.291  26.625  29.508  1.00  0.00     0.029 A 
ATOM     56  N   UNL A   1      46.886  28.269  29.853  1.00  0.00    -0.354 N 
ATOM     57  N   UNL A   1      42.725  27.612  30.965  1.00  0.00    -0.248 NA
ATOM     58  C   UNL A   1      42.729  29.154  29.214  1.00  0.00     0.031 C 
ATOM     59  C   UNL A   1      47.444  26.308  30.613  1.00  0.00     0.029 A 
ATOM     60  C   UNL A   1      46.410  27.242  30.629  1.00  0.00     0.049 A 
ATOM     61  H   UNL A   1      46.694  29.228  29.966  1.00  0.00     0.167 HD
ATOM     62  C   UNL A   1      44.042  27.973  30.722  1.00  0.00     0.074 A 
ATOM     63  C   UNL A   1      43.971  28.995  29.679  1.00  0.00     0.031 C 
ATOM     64  C   UNL A   1      45.080  27.217  31.186  1.00  0.00     0.037 A 
BRANCH  51  65
ATOM     65  C   UNL A   1      47.697  29.551  27.086  1.00  0.00     0.057 A 
ATOM     66  C   UNL A   1      46.642  30.464  26.886  1.00  0.00     0.134 A 
ATOM     67  C   UNL A   1      48.977  30.131  27.177  1.00  0.00     0.134 A 
ATOM     68  F   UNL A   1      45.360  30.081  26.835  1.00  0.00    -0.206 F 
ATOM     69  C   UNL A   1      46.835  31.846  26.831  1.00  0.00     0.040 A 
ATOM     70  C   UNL A   1      49.176  31.517  27.170  1.00  0.00     0.040 A 
ATOM     71  F   UNL A   1      50.066  29.371  27.366  1.00  0.00    -0.206 F 
ATOM     72  C   UNL A   1      48.100  32.381  27.012  1.00  0.00     0.006 A 
ENDBRANCH  51  65
BRANCH  52  73
ATOM     73  C   UNL A   1      39.593  27.991  29.175  1.00  0.00     0.057 A 
ATOM     74  C   UNL A   1      39.242  28.769  28.059  1.00  0.00     0.134 A 
ATOM     75  C   UNL A   1      38.726  28.065  30.275  1.00  0.00     0.134 A 
ATOM     76  F   UNL A   1      40.039  28.832  26.982  1.00  0.00    -0.206 F 
ATOM     77  C   UNL A   1      38.108  29.587  28.042  1.00  0.00     0.040 A 
ATOM     78  C   UNL A   1      37.589  28.885  30.273  1.00  0.00     0.040 A 
ATOM     79  F   UNL A   1      38.999  27.396  31.404  1.00  0.00    -0.206 F 
ATOM     80  C   UNL A   1      37.284  29.659  29.158  1.00  0.00     0.006 A 
ENDBRANCH  52  73
BRANCH  64  81
ATOM     81  C   UNL A   1      44.761  26.116  32.160  1.00  0.00     0.057 A 
ATOM     82  C   UNL A   1      44.860  26.376  33.531  1.00  0.00     0.134 A 
ATOM     83  C   UNL A   1      44.481  24.792  31.787  1.00  0.00     0.134 A 
ATOM     84  F   UNL A   1      45.185  27.604  33.965  1.00  0.00    -0.206 F 
ATOM     85  C   UNL A   1      44.668  25.376  34.488  1.00  0.00     0.040 A 
ATOM     86  C   UNL A   1      44.252  23.790  32.734  1.00  0.00     0.040 A 
ATOM     87  F   UNL A   1      44.472  24.421  30.500  1.00  0.00    -0.206 F 
ATOM     88  C   UNL A   1      44.348  24.081  34.090  1.00  0.00     0.006 A 
ENDBRANCH  64  81
ENDBRANCH  38  39
ENDBRANCH  30  33
ENDBRANCH  28  29
ENDBRANCH  27  28
ENDBRANCH  26  27
ENDBRANCH  25  26
ENDBRANCH   1  25
TORSDOF 17
ENDMDL
MODEL 2
REMARK VINA RESULT:     -11.0      1.678      2.985
REMARK SMILES C[C@@H](c1ccco1)n1c(SCC(=O)NCCCCCCNC(=O)c2ccc(-c3c4nc(c(-c5c(F)cccc5F)c5ccc([nH]5)c(-c5c(F)cccc5F)c5nc(c(-c6c(F)cccc6F)c6ccc3[nH]6)C=C5)C=C4)cc2)nc2cnccc21
REMARK SMILES IDX 16 1 15 2 14 3 12 4 13 5 11 7 10 8 9 9 8 10 84 11 78 12
REMARK SMILES IDX 79 13 83 14 80 15 82 16 81 17 2 18 1 19 3 20 4 21 7 22 5 23
REMARK SMILES IDX 6 24 17 25 18 26 19 27 20 28 21 29 22 30 23 32 24 33 25 34
REMARK SMILES IDX 77 35 26 36 76 37 27 38 28 39 29 40 70 41 30 42 75 43 69 44
REMARK SMILES IDX 71 45 31 46 74 47 68 48 67 49 32 51 58 52 41 53 57 54 42 55
REMARK SMILES IDX 45 56 56 57 72 58 43 59 44 60 55 62 73 63 46 64 33 65 34 66
REMARK SMILES IDX 39 67 35 68 36 69 38 70 40 71 37 72 59 73 60 74 65 75 61 76
REMARK SMILES IDX 62 77 64 78 66 79 63 80 47 81 48 82 53 83 49 84 50 85 52 86
REMARK SMILES IDX 54 87 51 88
REMARK H PARENT 14 6 21 31 71 50 45 61
REMARK Flexibility Score: inf
ROOT
ATOM      1  C   UNL A   1      40.020  21.783  26.111  1.00  0.00     0.021 C 
ENDROOT
BRANCH   1   2
ATOM      2  C   UNL A   1      38.653  22.471  26.126  1.00  0.00     0.116 C 
BRANCH   2   3
ATOM      3  N   UNL A   1      37.549  21.561  25.898  1.00  0.00    -0.355 N 
ATOM      4  C   UNL A   1      36.425  21.730  25.145  1.00  0.00     0.230 C 
ATOM      5  O   UNL A   1      35.695  20.753  24.957  1.00  0.00    -0.274 OA
ATOM      6  H   UNL A   1      37.622  20.691  26.354  1.00  0.00     0.163 HD
BRANCH   4   7
ATOM      7  C   UNL A   1      36.139  23.033  24.445  1.00  0.00     0.178 C 
BRANCH   7   8
ATOM      8  S   UNL A   1      35.300  24.286  25.370  1.00  0.00    -0.078 SA
BRANCH   8   9
ATOM      9  C   UNL A   1      33.943  25.127  24.717  1.00  0.00     0.170 A 
ATOM     10  N   UNL A   1      32.945  24.863  23.797  1.00  0.00    -0.308 N 
ATOM     11  C   UNL A   1      32.161  26.026  23.709  1.00  0.00     0.073 A 
ATOM     12  N   UNL A   1      33.813  26.351  25.199  1.00  0.00    -0.221 NA
ATOM     13  C   UNL A   1      32.738  26.921  24.595  1.00  0.00     0.108 A 
ATOM     14  C   UNL A   1      31.029  26.380  22.963  1.00  0.00     0.049 A 
ATOM     15  C   UNL A   1      32.191  28.199  24.742  1.00  0.00     0.141 A 
ATOM     16  C   UNL A   1      30.562  27.673  23.164  1.00  0.00     0.113 A 
ATOM     17  N   UNL A   1      31.105  28.569  24.015  1.00  0.00    -0.262 NA
BRANCH  10  18
ATOM     18  C   UNL A   1      32.607  23.708  22.974  1.00  0.00     0.153 C 
ATOM     19  C   UNL A   1      33.313  23.556  21.636  1.00  0.00     0.040 C 
BRANCH  18  20
ATOM     20  C   UNL A   1      32.397  22.464  23.783  1.00  0.00     0.126 A 
ATOM     21  C   UNL A   1      31.957  22.276  25.082  1.00  0.00     0.048 A 
ATOM     22  O   UNL A   1      32.717  21.258  23.237  1.00  0.00    -0.467 OA
ATOM     23  C   UNL A   1      31.965  20.884  25.321  1.00  0.00     0.042 A 
ATOM     24  C   UNL A   1      32.406  20.308  24.156  1.00  0.00     0.195 A 
ENDBRANCH  18  20
ENDBRANCH  10  18
ENDBRANCH   8   9
ENDBRANCH   7   8
ENDBRANCH   4   7
ENDBRANCH   2   3
ENDBRANCH   1   2
BRANCH   1  25
ATOM     25  C   UNL A   1      40.659  21.531  27.480  1.00  0.00     0.002 C 
BRANCH  25  26
ATOM     26  C   UNL A   1      41.761  20.474  27.527  1.00  0.00     0.002 C 
BRANCH  26  27
ATOM     27  C   UNL A   1      41.847  19.564  26.298  1.00  0.00     0.021 C 
BRANCH  27  28
ATOM     28  C   UNL A   1      43.109  18.704  26.231  1.00  0.00     0.116 C 
BRANCH  28  29
ATOM     29  N   UNL A   1      43.915  18.963  25.056  1.00  0.00    -0.352 N 
ATOM     30  C   UNL A   1      44.607  20.041  24.583  1.00  0.00     0.251 C 
ATOM     31  H   UNL A   1      43.979  18.181  24.461  1.00  0.00     0.163 HD
ATOM     32  O   UNL A   1      45.306  19.838  23.584  1.00  0.00    -0.269 OA
BRANCH  30  33
ATOM     33  C   UNL A   1      44.531  21.425  25.127  1.00  0.00     0.039 A 
ATOM     34  C   UNL A   1      45.295  21.930  26.177  1.00  0.00     0.014 A 
ATOM     35  C   UNL A   1      43.533  22.251  24.570  1.00  0.00     0.014 A 
ATOM     36  C   UNL A   1      44.996  23.172  26.726  1.00  0.00     0.010 A 
ATOM     37  C   UNL A   1      43.239  23.500  25.105  1.00  0.00     0.010 A 
ATOM     38  C   UNL A   1      43.937  23.936  26.222  1.00  0.00    -0.014 A 
BRANCH  38  39
ATOM     39  C   UNL A   1      43.665  25.217  26.869  1.00  0.00     0.031 A 
ATOM     40  C   UNL A   1      44.694  26.265  26.630  1.00  0.00     0.074 A 
ATOM     41  C   UNL A   1      42.570  25.487  27.607  1.00  0.00     0.049 A 
ATOM     42  N   UNL A   1      45.523  26.768  27.486  1.00  0.00    -0.248 NA
ATOM     43  C   UNL A   1      44.908  26.717  25.249  1.00  0.00     0.031 C 
ATOM     44  C   UNL A   1      41.341  24.707  27.757  1.00  0.00     0.029 A 
ATOM     45  N   UNL A   1      42.319  26.597  28.360  1.00  0.00    -0.354 N 
ATOM     46  C   UNL A   1      46.255  27.731  26.795  1.00  0.00     0.074 A 
ATOM     47  C   UNL A   1      45.925  27.567  25.402  1.00  0.00     0.031 C 
ATOM     48  C   UNL A   1      40.404  25.460  28.381  1.00  0.00     0.029 A 
ATOM     49  C   UNL A   1      41.010  26.711  28.805  1.00  0.00     0.049 A 
ATOM     50  H   UNL A   1      43.012  27.264  28.570  1.00  0.00     0.167 HD
ATOM     51  C   UNL A   1      46.930  28.715  27.449  1.00  0.00     0.037 A 
ATOM     52  C   UNL A   1      40.462  27.772  29.451  1.00  0.00     0.037 A 
ATOM     53  C   UNL A   1      47.168  28.365  28.827  1.00  0.00     0.049 A 
ATOM     54  C   UNL A   1      41.567  28.557  30.051  1.00  0.00     0.074 A 
ATOM     55  C   UNL A   1      47.844  27.344  29.469  1.00  0.00     0.029 A 
ATOM     56  N   UNL A   1      46.376  28.937  29.791  1.00  0.00    -0.354 N 
ATOM     57  N   UNL A   1      42.284  28.144  31.059  1.00  0.00    -0.248 NA
ATOM     58  C   UNL A   1      42.166  29.610  29.247  1.00  0.00     0.031 C 
ATOM     59  C   UNL A   1      47.045  27.037  30.612  1.00  0.00     0.029 A 
ATOM     60  C   UNL A   1      45.970  27.924  30.622  1.00  0.00     0.049 A 
ATOM     61  H   UNL A   1      46.144  29.891  29.870  1.00  0.00     0.167 HD
ATOM     62  C   UNL A   1      43.575  28.553  30.760  1.00  0.00     0.074 A 
ATOM     63  C   UNL A   1      43.427  29.526  29.679  1.00  0.00     0.031 C 
ATOM     64  C   UNL A   1      44.660  27.864  31.221  1.00  0.00     0.037 A 
BRANCH  51  65
ATOM     65  C   UNL A   1      47.046  30.136  26.950  1.00  0.00     0.057 A 
ATOM     66  C   UNL A   1      45.944  30.986  26.728  1.00  0.00     0.134 A 
ATOM     67  C   UNL A   1      48.296  30.782  26.995  1.00  0.00     0.134 A 
ATOM     68  F   UNL A   1      44.683  30.538  26.713  1.00  0.00    -0.206 F 
ATOM     69  C   UNL A   1      46.067  32.373  26.610  1.00  0.00     0.040 A 
ATOM     70  C   UNL A   1      48.425  32.175  26.927  1.00  0.00     0.040 A 
ATOM     71  F   UNL A   1      49.425  30.087  27.200  1.00  0.00    -0.206 F 
ATOM     72  C   UNL A   1      47.305  32.977  26.748  1.00  0.00     0.006 A 
ENDBRANCH  51  65
BRANCH  52  73
ATOM     73  C   UNL A   1      39.087  28.309  29.354  1.00  0.00     0.057 A 
ATOM     74  C   UNL A   1      38.672  29.034  28.224  1.00  0.00     0.134 A 
ATOM     75  C   UNL A   1      38.246  28.379  30.474  1.00  0.00     0.134 A 
ATOM     76  F   UNL A   1      39.437  29.099  27.125  1.00  0.00    -0.206 F 
ATOM     77  C   UNL A   1      37.501  29.800  28.213  1.00  0.00     0.040 A 
ATOM     78  C   UNL A   1      37.073  29.147  30.478  1.00  0.00     0.040 A 
ATOM     79  F   UNL A   1      38.578  27.759  31.616  1.00  0.00    -0.206 F 
ATOM     80  C   UNL A   1      36.703  29.870  29.348  1.00  0.00     0.006 A 
ENDBRANCH  52  73
BRANCH  64  81
ATOM     81  C   UNL A   1      44.421  26.792  32.249  1.00  0.00     0.057 A 
ATOM     82  C   UNL A   1      44.447  27.136  33.604  1.00  0.00     0.134 A 
ATOM     83  C   UNL A   1      44.287  25.427  31.946  1.00  0.00     0.134 A 
ATOM     84  F   UNL A   1      44.632  28.413  33.975  1.00  0.00    -0.206 F 
ATOM     85  C   UNL A   1      44.324  26.176  34.612  1.00  0.00     0.040 A 
ATOM     86  C   UNL A   1      44.128  24.461  32.944  1.00  0.00     0.040 A 
ATOM     87  F   UNL A   1      44.359  24.987  30.683  1.00  0.00    -0.206 F 
ATOM     88  C   UNL A   1      44.149  24.835  34.283  1.00  0.00     0.006 A 
ENDBRANCH  64  81
ENDBRANCH  38  39
ENDBRANCH  30  33
ENDBRANCH  28  29
ENDBRANCH  27  28
ENDBRANCH  26  27
ENDBRANCH  25  26
ENDBRANCH   1  25
TORSDOF 17
ENDMDL
MODEL 3
REMARK VINA RESULT:     -10.4      2.817      7.944
REMARK SMILES C[C@@H](c1ccco1)n1c(SCC(=O)NCCCCCCNC(=O)c2ccc(-c3c4nc(c(-c5c(F)cccc5F)c5ccc([nH]5)c(-c5c(F)cccc5F)c5nc(c(-c6c(F)cccc6F)c6ccc3[nH]6)C=C5)C=C4)cc2)nc2cnccc21
REMARK SMILES IDX 16 1 15 2 14 3 12 4 13 5 11 7 10 8 9 9 8 10 84 11 78 12
REMARK SMILES IDX 79 13 83 14 80 15 82 16 81 17 2 18 1 19 3 20 4 21 7 22 5 23
REMARK SMILES IDX 6 24 17 25 18 26 19 27 20 28 21 29 22 30 23 32 24 33 25 34
REMARK SMILES IDX 77 35 26 36 76 37 27 38 28 39 29 40 70 41 30 42 75 43 69 44
REMARK SMILES IDX 71 45 31 46 74 47 68 48 67 49 32 51 58 52 41 53 57 54 42 55
REMARK SMILES IDX 45 56 56 57 72 58 43 59 44 60 55 62 73 63 46 64 33 65 34 66
REMARK SMILES IDX 39 67 35 68 36 69 38 70 40 71 37 72 59 73 60 74 65 75 61 76
REMARK SMILES IDX 62 77 64 78 66 79 63 80 47 81 48 82 53 83 49 84 50 85 52 86
REMARK SMILES IDX 54 87 51 88
REMARK H PARENT 14 6 21 31 71 50 45 61
REMARK Flexibility Score: inf
ROOT
ATOM      1  C   UNL A   1      32.506  26.305  24.690  1.00  0.00     0.021 C 
ENDROOT
BRANCH   1   2
ATOM      2  C   UNL A   1      33.935  25.796  24.900  1.00  0.00     0.116 C 
BRANCH   2   3
ATOM      3  N   UNL A   1      34.389  24.909  23.848  1.00  0.00    -0.355 N 
ATOM      4  C   UNL A   1      35.406  24.000  23.858  1.00  0.00     0.230 C 
ATOM      5  O   UNL A   1      35.509  23.229  22.900  1.00  0.00    -0.274 OA
ATOM      6  H   UNL A   1      33.890  24.971  23.002  1.00  0.00     0.163 HD
BRANCH   4   7
ATOM      7  C   UNL A   1      36.304  23.841  25.056  1.00  0.00     0.178 C 
BRANCH   7   8
ATOM      8  S   UNL A   1      36.421  22.229  25.776  1.00  0.00    -0.078 SA
BRANCH   8   9
ATOM      9  C   UNL A   1      35.246  21.011  25.446  1.00  0.00     0.170 A 
ATOM     10  N   UNL A   1      33.877  20.871  25.584  1.00  0.00    -0.308 N 
ATOM     11  C   UNL A   1      33.558  19.577  25.138  1.00  0.00     0.073 A 
ATOM     12  N   UNL A   1      35.773  19.908  24.941  1.00  0.00    -0.221 NA
ATOM     13  C   UNL A   1      34.764  19.018  24.752  1.00  0.00     0.108 A 
ATOM     14  C   UNL A   1      32.363  18.853  25.035  1.00  0.00     0.049 A 
ATOM     15  C   UNL A   1      34.795  17.709  24.260  1.00  0.00     0.141 A 
ATOM     16  C   UNL A   1      32.489  17.558  24.548  1.00  0.00     0.113 A 
ATOM     17  N   UNL A   1      33.650  16.983  24.168  1.00  0.00    -0.262 NA
BRANCH  10  18
ATOM     18  C   UNL A   1      32.815  21.742  26.074  1.00  0.00     0.153 C 
ATOM     19  C   UNL A   1      33.080  22.545  27.337  1.00  0.00     0.040 C 
BRANCH  18  20
ATOM     20  C   UNL A   1      32.075  22.429  24.967  1.00  0.00     0.126 A 
ATOM     21  C   UNL A   1      30.960  23.250  24.977  1.00  0.00     0.048 A 
ATOM     22  O   UNL A   1      32.474  22.228  23.681  1.00  0.00    -0.467 OA
ATOM     23  C   UNL A   1      30.697  23.602  23.634  1.00  0.00     0.042 A 
ATOM     24  C   UNL A   1      31.666  22.979  22.888  1.00  0.00     0.195 A 
ENDBRANCH  18  20
ENDBRANCH  10  18
ENDBRANCH   8   9
ENDBRANCH   7   8
ENDBRANCH   4   7
ENDBRANCH   2   3
ENDBRANCH   1   2
BRANCH   1  25
ATOM     25  C   UNL A   1      32.101  27.528  25.517  1.00  0.00     0.002 C 
BRANCH  25  26
ATOM     26  C   UNL A   1      33.083  27.963  26.605  1.00  0.00     0.002 C 
BRANCH  26  27
ATOM     27  C   UNL A   1      32.699  29.240  27.359  1.00  0.00     0.021 C 
BRANCH  27  28
ATOM     28  C   UNL A   1      33.469  30.488  26.928  1.00  0.00     0.116 C 
BRANCH  28  29
ATOM     29  N   UNL A   1      33.754  31.391  28.024  1.00  0.00    -0.352 N 
ATOM     30  C   UNL A   1      34.861  31.681  28.767  1.00  0.00     0.251 C 
ATOM     31  H   UNL A   1      32.967  31.917  28.294  1.00  0.00     0.163 HD
ATOM     32  O   UNL A   1      34.754  32.633  29.549  1.00  0.00    -0.269 OA
BRANCH  30  33
ATOM     33  C   UNL A   1      36.137  30.912  28.757  1.00  0.00     0.039 A 
ATOM     34  C   UNL A   1      36.259  29.540  28.550  1.00  0.00     0.014 A 
ATOM     35  C   UNL A   1      37.299  31.646  29.073  1.00  0.00     0.014 A 
ATOM     36  C   UNL A   1      37.478  28.906  28.763  1.00  0.00     0.010 A 
ATOM     37  C   UNL A   1      38.525  31.020  29.271  1.00  0.00     0.010 A 
ATOM     38  C   UNL A   1      38.600  29.638  29.170  1.00  0.00    -0.014 A 
BRANCH  38  39
ATOM     39  C   UNL A   1      39.838  28.899  29.401  1.00  0.00     0.031 A 
ATOM     40  C   UNL A   1      40.236  28.787  30.830  1.00  0.00     0.074 A 
ATOM     41  C   UNL A   1      40.579  28.321  28.435  1.00  0.00     0.049 A 
ATOM     42  N   UNL A   1      41.246  29.344  31.416  1.00  0.00    -0.248 NA
ATOM     43  C   UNL A   1      39.336  28.067  31.741  1.00  0.00     0.031 C 
ATOM     44  C   UNL A   1      40.250  28.097  27.027  1.00  0.00     0.029 A 
ATOM     45  N   UNL A   1      41.813  27.750  28.553  1.00  0.00    -0.354 N 
ATOM     46  C   UNL A   1      41.213  28.910  32.739  1.00  0.00     0.074 A 
ATOM     47  C   UNL A   1      39.952  28.235  32.912  1.00  0.00     0.031 C 
ATOM     48  C   UNL A   1      41.164  27.261  26.479  1.00  0.00     0.029 A 
ATOM     49  C   UNL A   1      42.219  27.015  27.448  1.00  0.00     0.049 A 
ATOM     50  H   UNL A   1      42.369  27.850  29.359  1.00  0.00     0.167 HD
ATOM     51  C   UNL A   1      42.315  28.975  33.535  1.00  0.00     0.037 A 
ATOM     52  C   UNL A   1      43.329  26.239  27.353  1.00  0.00     0.037 A 
ATOM     53  C   UNL A   1      43.279  29.918  33.026  1.00  0.00     0.049 A 
ATOM     54  C   UNL A   1      44.285  26.689  28.393  1.00  0.00     0.074 A 
ATOM     55  C   UNL A   1      43.269  31.276  32.767  1.00  0.00     0.029 A 
ATOM     56  N   UNL A   1      44.381  29.432  32.368  1.00  0.00    -0.354 N 
ATOM     57  N   UNL A   1      44.916  27.829  28.353  1.00  0.00    -0.248 NA
ATOM     58  C   UNL A   1      44.205  26.064  29.704  1.00  0.00     0.031 C 
ATOM     59  C   UNL A   1      44.038  31.427  31.573  1.00  0.00     0.029 A 
ATOM     60  C   UNL A   1      44.511  30.166  31.216  1.00  0.00     0.049 A 
ATOM     61  H   UNL A   1      44.966  28.698  32.666  1.00  0.00     0.167 HD
ATOM     62  C   UNL A   1      44.919  28.273  29.666  1.00  0.00     0.074 A 
ATOM     63  C   UNL A   1      44.548  27.107  30.465  1.00  0.00     0.031 C 
ATOM     64  C   UNL A   1      44.949  29.606  29.962  1.00  0.00     0.037 A 
BRANCH  51  65
ATOM     65  C   UNL A   1      42.681  27.926  34.560  1.00  0.00     0.057 A 
ATOM     66  C   UNL A   1      42.427  28.052  35.940  1.00  0.00     0.134 A 
ATOM     67  C   UNL A   1      43.003  26.625  34.129  1.00  0.00     0.134 A 
ATOM     68  F   UNL A   1      42.053  29.208  36.500  1.00  0.00    -0.206 F 
ATOM     69  C   UNL A   1      42.442  26.963  36.816  1.00  0.00     0.040 A 
ATOM     70  C   UNL A   1      42.973  25.520  34.989  1.00  0.00     0.040 A 
ATOM     71  F   UNL A   1      43.268  26.372  32.839  1.00  0.00    -0.206 F 
ATOM     72  C   UNL A   1      42.677  25.685  36.336  1.00  0.00     0.006 A 
ENDBRANCH  51  65
BRANCH  52  73
ATOM     73  C   UNL A   1      43.513  24.967  26.621  1.00  0.00     0.057 A 
ATOM     74  C   UNL A   1      44.281  24.913  25.446  1.00  0.00     0.134 A 
ATOM     75  C   UNL A   1      42.712  23.846  26.886  1.00  0.00     0.134 A 
ATOM     76  F   UNL A   1      45.023  25.960  25.057  1.00  0.00    -0.206 F 
ATOM     77  C   UNL A   1      44.242  23.820  24.574  1.00  0.00     0.040 A 
ATOM     78  C   UNL A   1      42.660  22.746  26.018  1.00  0.00     0.040 A 
ATOM     79  F   UNL A   1      41.908  23.820  27.959  1.00  0.00    -0.206 F 
ATOM     80  C   UNL A   1      43.418  22.736  24.851  1.00  0.00     0.006 A 
ENDBRANCH  52  73
BRANCH  64  81
ATOM     81  C   UNL A   1      45.214  30.566  28.834  1.00  0.00     0.057 A 
ATOM     82  C   UNL A   1      46.498  31.098  28.686  1.00  0.00     0.134 A 
ATOM     83  C   UNL A   1      44.221  31.064  27.976  1.00  0.00     0.134 A 
ATOM     84  F   UNL A   1      47.488  30.717  29.509  1.00  0.00    -0.206 F 
ATOM     85  C   UNL A   1      46.791  32.063  27.718  1.00  0.00     0.040 A 
ATOM     86  C   UNL A   1      44.508  32.003  26.981  1.00  0.00     0.040 A 
ATOM     87  F   UNL A   1      42.940  30.696  28.110  1.00  0.00    -0.206 F 
ATOM     88  C   UNL A   1      45.796  32.508  26.852  1.00  0.00     0.006 A 
ENDBRANCH  64  81
ENDBRANCH  38  39
ENDBRANCH  30  33
ENDBRANCH  28  29
ENDBRANCH  27  28
ENDBRANCH  26  27
ENDBRANCH  25  26
ENDBRANCH   1  25
TORSDOF 17
ENDMDL
