MODEL 1
REMARK VINA RESULT:     -11.1      0.000      0.000
REMARK SMILES O=C(NCCCCCCNC(=O)[C@@H]1C[NH2+]C[C@H]1c1ccncc1)c1ccc(-c2c3nc(c(-c4c(F)cccc4F)c4ccc([nH]4)c(-c4c(F)cccc4F)c4nc(c(-c5c(F)cccc5F)c5ccc2[nH]5)C=C4)C=C3)cc1
REMARK SMILES IDX 6 1 5 2 4 3 3 4 1 5 2 6 24 8 25 9 77 10 26 11 76 12 27 13
REMARK SMILES IDX 28 14 29 15 70 16 30 17 75 18 69 19 71 20 31 21 74 22 68 23
REMARK SMILES IDX 67 24 32 26 58 27 41 28 57 29 42 30 45 31 56 32 72 33 43 34
REMARK SMILES IDX 44 35 55 37 73 38 46 39 33 40 34 41 39 42 35 43 36 44 38 45
REMARK SMILES IDX 40 46 37 47 59 48 60 49 65 50 61 51 62 52 64 53 66 54 63 55
REMARK SMILES IDX 47 56 48 57 53 58 49 59 50 60 52 61 54 62 51 63 7 64 8 65
REMARK SMILES IDX 9 66 10 67 11 68 12 70 13 71 14 72 17 73 15 74 16 75 18 78
REMARK SMILES IDX 19 79 23 80 20 81 22 82 21 83
REMARK H PARENT 3 7 71 25 45 36 10 69 15 76 15 77
REMARK Flexibility Score: inf
ROOT
ATOM      1  C   UNL A   1      31.649  30.787  25.955  1.00  0.00     0.002 C 
ENDROOT
BRANCH   1   2
ATOM      2  C   UNL A   1      31.364  32.153  26.576  1.00  0.00     0.021 C 
BRANCH   2   3
ATOM      3  C   UNL A   1      32.555  32.820  27.251  1.00  0.00     0.116 C 
BRANCH   3   4
ATOM      4  N   UNL A   1      32.296  34.200  27.627  1.00  0.00    -0.352 N 
ATOM      5  O   UNL A   1      32.515  36.093  28.839  1.00  0.00    -0.269 OA
ATOM      6  C   UNL A   1      32.948  34.981  28.552  1.00  0.00     0.251 C 
ATOM      7  H   UNL A   1      31.551  34.635  27.153  1.00  0.00     0.163 HD
BRANCH   6   8
ATOM      8  C   UNL A   1      34.158  34.463  29.227  1.00  0.00     0.039 A 
ATOM      9  C   UNL A   1      35.417  34.604  28.640  1.00  0.00     0.014 A 
ATOM     10  C   UNL A   1      34.026  33.812  30.456  1.00  0.00     0.014 A 
ATOM     11  C   UNL A   1      36.514  33.960  29.200  1.00  0.00     0.010 A 
ATOM     12  C   UNL A   1      35.148  33.239  31.063  1.00  0.00     0.010 A 
ATOM     13  C   UNL A   1      36.394  33.274  30.420  1.00  0.00    -0.014 A 
BRANCH  13  14
ATOM     14  C   UNL A   1      37.597  32.634  31.012  1.00  0.00     0.031 A 
ATOM     15  C   UNL A   1      38.159  33.093  32.329  1.00  0.00     0.074 A 
ATOM     16  C   UNL A   1      38.159  31.592  30.367  1.00  0.00     0.049 A 
ATOM     17  N   UNL A   1      39.164  32.603  33.011  1.00  0.00    -0.248 NA
ATOM     18  C   UNL A   1      37.518  34.257  32.961  1.00  0.00     0.031 C 
ATOM     19  C   UNL A   1      37.713  31.064  29.075  1.00  0.00     0.029 A 
ATOM     20  N   UNL A   1      39.201  30.775  30.720  1.00  0.00    -0.354 N 
ATOM     21  C   UNL A   1      39.294  33.410  34.135  1.00  0.00     0.074 A 
ATOM     22  C   UNL A   1      38.276  34.435  34.035  1.00  0.00     0.031 C 
ATOM     23  C   UNL A   1      38.436  29.976  28.774  1.00  0.00     0.029 A 
ATOM     24  C   UNL A   1      39.431  29.763  29.819  1.00  0.00     0.049 A 
ATOM     25  H   UNL A   1      39.734  30.901  31.537  1.00  0.00     0.167 HD
ATOM     26  C   UNL A   1      40.175  33.302  35.159  1.00  0.00     0.037 A 
ATOM     27  C   UNL A   1      40.341  28.773  29.831  1.00  0.00     0.037 A 
ATOM     28  C   UNL A   1      41.169  32.264  35.270  1.00  0.00     0.049 A 
ATOM     29  C   UNL A   1      41.305  28.679  30.976  1.00  0.00     0.074 A 
ATOM     30  C   UNL A   1      42.074  32.042  36.295  1.00  0.00     0.029 A 
ATOM     31  N   UNL A   1      41.393  31.277  34.321  1.00  0.00    -0.354 N 
ATOM     32  N   UNL A   1      41.386  29.425  32.051  1.00  0.00    -0.248 NA
ATOM     33  C   UNL A   1      42.308  27.607  30.907  1.00  0.00     0.031 C 
ATOM     34  C   UNL A   1      42.869  30.944  35.948  1.00  0.00     0.029 A 
ATOM     35  C   UNL A   1      42.434  30.458  34.727  1.00  0.00     0.049 A 
ATOM     36  H   UNL A   1      40.887  31.175  33.483  1.00  0.00     0.167 HD
ATOM     37  C   UNL A   1      42.435  28.904  32.794  1.00  0.00     0.074 A 
ATOM     38  C   UNL A   1      42.948  27.766  32.056  1.00  0.00     0.031 C 
ATOM     39  C   UNL A   1      42.932  29.330  33.981  1.00  0.00     0.037 A 
BRANCH  26  40
ATOM     40  C   UNL A   1      40.121  34.345  36.237  1.00  0.00     0.057 A 
ATOM     41  C   UNL A   1      39.301  34.206  37.364  1.00  0.00     0.134 A 
ATOM     42  C   UNL A   1      40.932  35.485  36.165  1.00  0.00     0.134 A 
ATOM     43  F   UNL A   1      38.493  33.143  37.489  1.00  0.00    -0.206 F 
ATOM     44  C   UNL A   1      39.276  35.172  38.372  1.00  0.00     0.040 A 
ATOM     45  C   UNL A   1      40.932  36.447  37.176  1.00  0.00     0.040 A 
ATOM     46  F   UNL A   1      41.746  35.677  35.115  1.00  0.00    -0.206 F 
ATOM     47  C   UNL A   1      40.098  36.294  38.282  1.00  0.00     0.006 A 
ENDBRANCH  26  40
BRANCH  27  48
ATOM     48  C   UNL A   1      40.369  27.785  28.725  1.00  0.00     0.057 A 
ATOM     49  C   UNL A   1      41.133  28.013  27.576  1.00  0.00     0.134 A 
ATOM     50  C   UNL A   1      39.648  26.588  28.797  1.00  0.00     0.134 A 
ATOM     51  F   UNL A   1      41.832  29.150  27.444  1.00  0.00    -0.206 F 
ATOM     52  C   UNL A   1      41.172  27.089  26.531  1.00  0.00     0.040 A 
ATOM     53  C   UNL A   1      39.696  25.645  27.772  1.00  0.00     0.040 A 
ATOM     54  F   UNL A   1      38.904  26.310  29.878  1.00  0.00    -0.206 F 
ATOM     55  C   UNL A   1      40.456  25.897  26.632  1.00  0.00     0.006 A 
ENDBRANCH  27  48
BRANCH  39  56
ATOM     56  C   UNL A   1      44.066  28.542  34.563  1.00  0.00     0.057 A 
ATOM     57  C   UNL A   1      43.846  27.431  35.387  1.00  0.00     0.134 A 
ATOM     58  C   UNL A   1      45.394  28.892  34.286  1.00  0.00     0.134 A 
ATOM     59  F   UNL A   1      42.597  27.055  35.702  1.00  0.00    -0.206 F 
ATOM     60  C   UNL A   1      44.908  26.711  35.937  1.00  0.00     0.040 A 
ATOM     61  C   UNL A   1      46.463  28.166  34.811  1.00  0.00     0.040 A 
ATOM     62  F   UNL A   1      45.671  29.943  33.500  1.00  0.00    -0.206 F 
ATOM     63  C   UNL A   1      46.221  27.075  35.645  1.00  0.00     0.006 A 
ENDBRANCH  39  56
ENDBRANCH  13  14
ENDBRANCH   6   8
ENDBRANCH   3   4
ENDBRANCH   2   3
ENDBRANCH   1   2
BRANCH   1  64
ATOM     64  C   UNL A   1      31.778  29.626  26.948  1.00  0.00     0.002 C 
BRANCH  64  65
ATOM     65  C   UNL A   1      33.210  29.162  27.247  1.00  0.00     0.021 C 
BRANCH  65  66
ATOM     66  C   UNL A   1      33.752  28.091  26.305  1.00  0.00     0.116 C 
BRANCH  66  67
ATOM     67  N   UNL A   1      34.114  28.652  25.018  1.00  0.00    -0.356 N 
ATOM     68  C   UNL A   1      33.716  28.290  23.768  1.00  0.00     0.229 C 
ATOM     69  H   UNL A   1      34.743  29.408  25.055  1.00  0.00     0.163 HD
ATOM     70  O   UNL A   1      34.172  28.919  22.814  1.00  0.00    -0.275 OA
BRANCH  68  71
ATOM     71  C   UNL A   1      32.753  27.132  23.604  1.00  0.00     0.146 C 
ATOM     72  C   UNL A   1      33.545  25.846  23.445  1.00  0.00     0.274 C 
ATOM     73  C   UNL A   1      31.914  27.187  22.314  1.00  0.00     0.092 C 
ATOM     74  N   UNL A   1      32.584  24.902  22.872  1.00  0.00    -0.345 N 
ATOM     75  C   UNL A   1      31.776  25.698  21.928  1.00  0.00     0.269 C 
ATOM     76  H   UNL A   1      31.993  24.505  23.603  1.00  0.00     0.346 HD
ATOM     77  H   UNL A   1      33.048  24.119  22.412  1.00  0.00     0.346 HD
BRANCH  73  78
ATOM     78  C   UNL A   1      30.658  28.030  22.495  1.00  0.00    -0.035 A 
ATOM     79  C   UNL A   1      29.542  27.452  23.125  1.00  0.00     0.024 A 
ATOM     80  C   UNL A   1      30.530  29.357  22.079  1.00  0.00     0.024 A 
ATOM     81  C   UNL A   1      28.375  28.187  23.271  1.00  0.00     0.111 A 
ATOM     82  C   UNL A   1      29.323  30.017  22.281  1.00  0.00     0.111 A 
ATOM     83  N   UNL A   1      28.239  29.460  22.855  1.00  0.00    -0.265 NA
ENDBRANCH  73  78
ENDBRANCH  68  71
ENDBRANCH  66  67
ENDBRANCH  65  66
ENDBRANCH  64  65
ENDBRANCH   1  64
TORSDOF 14
ENDMDL
MODEL 2
REMARK VINA RESULT:     -11.1      5.868     11.666
REMARK SMILES O=C(NCCCCCCNC(=O)[C@@H]1C[NH2+]C[C@H]1c1ccncc1)c1ccc(-c2c3nc(c(-c4c(F)cccc4F)c4ccc([nH]4)c(-c4c(F)cccc4F)c4nc(c(-c5c(F)cccc5F)c5ccc2[nH]5)C=C4)C=C3)cc1
REMARK SMILES IDX 6 1 5 2 4 3 3 4 1 5 2 6 24 8 25 9 77 10 26 11 76 12 27 13
REMARK SMILES IDX 28 14 29 15 70 16 30 17 75 18 69 19 71 20 31 21 74 22 68 23
REMARK SMILES IDX 67 24 32 26 58 27 41 28 57 29 42 30 45 31 56 32 72 33 43 34
REMARK SMILES IDX 44 35 55 37 73 38 46 39 33 40 34 41 39 42 35 43 36 44 38 45
REMARK SMILES IDX 40 46 37 47 59 48 60 49 65 50 61 51 62 52 64 53 66 54 63 55
REMARK SMILES IDX 47 56 48 57 53 58 49 59 50 60 52 61 54 62 51 63 7 64 8 65
REMARK SMILES IDX 9 66 10 67 11 68 12 70 13 71 14 72 17 73 15 74 16 75 18 78
REMARK SMILES IDX 19 79 23 80 20 81 22 82 21 83
REMARK H PARENT 3 7 71 25 45 36 10 69 15 76 15 77
REMARK Flexibility Score: inf
ROOT
ATOM      1  C   UNL A   1      44.491  19.585  24.483  1.00  0.00     0.002 C 
ENDROOT
BRANCH   1   2
ATOM      2  C   UNL A   1      44.399  18.395  25.436  1.00  0.00     0.021 C 
BRANCH   2   3
ATOM      3  C   UNL A   1      43.360  18.529  26.541  1.00  0.00     0.116 C 
BRANCH   3   4
ATOM      4  N   UNL A   1      41.999  18.605  26.035  1.00  0.00    -0.352 N 
ATOM      5  O   UNL A   1      39.940  19.490  25.752  1.00  0.00    -0.269 OA
ATOM      6  C   UNL A   1      41.100  19.641  26.124  1.00  0.00     0.251 C 
ATOM      7  H   UNL A   1      41.677  17.803  25.564  1.00  0.00     0.163 HD
BRANCH   6   8
ATOM      8  C   UNL A   1      41.526  20.935  26.701  1.00  0.00     0.039 A 
ATOM      9  C   UNL A   1      41.753  21.063  28.072  1.00  0.00     0.014 A 
ATOM     10  C   UNL A   1      41.685  22.038  25.857  1.00  0.00     0.014 A 
ATOM     11  C   UNL A   1      41.981  22.322  28.618  1.00  0.00     0.010 A 
ATOM     12  C   UNL A   1      42.002  23.288  26.399  1.00  0.00     0.010 A 
ATOM     13  C   UNL A   1      42.112  23.448  27.789  1.00  0.00    -0.014 A 
BRANCH  13  14
ATOM     14  C   UNL A   1      42.399  24.770  28.403  1.00  0.00     0.031 A 
ATOM     15  C   UNL A   1      43.790  25.148  28.830  1.00  0.00     0.074 A 
ATOM     16  C   UNL A   1      41.392  25.656  28.531  1.00  0.00     0.049 A 
ATOM     17  N   UNL A   1      44.220  26.281  29.326  1.00  0.00    -0.248 NA
ATOM     18  C   UNL A   1      44.835  24.121  28.693  1.00  0.00     0.031 C 
ATOM     19  C   UNL A   1      39.996  25.400  28.166  1.00  0.00     0.029 A 
ATOM     20  N   UNL A   1      41.388  26.953  28.973  1.00  0.00    -0.354 N 
ATOM     21  C   UNL A   1      45.573  26.099  29.584  1.00  0.00     0.074 A 
ATOM     22  C   UNL A   1      45.891  24.737  29.208  1.00  0.00     0.031 C 
ATOM     23  C   UNL A   1      39.284  26.522  28.341  1.00  0.00     0.029 A 
ATOM     24  C   UNL A   1      40.158  27.558  28.882  1.00  0.00     0.049 A 
ATOM     25  H   UNL A   1      42.188  27.407  29.323  1.00  0.00     0.167 HD
ATOM     26  C   UNL A   1      46.468  26.986  30.081  1.00  0.00     0.037 A 
ATOM     27  C   UNL A   1      39.773  28.806  29.200  1.00  0.00     0.037 A 
ATOM     28  C   UNL A   1      46.155  28.349  30.428  1.00  0.00     0.049 A 
ATOM     29  C   UNL A   1      40.785  29.767  29.750  1.00  0.00     0.074 A 
ATOM     30  C   UNL A   1      47.006  29.339  30.892  1.00  0.00     0.029 A 
ATOM     31  N   UNL A   1      44.891  28.915  30.354  1.00  0.00    -0.354 N 
ATOM     32  N   UNL A   1      42.068  29.590  29.948  1.00  0.00    -0.248 NA
ATOM     33  C   UNL A   1      40.293  31.099  30.125  1.00  0.00     0.031 C 
ATOM     34  C   UNL A   1      46.249  30.491  31.134  1.00  0.00     0.029 A 
ATOM     35  C   UNL A   1      44.935  30.232  30.783  1.00  0.00     0.049 A 
ATOM     36  H   UNL A   1      44.081  28.449  30.043  1.00  0.00     0.167 HD
ATOM     37  C   UNL A   1      42.542  30.792  30.454  1.00  0.00     0.074 A 
ATOM     38  C   UNL A   1      41.410  31.696  30.514  1.00  0.00     0.031 C 
ATOM     39  C   UNL A   1      43.800  31.118  30.836  1.00  0.00     0.037 A 
BRANCH  26  40
ATOM     40  C   UNL A   1      47.874  26.507  30.301  1.00  0.00     0.057 A 
ATOM     41  C   UNL A   1      48.235  25.750  31.422  1.00  0.00     0.134 A 
ATOM     42  C   UNL A   1      48.871  26.773  29.354  1.00  0.00     0.134 A 
ATOM     43  F   UNL A   1      47.329  25.469  32.372  1.00  0.00    -0.206 F 
ATOM     44  C   UNL A   1      49.540  25.291  31.604  1.00  0.00     0.040 A 
ATOM     45  C   UNL A   1      50.176  26.302  29.513  1.00  0.00     0.040 A 
ATOM     46  F   UNL A   1      48.593  27.488  28.253  1.00  0.00    -0.206 F 
ATOM     47  C   UNL A   1      50.514  25.562  30.645  1.00  0.00     0.006 A 
ENDBRANCH  26  40
BRANCH  27  48
ATOM     48  C   UNL A   1      38.364  29.219  28.989  1.00  0.00     0.057 A 
ATOM     49  C   UNL A   1      37.440  29.185  30.038  1.00  0.00     0.134 A 
ATOM     50  C   UNL A   1      37.913  29.668  27.742  1.00  0.00     0.134 A 
ATOM     51  F   UNL A   1      37.810  28.748  31.251  1.00  0.00    -0.206 F 
ATOM     52  C   UNL A   1      36.112  29.575  29.854  1.00  0.00     0.040 A 
ATOM     53  C   UNL A   1      36.596  30.084  27.550  1.00  0.00     0.040 A 
ATOM     54  F   UNL A   1      38.755  29.730  26.700  1.00  0.00    -0.206 F 
ATOM     55  C   UNL A   1      35.690  30.033  28.606  1.00  0.00     0.006 A 
ENDBRANCH  27  48
BRANCH  39  56
ATOM     56  C   UNL A   1      44.019  32.518  31.325  1.00  0.00     0.057 A 
ATOM     57  C   UNL A   1      43.919  32.849  32.682  1.00  0.00     0.134 A 
ATOM     58  C   UNL A   1      44.344  33.544  30.429  1.00  0.00     0.134 A 
ATOM     59  F   UNL A   1      43.594  31.914  33.588  1.00  0.00    -0.206 F 
ATOM     60  C   UNL A   1      44.109  34.158  33.128  1.00  0.00     0.040 A 
ATOM     61  C   UNL A   1      44.560  34.851  30.866  1.00  0.00     0.040 A 
ATOM     62  F   UNL A   1      44.460  33.291  29.117  1.00  0.00    -0.206 F 
ATOM     63  C   UNL A   1      44.436  35.163  32.218  1.00  0.00     0.006 A 
ENDBRANCH  39  56
ENDBRANCH  13  14
ENDBRANCH   6   8
ENDBRANCH   3   4
ENDBRANCH   2   3
ENDBRANCH   1   2
BRANCH   1  64
ATOM     64  C   UNL A   1      45.566  20.622  24.826  1.00  0.00     0.002 C 
BRANCH  64  65
ATOM     65  C   UNL A   1      45.077  21.858  25.594  1.00  0.00     0.021 C 
BRANCH  65  66
ATOM     66  C   UNL A   1      45.671  23.184  25.130  1.00  0.00     0.116 C 
BRANCH  66  67
ATOM     67  N   UNL A   1      46.768  23.600  25.981  1.00  0.00    -0.356 N 
ATOM     68  C   UNL A   1      47.548  24.714  25.915  1.00  0.00     0.229 C 
ATOM     69  H   UNL A   1      46.982  22.983  26.718  1.00  0.00     0.163 HD
ATOM     70  O   UNL A   1      48.435  24.847  26.757  1.00  0.00    -0.275 OA
BRANCH  68  71
ATOM     71  C   UNL A   1      47.303  25.724  24.812  1.00  0.00     0.146 C 
ATOM     72  C   UNL A   1      48.548  25.828  23.949  1.00  0.00     0.274 C 
ATOM     73  C   UNL A   1      47.102  27.166  25.311  1.00  0.00     0.092 C 
ATOM     74  N   UNL A   1      48.379  27.089  23.227  1.00  0.00    -0.345 N 
ATOM     75  C   UNL A   1      47.759  28.012  24.198  1.00  0.00     0.269 C 
ATOM     76  H   UNL A   1      47.770  26.960  22.418  1.00  0.00     0.346 HD
ATOM     77  H   UNL A   1      49.266  27.448  22.872  1.00  0.00     0.346 HD
BRANCH  73  78
ATOM     78  C   UNL A   1      45.652  27.434  25.691  1.00  0.00    -0.035 A 
ATOM     79  C   UNL A   1      45.366  28.507  26.552  1.00  0.00     0.024 A 
ATOM     80  C   UNL A   1      44.564  26.683  25.239  1.00  0.00     0.024 A 
ATOM     81  C   UNL A   1      44.057  28.751  26.940  1.00  0.00     0.111 A 
ATOM     82  C   UNL A   1      43.285  27.012  25.673  1.00  0.00     0.111 A 
ATOM     83  N   UNL A   1      43.007  28.020  26.523  1.00  0.00    -0.265 NA
ENDBRANCH  73  78
ENDBRANCH  68  71
ENDBRANCH  66  67
ENDBRANCH  65  66
ENDBRANCH  64  65
ENDBRANCH   1  64
TORSDOF 14
ENDMDL
MODEL 3
REMARK VINA RESULT:     -11.1      1.212      2.025
REMARK SMILES O=C(NCCCCCCNC(=O)[C@@H]1C[NH2+]C[C@H]1c1ccncc1)c1ccc(-c2c3nc(c(-c4c(F)cccc4F)c4ccc([nH]4)c(-c4c(F)cccc4F)c4nc(c(-c5c(F)cccc5F)c5ccc2[nH]5)C=C4)C=C3)cc1
REMARK SMILES IDX 6 1 5 2 4 3 3 4 1 5 2 6 24 8 25 9 77 10 26 11 76 12 27 13
REMARK SMILES IDX 28 14 29 15 70 16 30 17 75 18 69 19 71 20 31 21 74 22 68 23
REMARK SMILES IDX 67 24 32 26 58 27 41 28 57 29 42 30 45 31 56 32 72 33 43 34
REMARK SMILES IDX 44 35 55 37 73 38 46 39 33 40 34 41 39 42 35 43 36 44 38 45
REMARK SMILES IDX 40 46 37 47 59 48 60 49 65 50 61 51 62 52 64 53 66 54 63 55
REMARK SMILES IDX 47 56 48 57 53 58 49 59 50 60 52 61 54 62 51 63 7 64 8 65
REMARK SMILES IDX 9 66 10 67 11 68 12 70 13 71 14 72 17 73 15 74 16 75 18 78
REMARK SMILES IDX 19 79 23 80 20 81 22 82 21 83
REMARK H PARENT 3 7 71 25 45 36 10 69 15 76 15 77
REMARK Flexibility Score: inf
ROOT
ATOM      1  C   UNL A   1      31.796  30.035  26.870  1.00  0.00     0.002 C 
ENDROOT
BRANCH   1   2
ATOM      2  C   UNL A   1      31.552  31.543  26.854  1.00  0.00     0.021 C 
BRANCH   2   3
ATOM      3  C   UNL A   1      32.803  32.403  26.977  1.00  0.00     0.116 C 
BRANCH   3   4
ATOM      4  N   UNL A   1      32.523  33.747  27.455  1.00  0.00    -0.352 N 
ATOM      5  O   UNL A   1      32.685  35.535  28.827  1.00  0.00    -0.269 OA
ATOM      6  C   UNL A   1      33.134  34.451  28.466  1.00  0.00     0.251 C 
ATOM      7  H   UNL A   1      31.796  34.219  26.989  1.00  0.00     0.163 HD
BRANCH   6   8
ATOM      8  C   UNL A   1      34.319  33.880  29.144  1.00  0.00     0.039 A 
ATOM      9  C   UNL A   1      35.604  34.320  28.824  1.00  0.00     0.014 A 
ATOM     10  C   UNL A   1      34.138  32.878  30.101  1.00  0.00     0.014 A 
ATOM     11  C   UNL A   1      36.709  33.653  29.340  1.00  0.00     0.010 A 
ATOM     12  C   UNL A   1      35.252  32.267  30.686  1.00  0.00     0.010 A 
ATOM     13  C   UNL A   1      36.548  32.622  30.280  1.00  0.00    -0.014 A 
BRANCH  13  14
ATOM     14  C   UNL A   1      37.752  31.961  30.843  1.00  0.00     0.031 A 
ATOM     15  C   UNL A   1      38.225  32.256  32.240  1.00  0.00     0.074 A 
ATOM     16  C   UNL A   1      38.398  31.046  30.094  1.00  0.00     0.049 A 
ATOM     17  N   UNL A   1      39.220  31.721  32.903  1.00  0.00    -0.248 NA
ATOM     18  C   UNL A   1      37.493  33.289  32.991  1.00  0.00     0.031 C 
ATOM     19  C   UNL A   1      38.044  30.685  28.718  1.00  0.00     0.029 A 
ATOM     20  N   UNL A   1      39.464  30.235  30.387  1.00  0.00    -0.354 N 
ATOM     21  C   UNL A   1      39.252  32.366  34.133  1.00  0.00     0.074 A 
ATOM     22  C   UNL A   1      38.188  33.348  34.119  1.00  0.00     0.031 C 
ATOM     23  C   UNL A   1      38.837  29.684  28.310  1.00  0.00     0.029 A 
ATOM     24  C   UNL A   1      39.790  29.372  29.370  1.00  0.00     0.049 A 
ATOM     25  H   UNL A   1      39.949  30.270  31.242  1.00  0.00     0.167 HD
ATOM     26  C   UNL A   1      40.087  32.156  35.179  1.00  0.00     0.037 A 
ATOM     27  C   UNL A   1      40.749  28.433  29.295  1.00  0.00     0.037 A 
ATOM     28  C   UNL A   1      41.128  31.159  35.201  1.00  0.00     0.049 A 
ATOM     29  C   UNL A   1      41.660  28.222  30.468  1.00  0.00     0.074 A 
ATOM     30  C   UNL A   1      41.992  30.836  36.234  1.00  0.00     0.029 A 
ATOM     31  N   UNL A   1      41.449  30.326  34.139  1.00  0.00    -0.354 N 
ATOM     32  N   UNL A   1      41.650  28.812  31.638  1.00  0.00    -0.248 NA
ATOM     33  C   UNL A   1      42.720  27.217  30.307  1.00  0.00     0.031 C 
ATOM     34  C   UNL A   1      42.860  29.835  35.783  1.00  0.00     0.029 A 
ATOM     35  C   UNL A   1      42.511  29.505  34.485  1.00  0.00     0.049 A 
ATOM     36  H   UNL A   1      40.990  30.320  33.268  1.00  0.00     0.167 HD
ATOM     37  C   UNL A   1      42.687  28.240  32.360  1.00  0.00     0.074 A 
ATOM     38  C   UNL A   1      43.294  27.242  31.501  1.00  0.00     0.031 C 
ATOM     39  C   UNL A   1      43.103  28.517  33.619  1.00  0.00     0.037 A 
BRANCH  26  40
ATOM     40  C   UNL A   1      39.926  33.033  36.386  1.00  0.00     0.057 A 
ATOM     41  C   UNL A   1      39.013  32.735  37.405  1.00  0.00     0.134 A 
ATOM     42  C   UNL A   1      40.726  34.172  36.549  1.00  0.00     0.134 A 
ATOM     43  F   UNL A   1      38.210  31.664  37.306  1.00  0.00    -0.206 F 
ATOM     44  C   UNL A   1      38.888  33.546  38.535  1.00  0.00     0.040 A 
ATOM     45  C   UNL A   1      40.626  34.980  37.684  1.00  0.00     0.040 A 
ATOM     46  F   UNL A   1      41.625  34.512  35.613  1.00  0.00    -0.206 F 
ATOM     47  C   UNL A   1      39.701  34.670  38.678  1.00  0.00     0.006 A 
ENDBRANCH  26  40
BRANCH  27  48
ATOM     48  C   UNL A   1      40.882  27.612  28.067  1.00  0.00     0.057 A 
ATOM     49  C   UNL A   1      40.257  26.365  27.963  1.00  0.00     0.134 A 
ATOM     50  C   UNL A   1      41.624  28.058  26.967  1.00  0.00     0.134 A 
ATOM     51  F   UNL A   1      39.546  25.878  28.991  1.00  0.00    -0.206 F 
ATOM     52  C   UNL A   1      40.371  25.585  26.811  1.00  0.00     0.040 A 
ATOM     53  C   UNL A   1      41.726  27.301  25.801  1.00  0.00     0.040 A 
ATOM     54  F   UNL A   1      42.240  29.249  27.005  1.00  0.00    -0.206 F 
ATOM     55  C   UNL A   1      41.103  26.058  25.723  1.00  0.00     0.006 A 
ENDBRANCH  27  48
BRANCH  39  56
ATOM     56  C   UNL A   1      44.248  27.708  34.149  1.00  0.00     0.057 A 
ATOM     57  C   UNL A   1      45.574  28.145  34.037  1.00  0.00     0.134 A 
ATOM     58  C   UNL A   1      44.020  26.482  34.788  1.00  0.00     0.134 A 
ATOM     59  F   UNL A   1      45.857  29.303  33.421  1.00  0.00    -0.206 F 
ATOM     60  C   UNL A   1      46.635  27.380  34.520  1.00  0.00     0.040 A 
ATOM     61  C   UNL A   1      45.072  25.720  35.296  1.00  0.00     0.040 A 
ATOM     62  F   UNL A   1      42.773  26.010  34.932  1.00  0.00    -0.206 F 
ATOM     63  C   UNL A   1      46.386  26.165  35.156  1.00  0.00     0.006 A 
ENDBRANCH  39  56
ENDBRANCH  13  14
ENDBRANCH   6   8
ENDBRANCH   3   4
ENDBRANCH   2   3
ENDBRANCH   1   2
BRANCH   1  64
ATOM     64  C   UNL A   1      33.261  29.604  26.737  1.00  0.00     0.002 C 
BRANCH  64  65
ATOM     65  C   UNL A   1      33.606  28.797  25.478  1.00  0.00     0.021 C 
BRANCH  65  66
ATOM     66  C   UNL A   1      33.009  29.336  24.182  1.00  0.00     0.116 C 
BRANCH  66  67
ATOM     67  N   UNL A   1      32.923  28.303  23.168  1.00  0.00    -0.356 N 
ATOM     68  C   UNL A   1      31.946  27.384  22.943  1.00  0.00     0.229 C 
ATOM     69  H   UNL A   1      33.688  28.261  22.551  1.00  0.00     0.163 HD
ATOM     70  O   UNL A   1      32.102  26.593  22.013  1.00  0.00    -0.275 OA
BRANCH  68  71
ATOM     71  C   UNL A   1      30.728  27.363  23.843  1.00  0.00     0.146 C 
ATOM     72  C   UNL A   1      30.554  25.965  24.411  1.00  0.00     0.274 C 
ATOM     73  C   UNL A   1      29.397  27.611  23.111  1.00  0.00     0.092 C 
ATOM     74  N   UNL A   1      29.168  25.940  24.881  1.00  0.00    -0.345 N 
ATOM     75  C   UNL A   1      28.405  26.711  23.881  1.00  0.00     0.269 C 
ATOM     76  H   UNL A   1      29.094  26.374  25.801  1.00  0.00     0.346 HD
ATOM     77  H   UNL A   1      28.816  24.987  24.978  1.00  0.00     0.346 HD
BRANCH  73  78
ATOM     78  C   UNL A   1      29.099  29.098  22.971  1.00  0.00    -0.035 A 
ATOM     79  C   UNL A   1      28.246  29.522  21.938  1.00  0.00     0.024 A 
ATOM     80  C   UNL A   1      29.615  30.090  23.808  1.00  0.00     0.024 A 
ATOM     81  C   UNL A   1      27.986  30.874  21.769  1.00  0.00     0.111 A 
ATOM     82  C   UNL A   1      29.287  31.420  23.568  1.00  0.00     0.111 A 
ATOM     83  N   UNL A   1      28.495  31.836  22.560  1.00  0.00    -0.265 NA
ENDBRANCH  73  78
ENDBRANCH  68  71
ENDBRANCH  66  67
ENDBRANCH  65  66
ENDBRANCH  64  65
ENDBRANCH   1  64
TORSDOF 14
ENDMDL
