MODEL 1
REMARK VINA RESULT:     -12.9      0.000      0.000
REMARK SMILES Cc1c(C[N@H+]2CC[C@@H](C(=O)NCCCCCCNC(=O)c3ccc(-c4c5nc(c(-c6c(F)cccc6F)c6ccc([nH]6)c(-c6c(F)cccc6F)c6nc(c(-c7c(F)cccc7F)c7ccc4[nH]7)C=C6)C=C5)cc3)[C@@H]2C)cccc1[N+](=O)[O-]
REMARK SMILES IDX 14 1 13 2 12 3 11 4 9 5 10 6 8 8 5 9 6 10 75 11 7 13 76 14
REMARK SMILES IDX 4 15 3 16 1 17 2 18 80 19 77 20 79 21 78 22 81 23 82 24
REMARK SMILES IDX 83 25 15 26 16 27 17 28 18 29 19 30 20 32 21 33 22 34 74 35
REMARK SMILES IDX 23 36 73 37 24 38 25 39 26 40 67 41 27 42 72 43 66 44 68 45
REMARK SMILES IDX 28 46 71 47 65 48 64 49 29 51 55 52 38 53 54 54 39 55 42 56
REMARK SMILES IDX 53 57 69 58 40 59 41 60 52 62 70 63 43 64 30 65 31 66 36 67
REMARK SMILES IDX 32 68 33 69 35 70 37 71 34 72 56 73 57 74 62 75 58 76 59 77
REMARK SMILES IDX 61 78 63 79 60 80 44 81 45 82 50 83 46 84 47 85 49 86 51 87
REMARK SMILES IDX 48 88
REMARK H PARENT 11 7 5 12 18 31 68 50 42 61
REMARK Flexibility Score: inf
ROOT
ATOM      1  C   UNL A   1      33.960  31.188  27.665  1.00  0.00     0.002 C 
ENDROOT
BRANCH   1   2
ATOM      2  C   UNL A   1      33.566  29.530  27.282  1.00  0.00     0.021 C 
BRANCH   2   3
ATOM      3  C   UNL A   1      31.830  28.213  27.606  1.00  0.00     0.116 C 
BRANCH   3   4
ATOM      4  N   UNL A   1      31.415  26.821  26.948  1.00  0.00    -0.356 N 
ATOM      5  C   UNL A   1      31.087  26.393  25.704  1.00  0.00     0.229 C 
ATOM      6  O   UNL A   1      30.739  25.209  25.614  1.00  0.00    -0.275 OA
ATOM      7  H   UNL A   1      31.391  26.091  27.608  1.00  0.00     0.163 HD
BRANCH   5   8
ATOM      8  C   UNL A   1      31.115  27.259  24.455  1.00  0.00     0.142 C 
ATOM      9  N   UNL A   1      32.611  26.944  22.593  1.00  0.00    -0.328 N 
ATOM     10  C   UNL A   1      31.265  26.627  22.119  1.00  0.00     0.263 C 
ATOM     11  C   UNL A   1      32.510  27.568  23.916  1.00  0.00     0.193 C 
ATOM     12  H   UNL A   1      33.007  27.618  21.937  1.00  0.00     0.348 HD
ATOM     13  C   UNL A   1      30.302  26.716  23.295  1.00  0.00     0.081 C 
ATOM     14  C   UNL A   1      32.746  29.072  23.764  1.00  0.00     0.076 C 
BRANCH   9  15
ATOM     15  C   UNL A   1      33.621  25.885  22.476  1.00  0.00     0.299 C 
BRANCH  15  16
ATOM     16  C   UNL A   1      33.238  24.565  23.106  1.00  0.00     0.016 A 
ATOM     17  C   UNL A   1      34.565  25.158  25.554  1.00  0.00     0.052 C 
ATOM     18  C   UNL A   1      33.952  24.083  24.703  1.00  0.00     0.036 A 
ATOM     19  C   UNL A   1      33.804  22.373  25.260  1.00  0.00     0.272 A 
ATOM     20  C   UNL A   1      32.318  23.349  22.117  1.00  0.00     0.010 A 
ATOM     21  C   UNL A   1      32.944  21.149  24.246  1.00  0.00     0.086 A 
ATOM     22  C   UNL A   1      32.181  21.638  22.685  1.00  0.00     0.008 A 
BRANCH  19  23
ATOM     23  N   UNL A   1      34.378  21.905  26.511  1.00  0.00     0.062 N 
ATOM     24  O   UNL A   1      33.658  21.987  27.513  1.00  0.00    -0.258 OA
ATOM     25  O   UNL A   1      35.535  21.479  26.500  1.00  0.00    -0.258 OA
ENDBRANCH  19  23
ENDBRANCH  15  16
ENDBRANCH   9  15
ENDBRANCH   5   8
ENDBRANCH   3   4
ENDBRANCH   2   3
ENDBRANCH   1   2
BRANCH   1  26
ATOM     26  C   UNL A   1      35.432  31.620  27.810  1.00  0.00     0.002 C 
BRANCH  26  27
ATOM     27  C   UNL A   1      35.714  32.568  28.965  1.00  0.00     0.021 C 
BRANCH  27  28
ATOM     28  C   UNL A   1      35.260  32.013  30.294  1.00  0.00     0.116 C 
BRANCH  28  29
ATOM     29  N   UNL A   1      34.378  32.964  30.947  1.00  0.00    -0.352 N 
ATOM     30  C   UNL A   1      34.391  33.437  32.239  1.00  0.00     0.251 C 
ATOM     31  H   UNL A   1      33.662  33.327  30.377  1.00  0.00     0.163 HD
ATOM     32  O   UNL A   1      33.383  33.947  32.717  1.00  0.00    -0.269 OA
BRANCH  30  33
ATOM     33  C   UNL A   1      35.703  33.611  32.909  1.00  0.00     0.039 A 
ATOM     34  C   UNL A   1      36.576  34.367  32.112  1.00  0.00     0.014 A 
ATOM     35  C   UNL A   1      36.185  32.594  33.722  1.00  0.00     0.014 A 
ATOM     36  C   UNL A   1      37.820  33.848  31.819  1.00  0.00     0.010 A 
ATOM     37  C   UNL A   1      37.358  31.997  33.335  1.00  0.00     0.010 A 
ATOM     38  C   UNL A   1      38.130  32.594  32.332  1.00  0.00    -0.014 A 
BRANCH  38  39
ATOM     39  C   UNL A   1      39.369  31.911  32.050  1.00  0.00     0.031 A 
ATOM     40  C   UNL A   1      39.219  30.663  31.293  1.00  0.00     0.074 A 
ATOM     41  C   UNL A   1      40.554  32.451  32.394  1.00  0.00     0.049 A 
ATOM     42  N   UNL A   1      40.108  29.747  31.225  1.00  0.00    -0.248 NA
ATOM     43  C   UNL A   1      37.978  30.317  30.603  1.00  0.00     0.031 C 
ATOM     44  C   UNL A   1      41.891  32.021  31.999  1.00  0.00     0.029 A 
ATOM     45  N   UNL A   1      40.782  33.401  33.396  1.00  0.00    -0.354 N 
ATOM     46  C   UNL A   1      39.694  28.840  30.276  1.00  0.00     0.074 A 
ATOM     47  C   UNL A   1      38.322  29.176  30.007  1.00  0.00     0.031 C 
ATOM     48  C   UNL A   1      42.770  32.443  32.927  1.00  0.00     0.029 A 
ATOM     49  C   UNL A   1      41.994  33.013  34.017  1.00  0.00     0.049 A 
ATOM     50  H   UNL A   1      40.218  34.177  33.622  1.00  0.00     0.167 HD
ATOM     51  C   UNL A   1      40.636  28.009  29.756  1.00  0.00     0.037 A 
ATOM     52  C   UNL A   1      41.971  32.537  35.299  1.00  0.00     0.037 A 
ATOM     53  C   UNL A   1      41.878  28.137  30.527  1.00  0.00     0.049 A 
ATOM     54  C   UNL A   1      42.367  31.071  35.412  1.00  0.00     0.074 A 
ATOM     55  C   UNL A   1      43.054  28.853  30.368  1.00  0.00     0.029 A 
ATOM     56  N   UNL A   1      41.840  27.779  31.864  1.00  0.00    -0.354 N 
ATOM     57  N   UNL A   1      42.554  30.269  34.395  1.00  0.00    -0.248 NA
ATOM     58  C   UNL A   1      42.512  30.378  36.690  1.00  0.00     0.031 C 
ATOM     59  C   UNL A   1      43.703  28.928  31.641  1.00  0.00     0.029 A 
ATOM     60  C   UNL A   1      42.940  28.231  32.562  1.00  0.00     0.049 A 
ATOM     61  H   UNL A   1      41.109  27.260  32.271  1.00  0.00     0.167 HD
ATOM     62  C   UNL A   1      42.805  28.995  34.840  1.00  0.00     0.074 A 
ATOM     63  C   UNL A   1      42.740  29.115  36.288  1.00  0.00     0.031 C 
ATOM     64  C   UNL A   1      43.017  27.939  33.988  1.00  0.00     0.037 A 
BRANCH  51  65
ATOM     65  C   UNL A   1      40.521  27.261  28.446  1.00  0.00     0.057 A 
ATOM     66  C   UNL A   1      39.748  26.084  28.387  1.00  0.00     0.134 A 
ATOM     67  C   UNL A   1      41.181  27.565  27.239  1.00  0.00     0.134 A 
ATOM     68  F   UNL A   1      39.007  25.678  29.427  1.00  0.00    -0.206 F 
ATOM     69  C   UNL A   1      39.701  25.253  27.260  1.00  0.00     0.040 A 
ATOM     70  C   UNL A   1      41.161  26.732  26.112  1.00  0.00     0.040 A 
ATOM     71  F   UNL A   1      41.857  28.698  27.050  1.00  0.00    -0.206 F 
ATOM     72  C   UNL A   1      40.426  25.562  26.122  1.00  0.00     0.006 A 
ENDBRANCH  51  65
BRANCH  52  73
ATOM     73  C   UNL A   1      40.923  33.229  36.116  1.00  0.00     0.057 A 
ATOM     74  C   UNL A   1      39.747  32.514  36.428  1.00  0.00     0.134 A 
ATOM     75  C   UNL A   1      41.243  34.307  36.945  1.00  0.00     0.134 A 
ATOM     76  F   UNL A   1      39.363  31.481  35.660  1.00  0.00    -0.206 F 
ATOM     77  C   UNL A   1      39.041  32.734  37.615  1.00  0.00     0.040 A 
ATOM     78  C   UNL A   1      40.520  34.557  38.120  1.00  0.00     0.040 A 
ATOM     79  F   UNL A   1      42.334  35.050  36.712  1.00  0.00    -0.206 F 
ATOM     80  C   UNL A   1      39.458  33.731  38.488  1.00  0.00     0.006 A 
ENDBRANCH  52  73
BRANCH  64  81
ATOM     81  C   UNL A   1      43.256  26.507  34.430  1.00  0.00     0.057 A 
ATOM     82  C   UNL A   1      44.473  25.838  34.249  1.00  0.00     0.134 A 
ATOM     83  C   UNL A   1      42.230  25.708  34.993  1.00  0.00     0.134 A 
ATOM     84  F   UNL A   1      45.482  26.401  33.570  1.00  0.00    -0.206 F 
ATOM     85  C   UNL A   1      44.694  24.534  34.718  1.00  0.00     0.040 A 
ATOM     86  C   UNL A   1      42.421  24.391  35.415  1.00  0.00     0.040 A 
ATOM     87  F   UNL A   1      40.983  26.156  35.177  1.00  0.00    -0.206 F 
ATOM     88  C   UNL A   1      43.669  23.809  35.313  1.00  0.00     0.006 A 
ENDBRANCH  64  81
ENDBRANCH  38  39
ENDBRANCH  30  33
ENDBRANCH  28  29
ENDBRANCH  27  28
ENDBRANCH  26  27
ENDBRANCH   1  26
TORSDOF 16
ENDMDL
MODEL 2
REMARK VINA RESULT:     -12.8      2.553      4.878
REMARK SMILES Cc1c(C[N@H+]2CC[C@@H](C(=O)NCCCCCCNC(=O)c3ccc(-c4c5nc(c(-c6c(F)cccc6F)c6ccc([nH]6)c(-c6c(F)cccc6F)c6nc(c(-c7c(F)cccc7F)c7ccc4[nH]7)C=C6)C=C5)cc3)[C@@H]2C)cccc1[N+](=O)[O-]
REMARK SMILES IDX 14 1 13 2 12 3 11 4 9 5 10 6 8 8 5 9 6 10 75 11 7 13 76 14
REMARK SMILES IDX 4 15 3 16 1 17 2 18 80 19 77 20 79 21 78 22 81 23 82 24
REMARK SMILES IDX 83 25 15 26 16 27 17 28 18 29 19 30 20 32 21 33 22 34 74 35
REMARK SMILES IDX 23 36 73 37 24 38 25 39 26 40 67 41 27 42 72 43 66 44 68 45
REMARK SMILES IDX 28 46 71 47 65 48 64 49 29 51 55 52 38 53 54 54 39 55 42 56
REMARK SMILES IDX 53 57 69 58 40 59 41 60 52 62 70 63 43 64 30 65 31 66 36 67
REMARK SMILES IDX 32 68 33 69 35 70 37 71 34 72 56 73 57 74 62 75 58 76 59 77
REMARK SMILES IDX 61 78 63 79 60 80 44 81 45 82 50 83 46 84 47 85 49 86 51 87
REMARK SMILES IDX 48 88
REMARK H PARENT 11 7 5 12 18 31 68 50 42 61
REMARK Flexibility Score: inf
ROOT
ATOM      1  C   UNL A   1      34.146  28.658  26.808  1.00  0.00     0.002 C 
ENDROOT
BRANCH   1   2
ATOM      2  C   UNL A   1      33.747  27.270  25.825  1.00  0.00     0.021 C 
BRANCH   2   3
ATOM      3  C   UNL A   1      34.397  25.168  25.739  1.00  0.00     0.116 C 
BRANCH   3   4
ATOM      4  N   UNL A   1      35.447  24.417  24.802  1.00  0.00    -0.356 N 
ATOM      5  C   UNL A   1      35.945  23.159  24.713  1.00  0.00     0.229 C 
ATOM      6  O   UNL A   1      36.833  22.988  23.868  1.00  0.00    -0.275 OA
ATOM      7  H   UNL A   1      35.829  25.014  24.119  1.00  0.00     0.163 HD
BRANCH   5   8
ATOM      8  C   UNL A   1      35.493  21.986  25.568  1.00  0.00     0.142 C 
ATOM      9  N   UNL A   1      33.375  20.860  25.354  1.00  0.00    -0.328 N 
ATOM     10  C   UNL A   1      34.407  19.915  24.931  1.00  0.00     0.263 C 
ATOM     11  C   UNL A   1      34.023  22.017  25.979  1.00  0.00     0.193 C 
ATOM     12  H   UNL A   1      32.802  20.383  26.051  1.00  0.00     0.348 HD
ATOM     13  C   UNL A   1      35.754  20.623  24.955  1.00  0.00     0.081 C 
ATOM     14  C   UNL A   1      33.849  21.911  27.496  1.00  0.00     0.076 C 
BRANCH   9  15
ATOM     15  C   UNL A   1      32.329  21.181  24.375  1.00  0.00     0.299 C 
BRANCH  15  16
ATOM     16  C   UNL A   1      32.320  22.617  23.899  1.00  0.00     0.016 A 
ATOM     17  C   UNL A   1      30.611  23.480  26.005  1.00  0.00     0.052 C 
ATOM     18  C   UNL A   1      31.195  23.818  24.662  1.00  0.00     0.036 A 
ATOM     19  C   UNL A   1      30.907  25.403  23.851  1.00  0.00     0.272 A 
ATOM     20  C   UNL A   1      33.204  23.044  22.369  1.00  0.00     0.010 A 
ATOM     21  C   UNL A   1      31.738  25.802  22.297  1.00  0.00     0.086 A 
ATOM     22  C   UNL A   1      32.904  24.634  21.564  1.00  0.00     0.008 A 
BRANCH  19  23
ATOM     23  N   UNL A   1      29.995  26.401  24.385  1.00  0.00     0.062 N 
ATOM     24  O   UNL A   1      28.821  26.337  24.002  1.00  0.00    -0.258 OA
ATOM     25  O   UNL A   1      30.444  27.248  25.161  1.00  0.00    -0.258 OA
ENDBRANCH  19  23
ENDBRANCH  15  16
ENDBRANCH   9  15
ENDBRANCH   5   8
ENDBRANCH   3   4
ENDBRANCH   2   3
ENDBRANCH   1   2
BRANCH   1  26
ATOM     26  C   UNL A   1      33.032  29.596  27.312  1.00  0.00     0.002 C 
BRANCH  26  27
ATOM     27  C   UNL A   1      33.500  30.973  27.755  1.00  0.00     0.021 C 
BRANCH  27  28
ATOM     28  C   UNL A   1      34.941  31.240  27.389  1.00  0.00     0.116 C 
BRANCH  28  29
ATOM     29  N   UNL A   1      35.677  31.657  28.570  1.00  0.00    -0.352 N 
ATOM     30  C   UNL A   1      36.293  30.900  29.540  1.00  0.00     0.251 C 
ATOM     31  H   UNL A   1      35.745  32.632  28.695  1.00  0.00     0.163 HD
ATOM     32  O   UNL A   1      36.550  31.393  30.633  1.00  0.00    -0.269 OA
BRANCH  30  33
ATOM     33  C   UNL A   1      36.916  29.616  29.136  1.00  0.00     0.039 A 
ATOM     34  C   UNL A   1      37.171  28.810  30.256  1.00  0.00     0.014 A 
ATOM     35  C   UNL A   1      37.765  29.594  28.038  1.00  0.00     0.014 A 
ATOM     36  C   UNL A   1      38.448  28.323  30.442  1.00  0.00     0.010 A 
ATOM     37  C   UNL A   1      39.069  29.238  28.272  1.00  0.00     0.010 A 
ATOM     38  C   UNL A   1      39.412  28.671  29.504  1.00  0.00    -0.014 A 
BRANCH  38  39
ATOM     39  C   UNL A   1      40.797  28.283  29.615  1.00  0.00     0.031 A 
ATOM     40  C   UNL A   1      41.106  26.962  29.056  1.00  0.00     0.074 A 
ATOM     41  C   UNL A   1      41.718  29.128  30.119  1.00  0.00     0.049 A 
ATOM     42  N   UNL A   1      42.156  26.287  29.334  1.00  0.00    -0.248 NA
ATOM     43  C   UNL A   1      40.180  26.254  28.175  1.00  0.00     0.031 C 
ATOM     44  C   UNL A   1      43.170  28.995  30.102  1.00  0.00     0.029 A 
ATOM     45  N   UNL A   1      41.483  30.206  30.980  1.00  0.00    -0.354 N 
ATOM     46  C   UNL A   1      42.192  25.211  28.476  1.00  0.00     0.074 A 
ATOM     47  C   UNL A   1      40.893  25.174  27.862  1.00  0.00     0.031 C 
ATOM     48  C   UNL A   1      43.680  29.713  31.119  1.00  0.00     0.029 A 
ATOM     49  C   UNL A   1      42.554  30.191  31.905  1.00  0.00     0.049 A 
ATOM     50  H   UNL A   1      40.730  30.841  30.948  1.00  0.00     0.167 HD
ATOM     51  C   UNL A   1      43.388  24.582  28.316  1.00  0.00     0.037 A 
ATOM     52  C   UNL A   1      42.310  29.864  33.211  1.00  0.00     0.037 A 
ATOM     53  C   UNL A   1      44.341  25.089  29.310  1.00  0.00     0.049 A 
ATOM     54  C   UNL A   1      42.964  28.557  33.644  1.00  0.00     0.074 A 
ATOM     55  C   UNL A   1      45.342  26.047  29.299  1.00  0.00     0.029 A 
ATOM     56  N   UNL A   1      44.046  24.878  30.646  1.00  0.00    -0.354 N 
ATOM     57  N   UNL A   1      43.564  27.722  32.836  1.00  0.00    -0.248 NA
ATOM     58  C   UNL A   1      42.926  28.061  35.017  1.00  0.00     0.031 C 
ATOM     59  C   UNL A   1      45.621  26.413  30.654  1.00  0.00     0.029 A 
ATOM     60  C   UNL A   1      44.815  25.654  31.485  1.00  0.00     0.049 A 
ATOM     61  H   UNL A   1      43.361  24.243  30.961  1.00  0.00     0.167 HD
ATOM     62  C   UNL A   1      43.957  26.601  33.525  1.00  0.00     0.074 A 
ATOM     63  C   UNL A   1      43.507  26.856  34.884  1.00  0.00     0.031 C 
ATOM     64  C   UNL A   1      44.592  25.544  32.922  1.00  0.00     0.037 A 
BRANCH  51  65
ATOM     65  C   UNL A   1      43.764  23.693  27.152  1.00  0.00     0.057 A 
ATOM     66  C   UNL A   1      44.474  24.240  26.064  1.00  0.00     0.134 A 
ATOM     67  C   UNL A   1      43.413  22.340  26.975  1.00  0.00     0.134 A 
ATOM     68  F   UNL A   1      44.938  25.496  26.090  1.00  0.00    -0.206 F 
ATOM     69  C   UNL A   1      44.738  23.530  24.886  1.00  0.00     0.040 A 
ATOM     70  C   UNL A   1      43.651  21.624  25.793  1.00  0.00     0.040 A 
ATOM     71  F   UNL A   1      42.852  21.606  27.936  1.00  0.00    -0.206 F 
ATOM     72  C   UNL A   1      44.308  22.222  24.736  1.00  0.00     0.006 A 
ENDBRANCH  51  65
BRANCH  52  73
ATOM     73  C   UNL A   1      40.970  30.365  33.655  1.00  0.00     0.057 A 
ATOM     74  C   UNL A   1      40.801  31.758  33.804  1.00  0.00     0.134 A 
ATOM     75  C   UNL A   1      39.813  29.607  33.469  1.00  0.00     0.134 A 
ATOM     76  F   UNL A   1      41.868  32.549  34.011  1.00  0.00    -0.206 F 
ATOM     77  C   UNL A   1      39.570  32.382  33.578  1.00  0.00     0.040 A 
ATOM     78  C   UNL A   1      38.568  30.221  33.276  1.00  0.00     0.040 A 
ATOM     79  F   UNL A   1      39.880  28.275  33.336  1.00  0.00    -0.206 F 
ATOM     80  C   UNL A   1      38.457  31.611  33.267  1.00  0.00     0.006 A 
ENDBRANCH  52  73
BRANCH  64  81
ATOM     81  C   UNL A   1      45.008  24.267  33.631  1.00  0.00     0.057 A 
ATOM     82  C   UNL A   1      46.339  23.946  33.920  1.00  0.00     0.134 A 
ATOM     83  C   UNL A   1      44.075  23.261  33.985  1.00  0.00     0.134 A 
ATOM     84  F   UNL A   1      47.350  24.713  33.489  1.00  0.00    -0.206 F 
ATOM     85  C   UNL A   1      46.699  22.790  34.630  1.00  0.00     0.040 A 
ATOM     86  C   UNL A   1      44.426  22.081  34.643  1.00  0.00     0.040 A 
ATOM     87  F   UNL A   1      42.766  23.362  33.724  1.00  0.00    -0.206 F 
ATOM     88  C   UNL A   1      45.740  21.857  35.003  1.00  0.00     0.006 A 
ENDBRANCH  64  81
ENDBRANCH  38  39
ENDBRANCH  30  33
ENDBRANCH  28  29
ENDBRANCH  27  28
ENDBRANCH  26  27
ENDBRANCH   1  26
TORSDOF 16
ENDMDL
MODEL 3
REMARK VINA RESULT:     -12.8      1.596      2.279
REMARK SMILES Cc1c(C[N@H+]2CC[C@@H](C(=O)NCCCCCCNC(=O)c3ccc(-c4c5nc(c(-c6c(F)cccc6F)c6ccc([nH]6)c(-c6c(F)cccc6F)c6nc(c(-c7c(F)cccc7F)c7ccc4[nH]7)C=C6)C=C5)cc3)[C@@H]2C)cccc1[N+](=O)[O-]
REMARK SMILES IDX 14 1 13 2 12 3 11 4 9 5 10 6 8 8 5 9 6 10 75 11 7 13 76 14
REMARK SMILES IDX 4 15 3 16 1 17 2 18 80 19 77 20 79 21 78 22 81 23 82 24
REMARK SMILES IDX 83 25 15 26 16 27 17 28 18 29 19 30 20 32 21 33 22 34 74 35
REMARK SMILES IDX 23 36 73 37 24 38 25 39 26 40 67 41 27 42 72 43 66 44 68 45
REMARK SMILES IDX 28 46 71 47 65 48 64 49 29 51 55 52 38 53 54 54 39 55 42 56
REMARK SMILES IDX 53 57 69 58 40 59 41 60 52 62 70 63 43 64 30 65 31 66 36 67
REMARK SMILES IDX 32 68 33 69 35 70 37 71 34 72 56 73 57 74 62 75 58 76 59 77
REMARK SMILES IDX 61 78 63 79 60 80 44 81 45 82 50 83 46 84 47 85 49 86 51 87
REMARK SMILES IDX 48 88
REMARK H PARENT 11 7 5 12 18 31 68 50 42 61
REMARK Flexibility Score: inf
ROOT
ATOM      1  C   UNL A   1      33.771  35.016  29.594  1.00  0.00     0.002 C 
ENDROOT
BRANCH   1   2
ATOM      2  C   UNL A   1      33.027  34.268  28.200  1.00  0.00     0.021 C 
BRANCH   2   3
ATOM      3  C   UNL A   1      32.922  32.227  27.382  1.00  0.00     0.116 C 
BRANCH   3   4
ATOM      4  N   UNL A   1      33.863  30.953  27.576  1.00  0.00    -0.356 N 
ATOM      5  C   UNL A   1      33.989  29.739  26.987  1.00  0.00     0.229 C 
ATOM      6  O   UNL A   1      34.820  28.976  27.495  1.00  0.00    -0.275 OA
ATOM      7  H   UNL A   1      34.514  31.081  28.303  1.00  0.00     0.163 HD
BRANCH   5   8
ATOM      8  C   UNL A   1      33.189  29.274  25.781  1.00  0.00     0.142 C 
ATOM      9  N   UNL A   1      32.540  26.994  25.354  1.00  0.00    -0.328 N 
ATOM     10  C   UNL A   1      31.317  27.739  25.645  1.00  0.00     0.263 C 
ATOM     11  C   UNL A   1      33.642  27.945  25.181  1.00  0.00     0.193 C 
ATOM     12  H   UNL A   1      32.386  26.501  24.474  1.00  0.00     0.348 HD
ATOM     13  C   UNL A   1      31.695  29.166  26.021  1.00  0.00     0.081 C 
ATOM     14  C   UNL A   1      33.951  28.066  23.687  1.00  0.00     0.076 C 
BRANCH   9  15
ATOM     15  C   UNL A   1      32.836  25.843  26.216  1.00  0.00     0.299 C 
BRANCH  15  16
ATOM     16  C   UNL A   1      33.458  24.659  25.509  1.00  0.00     0.016 A 
ATOM     17  C   UNL A   1      30.940  23.459  24.946  1.00  0.00     0.052 C 
ATOM     18  C   UNL A   1      32.425  23.250  25.022  1.00  0.00     0.036 A 
ATOM     19  C   UNL A   1      33.212  21.699  24.540  1.00  0.00     0.272 A 
ATOM     20  C   UNL A   1      35.270  24.527  25.439  1.00  0.00     0.010 A 
ATOM     21  C   UNL A   1      35.012  21.548  24.531  1.00  0.00     0.086 A 
ATOM     22  C   UNL A   1      36.045  22.966  24.958  1.00  0.00     0.008 A 
BRANCH  19  23
ATOM     23  N   UNL A   1      32.450  20.518  24.169  1.00  0.00     0.062 N 
ATOM     24  O   UNL A   1      32.164  20.400  22.972  1.00  0.00    -0.258 OA
ATOM     25  O   UNL A   1      32.126  19.728  25.058  1.00  0.00    -0.258 OA
ENDBRANCH  19  23
ENDBRANCH  15  16
ENDBRANCH   9  15
ENDBRANCH   5   8
ENDBRANCH   3   4
ENDBRANCH   2   3
ENDBRANCH   1   2
BRANCH   1  26
ATOM     26  C   UNL A   1      33.247  36.366  30.120  1.00  0.00     0.002 C 
BRANCH  26  27
ATOM     27  C   UNL A   1      32.575  36.310  31.482  1.00  0.00     0.021 C 
BRANCH  27  28
ATOM     28  C   UNL A   1      33.520  35.873  32.577  1.00  0.00     0.116 C 
BRANCH  28  29
ATOM     29  N   UNL A   1      33.439  34.434  32.748  1.00  0.00    -0.352 N 
ATOM     30  C   UNL A   1      34.414  33.472  32.616  1.00  0.00     0.251 C 
ATOM     31  H   UNL A   1      32.549  34.093  32.998  1.00  0.00     0.163 HD
ATOM     32  O   UNL A   1      34.102  32.298  32.445  1.00  0.00    -0.269 OA
BRANCH  30  33
ATOM     33  C   UNL A   1      35.803  33.825  33.002  1.00  0.00     0.039 A 
ATOM     34  C   UNL A   1      36.511  34.343  31.907  1.00  0.00     0.014 A 
ATOM     35  C   UNL A   1      36.448  33.066  33.970  1.00  0.00     0.014 A 
ATOM     36  C   UNL A   1      37.720  33.769  31.571  1.00  0.00     0.010 A 
ATOM     37  C   UNL A   1      37.576  32.392  33.575  1.00  0.00     0.010 A 
ATOM     38  C   UNL A   1      38.160  32.700  32.342  1.00  0.00    -0.014 A 
BRANCH  38  39
ATOM     39  C   UNL A   1      39.373  31.972  32.060  1.00  0.00     0.031 A 
ATOM     40  C   UNL A   1      39.174  30.717  31.326  1.00  0.00     0.074 A 
ATOM     41  C   UNL A   1      40.579  32.478  32.383  1.00  0.00     0.049 A 
ATOM     42  N   UNL A   1      40.032  29.771  31.266  1.00  0.00    -0.248 NA
ATOM     43  C   UNL A   1      37.916  30.401  30.653  1.00  0.00     0.031 C 
ATOM     44  C   UNL A   1      41.897  31.997  31.984  1.00  0.00     0.029 A 
ATOM     45  N   UNL A   1      40.848  33.437  33.368  1.00  0.00    -0.354 N 
ATOM     46  C   UNL A   1      39.579  28.863  30.337  1.00  0.00     0.074 A 
ATOM     47  C   UNL A   1      38.216  29.240  30.075  1.00  0.00     0.031 C 
ATOM     48  C   UNL A   1      42.798  32.405  32.896  1.00  0.00     0.029 A 
ATOM     49  C   UNL A   1      42.053  33.019  33.983  1.00  0.00     0.049 A 
ATOM     50  H   UNL A   1      40.312  34.234  33.585  1.00  0.00     0.167 HD
ATOM     51  C   UNL A   1      40.488  27.992  29.821  1.00  0.00     0.037 A 
ATOM     52  C   UNL A   1      42.026  32.566  35.273  1.00  0.00     0.037 A 
ATOM     53  C   UNL A   1      41.741  28.092  30.579  1.00  0.00     0.049 A 
ATOM     54  C   UNL A   1      42.374  31.089  35.408  1.00  0.00     0.074 A 
ATOM     55  C   UNL A   1      42.938  28.765  30.397  1.00  0.00     0.029 A 
ATOM     56  N   UNL A   1      41.705  27.758  31.922  1.00  0.00    -0.354 N 
ATOM     57  N   UNL A   1      42.525  30.265  34.404  1.00  0.00    -0.248 NA
ATOM     58  C   UNL A   1      42.509  30.413  36.697  1.00  0.00     0.031 C 
ATOM     59  C   UNL A   1      43.602  28.841  31.662  1.00  0.00     0.029 A 
ATOM     60  C   UNL A   1      42.825  28.185  32.602  1.00  0.00     0.049 A 
ATOM     61  H   UNL A   1      40.960  27.270  32.345  1.00  0.00     0.167 HD
ATOM     62  C   UNL A   1      42.739  28.990  34.868  1.00  0.00     0.074 A 
ATOM     63  C   UNL A   1      42.692  29.137  36.314  1.00  0.00     0.031 C 
ATOM     64  C   UNL A   1      42.907  27.914  34.032  1.00  0.00     0.037 A 
BRANCH  51  65
ATOM     65  C   UNL A   1      40.335  27.226  28.526  1.00  0.00     0.057 A 
ATOM     66  C   UNL A   1      39.555  26.053  28.503  1.00  0.00     0.134 A 
ATOM     67  C   UNL A   1      40.966  27.510  27.298  1.00  0.00     0.134 A 
ATOM     68  F   UNL A   1      38.837  25.667  29.567  1.00  0.00    -0.206 F 
ATOM     69  C   UNL A   1      39.474  25.206  27.390  1.00  0.00     0.040 A 
ATOM     70  C   UNL A   1      40.912  26.660  26.184  1.00  0.00     0.040 A 
ATOM     71  F   UNL A   1      41.644  28.635  27.076  1.00  0.00    -0.206 F 
ATOM     72  C   UNL A   1      40.172  25.495  26.229  1.00  0.00     0.006 A 
ENDBRANCH  51  65
BRANCH  52  73
ATOM     73  C   UNL A   1      41.010  33.306  36.088  1.00  0.00     0.057 A 
ATOM     74  C   UNL A   1      39.856  32.607  36.502  1.00  0.00     0.134 A 
ATOM     75  C   UNL A   1      41.357  34.440  36.827  1.00  0.00     0.134 A 
ATOM     76  F   UNL A   1      39.447  31.521  35.825  1.00  0.00    -0.206 F 
ATOM     77  C   UNL A   1      39.202  32.903  37.702  1.00  0.00     0.040 A 
ATOM     78  C   UNL A   1      40.685  34.765  38.013  1.00  0.00     0.040 A 
ATOM     79  F   UNL A   1      42.429  35.172  36.494  1.00  0.00    -0.206 F 
ATOM     80  C   UNL A   1      39.649  33.960  38.485  1.00  0.00     0.006 A 
ENDBRANCH  52  73
BRANCH  64  81
ATOM     81  C   UNL A   1      43.103  26.482  34.496  1.00  0.00     0.057 A 
ATOM     82  C   UNL A   1      44.251  25.732  34.216  1.00  0.00     0.134 A 
ATOM     83  C   UNL A   1      42.093  25.767  35.187  1.00  0.00     0.134 A 
ATOM     84  F   UNL A   1      45.218  26.211  33.419  1.00  0.00    -0.206 F 
ATOM     85  C   UNL A   1      44.440  24.430  34.705  1.00  0.00     0.040 A 
ATOM     86  C   UNL A   1      42.247  24.453  35.632  1.00  0.00     0.040 A 
ATOM     87  F   UNL A   1      40.901  26.298  35.481  1.00  0.00    -0.206 F 
ATOM     88  C   UNL A   1      43.440  23.789  35.424  1.00  0.00     0.006 A 
ENDBRANCH  64  81
ENDBRANCH  38  39
ENDBRANCH  30  33
ENDBRANCH  28  29
ENDBRANCH  27  28
ENDBRANCH  26  27
ENDBRANCH   1  26
TORSDOF 16
ENDMDL
