MODEL 1
REMARK VINA RESULT:     -11.9      0.000      0.000
REMARK SMILES CC(=O)Nc1ccc2sc(C(=O)NCCCCCCNC(=O)c3ccc(-c4c5nc(c(-c6c(F)cccc6F)c6ccc([nH]6)c(-c6c(F)cccc6F)c6nc(c(-c7c(F)cccc7F)c7ccc4[nH]7)C=C6)C=C5)cc3)cc2c1
REMARK SMILES IDX 17 1 16 2 15 3 14 4 13 5 11 6 12 7 10 9 5 10 6 11 79 12 7 13
REMARK SMILES IDX 78 14 8 15 77 16 9 17 4 18 1 19 2 20 3 21 18 23 19 24 20 25
REMARK SMILES IDX 21 26 22 28 23 29 24 30 76 31 25 32 75 33 26 34 27 35 28 36
REMARK SMILES IDX 69 37 29 38 74 39 68 40 70 41 30 42 73 43 67 44 66 45 31 47
REMARK SMILES IDX 57 48 40 49 56 50 41 51 44 52 55 53 71 54 42 55 43 56 54 58
REMARK SMILES IDX 72 59 45 60 32 61 33 62 38 63 34 64 35 65 37 66 39 67 36 68
REMARK SMILES IDX 58 69 59 70 64 71 60 72 61 73 63 74 65 75 62 76 46 77 47 78
REMARK SMILES IDX 52 79 48 80 49 81 51 82 53 83 50 84
REMARK H PARENT 13 8 4 22 20 27 70 46 44 57
REMARK Flexibility Score: inf
ROOT
ATOM      1  C   UNL A   1      36.483  20.756  24.916  1.00  0.00     0.002 C 
ENDROOT
BRANCH   1   2
ATOM      2  C   UNL A   1      36.578  21.993  24.012  1.00  0.00     0.002 C 
BRANCH   2   3
ATOM      3  C   UNL A   1      36.682  23.334  24.753  1.00  0.00     0.021 C 
BRANCH   3   4
ATOM      4  C   UNL A   1      36.041  23.311  26.141  1.00  0.00     0.116 C 
BRANCH   4   5
ATOM      5  N   UNL A   1      34.768  24.005  26.132  1.00  0.00    -0.351 N 
ATOM      6  C   UNL A   1      33.497  23.662  25.743  1.00  0.00     0.261 C 
ATOM      7  O   UNL A   1      32.656  24.551  25.917  1.00  0.00    -0.268 OA
ATOM      8  H   UNL A   1      34.829  24.923  26.482  1.00  0.00     0.163 HD
BRANCH   6   9
ATOM      9  C   UNL A   1      33.110  22.359  25.216  1.00  0.00     0.093 A 
ATOM     10  C   UNL A   1      32.554  17.650  24.635  1.00  0.00     0.041 A 
ATOM     11  C   UNL A   1      32.365  18.000  23.302  1.00  0.00     0.027 A 
ATOM     12  C   UNL A   1      32.709  18.656  25.599  1.00  0.00     0.035 A 
ATOM     13  C   UNL A   1      32.351  19.340  22.905  1.00  0.00     0.022 A 
ATOM     14  C   UNL A   1      32.771  20.018  25.213  1.00  0.00    -0.005 A 
ATOM     15  C   UNL A   1      32.566  20.335  23.873  1.00  0.00     0.035 A 
ATOM     16  C   UNL A   1      33.058  21.197  25.974  1.00  0.00     0.034 A 
ATOM     17  S   UNL A   1      32.586  22.029  23.633  1.00  0.00    -0.130 S 
BRANCH  10  18
ATOM     18  N   UNL A   1      32.546  16.322  25.086  1.00  0.00    -0.326 N 
ATOM     19  C   UNL A   1      34.994  15.911  25.222  1.00  0.00     0.114 C 
ATOM     20  C   UNL A   1      33.569  15.425  25.223  1.00  0.00     0.221 C 
ATOM     21  O   UNL A   1      33.306  14.240  25.427  1.00  0.00    -0.275 OA
ATOM     22  H   UNL A   1      31.660  15.980  25.346  1.00  0.00     0.169 HD
ENDBRANCH  10  18
ENDBRANCH   6   9
ENDBRANCH   4   5
ENDBRANCH   3   4
ENDBRANCH   2   3
ENDBRANCH   1   2
BRANCH   1  23
ATOM     23  C   UNL A   1      37.713  19.844  24.902  1.00  0.00     0.021 C 
BRANCH  23  24
ATOM     24  C   UNL A   1      38.891  20.358  25.722  1.00  0.00     0.116 C 
BRANCH  24  25
ATOM     25  N   UNL A   1      39.965  19.380  25.798  1.00  0.00    -0.352 N 
ATOM     26  C   UNL A   1      41.292  19.565  26.084  1.00  0.00     0.251 C 
ATOM     27  H   UNL A   1      39.701  18.450  25.618  1.00  0.00     0.163 HD
ATOM     28  O   UNL A   1      42.098  18.654  25.895  1.00  0.00    -0.269 OA
BRANCH  26  29
ATOM     29  C   UNL A   1      41.766  20.864  26.606  1.00  0.00     0.039 A 
ATOM     30  C   UNL A   1      42.212  21.833  25.704  1.00  0.00     0.014 A 
ATOM     31  C   UNL A   1      41.794  21.117  27.981  1.00  0.00     0.014 A 
ATOM     32  C   UNL A   1      42.636  23.077  26.177  1.00  0.00     0.010 A 
ATOM     33  C   UNL A   1      42.156  22.379  28.446  1.00  0.00     0.010 A 
ATOM     34  C   UNL A   1      42.582  23.369  27.549  1.00  0.00    -0.014 A 
BRANCH  34  35
ATOM     35  C   UNL A   1      42.968  24.708  28.063  1.00  0.00     0.031 A 
ATOM     36  C   UNL A   1      41.917  25.750  28.326  1.00  0.00     0.074 A 
ATOM     37  C   UNL A   1      44.271  25.004  28.231  1.00  0.00     0.049 A 
ATOM     38  N   UNL A   1      42.065  26.993  28.711  1.00  0.00    -0.248 NA
ATOM     39  C   UNL A   1      40.519  25.353  28.105  1.00  0.00     0.031 C 
ATOM     40  C   UNL A   1      45.387  24.094  27.965  1.00  0.00     0.029 A 
ATOM     41  N   UNL A   1      44.879  26.158  28.657  1.00  0.00    -0.354 N 
ATOM     42  C   UNL A   1      40.785  27.528  28.761  1.00  0.00     0.074 A 
ATOM     43  C   UNL A   1      39.875  26.491  28.324  1.00  0.00     0.031 C 
ATOM     44  C   UNL A   1      46.541  24.719  28.247  1.00  0.00     0.029 A 
ATOM     45  C   UNL A   1      46.250  26.081  28.681  1.00  0.00     0.049 A 
ATOM     46  H   UNL A   1      44.380  26.965  28.918  1.00  0.00     0.167 HD
ATOM     47  C   UNL A   1      40.399  28.765  29.156  1.00  0.00     0.037 A 
ATOM     48  C   UNL A   1      47.171  27.008  29.009  1.00  0.00     0.037 A 
ATOM     49  C   UNL A   1      41.303  29.785  29.619  1.00  0.00     0.049 A 
ATOM     50  C   UNL A   1      46.716  28.372  29.450  1.00  0.00     0.074 A 
ATOM     51  C   UNL A   1      41.003  31.047  30.103  1.00  0.00     0.029 A 
ATOM     52  N   UNL A   1      42.683  29.661  29.653  1.00  0.00    -0.354 N 
ATOM     53  N   UNL A   1      45.495  28.840  29.560  1.00  0.00    -0.248 NA
ATOM     54  C   UNL A   1      47.764  29.334  29.818  1.00  0.00     0.031 C 
ATOM     55  C   UNL A   1      42.205  31.702  30.393  1.00  0.00     0.029 A 
ATOM     56  C   UNL A   1      43.250  30.830  30.132  1.00  0.00     0.049 A 
ATOM     57  H   UNL A   1      43.186  28.860  29.380  1.00  0.00     0.167 HD
ATOM     58  C   UNL A   1      45.629  30.138  30.034  1.00  0.00     0.074 A 
ATOM     59  C   UNL A   1      47.046  30.379  30.205  1.00  0.00     0.031 C 
ATOM     60  C   UNL A   1      44.663  31.051  30.303  1.00  0.00     0.037 A 
BRANCH  47  61
ATOM     61  C   UNL A   1      38.933  29.084  29.112  1.00  0.00     0.057 A 
ATOM     62  C   UNL A   1      38.120  28.979  30.248  1.00  0.00     0.134 A 
ATOM     63  C   UNL A   1      38.338  29.548  27.931  1.00  0.00     0.134 A 
ATOM     64  F   UNL A   1      38.626  28.530  31.406  1.00  0.00    -0.206 F 
ATOM     65  C   UNL A   1      36.763  29.302  30.207  1.00  0.00     0.040 A 
ATOM     66  C   UNL A   1      36.988  29.900  27.885  1.00  0.00     0.040 A 
ATOM     67  F   UNL A   1      39.060  29.678  26.809  1.00  0.00    -0.206 F 
ATOM     68  C   UNL A   1      36.195  29.772  29.025  1.00  0.00     0.006 A 
ENDBRANCH  47  61
BRANCH  48  69
ATOM     69  C   UNL A   1      48.615  26.675  28.953  1.00  0.00     0.057 A 
ATOM     70  C   UNL A   1      49.369  26.918  27.797  1.00  0.00     0.134 A 
ATOM     71  C   UNL A   1      49.276  26.095  30.043  1.00  0.00     0.134 A 
ATOM     72  F   UNL A   1      48.787  27.454  26.714  1.00  0.00    -0.206 F 
ATOM     73  C   UNL A   1      50.719  26.575  27.718  1.00  0.00     0.040 A 
ATOM     74  C   UNL A   1      50.632  25.771  29.987  1.00  0.00     0.040 A 
ATOM     75  F   UNL A   1      48.613  25.846  31.181  1.00  0.00    -0.206 F 
ATOM     76  C   UNL A   1      51.356  26.003  28.818  1.00  0.00     0.006 A 
ENDBRANCH  48  69
BRANCH  60  77
ATOM     77  C   UNL A   1      45.106  32.379  30.842  1.00  0.00     0.057 A 
ATOM     78  C   UNL A   1      45.277  32.600  32.214  1.00  0.00     0.134 A 
ATOM     79  C   UNL A   1      45.402  33.436  29.972  1.00  0.00     0.134 A 
ATOM     80  F   UNL A   1      44.997  31.632  33.099  1.00  0.00    -0.206 F 
ATOM     81  C   UNL A   1      45.704  33.835  32.705  1.00  0.00     0.040 A 
ATOM     82  C   UNL A   1      45.855  34.667  30.449  1.00  0.00     0.040 A 
ATOM     83  F   UNL A   1      45.269  33.287  28.646  1.00  0.00    -0.206 F 
ATOM     84  C   UNL A   1      46.002  34.870  31.820  1.00  0.00     0.006 A 
ENDBRANCH  60  77
ENDBRANCH  34  35
ENDBRANCH  26  29
ENDBRANCH  24  25
ENDBRANCH  23  24
ENDBRANCH   1  23
TORSDOF 14
ENDMDL
MODEL 2
REMARK VINA RESULT:     -11.9      0.553      6.254
REMARK SMILES CC(=O)Nc1ccc2sc(C(=O)NCCCCCCNC(=O)c3ccc(-c4c5nc(c(-c6c(F)cccc6F)c6ccc([nH]6)c(-c6c(F)cccc6F)c6nc(c(-c7c(F)cccc7F)c7ccc4[nH]7)C=C6)C=C5)cc3)cc2c1
REMARK SMILES IDX 17 1 16 2 15 3 14 4 13 5 11 6 12 7 10 9 5 10 6 11 79 12 7 13
REMARK SMILES IDX 78 14 8 15 77 16 9 17 4 18 1 19 2 20 3 21 18 23 19 24 20 25
REMARK SMILES IDX 21 26 22 28 23 29 24 30 76 31 25 32 75 33 26 34 27 35 28 36
REMARK SMILES IDX 69 37 29 38 74 39 68 40 70 41 30 42 73 43 67 44 66 45 31 47
REMARK SMILES IDX 57 48 40 49 56 50 41 51 44 52 55 53 71 54 42 55 43 56 54 58
REMARK SMILES IDX 72 59 45 60 32 61 33 62 38 63 34 64 35 65 37 66 39 67 36 68
REMARK SMILES IDX 58 69 59 70 64 71 60 72 61 73 63 74 65 75 62 76 46 77 47 78
REMARK SMILES IDX 52 79 48 80 49 81 51 82 53 83 50 84
REMARK H PARENT 13 8 4 22 20 27 70 46 44 57
REMARK Flexibility Score: inf
ROOT
ATOM      1  C   UNL A   1      36.467  20.327  24.975  1.00  0.00     0.002 C 
ENDROOT
BRANCH   1   2
ATOM      2  C   UNL A   1      36.544  21.748  24.397  1.00  0.00     0.002 C 
BRANCH   2   3
ATOM      3  C   UNL A   1      36.367  22.878  25.420  1.00  0.00     0.021 C 
BRANCH   3   4
ATOM      4  C   UNL A   1      35.658  24.107  24.851  1.00  0.00     0.116 C 
BRANCH   4   5
ATOM      5  N   UNL A   1      34.452  24.399  25.601  1.00  0.00    -0.351 N 
ATOM      6  C   UNL A   1      33.266  23.735  25.798  1.00  0.00     0.261 C 
ATOM      7  O   UNL A   1      32.473  24.324  26.541  1.00  0.00    -0.268 OA
ATOM      8  H   UNL A   1      34.491  25.262  26.071  1.00  0.00     0.163 HD
BRANCH   6   9
ATOM      9  C   UNL A   1      32.944  22.424  25.248  1.00  0.00     0.093 A 
ATOM     10  C   UNL A   1      32.555  17.705  24.619  1.00  0.00     0.041 A 
ATOM     11  C   UNL A   1      32.421  18.056  23.279  1.00  0.00     0.027 A 
ATOM     12  C   UNL A   1      32.633  18.709  25.593  1.00  0.00     0.035 A 
ATOM     13  C   UNL A   1      32.388  19.398  22.888  1.00  0.00     0.022 A 
ATOM     14  C   UNL A   1      32.674  20.074  25.217  1.00  0.00    -0.005 A 
ATOM     15  C   UNL A   1      32.526  20.393  23.870  1.00  0.00     0.035 A 
ATOM     16  C   UNL A   1      32.889  21.257  25.996  1.00  0.00     0.034 A 
ATOM     17  S   UNL A   1      32.508  22.089  23.638  1.00  0.00    -0.130 S 
BRANCH  10  18
ATOM     18  N   UNL A   1      32.565  16.374  25.063  1.00  0.00    -0.326 N 
ATOM     19  C   UNL A   1      35.018  16.001  25.218  1.00  0.00     0.114 C 
ATOM     20  C   UNL A   1      33.600  15.493  25.204  1.00  0.00     0.221 C 
ATOM     21  O   UNL A   1      33.354  14.302  25.399  1.00  0.00    -0.275 OA
ATOM     22  H   UNL A   1      31.682  16.017  25.313  1.00  0.00     0.169 HD
ENDBRANCH  10  18
ENDBRANCH   6   9
ENDBRANCH   4   5
ENDBRANCH   3   4
ENDBRANCH   2   3
ENDBRANCH   1   2
BRANCH   1  23
ATOM     23  C   UNL A   1      37.772  19.528  24.912  1.00  0.00     0.021 C 
BRANCH  23  24
ATOM     24  C   UNL A   1      38.923  20.130  25.711  1.00  0.00     0.116 C 
BRANCH  24  25
ATOM     25  N   UNL A   1      40.059  19.227  25.788  1.00  0.00    -0.352 N 
ATOM     26  C   UNL A   1      41.371  19.500  26.075  1.00  0.00     0.251 C 
ATOM     27  H   UNL A   1      39.858  18.280  25.607  1.00  0.00     0.163 HD
ATOM     28  O   UNL A   1      42.236  18.644  25.886  1.00  0.00    -0.269 OA
BRANCH  26  29
ATOM     29  C   UNL A   1      41.756  20.827  26.597  1.00  0.00     0.039 A 
ATOM     30  C   UNL A   1      42.242  21.788  25.708  1.00  0.00     0.014 A 
ATOM     31  C   UNL A   1      41.664  21.115  27.962  1.00  0.00     0.014 A 
ATOM     32  C   UNL A   1      42.584  23.059  26.179  1.00  0.00     0.010 A 
ATOM     33  C   UNL A   1      41.944  22.400  28.420  1.00  0.00     0.010 A 
ATOM     34  C   UNL A   1      42.409  23.382  27.534  1.00  0.00    -0.014 A 
BRANCH  34  35
ATOM     35  C   UNL A   1      42.706  24.746  28.040  1.00  0.00     0.031 A 
ATOM     36  C   UNL A   1      44.106  25.116  28.444  1.00  0.00     0.074 A 
ATOM     37  C   UNL A   1      41.701  25.630  28.195  1.00  0.00     0.049 A 
ATOM     38  N   UNL A   1      44.546  26.232  28.969  1.00  0.00    -0.248 NA
ATOM     39  C   UNL A   1      45.143  24.090  28.257  1.00  0.00     0.031 C 
ATOM     40  C   UNL A   1      40.293  25.374  27.883  1.00  0.00     0.029 A 
ATOM     41  N   UNL A   1      41.708  26.920  28.664  1.00  0.00    -0.354 N 
ATOM     42  C   UNL A   1      45.903  26.036  29.189  1.00  0.00     0.074 A 
ATOM     43  C   UNL A   1      46.206  24.680  28.784  1.00  0.00     0.031 C 
ATOM     44  C   UNL A   1      39.576  26.476  28.156  1.00  0.00     0.029 A 
ATOM     45  C   UNL A   1      40.465  27.502  28.691  1.00  0.00     0.049 A 
ATOM     46  H   UNL A   1      42.527  27.382  28.955  1.00  0.00     0.167 HD
ATOM     47  C   UNL A   1      46.819  26.913  29.666  1.00  0.00     0.037 A 
ATOM     48  C   UNL A   1      40.083  28.725  29.108  1.00  0.00     0.037 A 
ATOM     49  C   UNL A   1      46.520  28.271  30.040  1.00  0.00     0.049 A 
ATOM     50  C   UNL A   1      41.120  29.681  29.627  1.00  0.00     0.074 A 
ATOM     51  C   UNL A   1      47.390  29.257  30.472  1.00  0.00     0.029 A 
ATOM     52  N   UNL A   1      45.253  28.833  30.030  1.00  0.00    -0.354 N 
ATOM     53  N   UNL A   1      42.412  29.505  29.763  1.00  0.00    -0.248 NA
ATOM     54  C   UNL A   1      40.647  31.008  30.046  1.00  0.00     0.031 C 
ATOM     55  C   UNL A   1      46.644  30.404  30.760  1.00  0.00     0.029 A 
ATOM     56  C   UNL A   1      45.315  30.146  30.465  1.00  0.00     0.049 A 
ATOM     57  H   UNL A   1      44.431  28.368  29.752  1.00  0.00     0.167 HD
ATOM     58  C   UNL A   1      42.909  30.705  30.256  1.00  0.00     0.074 A 
ATOM     59  C   UNL A   1      41.782  31.605  30.380  1.00  0.00     0.031 C 
ATOM     60  C   UNL A   1      44.185  31.031  30.577  1.00  0.00     0.037 A 
BRANCH  47  61
ATOM     61  C   UNL A   1      48.234  26.435  29.805  1.00  0.00     0.057 A 
ATOM     62  C   UNL A   1      49.176  26.609  28.783  1.00  0.00     0.134 A 
ATOM     63  C   UNL A   1      48.674  25.836  30.993  1.00  0.00     0.134 A 
ATOM     64  F   UNL A   1      48.817  27.166  27.616  1.00  0.00    -0.206 F 
ATOM     65  C   UNL A   1      50.498  26.186  28.928  1.00  0.00     0.040 A 
ATOM     66  C   UNL A   1      50.000  25.434  31.160  1.00  0.00     0.040 A 
ATOM     67  F   UNL A   1      47.825  25.645  32.014  1.00  0.00    -0.206 F 
ATOM     68  C   UNL A   1      50.915  25.604  30.122  1.00  0.00     0.006 A 
ENDBRANCH  47  61
BRANCH  48  69
ATOM     69  C   UNL A   1      38.655  29.123  29.035  1.00  0.00     0.057 A 
ATOM     70  C   UNL A   1      38.102  29.615  27.847  1.00  0.00     0.134 A 
ATOM     71  C   UNL A   1      37.814  29.036  30.151  1.00  0.00     0.134 A 
ATOM     72  F   UNL A   1      38.863  29.740  26.749  1.00  0.00    -0.206 F 
ATOM     73  C   UNL A   1      36.771  30.028  27.775  1.00  0.00     0.040 A 
ATOM     74  C   UNL A   1      36.474  29.421  30.087  1.00  0.00     0.040 A 
ATOM     75  F   UNL A   1      38.280  28.564  31.316  1.00  0.00    -0.206 F 
ATOM     76  C   UNL A   1      35.951  29.927  28.898  1.00  0.00     0.006 A 
ENDBRANCH  48  69
BRANCH  60  77
ATOM     77  C   UNL A   1      44.433  32.429  31.061  1.00  0.00     0.057 A 
ATOM     78  C   UNL A   1      44.424  32.752  32.424  1.00  0.00     0.134 A 
ATOM     79  C   UNL A   1      44.721  33.456  30.153  1.00  0.00     0.134 A 
ATOM     80  F   UNL A   1      44.141  31.816  33.342  1.00  0.00    -0.206 F 
ATOM     81  C   UNL A   1      44.671  34.053  32.866  1.00  0.00     0.040 A 
ATOM     82  C   UNL A   1      44.995  34.755  30.584  1.00  0.00     0.040 A 
ATOM     83  F   UNL A   1      44.754  33.212  28.835  1.00  0.00    -0.206 F 
ATOM     84  C   UNL A   1      44.965  35.056  31.944  1.00  0.00     0.006 A 
ENDBRANCH  60  77
ENDBRANCH  34  35
ENDBRANCH  26  29
ENDBRANCH  24  25
ENDBRANCH  23  24
ENDBRANCH   1  23
TORSDOF 14
ENDMDL
MODEL 3
REMARK VINA RESULT:     -11.8      5.681     10.546
REMARK SMILES CC(=O)Nc1ccc2sc(C(=O)NCCCCCCNC(=O)c3ccc(-c4c5nc(c(-c6c(F)cccc6F)c6ccc([nH]6)c(-c6c(F)cccc6F)c6nc(c(-c7c(F)cccc7F)c7ccc4[nH]7)C=C6)C=C5)cc3)cc2c1
REMARK SMILES IDX 17 1 16 2 15 3 14 4 13 5 11 6 12 7 10 9 5 10 6 11 79 12 7 13
REMARK SMILES IDX 78 14 8 15 77 16 9 17 4 18 1 19 2 20 3 21 18 23 19 24 20 25
REMARK SMILES IDX 21 26 22 28 23 29 24 30 76 31 25 32 75 33 26 34 27 35 28 36
REMARK SMILES IDX 69 37 29 38 74 39 68 40 70 41 30 42 73 43 67 44 66 45 31 47
REMARK SMILES IDX 57 48 40 49 56 50 41 51 44 52 55 53 71 54 42 55 43 56 54 58
REMARK SMILES IDX 72 59 45 60 32 61 33 62 38 63 34 64 35 65 37 66 39 67 36 68
REMARK SMILES IDX 58 69 59 70 64 71 60 72 61 73 63 74 65 75 62 76 46 77 47 78
REMARK SMILES IDX 52 79 48 80 49 81 51 82 53 83 50 84
REMARK H PARENT 13 8 4 22 20 27 70 46 44 57
REMARK Flexibility Score: inf
ROOT
ATOM      1  C   UNL A   1      31.574  30.303  26.098  1.00  0.00     0.002 C 
ENDROOT
BRANCH   1   2
ATOM      2  C   UNL A   1      31.776  29.174  27.119  1.00  0.00     0.002 C 
BRANCH   2   3
ATOM      3  C   UNL A   1      33.197  28.598  27.180  1.00  0.00     0.021 C 
BRANCH   3   4
ATOM      4  C   UNL A   1      33.914  28.606  25.829  1.00  0.00     0.116 C 
BRANCH   4   5
ATOM      5  N   UNL A   1      33.905  27.284  25.233  1.00  0.00    -0.351 N 
ATOM      6  C   UNL A   1      33.037  26.618  24.404  1.00  0.00     0.261 C 
ATOM      7  O   UNL A   1      33.405  25.479  24.095  1.00  0.00    -0.268 OA
ATOM      8  H   UNL A   1      34.693  26.748  25.476  1.00  0.00     0.163 HD
BRANCH   6   9
ATOM      9  C   UNL A   1      31.804  27.179  23.863  1.00  0.00     0.093 A 
ATOM     10  C   UNL A   1      28.603  30.147  21.924  1.00  0.00     0.041 A 
ATOM     11  C   UNL A   1      27.686  29.316  22.561  1.00  0.00     0.027 A 
ATOM     12  C   UNL A   1      29.967  29.825  21.956  1.00  0.00     0.035 A 
ATOM     13  C   UNL A   1      28.108  28.177  23.253  1.00  0.00     0.022 A 
ATOM     14  C   UNL A   1      30.426  28.718  22.710  1.00  0.00    -0.005 A 
ATOM     15  C   UNL A   1      29.483  27.900  23.326  1.00  0.00     0.035 A 
ATOM     16  C   UNL A   1      31.754  28.272  23.010  1.00  0.00     0.034 A 
ATOM     17  S   UNL A   1      30.233  26.572  24.102  1.00  0.00    -0.130 S 
BRANCH  10  18
ATOM     18  N   UNL A   1      28.226  31.283  21.194  1.00  0.00    -0.326 N 
ATOM     19  C   UNL A   1      28.768  33.050  22.857  1.00  0.00     0.114 C 
ATOM     20  C   UNL A   1      28.116  32.590  21.579  1.00  0.00     0.221 C 
ATOM     21  O   UNL A   1      27.554  33.392  20.832  1.00  0.00    -0.275 OA
ATOM     22  H   UNL A   1      28.004  31.112  20.250  1.00  0.00     0.169 HD
ENDBRANCH  10  18
ENDBRANCH   6   9
ENDBRANCH   4   5
ENDBRANCH   3   4
ENDBRANCH   2   3
ENDBRANCH   1   2
BRANCH   1  23
ATOM     23  C   UNL A   1      31.424  31.704  26.697  1.00  0.00     0.021 C 
BRANCH  23  24
ATOM     24  C   UNL A   1      32.741  32.431  26.946  1.00  0.00     0.116 C 
BRANCH  24  25
ATOM     25  N   UNL A   1      32.529  33.794  27.404  1.00  0.00    -0.352 N 
ATOM     26  C   UNL A   1      33.118  34.466  28.443  1.00  0.00     0.251 C 
ATOM     27  H   UNL A   1      31.866  34.312  26.893  1.00  0.00     0.163 HD
ATOM     28  O   UNL A   1      32.661  35.546  28.818  1.00  0.00    -0.269 OA
BRANCH  26  29
ATOM     29  C   UNL A   1      34.292  33.889  29.130  1.00  0.00     0.039 A 
ATOM     30  C   UNL A   1      34.090  32.926  30.121  1.00  0.00     0.014 A 
ATOM     31  C   UNL A   1      35.587  34.315  28.816  1.00  0.00     0.014 A 
ATOM     32  C   UNL A   1      35.190  32.348  30.760  1.00  0.00     0.010 A 
ATOM     33  C   UNL A   1      36.683  33.694  29.408  1.00  0.00     0.010 A 
ATOM     34  C   UNL A   1      36.495  32.707  30.387  1.00  0.00    -0.014 A 
BRANCH  34  35
ATOM     35  C   UNL A   1      37.676  32.057  31.011  1.00  0.00     0.031 A 
ATOM     36  C   UNL A   1      38.413  30.967  30.284  1.00  0.00     0.074 A 
ATOM     37  C   UNL A   1      38.044  32.407  32.258  1.00  0.00     0.049 A 
ATOM     38  N   UNL A   1      39.422  30.238  30.692  1.00  0.00    -0.248 NA
ATOM     39  C   UNL A   1      37.940  30.634  28.931  1.00  0.00     0.031 C 
ATOM     40  C   UNL A   1      37.380  33.417  33.085  1.00  0.00     0.029 A 
ATOM     41  N   UNL A   1      39.061  31.944  33.055  1.00  0.00    -0.354 N 
ATOM     42  C   UNL A   1      39.692  29.354  29.656  1.00  0.00     0.074 A 
ATOM     43  C   UNL A   1      38.713  29.604  28.619  1.00  0.00     0.031 C 
ATOM     44  C   UNL A   1      38.015  33.507  34.264  1.00  0.00     0.029 A 
ATOM     45  C   UNL A   1      39.108  32.541  34.290  1.00  0.00     0.049 A 
ATOM     46  H   UNL A   1      39.695  31.248  32.767  1.00  0.00     0.167 HD
ATOM     47  C   UNL A   1      40.679  28.430  29.568  1.00  0.00     0.037 A 
ATOM     48  C   UNL A   1      39.935  32.328  35.332  1.00  0.00     0.037 A 
ATOM     49  C   UNL A   1      41.669  28.204  30.588  1.00  0.00     0.049 A 
ATOM     50  C   UNL A   1      41.026  31.301  35.205  1.00  0.00     0.074 A 
ATOM     51  C   UNL A   1      42.748  27.337  30.564  1.00  0.00     0.029 A 
ATOM     52  N   UNL A   1      41.699  28.846  31.816  1.00  0.00    -0.354 N 
ATOM     53  N   UNL A   1      41.313  30.521  34.191  1.00  0.00    -0.248 NA
ATOM     54  C   UNL A   1      41.912  31.128  36.364  1.00  0.00     0.031 C 
ATOM     55  C   UNL A   1      43.409  27.426  31.793  1.00  0.00     0.029 A 
ATOM     56  C   UNL A   1      42.767  28.382  32.565  1.00  0.00     0.049 A 
ATOM     57  H   UNL A   1      41.057  29.532  32.111  1.00  0.00     0.167 HD
ATOM     58  C   UNL A   1      42.426  29.787  34.579  1.00  0.00     0.074 A 
ATOM     59  C   UNL A   1      42.772  30.225  35.915  1.00  0.00     0.031 C 
ATOM     60  C   UNL A   1      43.101  28.834  33.891  1.00  0.00     0.037 A 
BRANCH  47  61
ATOM     61  C   UNL A   1      40.742  27.597  28.321  1.00  0.00     0.057 A 
ATOM     62  C   UNL A   1      40.041  26.390  28.204  1.00  0.00     0.134 A 
ATOM     63  C   UNL A   1      41.475  28.030  27.208  1.00  0.00     0.134 A 
ATOM     64  F   UNL A   1      39.329  25.915  29.237  1.00  0.00    -0.206 F 
ATOM     65  C   UNL A   1      40.082  25.633  27.032  1.00  0.00     0.040 A 
ATOM     66  C   UNL A   1      41.502  27.294  26.022  1.00  0.00     0.040 A 
ATOM     67  F   UNL A   1      42.165  29.179  27.251  1.00  0.00    -0.206 F 
ATOM     68  C   UNL A   1      40.808  26.088  25.934  1.00  0.00     0.006 A 
ENDBRANCH  47  61
BRANCH  48  69
ATOM     69  C   UNL A   1      39.778  33.114  36.580  1.00  0.00     0.057 A 
ATOM     70  C   UNL A   1      38.894  32.705  37.586  1.00  0.00     0.134 A 
ATOM     71  C   UNL A   1      40.495  34.298  36.794  1.00  0.00     0.134 A 
ATOM     72  F   UNL A   1      38.165  31.590  37.430  1.00  0.00    -0.206 F 
ATOM     73  C   UNL A   1      38.710  33.455  38.748  1.00  0.00     0.040 A 
ATOM     74  C   UNL A   1      40.340  35.044  37.962  1.00  0.00     0.040 A 
ATOM     75  F   UNL A   1      41.365  34.739  35.873  1.00  0.00    -0.206 F 
ATOM     76  C   UNL A   1      39.438  34.627  38.941  1.00  0.00     0.006 A 
ENDBRANCH  48  69
BRANCH  60  77
ATOM     77  C   UNL A   1      44.300  28.227  34.559  1.00  0.00     0.057 A 
ATOM     78  C   UNL A   1      45.573  28.800  34.454  1.00  0.00     0.134 A 
ATOM     79  C   UNL A   1      44.168  27.075  35.346  1.00  0.00     0.134 A 
ATOM     80  F   UNL A   1      45.767  29.895  33.704  1.00  0.00    -0.206 F 
ATOM     81  C   UNL A   1      46.680  28.236  35.092  1.00  0.00     0.040 A 
ATOM     82  C   UNL A   1      45.262  26.517  36.009  1.00  0.00     0.040 A 
ATOM     83  F   UNL A   1      42.975  26.482  35.494  1.00  0.00    -0.206 F 
ATOM     84  C   UNL A   1      46.524  27.096  35.877  1.00  0.00     0.006 A 
ENDBRANCH  60  77
ENDBRANCH  34  35
ENDBRANCH  26  29
ENDBRANCH  24  25
ENDBRANCH  23  24
ENDBRANCH   1  23
TORSDOF 14
ENDMDL
