MODEL 1
REMARK VINA RESULT:     -11.2      0.000      0.000
REMARK SMILES CC[C@H]1CCCC[C@@H]1C1(C(=O)NCCCCCCNC(=O)c2ccc(-c3c4nc(c(-c5c(F)cccc5F)c5ccc([nH]5)c(-c5c(F)cccc5F)c5nc(c(-c6c(F)cccc6F)c6ccc3[nH]6)C=C5)C=C4)cc2)CC1
REMARK SMILES IDX 15 1 14 2 13 3 12 4 10 5 11 6 9 8 76 9 77 10 8 11 3 12 4 13
REMARK SMILES IDX 5 14 7 15 6 16 2 17 1 18 16 19 17 20 18 21 19 22 20 23 21 25
REMARK SMILES IDX 22 26 23 27 75 28 24 29 74 30 25 31 26 32 27 33 68 34 28 35
REMARK SMILES IDX 73 36 67 37 69 38 29 39 72 40 66 41 65 42 30 44 56 45 39 46
REMARK SMILES IDX 55 47 40 48 43 49 54 50 70 51 41 52 42 53 53 55 71 56 44 57
REMARK SMILES IDX 31 58 32 59 37 60 33 61 34 62 36 63 38 64 35 65 57 66 58 67
REMARK SMILES IDX 63 68 59 69 60 70 62 71 64 72 61 73 45 74 46 75 51 76 47 77
REMARK SMILES IDX 48 78 50 79 52 80 49 81
REMARK H PARENT 12 7 19 24 69 43 43 54
REMARK Flexibility Score: inf
ROOT
ATOM      1  C   UNL A   1      32.547  29.375  27.269  1.00  0.00     0.002 C 
ENDROOT
BRANCH   1   2
ATOM      2  C   UNL A   1      31.856  28.035  27.567  1.00  0.00     0.021 C 
BRANCH   2   3
ATOM      3  C   UNL A   1      31.910  27.017  26.432  1.00  0.00     0.116 C 
BRANCH   3   4
ATOM      4  N   UNL A   1      30.999  25.917  26.624  1.00  0.00    -0.356 N 
ATOM      5  C   UNL A   1      31.120  24.562  26.590  1.00  0.00     0.226 C 
ATOM      6  O   UNL A   1      30.178  23.930  27.070  1.00  0.00    -0.274 OA
ATOM      7  H   UNL A   1      30.082  26.212  26.826  1.00  0.00     0.163 HD
BRANCH   5   8
ATOM      8  C   UNL A   1      32.296  23.792  26.007  1.00  0.00     0.052 C 
ATOM      9  C   UNL A   1      33.165  23.151  27.103  1.00  0.00     0.018 C 
ATOM     10  C   UNL A   1      33.769  24.137  26.162  1.00  0.00     0.018 C 
BRANCH   8  11
ATOM     11  C   UNL A   1      31.914  23.056  24.674  1.00  0.00     0.008 C 
ATOM     12  C   UNL A   1      33.001  22.209  23.962  1.00  0.00    -0.007 C 
ATOM     13  C   UNL A   1      33.819  22.983  22.912  1.00  0.00     0.004 C 
ATOM     14  C   UNL A   1      32.998  23.885  22.004  1.00  0.00     0.000 C 
ATOM     15  C   UNL A   1      31.171  24.038  23.739  1.00  0.00     0.005 C 
ATOM     16  C   UNL A   1      32.077  24.807  22.787  1.00  0.00     0.000 C 
BRANCH  12  17
ATOM     17  C   UNL A   1      32.454  20.869  23.382  1.00  0.00     0.000 C 
ATOM     18  C   UNL A   1      32.462  19.639  24.277  1.00  0.00     0.004 C 
ENDBRANCH  12  17
ENDBRANCH   8  11
ENDBRANCH   5   8
ENDBRANCH   3   4
ENDBRANCH   2   3
ENDBRANCH   1   2
BRANCH   1  19
ATOM     19  C   UNL A   1      31.870  30.273  26.226  1.00  0.00     0.002 C 
BRANCH  19  20
ATOM     20  C   UNL A   1      31.522  31.685  26.693  1.00  0.00     0.021 C 
BRANCH  20  21
ATOM     21  C   UNL A   1      32.687  32.455  27.293  1.00  0.00     0.116 C 
BRANCH  21  22
ATOM     22  N   UNL A   1      32.369  33.857  27.503  1.00  0.00    -0.352 N 
ATOM     23  C   UNL A   1      32.942  34.735  28.390  1.00  0.00     0.251 C 
ATOM     24  H   UNL A   1      31.651  34.226  26.937  1.00  0.00     0.163 HD
ATOM     25  O   UNL A   1      32.455  35.844  28.585  1.00  0.00    -0.269 OA
BRANCH  23  26
ATOM     26  C   UNL A   1      34.147  34.311  29.132  1.00  0.00     0.039 A 
ATOM     27  C   UNL A   1      34.000  33.657  30.357  1.00  0.00     0.014 A 
ATOM     28  C   UNL A   1      35.416  34.521  28.586  1.00  0.00     0.014 A 
ATOM     29  C   UNL A   1      35.128  33.152  31.006  1.00  0.00     0.010 A 
ATOM     30  C   UNL A   1      36.527  33.949  29.193  1.00  0.00     0.010 A 
ATOM     31  C   UNL A   1      36.395  33.264  30.411  1.00  0.00    -0.014 A 
BRANCH  31  32
ATOM     32  C   UNL A   1      37.607  32.686  31.042  1.00  0.00     0.031 A 
ATOM     33  C   UNL A   1      38.263  31.482  30.427  1.00  0.00     0.074 A 
ATOM     34  C   UNL A   1      38.053  33.175  32.213  1.00  0.00     0.049 A 
ATOM     35  N   UNL A   1      39.244  30.748  30.885  1.00  0.00    -0.248 NA
ATOM     36  C   UNL A   1      37.717  31.022  29.141  1.00  0.00     0.031 C 
ATOM     37  C   UNL A   1      37.472  34.308  32.935  1.00  0.00     0.029 A 
ATOM     38  N   UNL A   1      39.089  32.765  33.014  1.00  0.00    -0.354 N 
ATOM     39  C   UNL A   1      39.413  29.726  29.960  1.00  0.00     0.074 A 
ATOM     40  C   UNL A   1      38.399  29.905  28.943  1.00  0.00     0.031 C 
ATOM     41  C   UNL A   1      38.166  34.509  34.067  1.00  0.00     0.029 A 
ATOM     42  C   UNL A   1      39.212  33.497  34.170  1.00  0.00     0.049 A 
ATOM     43  H   UNL A   1      39.687  32.018  32.783  1.00  0.00     0.167 HD
ATOM     44  C   UNL A   1      40.340  28.739  29.948  1.00  0.00     0.037 A 
ATOM     45  C   UNL A   1      40.064  33.357  35.204  1.00  0.00     0.037 A 
ATOM     46  C   UNL A   1      41.363  28.584  30.949  1.00  0.00     0.049 A 
ATOM     47  C   UNL A   1      41.091  32.261  35.169  1.00  0.00     0.074 A 
ATOM     48  C   UNL A   1      42.395  27.663  30.992  1.00  0.00     0.029 A 
ATOM     49  N   UNL A   1      41.479  29.369  32.087  1.00  0.00    -0.354 N 
ATOM     50  N   UNL A   1      41.285  31.341  34.256  1.00  0.00    -0.248 NA
ATOM     51  C   UNL A   1      42.022  32.188  36.303  1.00  0.00     0.031 C 
ATOM     52  C   UNL A   1      43.106  27.860  32.180  1.00  0.00     0.029 A 
ATOM     53  C   UNL A   1      42.550  28.938  32.852  1.00  0.00     0.049 A 
ATOM     54  H   UNL A   1      40.887  30.120  32.318  1.00  0.00     0.167 HD
ATOM     55  C   UNL A   1      42.374  30.597  34.689  1.00  0.00     0.074 A 
ATOM     56  C   UNL A   1      42.804  31.179  35.944  1.00  0.00     0.031 C 
ATOM     57  C   UNL A   1      42.967  29.530  34.098  1.00  0.00     0.037 A 
BRANCH  44  58
ATOM     58  C   UNL A   1      40.277  27.751  28.819  1.00  0.00     0.057 A 
ATOM     59  C   UNL A   1      39.546  26.559  28.914  1.00  0.00     0.134 A 
ATOM     60  C   UNL A   1      40.956  27.996  27.619  1.00  0.00     0.134 A 
ATOM     61  F   UNL A   1      38.882  26.257  30.041  1.00  0.00    -0.206 F 
ATOM     62  C   UNL A   1      39.528  25.628  27.875  1.00  0.00     0.040 A 
ATOM     63  C   UNL A   1      40.919  27.086  26.560  1.00  0.00     0.040 A 
ATOM     64  F   UNL A   1      41.670  29.120  27.456  1.00  0.00    -0.206 F 
ATOM     65  C   UNL A   1      40.212  25.893  26.691  1.00  0.00     0.006 A 
ENDBRANCH  44  58
BRANCH  45  66
ATOM     66  C   UNL A   1      39.989  34.301  36.347  1.00  0.00     0.057 A 
ATOM     67  C   UNL A   1      39.281  33.972  37.508  1.00  0.00     0.134 A 
ATOM     68  C   UNL A   1      40.643  35.539  36.319  1.00  0.00     0.134 A 
ATOM     69  F   UNL A   1      38.621  32.806  37.588  1.00  0.00    -0.206 F 
ATOM     70  C   UNL A   1      39.219  34.841  38.598  1.00  0.00     0.040 A 
ATOM     71  C   UNL A   1      40.607  36.408  37.410  1.00  0.00     0.040 A 
ATOM     72  F   UNL A   1      41.346  35.908  35.239  1.00  0.00    -0.206 F 
ATOM     73  C   UNL A   1      39.890  36.061  38.553  1.00  0.00     0.006 A 
ENDBRANCH  45  66
BRANCH  57  74
ATOM     74  C   UNL A   1      44.167  28.943  34.782  1.00  0.00     0.057 A 
ATOM     75  C   UNL A   1      45.462  29.418  34.547  1.00  0.00     0.134 A 
ATOM     76  C   UNL A   1      44.015  27.919  35.728  1.00  0.00     0.134 A 
ATOM     77  F   UNL A   1      45.677  30.388  33.645  1.00  0.00    -0.206 F 
ATOM     78  C   UNL A   1      46.567  28.885  35.214  1.00  0.00     0.040 A 
ATOM     79  C   UNL A   1      45.107  27.396  36.419  1.00  0.00     0.040 A 
ATOM     80  F   UNL A   1      42.799  27.424  36.006  1.00  0.00    -0.206 F 
ATOM     81  C   UNL A   1      46.389  27.876  36.159  1.00  0.00     0.006 A 
ENDBRANCH  57  74
ENDBRANCH  31  32
ENDBRANCH  23  26
ENDBRANCH  21  22
ENDBRANCH  20  21
ENDBRANCH  19  20
ENDBRANCH   1  19
TORSDOF 15
ENDMDL
MODEL 2
REMARK VINA RESULT:     -11.1      4.438      9.404
REMARK SMILES CC[C@H]1CCCC[C@@H]1C1(C(=O)NCCCCCCNC(=O)c2ccc(-c3c4nc(c(-c5c(F)cccc5F)c5ccc([nH]5)c(-c5c(F)cccc5F)c5nc(c(-c6c(F)cccc6F)c6ccc3[nH]6)C=C5)C=C4)cc2)CC1
REMARK SMILES IDX 15 1 14 2 13 3 12 4 10 5 11 6 9 8 76 9 77 10 8 11 3 12 4 13
REMARK SMILES IDX 5 14 7 15 6 16 2 17 1 18 16 19 17 20 18 21 19 22 20 23 21 25
REMARK SMILES IDX 22 26 23 27 75 28 24 29 74 30 25 31 26 32 27 33 68 34 28 35
REMARK SMILES IDX 73 36 67 37 69 38 29 39 72 40 66 41 65 42 30 44 56 45 39 46
REMARK SMILES IDX 55 47 40 48 43 49 54 50 70 51 41 52 42 53 53 55 71 56 44 57
REMARK SMILES IDX 31 58 32 59 37 60 33 61 34 62 36 63 38 64 35 65 57 66 58 67
REMARK SMILES IDX 63 68 59 69 60 70 62 71 64 72 61 73 45 74 46 75 51 76 47 77
REMARK SMILES IDX 48 78 50 79 52 80 49 81
REMARK H PARENT 12 7 19 24 69 43 43 54
REMARK Flexibility Score: inf
ROOT
ATOM      1  C   UNL A   1      35.895  22.518  25.595  1.00  0.00     0.002 C 
ENDROOT
BRANCH   1   2
ATOM      2  C   UNL A   1      35.060  23.448  24.701  1.00  0.00     0.021 C 
BRANCH   2   3
ATOM      3  C   UNL A   1      34.659  24.772  25.346  1.00  0.00     0.116 C 
BRANCH   3   4
ATOM      4  N   UNL A   1      33.463  24.667  26.142  1.00  0.00    -0.356 N 
ATOM      5  C   UNL A   1      32.386  25.470  26.354  1.00  0.00     0.226 C 
ATOM      6  O   UNL A   1      31.418  24.934  26.898  1.00  0.00    -0.274 OA
ATOM      7  H   UNL A   1      33.414  23.824  26.647  1.00  0.00     0.163 HD
BRANCH   5   8
ATOM      8  C   UNL A   1      32.294  26.945  25.990  1.00  0.00     0.052 C 
ATOM      9  C   UNL A   1      33.216  27.812  26.866  1.00  0.00     0.018 C 
ATOM     10  C   UNL A   1      31.746  28.060  26.867  1.00  0.00     0.018 C 
BRANCH   8  11
ATOM     11  C   UNL A   1      32.126  27.161  24.445  1.00  0.00     0.008 C 
ATOM     12  C   UNL A   1      31.869  28.600  23.925  1.00  0.00    -0.007 C 
ATOM     13  C   UNL A   1      30.380  28.972  23.804  1.00  0.00     0.004 C 
ATOM     14  C   UNL A   1      29.501  27.891  23.192  1.00  0.00     0.000 C 
ATOM     15  C   UNL A   1      31.147  26.105  23.881  1.00  0.00     0.005 C 
ATOM     16  C   UNL A   1      29.688  26.543  23.870  1.00  0.00     0.000 C 
BRANCH  12  17
ATOM     17  C   UNL A   1      32.645  28.927  22.613  1.00  0.00     0.000 C 
ATOM     18  C   UNL A   1      34.043  28.356  22.440  1.00  0.00     0.004 C 
ENDBRANCH  12  17
ENDBRANCH   8  11
ENDBRANCH   5   8
ENDBRANCH   3   4
ENDBRANCH   2   3
ENDBRANCH   1   2
BRANCH   1  19
ATOM     19  C   UNL A   1      36.049  21.070  25.114  1.00  0.00     0.002 C 
BRANCH  19  20
ATOM     20  C   UNL A   1      37.445  20.676  24.634  1.00  0.00     0.021 C 
BRANCH  20  21
ATOM     21  C   UNL A   1      38.540  20.851  25.673  1.00  0.00     0.116 C 
BRANCH  21  22
ATOM     22  N   UNL A   1      39.482  19.744  25.671  1.00  0.00    -0.352 N 
ATOM     23  C   UNL A   1      40.819  19.764  25.983  1.00  0.00     0.251 C 
ATOM     24  H   UNL A   1      39.114  18.866  25.414  1.00  0.00     0.163 HD
ATOM     25  O   UNL A   1      41.533  18.791  25.768  1.00  0.00    -0.269 OA
BRANCH  23  26
ATOM     26  C   UNL A   1      41.396  20.996  26.560  1.00  0.00     0.039 A 
ATOM     27  C   UNL A   1      41.875  21.991  25.706  1.00  0.00     0.014 A 
ATOM     28  C   UNL A   1      41.413  21.179  27.946  1.00  0.00     0.014 A 
ATOM     29  C   UNL A   1      42.314  23.203  26.242  1.00  0.00     0.010 A 
ATOM     30  C   UNL A   1      41.775  22.413  28.470  1.00  0.00     0.010 A 
ATOM     31  C   UNL A   1      42.234  23.436  27.625  1.00  0.00    -0.014 A 
BRANCH  31  32
ATOM     32  C   UNL A   1      42.633  24.733  28.222  1.00  0.00     0.031 A 
ATOM     33  C   UNL A   1      41.599  25.801  28.442  1.00  0.00     0.074 A 
ATOM     34  C   UNL A   1      43.931  24.987  28.471  1.00  0.00     0.049 A 
ATOM     35  N   UNL A   1      41.756  27.041  28.826  1.00  0.00    -0.248 NA
ATOM     36  C   UNL A   1      40.204  25.432  28.155  1.00  0.00     0.031 C 
ATOM     37  C   UNL A   1      45.035  24.052  28.254  1.00  0.00     0.029 A 
ATOM     38  N   UNL A   1      44.543  26.122  28.941  1.00  0.00    -0.354 N 
ATOM     39  C   UNL A   1      40.488  27.607  28.800  1.00  0.00     0.074 A 
ATOM     40  C   UNL A   1      39.582  26.590  28.312  1.00  0.00     0.031 C 
ATOM     41  C   UNL A   1      46.188  24.646  28.600  1.00  0.00     0.029 A 
ATOM     42  C   UNL A   1      45.910  26.014  29.023  1.00  0.00     0.049 A 
ATOM     43  H   UNL A   1      44.051  26.935  29.196  1.00  0.00     0.167 HD
ATOM     44  C   UNL A   1      40.109  28.854  29.167  1.00  0.00     0.037 A 
ATOM     45  C   UNL A   1      46.836  26.922  29.385  1.00  0.00     0.037 A 
ATOM     46  C   UNL A   1      41.013  29.851  29.678  1.00  0.00     0.049 A 
ATOM     47  C   UNL A   1      46.396  28.299  29.797  1.00  0.00     0.074 A 
ATOM     48  C   UNL A   1      40.721  31.120  30.147  1.00  0.00     0.029 A 
ATOM     49  N   UNL A   1      42.387  29.693  29.782  1.00  0.00    -0.354 N 
ATOM     50  N   UNL A   1      45.186  28.802  29.833  1.00  0.00    -0.248 NA
ATOM     51  C   UNL A   1      47.447  29.230  30.226  1.00  0.00     0.031 C 
ATOM     52  C   UNL A   1      41.924  31.746  30.490  1.00  0.00     0.029 A 
ATOM     53  C   UNL A   1      42.960  30.849  30.285  1.00  0.00     0.049 A 
ATOM     54  H   UNL A   1      42.882  28.879  29.535  1.00  0.00     0.167 HD
ATOM     55  C   UNL A   1      45.325  30.098  30.313  1.00  0.00     0.074 A 
ATOM     56  C   UNL A   1      46.738  30.300  30.562  1.00  0.00     0.031 C 
ATOM     57  C   UNL A   1      44.368  31.034  30.530  1.00  0.00     0.037 A 
BRANCH  44  58
ATOM     58  C   UNL A   1      38.656  29.203  29.017  1.00  0.00     0.057 A 
ATOM     59  C   UNL A   1      38.112  29.611  27.792  1.00  0.00     0.134 A 
ATOM     60  C   UNL A   1      37.789  29.128  30.114  1.00  0.00     0.134 A 
ATOM     61  F   UNL A   1      38.890  29.716  26.704  1.00  0.00    -0.206 F 
ATOM     62  C   UNL A   1      36.770  29.973  27.673  1.00  0.00     0.040 A 
ATOM     63  C   UNL A   1      36.437  29.456  30.000  1.00  0.00     0.040 A 
ATOM     64  F   UNL A   1      38.240  28.738  31.316  1.00  0.00    -0.206 F 
ATOM     65  C   UNL A   1      35.926  29.892  28.778  1.00  0.00     0.006 A 
ENDBRANCH  44  58
BRANCH  45  66
ATOM     66  C   UNL A   1      48.271  26.542  29.394  1.00  0.00     0.057 A 
ATOM     67  C   UNL A   1      49.097  26.823  28.300  1.00  0.00     0.134 A 
ATOM     68  C   UNL A   1      48.856  25.916  30.501  1.00  0.00     0.134 A 
ATOM     69  F   UNL A   1      48.590  27.407  27.204  1.00  0.00    -0.206 F 
ATOM     70  C   UNL A   1      50.452  26.489  28.303  1.00  0.00     0.040 A 
ATOM     71  C   UNL A   1      50.214  25.597  30.526  1.00  0.00     0.040 A 
ATOM     72  F   UNL A   1      48.119  25.630  31.584  1.00  0.00    -0.206 F 
ATOM     73  C   UNL A   1      51.016  25.880  29.422  1.00  0.00     0.006 A 
ENDBRANCH  45  66
BRANCH  57  74
ATOM     74  C   UNL A   1      44.811  32.351  31.098  1.00  0.00     0.057 A 
ATOM     75  C   UNL A   1      44.915  32.566  32.477  1.00  0.00     0.134 A 
ATOM     76  C   UNL A   1      45.183  33.401  30.248  1.00  0.00     0.134 A 
ATOM     77  F   UNL A   1      44.562  31.606  33.344  1.00  0.00    -0.206 F 
ATOM     78  C   UNL A   1      45.359  33.786  32.992  1.00  0.00     0.040 A 
ATOM     79  C   UNL A   1      45.652  34.615  30.750  1.00  0.00     0.040 A 
ATOM     80  F   UNL A   1      45.114  33.257  28.916  1.00  0.00    -0.206 F 
ATOM     81  C   UNL A   1      45.736  34.812  32.127  1.00  0.00     0.006 A 
ENDBRANCH  57  74
ENDBRANCH  31  32
ENDBRANCH  23  26
ENDBRANCH  21  22
ENDBRANCH  20  21
ENDBRANCH  19  20
ENDBRANCH   1  19
TORSDOF 15
ENDMDL
MODEL 3
REMARK VINA RESULT:     -11.1      1.204      6.616
REMARK SMILES CC[C@H]1CCCC[C@@H]1C1(C(=O)NCCCCCCNC(=O)c2ccc(-c3c4nc(c(-c5c(F)cccc5F)c5ccc([nH]5)c(-c5c(F)cccc5F)c5nc(c(-c6c(F)cccc6F)c6ccc3[nH]6)C=C5)C=C4)cc2)CC1
REMARK SMILES IDX 15 1 14 2 13 3 12 4 10 5 11 6 9 8 76 9 77 10 8 11 3 12 4 13
REMARK SMILES IDX 5 14 7 15 6 16 2 17 1 18 16 19 17 20 18 21 19 22 20 23 21 25
REMARK SMILES IDX 22 26 23 27 75 28 24 29 74 30 25 31 26 32 27 33 68 34 28 35
REMARK SMILES IDX 73 36 67 37 69 38 29 39 72 40 66 41 65 42 30 44 56 45 39 46
REMARK SMILES IDX 55 47 40 48 43 49 54 50 70 51 41 52 42 53 53 55 71 56 44 57
REMARK SMILES IDX 31 58 32 59 37 60 33 61 34 62 36 63 38 64 35 65 57 66 58 67
REMARK SMILES IDX 63 68 59 69 60 70 62 71 64 72 61 73 45 74 46 75 51 76 47 77
REMARK SMILES IDX 48 78 50 79 52 80 49 81
REMARK H PARENT 12 7 19 24 69 43 43 54
REMARK Flexibility Score: inf
ROOT
ATOM      1  C   UNL A   1      32.310  29.540  27.159  1.00  0.00     0.002 C 
ENDROOT
BRANCH   1   2
ATOM      2  C   UNL A   1      31.615  28.210  27.490  1.00  0.00     0.021 C 
BRANCH   2   3
ATOM      3  C   UNL A   1      31.897  27.075  26.510  1.00  0.00     0.116 C 
BRANCH   3   4
ATOM      4  N   UNL A   1      31.019  25.948  26.692  1.00  0.00    -0.356 N 
ATOM      5  C   UNL A   1      30.969  24.686  26.185  1.00  0.00     0.226 C 
ATOM      6  O   UNL A   1      30.223  23.902  26.775  1.00  0.00    -0.274 OA
ATOM      7  H   UNL A   1      30.290  26.132  27.327  1.00  0.00     0.163 HD
BRANCH   5   8
ATOM      8  C   UNL A   1      31.736  24.189  24.968  1.00  0.00     0.052 C 
ATOM      9  C   UNL A   1      31.231  24.837  23.666  1.00  0.00     0.018 C 
ATOM     10  C   UNL A   1      31.176  23.356  23.826  1.00  0.00     0.018 C 
BRANCH   8  11
ATOM     11  C   UNL A   1      33.257  23.965  25.282  1.00  0.00     0.008 C 
ATOM     12  C   UNL A   1      34.095  23.112  24.294  1.00  0.00    -0.007 C 
ATOM     13  C   UNL A   1      34.143  21.612  24.637  1.00  0.00     0.004 C 
ATOM     14  C   UNL A   1      34.359  21.302  26.110  1.00  0.00     0.000 C 
ATOM     15  C   UNL A   1      33.421  23.552  26.763  1.00  0.00     0.005 C 
ATOM     16  C   UNL A   1      33.384  22.049  27.005  1.00  0.00     0.000 C 
BRANCH  12  17
ATOM     17  C   UNL A   1      35.524  23.684  24.048  1.00  0.00     0.000 C 
ATOM     18  C   UNL A   1      36.509  22.845  23.248  1.00  0.00     0.004 C 
ENDBRANCH  12  17
ENDBRANCH   8  11
ENDBRANCH   5   8
ENDBRANCH   3   4
ENDBRANCH   2   3
ENDBRANCH   1   2
BRANCH   1  19
ATOM     19  C   UNL A   1      31.598  30.447  26.147  1.00  0.00     0.002 C 
BRANCH  19  20
ATOM     20  C   UNL A   1      31.425  31.905  26.570  1.00  0.00     0.021 C 
BRANCH  20  21
ATOM     21  C   UNL A   1      32.636  32.507  27.263  1.00  0.00     0.116 C 
BRANCH  21  22
ATOM     22  N   UNL A   1      32.431  33.902  27.614  1.00  0.00    -0.352 N 
ATOM     23  C   UNL A   1      33.116  34.656  28.535  1.00  0.00     0.251 C 
ATOM     24  H   UNL A   1      31.710  34.366  27.129  1.00  0.00     0.163 HD
ATOM     25  O   UNL A   1      32.721  35.772  28.856  1.00  0.00    -0.269 OA
BRANCH  23  26
ATOM     26  C   UNL A   1      34.328  34.089  29.159  1.00  0.00     0.039 A 
ATOM     27  C   UNL A   1      34.206  33.330  30.324  1.00  0.00     0.014 A 
ATOM     28  C   UNL A   1      35.576  34.271  28.557  1.00  0.00     0.014 A 
ATOM     29  C   UNL A   1      35.332  32.696  30.854  1.00  0.00     0.010 A 
ATOM     30  C   UNL A   1      36.678  33.575  29.038  1.00  0.00     0.010 A 
ATOM     31  C   UNL A   1      36.569  32.785  30.194  1.00  0.00    -0.014 A 
BRANCH  31  32
ATOM     32  C   UNL A   1      37.771  32.074  30.692  1.00  0.00     0.031 A 
ATOM     33  C   UNL A   1      38.568  32.661  31.822  1.00  0.00     0.074 A 
ATOM     34  C   UNL A   1      38.203  30.964  30.065  1.00  0.00     0.049 A 
ATOM     35  N   UNL A   1      39.714  32.272  32.319  1.00  0.00    -0.248 NA
ATOM     36  C   UNL A   1      38.016  33.869  32.456  1.00  0.00     0.031 C 
ATOM     37  C   UNL A   1      37.546  30.325  28.925  1.00  0.00     0.029 A 
ATOM     38  N   UNL A   1      39.313  30.188  30.288  1.00  0.00    -0.354 N 
ATOM     39  C   UNL A   1      40.033  33.201  33.300  1.00  0.00     0.074 A 
ATOM     40  C   UNL A   1      38.987  34.200  33.293  1.00  0.00     0.031 C 
ATOM     41  C   UNL A   1      38.258  29.249  28.554  1.00  0.00     0.029 A 
ATOM     42  C   UNL A   1      39.441  29.146  29.403  1.00  0.00     0.049 A 
ATOM     43  H   UNL A   1      39.955  30.362  31.013  1.00  0.00     0.167 HD
ATOM     44  C   UNL A   1      41.092  33.212  34.144  1.00  0.00     0.037 A 
ATOM     45  C   UNL A   1      40.412  28.221  29.280  1.00  0.00     0.037 A 
ATOM     46  C   UNL A   1      42.115  32.199  34.164  1.00  0.00     0.049 A 
ATOM     47  C   UNL A   1      41.575  28.243  30.231  1.00  0.00     0.074 A 
ATOM     48  C   UNL A   1      43.190  32.076  35.027  1.00  0.00     0.029 A 
ATOM     49  N   UNL A   1      42.191  31.137  33.276  1.00  0.00    -0.354 N 
ATOM     50  N   UNL A   1      41.832  29.088  31.200  1.00  0.00    -0.248 NA
ATOM     51  C   UNL A   1      42.578  27.181  30.078  1.00  0.00     0.031 C 
ATOM     52  C   UNL A   1      43.943  30.966  34.629  1.00  0.00     0.029 A 
ATOM     53  C   UNL A   1      43.309  30.367  33.553  1.00  0.00     0.049 A 
ATOM     54  H   UNL A   1      41.547  30.957  32.553  1.00  0.00     0.167 HD
ATOM     55  C   UNL A   1      43.010  28.646  31.789  1.00  0.00     0.074 A 
ATOM     56  C   UNL A   1      43.411  27.453  31.073  1.00  0.00     0.031 C 
ATOM     57  C   UNL A   1      43.694  29.180  32.832  1.00  0.00     0.037 A 
BRANCH  44  58
ATOM     58  C   UNL A   1      41.194  34.361  35.105  1.00  0.00     0.057 A 
ATOM     59  C   UNL A   1      40.614  34.318  36.380  1.00  0.00     0.134 A 
ATOM     60  C   UNL A   1      41.882  35.528  34.750  1.00  0.00     0.134 A 
ATOM     61  F   UNL A   1      39.930  33.234  36.779  1.00  0.00    -0.206 F 
ATOM     62  C   UNL A   1      40.678  35.407  37.250  1.00  0.00     0.040 A 
ATOM     63  C   UNL A   1      41.980  36.612  35.624  1.00  0.00     0.040 A 
ATOM     64  F   UNL A   1      42.467  35.637  33.548  1.00  0.00    -0.206 F 
ATOM     65  C   UNL A   1      41.367  36.558  36.874  1.00  0.00     0.006 A 
ENDBRANCH  44  58
BRANCH  45  66
ATOM     66  C   UNL A   1      40.305  27.183  28.225  1.00  0.00     0.057 A 
ATOM     67  C   UNL A   1      40.938  27.344  26.988  1.00  0.00     0.134 A 
ATOM     68  C   UNL A   1      39.593  25.995  28.435  1.00  0.00     0.134 A 
ATOM     69  F   UNL A   1      41.621  28.468  26.722  1.00  0.00    -0.206 F 
ATOM     70  C   UNL A   1      40.862  26.368  25.994  1.00  0.00     0.040 A 
ATOM     71  C   UNL A   1      39.527  25.001  27.459  1.00  0.00     0.040 A 
ATOM     72  F   UNL A   1      38.972  25.777  29.604  1.00  0.00    -0.206 F 
ATOM     73  C   UNL A   1      40.160  25.187  26.232  1.00  0.00     0.006 A 
ENDBRANCH  45  66
BRANCH  57  74
ATOM     74  C   UNL A   1      44.929  28.458  33.285  1.00  0.00     0.057 A 
ATOM     75  C   UNL A   1      44.883  27.439  34.244  1.00  0.00     0.134 A 
ATOM     76  C   UNL A   1      46.175  28.756  32.716  1.00  0.00     0.134 A 
ATOM     77  F   UNL A   1      43.724  27.113  34.836  1.00  0.00    -0.206 F 
ATOM     78  C   UNL A   1      46.035  26.753  34.634  1.00  0.00     0.040 A 
ATOM     79  C   UNL A   1      47.328  28.061  33.079  1.00  0.00     0.040 A 
ATOM     80  F   UNL A   1      46.286  29.717  31.786  1.00  0.00    -0.206 F 
ATOM     81  C   UNL A   1      47.261  27.058  34.045  1.00  0.00     0.006 A 
ENDBRANCH  57  74
ENDBRANCH  31  32
ENDBRANCH  23  26
ENDBRANCH  21  22
ENDBRANCH  20  21
ENDBRANCH  19  20
ENDBRANCH   1  19
TORSDOF 15
ENDMDL
