MODEL 1
REMARK VINA RESULT:     -12.1      0.000      0.000
REMARK SMILES O=C(NCCCCCCNC(=O)c1cc(S(=O)(=O)Nc2cccc(Cl)c2)ccc1O)c1ccc(-c2c3nc(c(-c4c(F)cccc4F)c4ccc([nH]4)c(-c4c(F)cccc4F)c4nc(c(-c5c(F)cccc5F)c5ccc2[nH]5)C=C4)C=C3)cc1
REMARK SMILES IDX 7 1 6 2 5 3 4 4 3 5 1 6 2 7 31 9 32 10 84 11 33 12 83 13
REMARK SMILES IDX 34 14 35 15 36 16 77 17 37 18 82 19 76 20 78 21 38 22 81 23
REMARK SMILES IDX 75 24 74 25 39 27 65 28 48 29 64 30 49 31 52 32 63 33 79 34
REMARK SMILES IDX 50 35 51 36 62 38 80 39 53 40 40 41 41 42 46 43 42 44 43 45
REMARK SMILES IDX 45 46 47 47 44 48 66 49 67 50 72 51 68 52 69 53 71 54 73 55
REMARK SMILES IDX 70 56 54 57 55 58 60 59 56 60 57 61 59 62 61 63 58 64 8 65
REMARK SMILES IDX 9 66 10 67 11 68 12 70 13 71 14 72 29 73 15 74 28 75 27 76
REMARK SMILES IDX 30 77 16 79 17 80 18 81 19 82 20 84 21 85 26 86 22 87 24 88
REMARK SMILES IDX 23 89 25 90
REMARK H PARENT 3 8 78 26 52 37 10 69 30 78 19 83
REMARK Flexibility Score: inf
ROOT
ATOM      1  C   UNL A   1      33.008  29.474  26.187  1.00  0.00     0.002 C 
ENDROOT
BRANCH   1   2
ATOM      2  C   UNL A   1      31.745  30.231  25.765  1.00  0.00     0.002 C 
BRANCH   2   3
ATOM      3  C   UNL A   1      31.483  31.546  26.498  1.00  0.00     0.021 C 
BRANCH   3   4
ATOM      4  C   UNL A   1      32.720  32.227  27.072  1.00  0.00     0.116 C 
BRANCH   4   5
ATOM      5  N   UNL A   1      32.488  33.616  27.440  1.00  0.00    -0.352 N 
ATOM      6  O   UNL A   1      32.697  35.509  28.653  1.00  0.00    -0.269 OA
ATOM      7  C   UNL A   1      33.120  34.389  28.384  1.00  0.00     0.251 C 
ATOM      8  H   UNL A   1      31.771  34.068  26.938  1.00  0.00     0.163 HD
BRANCH   7   9
ATOM      9  C   UNL A   1      34.295  33.852  29.105  1.00  0.00     0.039 A 
ATOM     10  C   UNL A   1      35.572  34.362  28.865  1.00  0.00     0.014 A 
ATOM     11  C   UNL A   1      34.118  32.806  30.015  1.00  0.00     0.014 A 
ATOM     12  C   UNL A   1      36.682  33.709  29.386  1.00  0.00     0.010 A 
ATOM     13  C   UNL A   1      35.233  32.217  30.619  1.00  0.00     0.010 A 
ATOM     14  C   UNL A   1      36.529  32.630  30.271  1.00  0.00    -0.014 A 
BRANCH  14  15
ATOM     15  C   UNL A   1      37.740  31.971  30.828  1.00  0.00     0.031 A 
ATOM     16  C   UNL A   1      38.236  32.292  32.213  1.00  0.00     0.074 A 
ATOM     17  C   UNL A   1      38.369  31.036  30.089  1.00  0.00     0.049 A 
ATOM     18  N   UNL A   1      39.243  31.771  32.869  1.00  0.00    -0.248 NA
ATOM     19  C   UNL A   1      37.517  33.337  32.957  1.00  0.00     0.031 C 
ATOM     20  C   UNL A   1      37.990  30.643  28.729  1.00  0.00     0.029 A 
ATOM     21  N   UNL A   1      39.438  30.230  30.381  1.00  0.00    -0.354 N 
ATOM     22  C   UNL A   1      39.295  32.440  34.087  1.00  0.00     0.074 A 
ATOM     23  C   UNL A   1      38.234  33.423  34.069  1.00  0.00     0.031 C 
ATOM     24  C   UNL A   1      38.776  29.635  28.328  1.00  0.00     0.029 A 
ATOM     25  C   UNL A   1      39.755  29.353  29.371  1.00  0.00     0.049 A 
ATOM     26  H   UNL A   1      39.933  30.276  31.230  1.00  0.00     0.167 HD
ATOM     27  C   UNL A   1      40.144  32.246  35.125  1.00  0.00     0.037 A 
ATOM     28  C   UNL A   1      40.730  28.432  29.287  1.00  0.00     0.037 A 
ATOM     29  C   UNL A   1      41.189  31.252  35.145  1.00  0.00     0.049 A 
ATOM     30  C   UNL A   1      41.669  28.253  30.446  1.00  0.00     0.074 A 
ATOM     31  C   UNL A   1      42.074  30.951  36.167  1.00  0.00     0.029 A 
ATOM     32  N   UNL A   1      41.498  30.406  34.090  1.00  0.00    -0.354 N 
ATOM     33  N   UNL A   1      41.675  28.861  31.607  1.00  0.00    -0.248 NA
ATOM     34  C   UNL A   1      42.734  27.256  30.281  1.00  0.00     0.031 C 
ATOM     35  C   UNL A   1      42.950  29.961  35.712  1.00  0.00     0.029 A 
ATOM     36  C   UNL A   1      42.573  29.599  34.430  1.00  0.00     0.049 A 
ATOM     37  H   UNL A   1      41.022  30.382  33.229  1.00  0.00     0.167 HD
ATOM     38  C   UNL A   1      42.723  28.300  32.323  1.00  0.00     0.074 A 
ATOM     39  C   UNL A   1      43.318  27.292  31.470  1.00  0.00     0.031 C 
ATOM     40  C   UNL A   1      43.151  28.591  33.576  1.00  0.00     0.037 A 
BRANCH  27  41
ATOM     41  C   UNL A   1      39.997  33.142  36.324  1.00  0.00     0.057 A 
ATOM     42  C   UNL A   1      39.120  32.845  37.376  1.00  0.00     0.134 A 
ATOM     43  C   UNL A   1      40.776  34.300  36.444  1.00  0.00     0.134 A 
ATOM     44  F   UNL A   1      38.337  31.757  37.323  1.00  0.00    -0.206 F 
ATOM     45  C   UNL A   1      39.006  33.680  38.490  1.00  0.00     0.040 A 
ATOM     46  C   UNL A   1      40.691  35.127  37.566  1.00  0.00     0.040 A 
ATOM     47  F   UNL A   1      41.643  34.641  35.480  1.00  0.00    -0.206 F 
ATOM     48  C   UNL A   1      39.798  34.822  38.590  1.00  0.00     0.006 A 
ENDBRANCH  27  41
BRANCH  28  49
ATOM     49  C   UNL A   1      40.863  27.602  28.063  1.00  0.00     0.057 A 
ATOM     50  C   UNL A   1      41.618  28.042  26.970  1.00  0.00     0.134 A 
ATOM     51  C   UNL A   1      40.239  26.353  27.956  1.00  0.00     0.134 A 
ATOM     52  F   UNL A   1      42.227  29.236  27.007  1.00  0.00    -0.206 F 
ATOM     53  C   UNL A   1      41.730  27.280  25.806  1.00  0.00     0.040 A 
ATOM     54  C   UNL A   1      40.368  25.567  26.810  1.00  0.00     0.040 A 
ATOM     55  F   UNL A   1      39.510  25.870  28.973  1.00  0.00    -0.206 F 
ATOM     56  C   UNL A   1      41.109  26.036  25.728  1.00  0.00     0.006 A 
ENDBRANCH  28  49
BRANCH  40  57
ATOM     57  C   UNL A   1      44.284  27.769  34.118  1.00  0.00     0.057 A 
ATOM     58  C   UNL A   1      44.077  26.547  34.771  1.00  0.00     0.134 A 
ATOM     59  C   UNL A   1      45.608  28.207  33.974  1.00  0.00     0.134 A 
ATOM     60  F   UNL A   1      42.833  26.077  34.956  1.00  0.00    -0.206 F 
ATOM     61  C   UNL A   1      45.141  25.807  35.289  1.00  0.00     0.040 A 
ATOM     62  C   UNL A   1      46.682  27.461  34.460  1.00  0.00     0.040 A 
ATOM     63  F   UNL A   1      45.879  29.364  33.352  1.00  0.00    -0.206 F 
ATOM     64  C   UNL A   1      46.449  26.261  35.129  1.00  0.00     0.006 A 
ENDBRANCH  40  57
ENDBRANCH  14  15
ENDBRANCH   7   9
ENDBRANCH   4   5
ENDBRANCH   3   4
ENDBRANCH   2   3
ENDBRANCH   1   2
BRANCH   1  65
ATOM     65  C   UNL A   1      33.666  28.625  25.099  1.00  0.00     0.021 C 
BRANCH  65  66
ATOM     66  C   UNL A   1      33.291  28.996  23.670  1.00  0.00     0.116 C 
BRANCH  66  67
ATOM     67  N   UNL A   1      33.766  28.047  22.675  1.00  0.00    -0.352 N 
ATOM     68  C   UNL A   1      33.196  26.845  22.304  1.00  0.00     0.255 C 
ATOM     69  H   UNL A   1      34.597  28.291  22.207  1.00  0.00     0.163 HD
ATOM     70  O   UNL A   1      33.730  26.130  21.464  1.00  0.00    -0.269 OA
BRANCH  68  71
ATOM     71  C   UNL A   1      31.989  26.374  23.020  1.00  0.00     0.082 A 
ATOM     72  C   UNL A   1      32.150  25.367  23.980  1.00  0.00     0.040 A 
ATOM     73  C   UNL A   1      30.746  26.990  22.858  1.00  0.00     0.128 A 
ATOM     74  C   UNL A   1      31.119  25.117  24.895  1.00  0.00     0.088 A 
ATOM     75  C   UNL A   1      29.762  26.810  23.819  1.00  0.00     0.048 A 
ATOM     76  C   UNL A   1      29.996  25.942  24.886  1.00  0.00     0.026 A 
BRANCH  73  77
ATOM     77  O   UNL A   1      30.514  27.828  21.805  1.00  0.00    -0.507 OA
ATOM     78  H   UNL A   1      29.880  27.599  21.154  1.00  0.00     0.293 HD
ENDBRANCH  73  77
BRANCH  74  79
ATOM     79  S   UNL A   1      31.347  23.802  26.073  1.00  0.00     0.261 S 
ATOM     80  O   UNL A   1      31.582  24.422  27.358  1.00  0.00    -0.201 OA
ATOM     81  O   UNL A   1      30.232  22.895  25.884  1.00  0.00    -0.201 OA
BRANCH  79  82
ATOM     82  N   UNL A   1      32.742  22.868  25.774  1.00  0.00    -0.280 N 
ATOM     83  H   UNL A   1      33.604  23.169  26.141  1.00  0.00     0.180 HD
BRANCH  82  84
ATOM     84  C   UNL A   1      32.702  21.664  25.010  1.00  0.00     0.050 A 
ATOM     85  C   UNL A   1      32.495  21.736  23.630  1.00  0.00     0.027 A 
ATOM     86  C   UNL A   1      32.790  20.423  25.647  1.00  0.00     0.047 A 
ATOM     87  C   UNL A   1      32.315  20.566  22.890  1.00  0.00     0.004 A 
ATOM     88  C   UNL A   1      32.622  19.258  24.896  1.00  0.00     0.043 A 
ATOM     89  C   UNL A   1      32.369  19.324  23.526  1.00  0.00     0.020 A 
ATOM     90  Cl  UNL A   1      32.681  17.725  25.676  1.00  0.00    -0.084 Cl
ENDBRANCH  82  84
ENDBRANCH  79  82
ENDBRANCH  74  79
ENDBRANCH  68  71
ENDBRANCH  66  67
ENDBRANCH  65  66
ENDBRANCH   1  65
TORSDOF 17
ENDMDL
MODEL 2
REMARK VINA RESULT:     -11.9      1.546      2.321
REMARK SMILES O=C(NCCCCCCNC(=O)c1cc(S(=O)(=O)Nc2cccc(Cl)c2)ccc1O)c1ccc(-c2c3nc(c(-c4c(F)cccc4F)c4ccc([nH]4)c(-c4c(F)cccc4F)c4nc(c(-c5c(F)cccc5F)c5ccc2[nH]5)C=C4)C=C3)cc1
REMARK SMILES IDX 7 1 6 2 5 3 4 4 3 5 1 6 2 7 31 9 32 10 84 11 33 12 83 13
REMARK SMILES IDX 34 14 35 15 36 16 77 17 37 18 82 19 76 20 78 21 38 22 81 23
REMARK SMILES IDX 75 24 74 25 39 27 65 28 48 29 64 30 49 31 52 32 63 33 79 34
REMARK SMILES IDX 50 35 51 36 62 38 80 39 53 40 40 41 41 42 46 43 42 44 43 45
REMARK SMILES IDX 45 46 47 47 44 48 66 49 67 50 72 51 68 52 69 53 71 54 73 55
REMARK SMILES IDX 70 56 54 57 55 58 60 59 56 60 57 61 59 62 61 63 58 64 8 65
REMARK SMILES IDX 9 66 10 67 11 68 12 70 13 71 14 72 29 73 15 74 28 75 27 76
REMARK SMILES IDX 30 77 16 79 17 80 18 81 19 82 20 84 21 85 26 86 22 87 24 88
REMARK SMILES IDX 23 89 25 90
REMARK H PARENT 3 8 78 26 52 37 10 69 30 78 19 83
REMARK Flexibility Score: inf
ROOT
ATOM      1  C   UNL A   1      33.190  30.020  25.912  1.00  0.00     0.002 C 
ENDROOT
BRANCH   1   2
ATOM      2  C   UNL A   1      31.718  30.426  26.022  1.00  0.00     0.002 C 
BRANCH   2   3
ATOM      3  C   UNL A   1      31.453  31.812  26.610  1.00  0.00     0.021 C 
BRANCH   3   4
ATOM      4  C   UNL A   1      32.649  32.468  27.290  1.00  0.00     0.116 C 
BRANCH   4   5
ATOM      5  N   UNL A   1      32.405  33.854  27.660  1.00  0.00    -0.352 N 
ATOM      6  O   UNL A   1      32.673  35.777  28.815  1.00  0.00    -0.269 OA
ATOM      7  C   UNL A   1      33.107  34.668  28.517  1.00  0.00     0.251 C 
ATOM      8  H   UNL A   1      31.620  34.270  27.234  1.00  0.00     0.163 HD
BRANCH   7   9
ATOM      9  C   UNL A   1      34.374  34.188  29.111  1.00  0.00     0.039 A 
ATOM     10  C   UNL A   1      35.594  34.435  28.481  1.00  0.00     0.014 A 
ATOM     11  C   UNL A   1      34.335  33.460  30.304  1.00  0.00     0.014 A 
ATOM     12  C   UNL A   1      36.743  33.801  28.936  1.00  0.00     0.010 A 
ATOM     13  C   UNL A   1      35.513  32.908  30.817  1.00  0.00     0.010 A 
ATOM     14  C   UNL A   1      36.720  33.030  30.110  1.00  0.00    -0.014 A 
BRANCH  14  15
ATOM     15  C   UNL A   1      37.974  32.385  30.580  1.00  0.00     0.031 A 
ATOM     16  C   UNL A   1      38.743  32.936  31.751  1.00  0.00     0.074 A 
ATOM     17  C   UNL A   1      38.396  31.261  29.968  1.00  0.00     0.049 A 
ATOM     18  N   UNL A   1      39.826  32.467  32.321  1.00  0.00    -0.248 NA
ATOM     19  C   UNL A   1      38.241  34.178  32.359  1.00  0.00     0.031 C 
ATOM     20  C   UNL A   1      37.743  30.634  28.816  1.00  0.00     0.029 A 
ATOM     21  N   UNL A   1      39.453  30.433  30.241  1.00  0.00    -0.354 N 
ATOM     22  C   UNL A   1      40.148  33.364  33.333  1.00  0.00     0.074 A 
ATOM     23  C   UNL A   1      39.161  34.422  33.282  1.00  0.00     0.031 C 
ATOM     24  C   UNL A   1      38.378  29.493  28.518  1.00  0.00     0.029 A 
ATOM     25  C   UNL A   1      39.520  29.339  29.411  1.00  0.00     0.049 A 
ATOM     26  H   UNL A   1      40.103  30.605  30.960  1.00  0.00     0.167 HD
ATOM     27  C   UNL A   1      41.167  33.307  34.225  1.00  0.00     0.037 A 
ATOM     28  C   UNL A   1      40.406  28.329  29.365  1.00  0.00     0.037 A 
ATOM     29  C   UNL A   1      42.137  32.242  34.281  1.00  0.00     0.049 A 
ATOM     30  C   UNL A   1      41.537  28.303  30.353  1.00  0.00     0.074 A 
ATOM     31  C   UNL A   1      43.181  32.074  35.175  1.00  0.00     0.029 A 
ATOM     32  N   UNL A   1      42.189  31.170  33.404  1.00  0.00    -0.354 N 
ATOM     33  N   UNL A   1      41.799  29.135  31.332  1.00  0.00    -0.248 NA
ATOM     34  C   UNL A   1      42.492  27.195  30.231  1.00  0.00     0.031 C 
ATOM     35  C   UNL A   1      43.895  30.931  34.805  1.00  0.00     0.029 A 
ATOM     36  C   UNL A   1      43.260  30.350  33.721  1.00  0.00     0.049 A 
ATOM     37  H   UNL A   1      41.557  31.015  32.665  1.00  0.00     0.167 HD
ATOM     38  C   UNL A   1      42.930  28.634  31.961  1.00  0.00     0.074 A 
ATOM     39  C   UNL A   1      43.292  27.419  31.262  1.00  0.00     0.031 C 
ATOM     40  C   UNL A   1      43.606  29.136  33.025  1.00  0.00     0.037 A 
BRANCH  27  41
ATOM     41  C   UNL A   1      41.303  34.443  35.202  1.00  0.00     0.057 A 
ATOM     42  C   UNL A   1      42.081  35.575  34.928  1.00  0.00     0.134 A 
ATOM     43  C   UNL A   1      40.608  34.418  36.419  1.00  0.00     0.134 A 
ATOM     44  F   UNL A   1      42.780  35.661  33.786  1.00  0.00    -0.206 F 
ATOM     45  C   UNL A   1      42.185  36.628  35.839  1.00  0.00     0.040 A 
ATOM     46  C   UNL A   1      40.682  35.478  37.325  1.00  0.00     0.040 A 
ATOM     47  F   UNL A   1      39.837  33.371  36.743  1.00  0.00    -0.206 F 
ATOM     48  C   UNL A   1      41.478  36.585  37.040  1.00  0.00     0.006 A 
ENDBRANCH  27  41
BRANCH  28  49
ATOM     49  C   UNL A   1      40.255  27.255  28.351  1.00  0.00     0.057 A 
ATOM     50  C   UNL A   1      40.858  27.359  27.093  1.00  0.00     0.134 A 
ATOM     51  C   UNL A   1      39.504  26.103  28.614  1.00  0.00     0.134 A 
ATOM     52  F   UNL A   1      41.578  28.446  26.776  1.00  0.00    -0.206 F 
ATOM     53  C   UNL A   1      40.703  26.366  26.124  1.00  0.00     0.040 A 
ATOM     54  C   UNL A   1      39.366  25.088  27.667  1.00  0.00     0.040 A 
ATOM     55  F   UNL A   1      38.910  25.939  29.806  1.00  0.00    -0.206 F 
ATOM     56  C   UNL A   1      39.960  25.223  26.414  1.00  0.00     0.006 A 
ENDBRANCH  28  49
BRANCH  40  57
ATOM     57  C   UNL A   1      44.773  28.337  33.530  1.00  0.00     0.057 A 
ATOM     58  C   UNL A   1      46.085  28.580  33.105  1.00  0.00     0.134 A 
ATOM     59  C   UNL A   1      44.577  27.313  34.467  1.00  0.00     0.134 A 
ATOM     60  F   UNL A   1      46.341  29.536  32.198  1.00  0.00    -0.206 F 
ATOM     61  C   UNL A   1      47.155  27.812  33.568  1.00  0.00     0.040 A 
ATOM     62  C   UNL A   1      45.642  26.560  34.960  1.00  0.00     0.040 A 
ATOM     63  F   UNL A   1      43.347  27.033  34.923  1.00  0.00    -0.206 F 
ATOM     64  C   UNL A   1      46.936  26.802  34.503  1.00  0.00     0.006 A 
ENDBRANCH  40  57
ENDBRANCH  14  15
ENDBRANCH   7   9
ENDBRANCH   4   5
ENDBRANCH   3   4
ENDBRANCH   2   3
ENDBRANCH   1   2
BRANCH   1  65
ATOM     65  C   UNL A   1      33.456  28.651  25.284  1.00  0.00     0.021 C 
BRANCH  65  66
ATOM     66  C   UNL A   1      33.603  28.651  23.768  1.00  0.00     0.116 C 
BRANCH  66  67
ATOM     67  N   UNL A   1      32.335  28.573  23.057  1.00  0.00    -0.352 N 
ATOM     68  C   UNL A   1      31.647  27.443  22.665  1.00  0.00     0.255 C 
ATOM     69  H   UNL A   1      31.916  29.434  22.827  1.00  0.00     0.163 HD
ATOM     70  O   UNL A   1      30.595  27.532  22.042  1.00  0.00    -0.269 OA
BRANCH  68  71
ATOM     71  C   UNL A   1      32.255  26.115  22.906  1.00  0.00     0.082 A 
ATOM     72  C   UNL A   1      32.090  25.539  24.172  1.00  0.00     0.040 A 
ATOM     73  C   UNL A   1      32.861  25.383  21.881  1.00  0.00     0.128 A 
ATOM     74  C   UNL A   1      32.360  24.176  24.349  1.00  0.00     0.088 A 
ATOM     75  C   UNL A   1      33.040  24.016  22.030  1.00  0.00     0.048 A 
ATOM     76  C   UNL A   1      32.697  23.406  23.237  1.00  0.00     0.026 A 
BRANCH  73  77
ATOM     77  O   UNL A   1      33.209  25.984  20.706  1.00  0.00    -0.507 OA
ATOM     78  H   UNL A   1      32.609  25.989  19.986  1.00  0.00     0.293 HD
ENDBRANCH  73  77
BRANCH  74  79
ATOM     79  S   UNL A   1      32.176  23.493  25.982  1.00  0.00     0.261 S 
ATOM     80  O   UNL A   1      31.438  24.460  26.765  1.00  0.00    -0.201 OA
ATOM     81  O   UNL A   1      31.664  22.148  25.801  1.00  0.00    -0.201 OA
BRANCH  79  82
ATOM     82  N   UNL A   1      33.659  23.303  26.801  1.00  0.00    -0.280 N 
ATOM     83  H   UNL A   1      33.683  23.426  27.777  1.00  0.00     0.180 HD
BRANCH  82  84
ATOM     84  C   UNL A   1      34.867  22.970  26.119  1.00  0.00     0.050 A 
ATOM     85  C   UNL A   1      35.650  23.992  25.577  1.00  0.00     0.027 A 
ATOM     86  C   UNL A   1      35.221  21.631  25.927  1.00  0.00     0.047 A 
ATOM     87  C   UNL A   1      36.760  23.677  24.790  1.00  0.00     0.004 A 
ATOM     88  C   UNL A   1      36.340  21.327  25.149  1.00  0.00     0.043 A 
ATOM     89  C   UNL A   1      37.100  22.342  24.567  1.00  0.00     0.020 A 
ATOM     90  Cl  UNL A   1      36.759  19.682  24.866  1.00  0.00    -0.084 Cl
ENDBRANCH  82  84
ENDBRANCH  79  82
ENDBRANCH  74  79
ENDBRANCH  68  71
ENDBRANCH  66  67
ENDBRANCH  65  66
ENDBRANCH   1  65
TORSDOF 17
ENDMDL
MODEL 3
REMARK VINA RESULT:     -11.9      1.705      6.452
REMARK SMILES O=C(NCCCCCCNC(=O)c1cc(S(=O)(=O)Nc2cccc(Cl)c2)ccc1O)c1ccc(-c2c3nc(c(-c4c(F)cccc4F)c4ccc([nH]4)c(-c4c(F)cccc4F)c4nc(c(-c5c(F)cccc5F)c5ccc2[nH]5)C=C4)C=C3)cc1
REMARK SMILES IDX 7 1 6 2 5 3 4 4 3 5 1 6 2 7 31 9 32 10 84 11 33 12 83 13
REMARK SMILES IDX 34 14 35 15 36 16 77 17 37 18 82 19 76 20 78 21 38 22 81 23
REMARK SMILES IDX 75 24 74 25 39 27 65 28 48 29 64 30 49 31 52 32 63 33 79 34
REMARK SMILES IDX 50 35 51 36 62 38 80 39 53 40 40 41 41 42 46 43 42 44 43 45
REMARK SMILES IDX 45 46 47 47 44 48 66 49 67 50 72 51 68 52 69 53 71 54 73 55
REMARK SMILES IDX 70 56 54 57 55 58 60 59 56 60 57 61 59 62 61 63 58 64 8 65
REMARK SMILES IDX 9 66 10 67 11 68 12 70 13 71 14 72 29 73 15 74 28 75 27 76
REMARK SMILES IDX 30 77 16 79 17 80 18 81 19 82 20 84 21 85 26 86 22 87 24 88
REMARK SMILES IDX 23 89 25 90
REMARK H PARENT 3 8 78 26 52 37 10 69 30 78 19 83
REMARK Flexibility Score: inf
ROOT
ATOM      1  C   UNL A   1      32.221  29.745  27.137  1.00  0.00     0.002 C 
ENDROOT
BRANCH   1   2
ATOM      2  C   UNL A   1      31.667  30.713  26.088  1.00  0.00     0.002 C 
BRANCH   2   3
ATOM      3  C   UNL A   1      31.425  32.144  26.567  1.00  0.00     0.021 C 
BRANCH   3   4
ATOM      4  C   UNL A   1      32.609  32.805  27.262  1.00  0.00     0.116 C 
BRANCH   4   5
ATOM      5  N   UNL A   1      32.364  34.199  27.602  1.00  0.00    -0.352 N 
ATOM      6  O   UNL A   1      32.528  36.107  28.800  1.00  0.00    -0.269 OA
ATOM      7  C   UNL A   1      32.959  34.983  28.562  1.00  0.00     0.251 C 
ATOM      8  H   UNL A   1      31.670  34.646  27.066  1.00  0.00     0.163 HD
BRANCH   7   9
ATOM      9  C   UNL A   1      34.102  34.452  29.338  1.00  0.00     0.039 A 
ATOM     10  C   UNL A   1      35.403  34.546  28.843  1.00  0.00     0.014 A 
ATOM     11  C   UNL A   1      33.863  33.830  30.567  1.00  0.00     0.014 A 
ATOM     12  C   UNL A   1      36.431  33.860  29.477  1.00  0.00     0.010 A 
ATOM     13  C   UNL A   1      34.920  33.228  31.256  1.00  0.00     0.010 A 
ATOM     14  C   UNL A   1      36.205  33.194  30.692  1.00  0.00    -0.014 A 
BRANCH  14  15
ATOM     15  C   UNL A   1      37.335  32.490  31.355  1.00  0.00     0.031 A 
ATOM     16  C   UNL A   1      38.058  31.359  30.673  1.00  0.00     0.074 A 
ATOM     17  C   UNL A   1      37.741  32.912  32.569  1.00  0.00     0.049 A 
ATOM     18  N   UNL A   1      39.094  30.674  31.089  1.00  0.00    -0.248 NA
ATOM     19  C   UNL A   1      37.550  30.933  29.360  1.00  0.00     0.031 C 
ATOM     20  C   UNL A   1      37.116  33.992  33.337  1.00  0.00     0.029 A 
ATOM     21  N   UNL A   1      38.785  32.506  33.358  1.00  0.00    -0.354 N 
ATOM     22  C   UNL A   1      39.346  29.724  30.105  1.00  0.00     0.074 A 
ATOM     23  C   UNL A   1      38.337  29.903  29.083  1.00  0.00     0.031 C 
ATOM     24  C   UNL A   1      37.821  34.201  34.456  1.00  0.00     0.029 A 
ATOM     25  C   UNL A   1      38.907  33.229  34.520  1.00  0.00     0.049 A 
ATOM     26  H   UNL A   1      39.389  31.767  33.117  1.00  0.00     0.167 HD
ATOM     27  C   UNL A   1      40.331  28.794  30.056  1.00  0.00     0.037 A 
ATOM     28  C   UNL A   1      39.787  33.119  35.531  1.00  0.00     0.037 A 
ATOM     29  C   UNL A   1      41.345  28.632  31.068  1.00  0.00     0.049 A 
ATOM     30  C   UNL A   1      40.855  32.066  35.458  1.00  0.00     0.074 A 
ATOM     31  C   UNL A   1      42.409  27.746  31.088  1.00  0.00     0.029 A 
ATOM     32  N   UNL A   1      41.414  29.363  32.245  1.00  0.00    -0.354 N 
ATOM     33  N   UNL A   1      41.106  31.208  34.500  1.00  0.00    -0.248 NA
ATOM     34  C   UNL A   1      41.764  31.971  36.607  1.00  0.00     0.031 C 
ATOM     35  C   UNL A   1      43.090  27.906  32.299  1.00  0.00     0.029 A 
ATOM     36  C   UNL A   1      42.490  28.933  33.007  1.00  0.00     0.049 A 
ATOM     37  H   UNL A   1      40.792  30.081  32.500  1.00  0.00     0.167 HD
ATOM     38  C   UNL A   1      42.220  30.492  34.916  1.00  0.00     0.074 A 
ATOM     39  C   UNL A   1      42.604  31.029  36.205  1.00  0.00     0.031 C 
ATOM     40  C   UNL A   1      42.869  29.482  34.284  1.00  0.00     0.037 A 
BRANCH  27  41
ATOM     41  C   UNL A   1      40.351  27.860  28.877  1.00  0.00     0.057 A 
ATOM     42  C   UNL A   1      41.104  28.126  27.726  1.00  0.00     0.134 A 
ATOM     43  C   UNL A   1      39.637  26.656  28.914  1.00  0.00     0.134 A 
ATOM     44  F   UNL A   1      41.805  29.265  27.618  1.00  0.00    -0.206 F 
ATOM     45  C   UNL A   1      41.124  27.241  26.645  1.00  0.00     0.040 A 
ATOM     46  C   UNL A   1      39.672  25.750  27.852  1.00  0.00     0.040 A 
ATOM     47  F   UNL A   1      38.902  26.331  29.988  1.00  0.00    -0.206 F 
ATOM     48  C   UNL A   1      40.412  26.045  26.709  1.00  0.00     0.006 A 
ENDBRANCH  27  41
BRANCH  28  49
ATOM     49  C   UNL A   1      39.697  34.036  36.695  1.00  0.00     0.057 A 
ATOM     50  C   UNL A   1      39.012  33.664  37.857  1.00  0.00     0.134 A 
ATOM     51  C   UNL A   1      40.292  35.303  36.674  1.00  0.00     0.134 A 
ATOM     52  F   UNL A   1      38.407  32.469  37.932  1.00  0.00    -0.206 F 
ATOM     53  C   UNL A   1      38.902  34.528  38.948  1.00  0.00     0.040 A 
ATOM     54  C   UNL A   1      40.218  36.164  37.769  1.00  0.00     0.040 A 
ATOM     55  F   UNL A   1      40.973  35.714  35.594  1.00  0.00    -0.206 F 
ATOM     56  C   UNL A   1      39.512  35.779  38.907  1.00  0.00     0.006 A 
ENDBRANCH  28  49
BRANCH  40  57
ATOM     57  C   UNL A   1      44.094  28.932  34.957  1.00  0.00     0.057 A 
ATOM     58  C   UNL A   1      45.376  29.434  34.701  1.00  0.00     0.134 A 
ATOM     59  C   UNL A   1      43.982  27.887  35.884  1.00  0.00     0.134 A 
ATOM     60  F   UNL A   1      45.554  30.424  33.812  1.00  0.00    -0.206 F 
ATOM     61  C   UNL A   1      46.506  28.894  35.318  1.00  0.00     0.040 A 
ATOM     62  C   UNL A   1      45.101  27.361  36.530  1.00  0.00     0.040 A 
ATOM     63  F   UNL A   1      42.783  27.365  36.182  1.00  0.00    -0.206 F 
ATOM     64  C   UNL A   1      46.370  27.859  36.240  1.00  0.00     0.006 A 
ENDBRANCH  40  57
ENDBRANCH  14  15
ENDBRANCH   7   9
ENDBRANCH   4   5
ENDBRANCH   3   4
ENDBRANCH   2   3
ENDBRANCH   1   2
BRANCH   1  65
ATOM     65  C   UNL A   1      33.696  29.373  26.982  1.00  0.00     0.021 C 
BRANCH  65  66
ATOM     66  C   UNL A   1      33.975  28.202  26.048  1.00  0.00     0.116 C 
BRANCH  66  67
ATOM     67  N   UNL A   1      34.380  28.604  24.710  1.00  0.00    -0.352 N 
ATOM     68  C   UNL A   1      33.638  28.559  23.547  1.00  0.00     0.255 C 
ATOM     69  H   UNL A   1      35.296  28.952  24.622  1.00  0.00     0.163 HD
ATOM     70  O   UNL A   1      34.125  28.907  22.477  1.00  0.00    -0.269 OA
BRANCH  68  71
ATOM     71  C   UNL A   1      32.279  27.973  23.587  1.00  0.00     0.082 A 
ATOM     72  C   UNL A   1      32.073  26.852  24.401  1.00  0.00     0.040 A 
ATOM     73  C   UNL A   1      31.193  28.580  22.949  1.00  0.00     0.128 A 
ATOM     74  C   UNL A   1      30.766  26.463  24.720  1.00  0.00     0.088 A 
ATOM     75  C   UNL A   1      29.902  28.255  23.337  1.00  0.00     0.048 A 
ATOM     76  C   UNL A   1      29.704  27.258  24.294  1.00  0.00     0.026 A 
BRANCH  73  77
ATOM     77  O   UNL A   1      31.390  29.543  22.002  1.00  0.00    -0.507 OA
ATOM     78  H   UNL A   1      31.529  30.434  22.261  1.00  0.00     0.293 HD
ENDBRANCH  73  77
BRANCH  74  79
ATOM     79  S   UNL A   1      30.548  25.010  25.724  1.00  0.00     0.261 S 
ATOM     80  O   UNL A   1      29.345  25.210  26.502  1.00  0.00    -0.201 OA
ATOM     81  O   UNL A   1      30.664  23.878  24.825  1.00  0.00    -0.201 OA
BRANCH  79  82
ATOM     82  N   UNL A   1      31.787  24.799  26.876  1.00  0.00    -0.280 N 
ATOM     83  H   UNL A   1      31.783  25.357  27.687  1.00  0.00     0.180 HD
BRANCH  82  84
ATOM     84  C   UNL A   1      32.828  23.839  26.705  1.00  0.00     0.050 A 
ATOM     85  C   UNL A   1      32.696  22.576  27.288  1.00  0.00     0.027 A 
ATOM     86  C   UNL A   1      34.001  24.186  26.029  1.00  0.00     0.047 A 
ATOM     87  C   UNL A   1      33.763  21.675  27.247  1.00  0.00     0.004 A 
ATOM     88  C   UNL A   1      35.057  23.273  25.983  1.00  0.00     0.043 A 
ATOM     89  C   UNL A   1      34.949  22.028  26.602  1.00  0.00     0.020 A 
ATOM     90  Cl  UNL A   1      36.524  23.706  25.194  1.00  0.00    -0.084 Cl
ENDBRANCH  82  84
ENDBRANCH  79  82
ENDBRANCH  74  79
ENDBRANCH  68  71
ENDBRANCH  66  67
ENDBRANCH  65  66
ENDBRANCH   1  65
TORSDOF 17
ENDMDL
