MODEL 1
REMARK VINA RESULT:     -11.9      0.000      0.000
REMARK SMILES Cc1nc(-c2cccc(F)c2)sc1C(=O)N[C@H](C)C(=O)NCCCCCCNC(=O)c1ccc(-c2c3nc(c(-c4c(F)cccc4F)c4ccc([nH]4)c(-c4c(F)cccc4F)c4nc(c(-c5c(F)cccc5F)c5ccc2[nH]5)C=C4)C=C3)cc1
REMARK SMILES IDX 24 1 23 2 22 3 21 4 19 5 20 6 17 8 18 9 16 10 14 11 15 12
REMARK SMILES IDX 13 14 1 15 2 16 3 17 4 18 12 19 5 20 6 21 11 22 7 23 9 24
REMARK SMILES IDX 8 25 10 26 25 27 26 28 27 29 28 30 29 31 30 33 31 34 32 35
REMARK SMILES IDX 84 36 33 37 83 38 34 39 35 40 36 41 77 42 37 43 82 44 76 45
REMARK SMILES IDX 78 46 38 47 81 48 75 49 74 50 39 52 65 53 48 54 64 55 49 56
REMARK SMILES IDX 52 57 63 58 79 59 50 60 51 61 62 63 80 64 53 65 40 66 41 67
REMARK SMILES IDX 46 68 42 69 43 70 45 71 47 72 44 73 66 74 67 75 72 76 68 77
REMARK SMILES IDX 69 78 71 79 73 80 70 81 54 82 55 83 60 84 56 85 57 86 59 87
REMARK SMILES IDX 61 88 58 89
REMARK H PARENT 21 7 16 13 28 32 78 51 52 62
REMARK Flexibility Score: inf
ROOT
ATOM      1  C   UNL A   1      32.069  29.449  26.301  1.00  0.00     0.002 C 
ENDROOT
BRANCH   1   2
ATOM      2  C   UNL A   1      33.583  29.220  26.245  1.00  0.00     0.021 C 
BRANCH   2   3
ATOM      3  C   UNL A   1      34.010  27.745  26.284  1.00  0.00     0.116 C 
BRANCH   3   4
ATOM      4  N   UNL A   1      32.883  26.886  26.608  1.00  0.00    -0.354 N 
ATOM      5  C   UNL A   1      32.556  25.603  26.312  1.00  0.00     0.242 C 
ATOM      6  O   UNL A   1      31.430  25.245  26.685  1.00  0.00    -0.273 OA
ATOM      7  H   UNL A   1      32.208  27.335  27.167  1.00  0.00     0.163 HD
BRANCH   5   8
ATOM      8  C   UNL A   1      33.489  24.569  25.619  1.00  0.00     0.168 C 
ATOM      9  C   UNL A   1      33.401  23.152  26.206  1.00  0.00     0.041 C 
BRANCH   8  10
ATOM     10  N   UNL A   1      33.748  24.517  24.190  1.00  0.00    -0.340 N 
ATOM     11  C   UNL A   1      33.376  25.201  23.069  1.00  0.00     0.263 C 
ATOM     12  O   UNL A   1      33.681  24.578  22.042  1.00  0.00    -0.268 OA
ATOM     13  H   UNL A   1      34.365  23.783  23.969  1.00  0.00     0.164 HD
BRANCH  11  14
ATOM     14  C   UNL A   1      32.808  26.544  23.017  1.00  0.00     0.115 A 
ATOM     15  C   UNL A   1      34.502  28.503  22.466  1.00  0.00     0.068 C 
ATOM     16  C   UNL A   1      33.202  27.854  22.754  1.00  0.00     0.062 A 
ATOM     17  N   UNL A   1      32.163  28.770  22.694  1.00  0.00    -0.241 NA
ATOM     18  C   UNL A   1      30.999  28.217  22.911  1.00  0.00     0.124 A 
ATOM     19  S   UNL A   1      31.069  26.576  23.326  1.00  0.00    -0.108 S 
BRANCH  18  20
ATOM     20  C   UNL A   1      29.748  28.937  22.681  1.00  0.00     0.013 A 
ATOM     21  C   UNL A   1      28.502  28.512  23.160  1.00  0.00     0.011 A 
ATOM     22  C   UNL A   1      29.829  30.146  21.974  1.00  0.00     0.050 A 
ATOM     23  C   UNL A   1      27.364  29.298  22.947  1.00  0.00     0.004 A 
ATOM     24  C   UNL A   1      28.694  30.911  21.761  1.00  0.00     0.123 A 
ATOM     25  C   UNL A   1      27.462  30.503  22.250  1.00  0.00     0.039 A 
ATOM     26  F   UNL A   1      28.788  32.041  21.050  1.00  0.00    -0.207 F 
ENDBRANCH  18  20
ENDBRANCH  11  14
ENDBRANCH   8  10
ENDBRANCH   5   8
ENDBRANCH   3   4
ENDBRANCH   2   3
ENDBRANCH   1   2
BRANCH   1  27
ATOM     27  C   UNL A   1      31.603  30.824  25.804  1.00  0.00     0.002 C 
BRANCH  27  28
ATOM     28  C   UNL A   1      31.403  31.894  26.884  1.00  0.00     0.021 C 
BRANCH  28  29
ATOM     29  C   UNL A   1      32.662  32.660  27.287  1.00  0.00     0.116 C 
BRANCH  29  30
ATOM     30  N   UNL A   1      32.395  34.059  27.589  1.00  0.00    -0.352 N 
ATOM     31  C   UNL A   1      32.974  34.900  28.511  1.00  0.00     0.251 C 
ATOM     32  H   UNL A   1      31.684  34.469  27.046  1.00  0.00     0.163 HD
ATOM     33  O   UNL A   1      32.496  36.007  28.720  1.00  0.00    -0.269 OA
BRANCH  31  34
ATOM     34  C   UNL A   1      34.164  34.463  29.274  1.00  0.00     0.039 A 
ATOM     35  C   UNL A   1      34.004  34.004  30.583  1.00  0.00     0.014 A 
ATOM     36  C   UNL A   1      35.438  34.520  28.708  1.00  0.00     0.014 A 
ATOM     37  C   UNL A   1      35.107  33.513  31.287  1.00  0.00     0.010 A 
ATOM     38  C   UNL A   1      36.526  33.973  29.384  1.00  0.00     0.010 A 
ATOM     39  C   UNL A   1      36.370  33.447  30.673  1.00  0.00    -0.014 A 
BRANCH  39  40
ATOM     40  C   UNL A   1      37.517  32.773  31.334  1.00  0.00     0.031 A 
ATOM     41  C   UNL A   1      38.162  31.565  30.719  1.00  0.00     0.074 A 
ATOM     42  C   UNL A   1      37.933  33.218  32.537  1.00  0.00     0.049 A 
ATOM     43  N   UNL A   1      39.130  30.820  31.190  1.00  0.00    -0.248 NA
ATOM     44  C   UNL A   1      37.643  31.126  29.416  1.00  0.00     0.031 C 
ATOM     45  C   UNL A   1      37.364  34.360  33.254  1.00  0.00     0.029 A 
ATOM     46  N   UNL A   1      38.924  32.763  33.370  1.00  0.00    -0.354 N 
ATOM     47  C   UNL A   1      39.342  29.830  30.238  1.00  0.00     0.074 A 
ATOM     48  C   UNL A   1      38.362  30.034  29.193  1.00  0.00     0.031 C 
ATOM     49  C   UNL A   1      38.037  34.537  34.401  1.00  0.00     0.029 A 
ATOM     50  C   UNL A   1      39.052  33.496  34.525  1.00  0.00     0.049 A 
ATOM     51  H   UNL A   1      39.489  31.985  33.160  1.00  0.00     0.167 HD
ATOM     52  C   UNL A   1      40.286  28.860  30.226  1.00  0.00     0.037 A 
ATOM     53  C   UNL A   1      39.887  33.346  35.572  1.00  0.00     0.037 A 
ATOM     54  C   UNL A   1      41.262  28.664  31.266  1.00  0.00     0.049 A 
ATOM     55  C   UNL A   1      40.881  32.221  35.568  1.00  0.00     0.074 A 
ATOM     56  C   UNL A   1      42.284  27.731  31.322  1.00  0.00     0.029 A 
ATOM     57  N   UNL A   1      41.336  29.406  32.436  1.00  0.00    -0.354 N 
ATOM     58  N   UNL A   1      41.104  31.324  34.639  1.00  0.00    -0.248 NA
ATOM     59  C   UNL A   1      41.733  32.078  36.757  1.00  0.00     0.031 C 
ATOM     60  C   UNL A   1      42.940  27.874  32.547  1.00  0.00     0.029 A 
ATOM     61  C   UNL A   1      42.363  28.931  33.233  1.00  0.00     0.049 A 
ATOM     62  H   UNL A   1      40.745  30.160  32.665  1.00  0.00     0.167 HD
ATOM     63  C   UNL A   1      42.133  30.524  35.118  1.00  0.00     0.074 A 
ATOM     64  C   UNL A   1      42.498  31.046  36.419  1.00  0.00     0.031 C 
ATOM     65  C   UNL A   1      42.721  29.456  34.527  1.00  0.00     0.037 A 
BRANCH  52  66
ATOM     66  C   UNL A   1      40.323  27.937  29.042  1.00  0.00     0.057 A 
ATOM     67  C   UNL A   1      41.059  28.263  27.896  1.00  0.00     0.134 A 
ATOM     68  C   UNL A   1      39.572  26.754  29.011  1.00  0.00     0.134 A 
ATOM     69  F   UNL A   1      41.791  29.386  27.852  1.00  0.00    -0.206 F 
ATOM     70  C   UNL A   1      41.041  27.450  26.760  1.00  0.00     0.040 A 
ATOM     71  C   UNL A   1      39.569  25.918  27.893  1.00  0.00     0.040 A 
ATOM     72  F   UNL A   1      38.849  26.379  30.078  1.00  0.00    -0.206 F 
ATOM     73  C   UNL A   1      40.299  26.272  26.759  1.00  0.00     0.006 A 
ENDBRANCH  52  66
BRANCH  53  74
ATOM     74  C   UNL A   1      39.830  34.317  36.693  1.00  0.00     0.057 A 
ATOM     75  C   UNL A   1      39.074  34.067  37.846  1.00  0.00     0.134 A 
ATOM     76  C   UNL A   1      40.492  35.546  36.610  1.00  0.00     0.134 A 
ATOM     77  F   UNL A   1      38.410  32.911  37.982  1.00  0.00    -0.206 F 
ATOM     78  C   UNL A   1      38.957  35.017  38.863  1.00  0.00     0.040 A 
ATOM     79  C   UNL A   1      40.404  36.496  37.629  1.00  0.00     0.040 A 
ATOM     80  F   UNL A   1      41.245  35.834  35.538  1.00  0.00    -0.206 F 
ATOM     81  C   UNL A   1      39.624  36.235  38.755  1.00  0.00     0.006 A 
ENDBRANCH  53  74
BRANCH  65  82
ATOM     82  C   UNL A   1      43.832  28.768  35.264  1.00  0.00     0.057 A 
ATOM     83  C   UNL A   1      45.170  29.088  34.998  1.00  0.00     0.134 A 
ATOM     84  C   UNL A   1      43.580  27.710  36.145  1.00  0.00     0.134 A 
ATOM     85  F   UNL A   1      45.477  30.085  34.155  1.00  0.00    -0.206 F 
ATOM     86  C   UNL A   1      46.219  28.359  35.560  1.00  0.00     0.040 A 
ATOM     87  C   UNL A   1      44.622  26.989  36.732  1.00  0.00     0.040 A 
ATOM     88  F   UNL A   1      42.321  27.363  36.449  1.00  0.00    -0.206 F 
ATOM     89  C   UNL A   1      45.946  27.304  36.428  1.00  0.00     0.006 A 
ENDBRANCH  65  82
ENDBRANCH  39  40
ENDBRANCH  31  34
ENDBRANCH  29  30
ENDBRANCH  28  29
ENDBRANCH  27  28
ENDBRANCH   1  27
TORSDOF 16
ENDMDL
MODEL 2
REMARK VINA RESULT:     -11.9      1.151      6.292
REMARK SMILES Cc1nc(-c2cccc(F)c2)sc1C(=O)N[C@H](C)C(=O)NCCCCCCNC(=O)c1ccc(-c2c3nc(c(-c4c(F)cccc4F)c4ccc([nH]4)c(-c4c(F)cccc4F)c4nc(c(-c5c(F)cccc5F)c5ccc2[nH]5)C=C4)C=C3)cc1
REMARK SMILES IDX 24 1 23 2 22 3 21 4 19 5 20 6 17 8 18 9 16 10 14 11 15 12
REMARK SMILES IDX 13 14 1 15 2 16 3 17 4 18 12 19 5 20 6 21 11 22 7 23 9 24
REMARK SMILES IDX 8 25 10 26 25 27 26 28 27 29 28 30 29 31 30 33 31 34 32 35
REMARK SMILES IDX 84 36 33 37 83 38 34 39 35 40 36 41 77 42 37 43 82 44 76 45
REMARK SMILES IDX 78 46 38 47 81 48 75 49 74 50 39 52 65 53 48 54 64 55 49 56
REMARK SMILES IDX 52 57 63 58 79 59 50 60 51 61 62 63 80 64 53 65 40 66 41 67
REMARK SMILES IDX 46 68 42 69 43 70 45 71 47 72 44 73 66 74 67 75 72 76 68 77
REMARK SMILES IDX 69 78 71 79 73 80 70 81 54 82 55 83 60 84 56 85 57 86 59 87
REMARK SMILES IDX 61 88 58 89
REMARK H PARENT 21 7 16 13 28 32 78 51 52 62
REMARK Flexibility Score: inf
ROOT
ATOM      1  C   UNL A   1      32.814  29.741  25.682  1.00  0.00     0.002 C 
ENDROOT
BRANCH   1   2
ATOM      2  C   UNL A   1      33.778  28.671  26.204  1.00  0.00     0.021 C 
BRANCH   2   3
ATOM      3  C   UNL A   1      33.183  27.258  26.287  1.00  0.00     0.116 C 
BRANCH   3   4
ATOM      4  N   UNL A   1      34.087  26.277  25.710  1.00  0.00    -0.354 N 
ATOM      5  C   UNL A   1      33.991  24.954  25.427  1.00  0.00     0.242 C 
ATOM      6  O   UNL A   1      35.038  24.420  25.031  1.00  0.00    -0.273 OA
ATOM      7  H   UNL A   1      34.963  26.658  25.471  1.00  0.00     0.163 HD
BRANCH   5   8
ATOM      8  C   UNL A   1      32.690  24.105  25.502  1.00  0.00     0.168 C 
ATOM      9  C   UNL A   1      31.929  24.239  26.830  1.00  0.00     0.041 C 
BRANCH   8  10
ATOM     10  N   UNL A   1      31.764  23.913  24.398  1.00  0.00    -0.340 N 
ATOM     11  C   UNL A   1      30.982  24.684  23.588  1.00  0.00     0.263 C 
ATOM     12  O   UNL A   1      30.166  23.992  22.962  1.00  0.00    -0.268 OA
ATOM     13  H   UNL A   1      31.677  22.959  24.171  1.00  0.00     0.164 HD
BRANCH  11  14
ATOM     14  C   UNL A   1      31.120  26.116  23.350  1.00  0.00     0.115 A 
ATOM     15  C   UNL A   1      33.395  26.897  22.241  1.00  0.00     0.068 C 
ATOM     16  C   UNL A   1      32.027  27.019  22.799  1.00  0.00     0.062 A 
ATOM     17  N   UNL A   1      31.558  28.319  22.692  1.00  0.00    -0.241 NA
ATOM     18  C   UNL A   1      30.340  28.448  23.146  1.00  0.00     0.124 A 
ATOM     19  S   UNL A   1      29.704  27.045  23.854  1.00  0.00    -0.108 S 
BRANCH  18  20
ATOM     20  C   UNL A   1      29.562  29.666  22.936  1.00  0.00     0.013 A 
ATOM     21  C   UNL A   1      29.457  30.699  23.876  1.00  0.00     0.011 A 
ATOM     22  C   UNL A   1      28.926  29.810  21.693  1.00  0.00     0.050 A 
ATOM     23  C   UNL A   1      28.742  31.861  23.565  1.00  0.00     0.004 A 
ATOM     24  C   UNL A   1      28.213  30.960  21.400  1.00  0.00     0.123 A 
ATOM     25  C   UNL A   1      28.123  31.993  22.321  1.00  0.00     0.039 A 
ATOM     26  F   UNL A   1      27.582  31.059  20.224  1.00  0.00    -0.207 F 
ENDBRANCH  18  20
ENDBRANCH  11  14
ENDBRANCH   8  10
ENDBRANCH   5   8
ENDBRANCH   3   4
ENDBRANCH   2   3
ENDBRANCH   1   2
BRANCH   1  27
ATOM     27  C   UNL A   1      31.729  30.177  26.676  1.00  0.00     0.002 C 
BRANCH  27  28
ATOM     28  C   UNL A   1      31.545  31.689  26.845  1.00  0.00     0.021 C 
BRANCH  28  29
ATOM     29  C   UNL A   1      32.828  32.482  27.086  1.00  0.00     0.116 C 
BRANCH  29  30
ATOM     30  N   UNL A   1      32.572  33.845  27.529  1.00  0.00    -0.352 N 
ATOM     31  C   UNL A   1      33.136  34.574  28.549  1.00  0.00     0.251 C 
ATOM     32  H   UNL A   1      31.880  34.322  27.015  1.00  0.00     0.163 HD
ATOM     33  O   UNL A   1      32.667  35.660  28.864  1.00  0.00    -0.269 OA
BRANCH  31  34
ATOM     34  C   UNL A   1      34.299  34.041  29.292  1.00  0.00     0.039 A 
ATOM     35  C   UNL A   1      34.084  33.302  30.457  1.00  0.00     0.014 A 
ATOM     36  C   UNL A   1      35.601  34.280  28.849  1.00  0.00     0.014 A 
ATOM     37  C   UNL A   1      35.169  32.725  31.124  1.00  0.00     0.010 A 
ATOM     38  C   UNL A   1      36.676  33.652  29.475  1.00  0.00     0.010 A 
ATOM     39  C   UNL A   1      36.470  32.854  30.608  1.00  0.00    -0.014 A 
BRANCH  39  40
ATOM     40  C   UNL A   1      37.613  32.109  31.197  1.00  0.00     0.031 A 
ATOM     41  C   UNL A   1      38.142  32.456  32.558  1.00  0.00     0.074 A 
ATOM     42  C   UNL A   1      38.221  31.157  30.462  1.00  0.00     0.049 A 
ATOM     43  N   UNL A   1      39.168  31.951  33.196  1.00  0.00    -0.248 NA
ATOM     44  C   UNL A   1      37.440  33.518  33.293  1.00  0.00     0.031 C 
ATOM     45  C   UNL A   1      37.824  30.753  29.112  1.00  0.00     0.029 A 
ATOM     46  N   UNL A   1      39.303  30.360  30.742  1.00  0.00    -0.354 N 
ATOM     47  C   UNL A   1      39.229  32.626  34.409  1.00  0.00     0.074 A 
ATOM     48  C   UNL A   1      38.175  33.618  34.392  1.00  0.00     0.031 C 
ATOM     49  C   UNL A   1      38.628  29.762  28.697  1.00  0.00     0.029 A 
ATOM     50  C   UNL A   1      39.625  29.492  29.727  1.00  0.00     0.049 A 
ATOM     51  H   UNL A   1      39.802  30.406  31.589  1.00  0.00     0.167 HD
ATOM     52  C   UNL A   1      40.069  32.416  35.450  1.00  0.00     0.037 A 
ATOM     53  C   UNL A   1      40.616  28.584  29.629  1.00  0.00     0.037 A 
ATOM     54  C   UNL A   1      41.113  31.425  35.463  1.00  0.00     0.049 A 
ATOM     55  C   UNL A   1      41.579  28.417  30.769  1.00  0.00     0.074 A 
ATOM     56  C   UNL A   1      41.989  31.113  36.488  1.00  0.00     0.029 A 
ATOM     57  N   UNL A   1      41.429  30.590  34.401  1.00  0.00    -0.354 N 
ATOM     58  N   UNL A   1      41.593  29.026  31.929  1.00  0.00    -0.248 NA
ATOM     59  C   UNL A   1      42.667  27.445  30.587  1.00  0.00     0.031 C 
ATOM     60  C   UNL A   1      42.868  30.129  36.028  1.00  0.00     0.029 A 
ATOM     61  C   UNL A   1      42.507  29.788  34.735  1.00  0.00     0.049 A 
ATOM     62  H   UNL A   1      40.956  30.570  33.538  1.00  0.00     0.167 HD
ATOM     63  C   UNL A   1      42.674  28.500  32.624  1.00  0.00     0.074 A 
ATOM     64  C   UNL A   1      43.288  27.514  31.758  1.00  0.00     0.031 C 
ATOM     65  C   UNL A   1      43.112  28.808  33.868  1.00  0.00     0.037 A 
BRANCH  52  66
ATOM     66  C   UNL A   1      39.890  33.268  36.673  1.00  0.00     0.057 A 
ATOM     67  C   UNL A   1      38.945  32.933  37.652  1.00  0.00     0.134 A 
ATOM     68  C   UNL A   1      40.607  34.459  36.850  1.00  0.00     0.134 A 
ATOM     69  F   UNL A   1      38.215  31.814  37.541  1.00  0.00    -0.206 F 
ATOM     70  C   UNL A   1      38.715  33.756  38.757  1.00  0.00     0.040 A 
ATOM     71  C   UNL A   1      40.407  35.274  37.965  1.00  0.00     0.040 A 
ATOM     72  F   UNL A   1      41.531  34.835  35.953  1.00  0.00    -0.206 F 
ATOM     73  C   UNL A   1      39.451  34.927  38.918  1.00  0.00     0.006 A 
ENDBRANCH  52  66
BRANCH  53  74
ATOM     74  C   UNL A   1      40.715  27.743  28.410  1.00  0.00     0.057 A 
ATOM     75  C   UNL A   1      41.449  28.154  27.290  1.00  0.00     0.134 A 
ATOM     76  C   UNL A   1      40.028  26.528  28.320  1.00  0.00     0.134 A 
ATOM     77  F   UNL A   1      42.124  29.312  27.310  1.00  0.00    -0.206 F 
ATOM     78  C   UNL A   1      41.474  27.398  26.115  1.00  0.00     0.040 A 
ATOM     79  C   UNL A   1      40.062  25.751  27.162  1.00  0.00     0.040 A 
ATOM     80  F   UNL A   1      39.322  26.075  29.367  1.00  0.00    -0.206 F 
ATOM     81  C   UNL A   1      40.778  26.193  26.050  1.00  0.00     0.006 A 
ENDBRANCH  53  74
BRANCH  65  82
ATOM     82  C   UNL A   1      44.311  28.074  34.393  1.00  0.00     0.057 A 
ATOM     83  C   UNL A   1      44.159  26.886  35.120  1.00  0.00     0.134 A 
ATOM     84  C   UNL A   1      45.600  28.606  34.284  1.00  0.00     0.134 A 
ATOM     85  F   UNL A   1      42.947  26.330  35.270  1.00  0.00    -0.206 F 
ATOM     86  C   UNL A   1      45.243  26.268  35.743  1.00  0.00     0.040 A 
ATOM     87  C   UNL A   1      46.697  27.985  34.883  1.00  0.00     0.040 A 
ATOM     88  F   UNL A   1      45.814  29.736  33.592  1.00  0.00    -0.206 F 
ATOM     89  C   UNL A   1      46.517  26.819  35.628  1.00  0.00     0.006 A 
ENDBRANCH  65  82
ENDBRANCH  39  40
ENDBRANCH  31  34
ENDBRANCH  29  30
ENDBRANCH  28  29
ENDBRANCH  27  28
ENDBRANCH   1  27
TORSDOF 16
ENDMDL
MODEL 3
REMARK VINA RESULT:     -11.8      2.284      4.473
REMARK SMILES Cc1nc(-c2cccc(F)c2)sc1C(=O)N[C@H](C)C(=O)NCCCCCCNC(=O)c1ccc(-c2c3nc(c(-c4c(F)cccc4F)c4ccc([nH]4)c(-c4c(F)cccc4F)c4nc(c(-c5c(F)cccc5F)c5ccc2[nH]5)C=C4)C=C3)cc1
REMARK SMILES IDX 24 1 23 2 22 3 21 4 19 5 20 6 17 8 18 9 16 10 14 11 15 12
REMARK SMILES IDX 13 14 1 15 2 16 3 17 4 18 12 19 5 20 6 21 11 22 7 23 9 24
REMARK SMILES IDX 8 25 10 26 25 27 26 28 27 29 28 30 29 31 30 33 31 34 32 35
REMARK SMILES IDX 84 36 33 37 83 38 34 39 35 40 36 41 77 42 37 43 82 44 76 45
REMARK SMILES IDX 78 46 38 47 81 48 75 49 74 50 39 52 65 53 48 54 64 55 49 56
REMARK SMILES IDX 52 57 63 58 79 59 50 60 51 61 62 63 80 64 53 65 40 66 41 67
REMARK SMILES IDX 46 68 42 69 43 70 45 71 47 72 44 73 66 74 67 75 72 76 68 77
REMARK SMILES IDX 69 78 71 79 73 80 70 81 54 82 55 83 60 84 56 85 57 86 59 87
REMARK SMILES IDX 61 88 58 89
REMARK H PARENT 21 7 16 13 28 32 78 51 52 62
REMARK Flexibility Score: inf
ROOT
ATOM      1  C   UNL A   1      32.406  29.539  27.193  1.00  0.00     0.002 C 
ENDROOT
BRANCH   1   2
ATOM      2  C   UNL A   1      31.540  28.332  27.570  1.00  0.00     0.021 C 
BRANCH   2   3
ATOM      3  C   UNL A   1      31.744  27.095  26.684  1.00  0.00     0.116 C 
BRANCH   3   4
ATOM      4  N   UNL A   1      30.556  26.820  25.893  1.00  0.00    -0.354 N 
ATOM      5  C   UNL A   1      30.342  26.452  24.605  1.00  0.00     0.242 C 
ATOM      6  O   UNL A   1      29.153  26.419  24.255  1.00  0.00    -0.273 OA
ATOM      7  H   UNL A   1      29.722  26.923  26.406  1.00  0.00     0.163 HD
BRANCH   5   8
ATOM      8  C   UNL A   1      31.442  26.021  23.593  1.00  0.00     0.168 C 
ATOM      9  C   UNL A   1      31.357  26.732  22.234  1.00  0.00     0.041 C 
BRANCH   8  10
ATOM     10  N   UNL A   1      32.825  25.748  23.943  1.00  0.00    -0.340 N 
ATOM     11  C   UNL A   1      33.532  24.776  24.592  1.00  0.00     0.263 C 
ATOM     12  O   UNL A   1      34.683  25.157  24.850  1.00  0.00    -0.268 OA
ATOM     13  H   UNL A   1      33.420  26.463  23.621  1.00  0.00     0.164 HD
BRANCH  11  14
ATOM     14  C   UNL A   1      33.091  23.412  24.861  1.00  0.00     0.115 A 
ATOM     15  C   UNL A   1      30.801  23.167  26.169  1.00  0.00     0.068 C 
ATOM     16  C   UNL A   1      32.020  22.738  25.443  1.00  0.00     0.062 A 
ATOM     17  N   UNL A   1      32.047  21.361  25.284  1.00  0.00    -0.241 NA
ATOM     18  C   UNL A   1      33.095  20.958  24.616  1.00  0.00     0.124 A 
ATOM     19  S   UNL A   1      34.198  22.186  24.235  1.00  0.00    -0.108 S 
BRANCH  18  20
ATOM     20  C   UNL A   1      33.224  19.584  24.137  1.00  0.00     0.013 A 
ATOM     21  C   UNL A   1      32.409  19.021  23.147  1.00  0.00     0.011 A 
ATOM     22  C   UNL A   1      34.261  18.812  24.684  1.00  0.00     0.050 A 
ATOM     23  C   UNL A   1      32.645  17.715  22.702  1.00  0.00     0.004 A 
ATOM     24  C   UNL A   1      34.479  17.518  24.244  1.00  0.00     0.123 A 
ATOM     25  C   UNL A   1      33.686  16.964  23.249  1.00  0.00     0.039 A 
ATOM     26  F   UNL A   1      35.448  16.787  24.807  1.00  0.00    -0.207 F 
ENDBRANCH  18  20
ENDBRANCH  11  14
ENDBRANCH   8  10
ENDBRANCH   5   8
ENDBRANCH   3   4
ENDBRANCH   2   3
ENDBRANCH   1   2
BRANCH   1  27
ATOM     27  C   UNL A   1      31.780  30.492  26.166  1.00  0.00     0.002 C 
BRANCH  27  28
ATOM     28  C   UNL A   1      31.503  31.917  26.657  1.00  0.00     0.021 C 
BRANCH  28  29
ATOM     29  C   UNL A   1      32.692  32.631  27.299  1.00  0.00     0.116 C 
BRANCH  29  30
ATOM     30  N   UNL A   1      32.411  34.026  27.605  1.00  0.00    -0.352 N 
ATOM     31  C   UNL A   1      32.977  34.869  28.533  1.00  0.00     0.251 C 
ATOM     32  H   UNL A   1      31.698  34.432  27.060  1.00  0.00     0.163 HD
ATOM     33  O   UNL A   1      32.487  35.971  28.744  1.00  0.00    -0.269 OA
BRANCH  31  34
ATOM     34  C   UNL A   1      34.167  34.441  29.300  1.00  0.00     0.039 A 
ATOM     35  C   UNL A   1      34.004  33.973  30.606  1.00  0.00     0.014 A 
ATOM     36  C   UNL A   1      35.443  34.514  28.741  1.00  0.00     0.014 A 
ATOM     37  C   UNL A   1      35.109  33.490  31.313  1.00  0.00     0.010 A 
ATOM     38  C   UNL A   1      36.534  33.974  29.420  1.00  0.00     0.010 A 
ATOM     39  C   UNL A   1      36.375  33.440  30.706  1.00  0.00    -0.014 A 
BRANCH  39  40
ATOM     40  C   UNL A   1      37.526  32.774  31.369  1.00  0.00     0.031 A 
ATOM     41  C   UNL A   1      38.176  31.566  30.760  1.00  0.00     0.074 A 
ATOM     42  C   UNL A   1      37.940  33.227  32.570  1.00  0.00     0.049 A 
ATOM     43  N   UNL A   1      39.147  30.827  31.234  1.00  0.00    -0.248 NA
ATOM     44  C   UNL A   1      37.658  31.118  29.459  1.00  0.00     0.031 C 
ATOM     45  C   UNL A   1      37.367  34.370  33.282  1.00  0.00     0.029 A 
ATOM     46  N   UNL A   1      38.933  32.780  33.404  1.00  0.00    -0.354 N 
ATOM     47  C   UNL A   1      39.363  29.834  30.287  1.00  0.00     0.074 A 
ATOM     48  C   UNL A   1      38.381  30.028  29.242  1.00  0.00     0.031 C 
ATOM     49  C   UNL A   1      38.040  34.556  34.427  1.00  0.00     0.029 A 
ATOM     50  C   UNL A   1      39.059  33.519  34.556  1.00  0.00     0.049 A 
ATOM     51  H   UNL A   1      39.503  32.004  33.198  1.00  0.00     0.167 HD
ATOM     52  C   UNL A   1      40.312  28.867  30.279  1.00  0.00     0.037 A 
ATOM     53  C   UNL A   1      39.895  33.378  35.603  1.00  0.00     0.037 A 
ATOM     54  C   UNL A   1      41.289  28.681  31.320  1.00  0.00     0.049 A 
ATOM     55  C   UNL A   1      40.894  32.257  35.604  1.00  0.00     0.074 A 
ATOM     56  C   UNL A   1      42.315  27.753  31.380  1.00  0.00     0.029 A 
ATOM     57  N   UNL A   1      41.360  29.429  32.486  1.00  0.00    -0.354 N 
ATOM     58  N   UNL A   1      41.120  31.357  34.679  1.00  0.00    -0.248 NA
ATOM     59  C   UNL A   1      41.748  32.124  36.794  1.00  0.00     0.031 C 
ATOM     60  C   UNL A   1      42.971  27.905  32.604  1.00  0.00     0.029 A 
ATOM     61  C   UNL A   1      42.390  28.963  33.285  1.00  0.00     0.049 A 
ATOM     62  H   UNL A   1      40.766  30.182  32.711  1.00  0.00     0.167 HD
ATOM     63  C   UNL A   1      42.153  30.564  35.162  1.00  0.00     0.074 A 
ATOM     64  C   UNL A   1      42.516  31.094  36.460  1.00  0.00     0.031 C 
ATOM     65  C   UNL A   1      42.745  29.496  34.577  1.00  0.00     0.037 A 
BRANCH  52  66
ATOM     66  C   UNL A   1      40.352  27.939  29.100  1.00  0.00     0.057 A 
ATOM     67  C   UNL A   1      41.109  28.249  27.963  1.00  0.00     0.134 A 
ATOM     68  C   UNL A   1      39.584  26.766  29.063  1.00  0.00     0.134 A 
ATOM     69  F   UNL A   1      41.857  29.362  27.925  1.00  0.00    -0.206 F 
ATOM     70  C   UNL A   1      41.095  27.432  26.831  1.00  0.00     0.040 A 
ATOM     71  C   UNL A   1      39.585  25.926  27.949  1.00  0.00     0.040 A 
ATOM     72  F   UNL A   1      38.841  26.407  30.122  1.00  0.00    -0.206 F 
ATOM     73  C   UNL A   1      40.336  26.264  26.824  1.00  0.00     0.006 A 
ENDBRANCH  52  66
BRANCH  53  74
ATOM     74  C   UNL A   1      39.835  34.355  36.720  1.00  0.00     0.057 A 
ATOM     75  C   UNL A   1      39.030  34.136  37.846  1.00  0.00     0.134 A 
ATOM     76  C   UNL A   1      40.543  35.559  36.657  1.00  0.00     0.134 A 
ATOM     77  F   UNL A   1      38.321  33.005  37.962  1.00  0.00    -0.206 F 
ATOM     78  C   UNL A   1      38.913  35.093  38.856  1.00  0.00     0.040 A 
ATOM     79  C   UNL A   1      40.454  36.514  37.670  1.00  0.00     0.040 A 
ATOM     80  F   UNL A   1      41.343  35.816  35.611  1.00  0.00    -0.206 F 
ATOM     81  C   UNL A   1      39.627  36.286  38.769  1.00  0.00     0.006 A 
ENDBRANCH  53  74
BRANCH  65  82
ATOM     82  C   UNL A   1      43.860  28.817  35.316  1.00  0.00     0.057 A 
ATOM     83  C   UNL A   1      43.587  27.805  36.246  1.00  0.00     0.134 A 
ATOM     84  C   UNL A   1      45.187  29.246  35.196  1.00  0.00     0.134 A 
ATOM     85  F   UNL A   1      42.334  27.356  36.416  1.00  0.00    -0.206 F 
ATOM     86  C   UNL A   1      44.590  27.264  37.051  1.00  0.00     0.040 A 
ATOM     87  C   UNL A   1      46.203  28.696  35.979  1.00  0.00     0.040 A 
ATOM     88  F   UNL A   1      45.514  30.204  34.315  1.00  0.00    -0.206 F 
ATOM     89  C   UNL A   1      45.903  27.712  36.920  1.00  0.00     0.006 A 
ENDBRANCH  65  82
ENDBRANCH  39  40
ENDBRANCH  31  34
ENDBRANCH  29  30
ENDBRANCH  28  29
ENDBRANCH  27  28
ENDBRANCH   1  27
TORSDOF 16
ENDMDL
