MODEL 1
REMARK VINA RESULT:     -12.9      0.000      0.000
REMARK SMILES Cc1ccc(S(=O)(=O)N2c3ccc(C(=O)NCCCCCCNC(=O)c4ccc(-c5c6nc(c(-c7c(F)cccc7F)c7ccc([nH]7)c(-c7c(F)cccc7F)c7nc(c(-c8c(F)cccc8F)c8ccc5[nH]8)C=C7)C=C6)cc4)cc3C[C@H]2C)cc1
REMARK SMILES IDX 19 1 18 2 17 3 16 4 14 5 15 6 13 8 9 9 10 10 83 11 11 12
REMARK SMILES IDX 81 13 82 14 84 15 12 16 80 17 6 18 7 19 8 20 5 21 1 22 2 23
REMARK SMILES IDX 3 24 86 25 4 26 85 27 20 28 21 29 22 30 23 31 24 32 25 34
REMARK SMILES IDX 26 35 27 36 79 37 28 38 78 39 29 40 30 41 31 42 72 43 32 44
REMARK SMILES IDX 77 45 71 46 73 47 33 48 76 49 70 50 69 51 34 53 60 54 43 55
REMARK SMILES IDX 59 56 44 57 47 58 58 59 74 60 45 61 46 62 57 64 75 65 48 66
REMARK SMILES IDX 35 67 36 68 41 69 37 70 38 71 40 72 42 73 39 74 61 75 62 76
REMARK SMILES IDX 67 77 63 78 64 79 66 80 68 81 65 82 49 83 50 84 55 85 51 86
REMARK SMILES IDX 52 87 54 88 56 89 53 90
REMARK H PARENT 16 7 23 33 73 52 47 63
REMARK Flexibility Score: inf
ROOT
ATOM      1  C   UNL A   1      31.038  29.199  25.101  1.00  0.00     0.002 C 
ENDROOT
BRANCH   1   2
ATOM      2  C   UNL A   1      30.373  29.594  23.779  1.00  0.00     0.021 C 
BRANCH   2   3
ATOM      3  C   UNL A   1      31.051  29.155  22.487  1.00  0.00     0.116 C 
BRANCH   3   4
ATOM      4  N   UNL A   1      32.486  29.328  22.443  1.00  0.00    -0.352 N 
ATOM      5  C   UNL A   1      33.478  28.387  22.625  1.00  0.00     0.251 C 
ATOM      6  O   UNL A   1      34.653  28.736  22.546  1.00  0.00    -0.269 OA
ATOM      7  H   UNL A   1      32.798  30.243  22.258  1.00  0.00     0.163 HD
BRANCH   5   8
ATOM      8  C   UNL A   1      33.156  26.975  22.987  1.00  0.00     0.040 A 
ATOM      9  N   UNL A   1      31.932  23.189  24.410  1.00  0.00    -0.263 N 
ATOM     10  C   UNL A   1      32.363  24.422  23.781  1.00  0.00     0.055 A 
ATOM     11  C   UNL A   1      32.101  23.449  25.899  1.00  0.00     0.101 C 
ATOM     12  C   UNL A   1      32.303  24.752  22.439  1.00  0.00     0.028 A 
ATOM     13  C   UNL A   1      32.876  25.325  24.707  1.00  0.00    -0.021 A 
ATOM     14  C   UNL A   1      33.014  24.685  26.045  1.00  0.00     0.063 C 
ATOM     15  C   UNL A   1      30.717  23.743  26.494  1.00  0.00     0.032 C 
ATOM     16  C   UNL A   1      32.758  26.014  22.040  1.00  0.00     0.016 A 
ATOM     17  C   UNL A   1      33.266  26.605  24.335  1.00  0.00     0.019 A 
BRANCH   9  18
ATOM     18  S   UNL A   1      32.740  21.815  23.754  1.00  0.00     0.264 S 
ATOM     19  O   UNL A   1      32.766  21.967  22.319  1.00  0.00    -0.201 OA
ATOM     20  O   UNL A   1      32.150  20.631  24.366  1.00  0.00    -0.201 OA
BRANCH  18  21
ATOM     21  C   UNL A   1      34.445  21.786  24.282  1.00  0.00     0.088 A 
ATOM     22  C   UNL A   1      38.455  22.387  25.743  1.00  0.00     0.044 C 
ATOM     23  C   UNL A   1      37.080  22.137  25.200  1.00  0.00    -0.051 A 
ATOM     24  C   UNL A   1      36.601  22.899  24.131  1.00  0.00     0.005 A 
ATOM     25  C   UNL A   1      36.257  21.148  25.750  1.00  0.00     0.005 A 
ATOM     26  C   UNL A   1      35.293  22.728  23.678  1.00  0.00     0.022 A 
ATOM     27  C   UNL A   1      34.947  20.966  25.288  1.00  0.00     0.022 A 
ENDBRANCH  18  21
ENDBRANCH   9  18
ENDBRANCH   5   8
ENDBRANCH   3   4
ENDBRANCH   2   3
ENDBRANCH   1   2
BRANCH   1  28
ATOM     28  C   UNL A   1      31.762  30.287  25.905  1.00  0.00     0.002 C 
BRANCH  28  29
ATOM     29  C   UNL A   1      33.253  30.097  26.176  1.00  0.00     0.021 C 
BRANCH  29  30
ATOM     30  C   UNL A   1      33.646  29.970  27.638  1.00  0.00     0.116 C 
BRANCH  30  31
ATOM     31  N   UNL A   1      34.397  31.099  28.165  1.00  0.00    -0.352 N 
ATOM     32  C   UNL A   1      35.659  31.138  28.728  1.00  0.00     0.251 C 
ATOM     33  H   UNL A   1      33.937  31.968  28.113  1.00  0.00     0.163 HD
ATOM     34  O   UNL A   1      36.075  32.196  29.195  1.00  0.00    -0.269 OA
BRANCH  32  35
ATOM     35  C   UNL A   1      36.574  29.969  28.634  1.00  0.00     0.039 A 
ATOM     36  C   UNL A   1      36.814  29.238  29.807  1.00  0.00     0.014 A 
ATOM     37  C   UNL A   1      37.342  29.714  27.502  1.00  0.00     0.014 A 
ATOM     38  C   UNL A   1      37.977  28.482  29.924  1.00  0.00     0.010 A 
ATOM     39  C   UNL A   1      38.544  29.057  27.643  1.00  0.00     0.010 A 
ATOM     40  C   UNL A   1      38.892  28.509  28.878  1.00  0.00    -0.014 A 
BRANCH  40  41
ATOM     41  C   UNL A   1      40.278  28.084  29.001  1.00  0.00     0.031 A 
ATOM     42  C   UNL A   1      40.706  26.790  28.445  1.00  0.00     0.074 A 
ATOM     43  C   UNL A   1      41.177  28.957  29.505  1.00  0.00     0.049 A 
ATOM     44  N   UNL A   1      41.797  26.185  28.764  1.00  0.00    -0.248 NA
ATOM     45  C   UNL A   1      39.892  26.042  27.497  1.00  0.00     0.031 C 
ATOM     46  C   UNL A   1      42.632  28.884  29.430  1.00  0.00     0.029 A 
ATOM     47  N   UNL A   1      40.926  30.012  30.392  1.00  0.00    -0.354 N 
ATOM     48  C   UNL A   1      41.969  25.131  27.896  1.00  0.00     0.074 A 
ATOM     49  C   UNL A   1      40.720  25.046  27.175  1.00  0.00     0.031 C 
ATOM     50  C   UNL A   1      43.153  29.627  30.419  1.00  0.00     0.029 A 
ATOM     51  C   UNL A   1      42.045  30.068  31.249  1.00  0.00     0.049 A 
ATOM     52  H   UNL A   1      40.132  30.594  30.412  1.00  0.00     0.167 HD
ATOM     53  C   UNL A   1      43.200  24.545  27.811  1.00  0.00     0.037 A 
ATOM     54  C   UNL A   1      41.923  29.804  32.582  1.00  0.00     0.037 A 
ATOM     55  C   UNL A   1      44.102  25.099  28.823  1.00  0.00     0.049 A 
ATOM     56  C   UNL A   1      42.759  28.634  33.048  1.00  0.00     0.074 A 
ATOM     57  C   UNL A   1      45.076  26.085  28.774  1.00  0.00     0.029 A 
ATOM     58  N   UNL A   1      43.846  24.867  30.170  1.00  0.00    -0.354 N 
ATOM     59  N   UNL A   1      43.208  27.699  32.258  1.00  0.00    -0.248 NA
ATOM     60  C   UNL A   1      43.148  28.426  34.439  1.00  0.00     0.031 C 
ATOM     61  C   UNL A   1      45.359  26.488  30.104  1.00  0.00     0.029 A 
ATOM     62  C   UNL A   1      44.579  25.730  30.960  1.00  0.00     0.049 A 
ATOM     63  H   UNL A   1      43.228  24.181  30.513  1.00  0.00     0.167 HD
ATOM     64  C   UNL A   1      43.918  26.781  32.990  1.00  0.00     0.074 A 
ATOM     65  C   UNL A   1      43.866  27.292  34.348  1.00  0.00     0.031 C 
ATOM     66  C   UNL A   1      44.481  25.678  32.412  1.00  0.00     0.037 A 
BRANCH  53  67
ATOM     67  C   UNL A   1      43.676  23.693  26.650  1.00  0.00     0.057 A 
ATOM     68  C   UNL A   1      43.438  22.301  26.635  1.00  0.00     0.134 A 
ATOM     69  C   UNL A   1      44.424  24.150  25.551  1.00  0.00     0.134 A 
ATOM     70  F   UNL A   1      42.652  21.710  27.544  1.00  0.00    -0.206 F 
ATOM     71  C   UNL A   1      43.995  21.435  25.683  1.00  0.00     0.040 A 
ATOM     72  C   UNL A   1      45.028  23.291  24.619  1.00  0.00     0.040 A 
ATOM     73  F   UNL A   1      44.557  25.450  25.278  1.00  0.00    -0.206 F 
ATOM     74  C   UNL A   1      44.827  21.924  24.690  1.00  0.00     0.006 A 
ENDBRANCH  53  67
BRANCH  54  75
ATOM     75  C   UNL A   1      40.597  30.191  33.133  1.00  0.00     0.057 A 
ATOM     76  C   UNL A   1      40.327  31.559  33.321  1.00  0.00     0.134 A 
ATOM     77  C   UNL A   1      39.499  29.328  33.085  1.00  0.00     0.134 A 
ATOM     78  F   UNL A   1      41.337  32.442  33.377  1.00  0.00    -0.206 F 
ATOM     79  C   UNL A   1      39.023  32.062  33.332  1.00  0.00     0.040 A 
ATOM     80  C   UNL A   1      38.187  29.819  33.111  1.00  0.00     0.040 A 
ATOM     81  F   UNL A   1      39.671  28.013  32.888  1.00  0.00    -0.206 F 
ATOM     82  C   UNL A   1      37.948  31.191  33.189  1.00  0.00     0.006 A 
ENDBRANCH  54  75
BRANCH  66  83
ATOM     83  C   UNL A   1      45.070  24.485  33.132  1.00  0.00     0.057 A 
ATOM     84  C   UNL A   1      46.377  24.426  33.636  1.00  0.00     0.134 A 
ATOM     85  C   UNL A   1      44.251  23.385  33.483  1.00  0.00     0.134 A 
ATOM     86  F   UNL A   1      47.237  25.442  33.485  1.00  0.00    -0.206 F 
ATOM     87  C   UNL A   1      46.850  23.335  34.381  1.00  0.00     0.040 A 
ATOM     88  C   UNL A   1      44.694  22.322  34.274  1.00  0.00     0.040 A 
ATOM     89  F   UNL A   1      42.969  23.305  33.096  1.00  0.00    -0.206 F 
ATOM     90  C   UNL A   1      46.006  22.286  34.716  1.00  0.00     0.006 A 
ENDBRANCH  66  83
ENDBRANCH  40  41
ENDBRANCH  32  35
ENDBRANCH  30  31
ENDBRANCH  29  30
ENDBRANCH  28  29
ENDBRANCH   1  28
TORSDOF 15
ENDMDL
MODEL 2
REMARK VINA RESULT:     -12.8      1.556      2.236
REMARK SMILES Cc1ccc(S(=O)(=O)N2c3ccc(C(=O)NCCCCCCNC(=O)c4ccc(-c5c6nc(c(-c7c(F)cccc7F)c7ccc([nH]7)c(-c7c(F)cccc7F)c7nc(c(-c8c(F)cccc8F)c8ccc5[nH]8)C=C7)C=C6)cc4)cc3C[C@H]2C)cc1
REMARK SMILES IDX 19 1 18 2 17 3 16 4 14 5 15 6 13 8 9 9 10 10 83 11 11 12
REMARK SMILES IDX 81 13 82 14 84 15 12 16 80 17 6 18 7 19 8 20 5 21 1 22 2 23
REMARK SMILES IDX 3 24 86 25 4 26 85 27 20 28 21 29 22 30 23 31 24 32 25 34
REMARK SMILES IDX 26 35 27 36 79 37 28 38 78 39 29 40 30 41 31 42 72 43 32 44
REMARK SMILES IDX 77 45 71 46 73 47 33 48 76 49 70 50 69 51 34 53 60 54 43 55
REMARK SMILES IDX 59 56 44 57 47 58 58 59 74 60 45 61 46 62 57 64 75 65 48 66
REMARK SMILES IDX 35 67 36 68 41 69 37 70 38 71 40 72 42 73 39 74 61 75 62 76
REMARK SMILES IDX 67 77 63 78 64 79 66 80 68 81 65 82 49 83 50 84 55 85 51 86
REMARK SMILES IDX 52 87 54 88 56 89 53 90
REMARK H PARENT 16 7 23 33 73 52 47 63
REMARK Flexibility Score: inf
ROOT
ATOM      1  C   UNL A   1      32.109  29.905  25.136  1.00  0.00     0.002 C 
ENDROOT
BRANCH   1   2
ATOM      2  C   UNL A   1      33.271  29.193  24.439  1.00  0.00     0.021 C 
BRANCH   2   3
ATOM      3  C   UNL A   1      33.146  28.929  22.943  1.00  0.00     0.116 C 
BRANCH   3   4
ATOM      4  N   UNL A   1      31.795  28.808  22.441  1.00  0.00    -0.352 N 
ATOM      5  C   UNL A   1      30.912  27.756  22.574  1.00  0.00     0.251 C 
ATOM      6  O   UNL A   1      29.796  27.846  22.070  1.00  0.00    -0.269 OA
ATOM      7  H   UNL A   1      31.459  29.581  21.933  1.00  0.00     0.163 HD
BRANCH   5   8
ATOM      8  C   UNL A   1      31.309  26.487  23.253  1.00  0.00     0.040 A 
ATOM      9  N   UNL A   1      31.938  22.911  25.415  1.00  0.00    -0.263 N 
ATOM     10  C   UNL A   1      31.816  24.078  24.563  1.00  0.00     0.055 A 
ATOM     11  C   UNL A   1      31.400  23.370  26.761  1.00  0.00     0.101 C 
ATOM     12  C   UNL A   1      32.064  24.163  23.206  1.00  0.00     0.028 A 
ATOM     13  C   UNL A   1      31.388  25.196  25.274  1.00  0.00    -0.021 A 
ATOM     14  C   UNL A   1      31.370  24.913  26.736  1.00  0.00     0.063 C 
ATOM     15  C   UNL A   1      29.977  22.818  26.922  1.00  0.00     0.032 C 
ATOM     16  C   UNL A   1      31.863  25.392  22.565  1.00  0.00     0.016 A 
ATOM     17  C   UNL A   1      31.119  26.401  24.639  1.00  0.00     0.019 A 
BRANCH   9  18
ATOM     18  S   UNL A   1      33.533  22.257  25.386  1.00  0.00     0.264 S 
ATOM     19  O   UNL A   1      33.952  22.066  26.754  1.00  0.00    -0.201 OA
ATOM     20  O   UNL A   1      34.321  23.077  24.474  1.00  0.00    -0.201 OA
BRANCH  18  21
ATOM     21  C   UNL A   1      33.526  20.637  24.636  1.00  0.00     0.088 A 
ATOM     22  C   UNL A   1      33.582  16.485  23.484  1.00  0.00     0.044 C 
ATOM     23  C   UNL A   1      33.582  17.943  23.833  1.00  0.00    -0.051 A 
ATOM     24  C   UNL A   1      34.688  18.508  24.474  1.00  0.00     0.005 A 
ATOM     25  C   UNL A   1      32.485  18.757  23.529  1.00  0.00     0.005 A 
ATOM     26  C   UNL A   1      34.659  19.844  24.875  1.00  0.00     0.022 A 
ATOM     27  C   UNL A   1      32.459  20.101  23.921  1.00  0.00     0.022 A 
ENDBRANCH  18  21
ENDBRANCH   9  18
ENDBRANCH   5   8
ENDBRANCH   3   4
ENDBRANCH   2   3
ENDBRANCH   1   2
BRANCH   1  28
ATOM     28  C   UNL A   1      32.140  30.023  26.666  1.00  0.00     0.002 C 
BRANCH  28  29
ATOM     29  C   UNL A   1      33.108  31.032  27.281  1.00  0.00     0.021 C 
BRANCH  29  30
ATOM     30  C   UNL A   1      34.536  30.546  27.466  1.00  0.00     0.116 C 
BRANCH  30  31
ATOM     31  N   UNL A   1      35.412  31.482  28.151  1.00  0.00    -0.352 N 
ATOM     32  C   UNL A   1      36.620  31.263  28.785  1.00  0.00     0.251 C 
ATOM     33  H   UNL A   1      35.097  32.415  28.166  1.00  0.00     0.163 HD
ATOM     34  O   UNL A   1      37.160  32.190  29.385  1.00  0.00    -0.269 OA
BRANCH  32  35
ATOM     35  C   UNL A   1      37.348  29.976  28.619  1.00  0.00     0.039 A 
ATOM     36  C   UNL A   1      37.437  29.133  29.737  1.00  0.00     0.014 A 
ATOM     37  C   UNL A   1      38.102  29.688  27.486  1.00  0.00     0.014 A 
ATOM     38  C   UNL A   1      38.466  28.199  29.819  1.00  0.00     0.010 A 
ATOM     39  C   UNL A   1      39.184  28.844  27.599  1.00  0.00     0.010 A 
ATOM     40  C   UNL A   1      39.406  28.160  28.795  1.00  0.00    -0.014 A 
BRANCH  40  41
ATOM     41  C   UNL A   1      40.705  27.517  28.912  1.00  0.00     0.031 A 
ATOM     42  C   UNL A   1      40.861  26.096  28.561  1.00  0.00     0.074 A 
ATOM     43  C   UNL A   1      41.778  28.282  29.209  1.00  0.00     0.049 A 
ATOM     44  N   UNL A   1      41.858  25.362  28.917  1.00  0.00    -0.248 NA
ATOM     45  C   UNL A   1      39.855  25.367  27.800  1.00  0.00     0.031 C 
ATOM     46  C   UNL A   1      43.189  27.937  29.066  1.00  0.00     0.029 A 
ATOM     47  N   UNL A   1      41.785  29.492  29.916  1.00  0.00    -0.354 N 
ATOM     48  C   UNL A   1      41.775  24.171  28.232  1.00  0.00     0.074 A 
ATOM     49  C   UNL A   1      40.474  24.200  27.607  1.00  0.00     0.031 C 
ATOM     50  C   UNL A   1      43.910  28.721  29.884  1.00  0.00     0.029 A 
ATOM     51  C   UNL A   1      42.966  29.480  30.687  1.00  0.00     0.049 A 
ATOM     52  H   UNL A   1      41.105  30.203  29.881  1.00  0.00     0.167 HD
ATOM     53  C   UNL A   1      42.878  23.367  28.180  1.00  0.00     0.037 A 
ATOM     54  C   UNL A   1      42.914  29.456  32.051  1.00  0.00     0.037 A 
ATOM     55  C   UNL A   1      43.944  23.902  29.031  1.00  0.00     0.049 A 
ATOM     56  C   UNL A   1      43.577  28.243  32.662  1.00  0.00     0.074 A 
ATOM     57  C   UNL A   1      45.062  24.676  28.762  1.00  0.00     0.029 A 
ATOM     58  N   UNL A   1      43.767  23.935  30.410  1.00  0.00    -0.354 N 
ATOM     59  N   UNL A   1      43.794  27.129  32.018  1.00  0.00    -0.248 NA
ATOM     60  C   UNL A   1      44.042  28.189  34.044  1.00  0.00     0.031 C 
ATOM     61  C   UNL A   1      45.520  25.226  29.985  1.00  0.00     0.029 A 
ATOM     62  C   UNL A   1      44.698  24.766  31.000  1.00  0.00     0.049 A 
ATOM     63  H   UNL A   1      43.073  23.434  30.898  1.00  0.00     0.167 HD
ATOM     64  C   UNL A   1      44.398  26.225  32.855  1.00  0.00     0.074 A 
ATOM     65  C   UNL A   1      44.549  26.945  34.107  1.00  0.00     0.031 C 
ATOM     66  C   UNL A   1      44.717  24.962  32.443  1.00  0.00     0.037 A 
BRANCH  53  67
ATOM     67  C   UNL A   1      43.104  22.271  27.156  1.00  0.00     0.057 A 
ATOM     68  C   UNL A   1      42.330  21.091  27.185  1.00  0.00     0.134 A 
ATOM     69  C   UNL A   1      44.096  22.272  26.160  1.00  0.00     0.134 A 
ATOM     70  F   UNL A   1      41.272  20.960  27.996  1.00  0.00    -0.206 F 
ATOM     71  C   UNL A   1      42.600  19.974  26.381  1.00  0.00     0.040 A 
ATOM     72  C   UNL A   1      44.408  21.146  25.382  1.00  0.00     0.040 A 
ATOM     73  F   UNL A   1      44.771  23.377  25.836  1.00  0.00    -0.206 F 
ATOM     74  C   UNL A   1      43.668  19.983  25.500  1.00  0.00     0.006 A 
ENDBRANCH  53  67
BRANCH  54  75
ATOM     75  C   UNL A   1      41.723  30.157  32.601  1.00  0.00     0.057 A 
ATOM     76  C   UNL A   1      40.615  29.384  32.990  1.00  0.00     0.134 A 
ATOM     77  C   UNL A   1      41.807  31.454  33.116  1.00  0.00     0.134 A 
ATOM     78  F   UNL A   1      40.475  28.130  32.531  1.00  0.00    -0.206 F 
ATOM     79  C   UNL A   1      39.699  29.832  33.947  1.00  0.00     0.040 A 
ATOM     80  C   UNL A   1      40.885  31.919  34.064  1.00  0.00     0.040 A 
ATOM     81  F   UNL A   1      42.844  32.247  32.809  1.00  0.00    -0.206 F 
ATOM     82  C   UNL A   1      39.856  31.092  34.513  1.00  0.00     0.006 A 
ENDBRANCH  54  75
BRANCH  66  83
ATOM     83  C   UNL A   1      45.155  23.811  33.322  1.00  0.00     0.057 A 
ATOM     84  C   UNL A   1      46.439  23.670  33.866  1.00  0.00     0.134 A 
ATOM     85  C   UNL A   1      44.210  22.862  33.782  1.00  0.00     0.134 A 
ATOM     86  F   UNL A   1      47.412  24.557  33.615  1.00  0.00    -0.206 F 
ATOM     87  C   UNL A   1      46.774  22.636  34.754  1.00  0.00     0.040 A 
ATOM     88  C   UNL A   1      44.518  21.864  34.711  1.00  0.00     0.040 A 
ATOM     89  F   UNL A   1      42.934  22.877  33.371  1.00  0.00    -0.206 F 
ATOM     90  C   UNL A   1      45.810  21.738  35.191  1.00  0.00     0.006 A 
ENDBRANCH  66  83
ENDBRANCH  40  41
ENDBRANCH  32  35
ENDBRANCH  30  31
ENDBRANCH  29  30
ENDBRANCH  28  29
ENDBRANCH   1  28
TORSDOF 15
ENDMDL
MODEL 3
REMARK VINA RESULT:     -12.8      3.788      9.254
REMARK SMILES Cc1ccc(S(=O)(=O)N2c3ccc(C(=O)NCCCCCCNC(=O)c4ccc(-c5c6nc(c(-c7c(F)cccc7F)c7ccc([nH]7)c(-c7c(F)cccc7F)c7nc(c(-c8c(F)cccc8F)c8ccc5[nH]8)C=C7)C=C6)cc4)cc3C[C@H]2C)cc1
REMARK SMILES IDX 19 1 18 2 17 3 16 4 14 5 15 6 13 8 9 9 10 10 83 11 11 12
REMARK SMILES IDX 81 13 82 14 84 15 12 16 80 17 6 18 7 19 8 20 5 21 1 22 2 23
REMARK SMILES IDX 3 24 86 25 4 26 85 27 20 28 21 29 22 30 23 31 24 32 25 34
REMARK SMILES IDX 26 35 27 36 79 37 28 38 78 39 29 40 30 41 31 42 72 43 32 44
REMARK SMILES IDX 77 45 71 46 73 47 33 48 76 49 70 50 69 51 34 53 60 54 43 55
REMARK SMILES IDX 59 56 44 57 47 58 58 59 74 60 45 61 46 62 57 64 75 65 48 66
REMARK SMILES IDX 35 67 36 68 41 69 37 70 38 71 40 72 42 73 39 74 61 75 62 76
REMARK SMILES IDX 67 77 63 78 64 79 66 80 68 81 65 82 49 83 50 84 55 85 51 86
REMARK SMILES IDX 52 87 54 88 56 89 53 90
REMARK H PARENT 16 7 23 33 73 52 47 63
REMARK Flexibility Score: inf
ROOT
ATOM      1  C   UNL A   1      39.158  23.653  26.681  1.00  0.00     0.002 C 
ENDROOT
BRANCH   1   2
ATOM      2  C   UNL A   1      37.751  23.714  26.080  1.00  0.00     0.021 C 
BRANCH   2   3
ATOM      3  C   UNL A   1      37.184  22.435  25.475  1.00  0.00     0.116 C 
BRANCH   3   4
ATOM      4  N   UNL A   1      36.208  21.739  26.285  1.00  0.00    -0.352 N 
ATOM      5  C   UNL A   1      34.845  21.939  26.361  1.00  0.00     0.251 C 
ATOM      6  O   UNL A   1      34.180  21.235  27.117  1.00  0.00    -0.269 OA
ATOM      7  H   UNL A   1      36.565  21.026  26.860  1.00  0.00     0.163 HD
BRANCH   5   8
ATOM      8  C   UNL A   1      34.174  23.036  25.603  1.00  0.00     0.040 A 
ATOM      9  N   UNL A   1      32.584  26.486  23.750  1.00  0.00    -0.263 N 
ATOM     10  C   UNL A   1      33.103  25.228  24.251  1.00  0.00     0.055 A 
ATOM     11  C   UNL A   1      32.381  27.331  24.998  1.00  0.00     0.101 C 
ATOM     12  C   UNL A   1      33.560  24.149  23.516  1.00  0.00     0.028 A 
ATOM     13  C   UNL A   1      33.114  25.189  25.643  1.00  0.00    -0.021 A 
ATOM     14  C   UNL A   1      32.408  26.372  26.207  1.00  0.00     0.063 C 
ATOM     15  C   UNL A   1      33.542  28.331  25.093  1.00  0.00     0.032 C 
ATOM     16  C   UNL A   1      34.042  23.029  24.202  1.00  0.00     0.016 A 
ATOM     17  C   UNL A   1      33.653  24.112  26.335  1.00  0.00     0.019 A 
BRANCH   9  18
ATOM     18  S   UNL A   1      31.219  26.255  22.724  1.00  0.00     0.264 S 
ATOM     19  O   UNL A   1      30.402  25.219  23.308  1.00  0.00    -0.201 OA
ATOM     20  O   UNL A   1      31.718  26.128  21.360  1.00  0.00    -0.201 OA
BRANCH  18  21
ATOM     21  C   UNL A   1      30.209  27.727  22.693  1.00  0.00     0.088 A 
ATOM     22  C   UNL A   1      27.723  31.191  23.315  1.00  0.00     0.044 C 
ATOM     23  C   UNL A   1      28.568  29.983  23.045  1.00  0.00    -0.051 A 
ATOM     24  C   UNL A   1      28.091  28.709  23.368  1.00  0.00     0.005 A 
ATOM     25  C   UNL A   1      29.839  30.106  22.473  1.00  0.00     0.005 A 
ATOM     26  C   UNL A   1      28.907  27.591  23.197  1.00  0.00     0.022 A 
ATOM     27  C   UNL A   1      30.655  28.982  22.289  1.00  0.00     0.022 A 
ENDBRANCH  18  21
ENDBRANCH   9  18
ENDBRANCH   5   8
ENDBRANCH   3   4
ENDBRANCH   2   3
ENDBRANCH   1   2
BRANCH   1  28
ATOM     28  C   UNL A   1      39.909  22.316  26.642  1.00  0.00     0.002 C 
BRANCH  28  29
ATOM     29  C   UNL A   1      41.297  22.298  26.004  1.00  0.00     0.021 C 
BRANCH  29  30
ATOM     30  C   UNL A   1      42.217  21.178  26.461  1.00  0.00     0.116 C 
BRANCH  30  31
ATOM     31  N   UNL A   1      43.108  20.667  25.432  1.00  0.00    -0.352 N 
ATOM     32  C   UNL A   1      44.180  21.275  24.807  1.00  0.00     0.251 C 
ATOM     33  H   UNL A   1      42.919  19.747  25.135  1.00  0.00     0.163 HD
ATOM     34  O   UNL A   1      44.751  20.688  23.890  1.00  0.00    -0.269 OA
BRANCH  32  35
ATOM     35  C   UNL A   1      44.748  22.547  25.328  1.00  0.00     0.039 A 
ATOM     36  C   UNL A   1      45.302  22.529  26.617  1.00  0.00     0.014 A 
ATOM     37  C   UNL A   1      44.560  23.766  24.683  1.00  0.00     0.014 A 
ATOM     38  C   UNL A   1      45.395  23.711  27.346  1.00  0.00     0.010 A 
ATOM     39  C   UNL A   1      44.548  24.923  25.430  1.00  0.00     0.010 A 
ATOM     40  C   UNL A   1      44.892  24.878  26.781  1.00  0.00    -0.014 A 
BRANCH  40  41
ATOM     41  C   UNL A   1      44.588  26.081  27.540  1.00  0.00     0.031 A 
ATOM     42  C   UNL A   1      43.212  26.604  27.577  1.00  0.00     0.074 A 
ATOM     43  C   UNL A   1      45.556  26.615  28.315  1.00  0.00     0.049 A 
ATOM     44  N   UNL A   1      42.896  27.798  27.940  1.00  0.00    -0.248 NA
ATOM     45  C   UNL A   1      42.066  25.811  27.153  1.00  0.00     0.031 C 
ATOM     46  C   UNL A   1      45.406  27.597  29.384  1.00  0.00     0.029 A 
ATOM     47  N   UNL A   1      46.942  26.511  28.130  1.00  0.00    -0.354 N 
ATOM     48  C   UNL A   1      41.526  27.859  28.058  1.00  0.00     0.074 A 
ATOM     49  C   UNL A   1      41.057  26.618  27.489  1.00  0.00     0.031 C 
ATOM     50  C   UNL A   1      46.583  28.215  29.572  1.00  0.00     0.029 A 
ATOM     51  C   UNL A   1      47.476  27.757  28.521  1.00  0.00     0.049 A 
ATOM     52  H   UNL A   1      47.438  25.729  27.796  1.00  0.00     0.167 HD
ATOM     53  C   UNL A   1      40.973  28.903  28.743  1.00  0.00     0.037 A 
ATOM     54  C   UNL A   1      48.091  28.573  27.616  1.00  0.00     0.037 A 
ATOM     55  C   UNL A   1      42.003  29.877  29.114  1.00  0.00     0.049 A 
ATOM     56  C   UNL A   1      47.428  29.923  27.468  1.00  0.00     0.074 A 
ATOM     57  C   UNL A   1      42.718  30.088  30.282  1.00  0.00     0.029 A 
ATOM     58  N   UNL A   1      42.655  30.595  28.118  1.00  0.00    -0.354 N 
ATOM     59  N   UNL A   1      46.191  30.168  27.800  1.00  0.00    -0.248 NA
ATOM     60  C   UNL A   1      48.106  31.098  26.930  1.00  0.00     0.031 C 
ATOM     61  C   UNL A   1      43.844  30.891  29.968  1.00  0.00     0.029 A 
ATOM     62  C   UNL A   1      43.797  31.189  28.617  1.00  0.00     0.049 A 
ATOM     63  H   UNL A   1      42.345  30.670  27.186  1.00  0.00     0.167 HD
ATOM     64  C   UNL A   1      45.894  31.480  27.531  1.00  0.00     0.074 A 
ATOM     65  C   UNL A   1      47.133  32.024  27.005  1.00  0.00     0.031 C 
ATOM     66  C   UNL A   1      44.652  32.000  27.760  1.00  0.00     0.037 A 
BRANCH  53  67
ATOM     67  C   UNL A   1      39.572  28.911  29.326  1.00  0.00     0.057 A 
ATOM     68  C   UNL A   1      38.472  29.326  28.545  1.00  0.00     0.134 A 
ATOM     69  C   UNL A   1      39.235  28.592  30.653  1.00  0.00     0.134 A 
ATOM     70  F   UNL A   1      38.588  29.564  27.232  1.00  0.00    -0.206 F 
ATOM     71  C   UNL A   1      37.186  29.520  29.069  1.00  0.00     0.040 A 
ATOM     72  C   UNL A   1      37.965  28.826  31.203  1.00  0.00     0.040 A 
ATOM     73  F   UNL A   1      40.091  27.974  31.471  1.00  0.00    -0.206 F 
ATOM     74  C   UNL A   1      36.935  29.307  30.414  1.00  0.00     0.006 A 
ENDBRANCH  53  67
BRANCH  54  75
ATOM     75  C   UNL A   1      48.778  27.824  26.530  1.00  0.00     0.057 A 
ATOM     76  C   UNL A   1      48.103  27.656  25.307  1.00  0.00     0.134 A 
ATOM     77  C   UNL A   1      50.164  27.647  26.521  1.00  0.00     0.134 A 
ATOM     78  F   UNL A   1      46.771  27.812  25.246  1.00  0.00    -0.206 F 
ATOM     79  C   UNL A   1      48.789  27.448  24.106  1.00  0.00     0.040 A 
ATOM     80  C   UNL A   1      50.860  27.422  25.326  1.00  0.00     0.040 A 
ATOM     81  F   UNL A   1      50.882  27.809  27.642  1.00  0.00    -0.206 F 
ATOM     82  C   UNL A   1      50.177  27.367  24.111  1.00  0.00     0.006 A 
ENDBRANCH  54  75
BRANCH  66  83
ATOM     83  C   UNL A   1      44.135  33.341  27.289  1.00  0.00     0.057 A 
ATOM     84  C   UNL A   1      43.810  33.645  25.959  1.00  0.00     0.134 A 
ATOM     85  C   UNL A   1      43.793  34.347  28.226  1.00  0.00     0.134 A 
ATOM     86  F   UNL A   1      43.968  32.752  24.973  1.00  0.00    -0.206 F 
ATOM     87  C   UNL A   1      43.242  34.872  25.582  1.00  0.00     0.040 A 
ATOM     88  C   UNL A   1      43.174  35.547  27.868  1.00  0.00     0.040 A 
ATOM     89  F   UNL A   1      44.020  34.197  29.539  1.00  0.00    -0.206 F 
ATOM     90  C   UNL A   1      42.909  35.822  26.537  1.00  0.00     0.006 A 
ENDBRANCH  66  83
ENDBRANCH  40  41
ENDBRANCH  32  35
ENDBRANCH  30  31
ENDBRANCH  29  30
ENDBRANCH  28  29
ENDBRANCH   1  28
TORSDOF 15
ENDMDL
