MODEL 1
REMARK VINA RESULT:     -11.0      0.000      0.000
REMARK SMILES CCCc1cc2c(cc1Cl)C=C(C(=O)NCCCCCCNC(=O)c1ccc(-c3c4nc(c(-c5c(F)cccc5F)c5ccc([nH]5)c(-c5c(F)cccc5F)c5nc(c(-c6c(F)cccc6F)c6ccc3[nH]6)C=C5)C=C4)cc1)[C@@H](C(F)(F)F)O2
REMARK SMILES IDX 18 1 17 2 16 3 15 4 13 5 14 6 12 8 4 9 5 10 9 11 6 12 8 13
REMARK SMILES IDX 10 14 7 15 84 16 11 17 79 18 3 19 2 20 1 21 80 22 81 23
REMARK SMILES IDX 82 24 83 25 19 26 20 27 21 28 22 29 23 30 24 32 25 33 26 34
REMARK SMILES IDX 78 35 27 36 77 37 28 38 29 39 30 40 71 41 31 42 76 43 70 44
REMARK SMILES IDX 72 45 32 46 75 47 69 48 68 49 33 51 59 52 42 53 58 54 43 55
REMARK SMILES IDX 46 56 57 57 73 58 44 59 45 60 56 62 74 63 47 64 34 65 35 66
REMARK SMILES IDX 40 67 36 68 37 69 39 70 41 71 38 72 60 73 61 74 66 75 62 76
REMARK SMILES IDX 63 77 65 78 67 79 64 80 48 81 49 82 54 83 50 84 51 85 53 86
REMARK SMILES IDX 55 87 52 88
REMARK H PARENT 15 7 22 31 72 50 46 61
REMARK Flexibility Score: inf
ROOT
ATOM      1  C   UNL A   1      31.381  28.148  25.460  1.00  0.00     0.002 C 
ENDROOT
BRANCH   1   2
ATOM      2  C   UNL A   1      31.451  26.868  24.619  1.00  0.00     0.021 C 
BRANCH   2   3
ATOM      3  C   UNL A   1      30.130  26.110  24.514  1.00  0.00     0.116 C 
BRANCH   3   4
ATOM      4  N   UNL A   1      29.908  25.252  25.664  1.00  0.00    -0.352 N 
ATOM      5  C   UNL A   1      30.516  24.196  26.252  1.00  0.00     0.251 C 
ATOM      6  O   UNL A   1      29.966  23.786  27.280  1.00  0.00    -0.270 OA
ATOM      7  H   UNL A   1      29.091  25.508  26.149  1.00  0.00     0.163 HD
BRANCH   5   8
ATOM      8  C   UNL A   1      31.754  23.516  25.762  1.00  0.00     0.067 C 
ATOM      9  C   UNL A   1      36.566  22.073  25.112  1.00  0.00    -0.026 A 
ATOM     10  C   UNL A   1      35.314  21.539  24.757  1.00  0.00     0.052 A 
ATOM     11  C   UNL A   1      36.588  23.284  25.822  1.00  0.00     0.045 A 
ATOM     12  C   UNL A   1      34.133  22.186  25.114  1.00  0.00     0.128 A 
ATOM     13  C   UNL A   1      35.396  23.908  26.216  1.00  0.00     0.032 A 
ATOM     14  Cl  UNL A   1      38.062  24.088  26.228  1.00  0.00    -0.084 Cl
ATOM     15  C   UNL A   1      34.162  23.355  25.867  1.00  0.00     0.019 A 
ATOM     16  O   UNL A   1      32.969  21.592  24.724  1.00  0.00    -0.475 OA
ATOM     17  C   UNL A   1      32.907  23.955  26.301  1.00  0.00     0.025 C 
ATOM     18  C   UNL A   1      31.783  22.438  24.715  1.00  0.00     0.314 C 
BRANCH   9  19
ATOM     19  C   UNL A   1      37.806  21.314  24.693  1.00  0.00     0.037 C 
BRANCH  19  20
ATOM     20  C   UNL A   1      37.780  19.796  24.912  1.00  0.00     0.001 C 
ATOM     21  C   UNL A   1      39.038  19.234  25.558  1.00  0.00     0.004 C 
ENDBRANCH  19  20
ENDBRANCH   9  19
BRANCH  18  22
ATOM     22  C   UNL A   1      31.562  22.993  23.296  1.00  0.00     0.429 C 
ATOM     23  F   UNL A   1      32.317  24.103  23.095  1.00  0.00    -0.167 F 
ATOM     24  F   UNL A   1      31.922  22.112  22.333  1.00  0.00    -0.167 F 
ATOM     25  F   UNL A   1      30.274  23.330  23.062  1.00  0.00    -0.167 F 
ENDBRANCH  18  22
ENDBRANCH   5   8
ENDBRANCH   3   4
ENDBRANCH   2   3
ENDBRANCH   1   2
BRANCH   1  26
ATOM     26  C   UNL A   1      32.041  28.075  26.842  1.00  0.00     0.002 C 
BRANCH  26  27
ATOM     27  C   UNL A   1      33.549  27.811  26.849  1.00  0.00     0.021 C 
BRANCH  27  28
ATOM     28  C   UNL A   1      34.406  28.940  26.288  1.00  0.00     0.116 C 
BRANCH  28  29
ATOM     29  N   UNL A   1      33.952  30.255  26.709  1.00  0.00    -0.352 N 
ATOM     30  C   UNL A   1      34.473  31.083  27.672  1.00  0.00     0.251 C 
ATOM     31  H   UNL A   1      33.159  30.600  26.237  1.00  0.00     0.163 HD
ATOM     32  O   UNL A   1      33.883  32.109  27.998  1.00  0.00    -0.269 OA
BRANCH  30  33
ATOM     33  C   UNL A   1      35.735  30.712  28.347  1.00  0.00     0.039 A 
ATOM     34  C   UNL A   1      36.941  31.322  27.991  1.00  0.00     0.014 A 
ATOM     35  C   UNL A   1      35.712  29.713  29.324  1.00  0.00     0.014 A 
ATOM     36  C   UNL A   1      38.139  30.825  28.494  1.00  0.00     0.010 A 
ATOM     37  C   UNL A   1      36.911  29.263  29.882  1.00  0.00     0.010 A 
ATOM     38  C   UNL A   1      38.137  29.780  29.433  1.00  0.00    -0.014 A 
BRANCH  38  39
ATOM     39  C   UNL A   1      39.427  29.214  29.907  1.00  0.00     0.031 A 
ATOM     40  C   UNL A   1      40.084  29.755  31.149  1.00  0.00     0.074 A 
ATOM     41  C   UNL A   1      39.984  28.182  29.247  1.00  0.00     0.049 A 
ATOM     42  N   UNL A   1      41.216  29.405  31.706  1.00  0.00    -0.248 NA
ATOM     43  C   UNL A   1      39.379  30.836  31.857  1.00  0.00     0.031 C 
ATOM     44  C   UNL A   1      39.435  27.554  28.044  1.00  0.00     0.029 A 
ATOM     45  N   UNL A   1      41.127  27.469  29.504  1.00  0.00    -0.354 N 
ATOM     46  C   UNL A   1      41.369  30.232  32.812  1.00  0.00     0.074 A 
ATOM     47  C   UNL A   1      40.227  31.120  32.835  1.00  0.00     0.031 C 
ATOM     48  C   UNL A   1      40.221  26.525  27.690  1.00  0.00     0.029 A 
ATOM     49  C   UNL A   1      41.355  26.458  28.603  1.00  0.00     0.049 A 
ATOM     50  H   UNL A   1      41.726  27.664  30.260  1.00  0.00     0.167 HD
ATOM     51  C   UNL A   1      42.365  30.243  33.732  1.00  0.00     0.037 A 
ATOM     52  C   UNL A   1      42.376  25.585  28.514  1.00  0.00     0.037 A 
ATOM     53  C   UNL A   1      43.491  29.345  33.722  1.00  0.00     0.049 A 
ATOM     54  C   UNL A   1      43.492  25.653  29.516  1.00  0.00     0.074 A 
ATOM     55  C   UNL A   1      44.542  29.268  34.619  1.00  0.00     0.029 A 
ATOM     56  N   UNL A   1      43.710  28.367  32.764  1.00  0.00    -0.354 N 
ATOM     57  N   UNL A   1      43.622  26.440  30.556  1.00  0.00    -0.248 NA
ATOM     58  C   UNL A   1      44.609  24.719  29.324  1.00  0.00     0.031 C 
ATOM     59  C   UNL A   1      45.415  28.264  34.185  1.00  0.00     0.029 A 
ATOM     60  C   UNL A   1      44.887  27.691  33.039  1.00  0.00     0.049 A 
ATOM     61  H   UNL A   1      43.116  28.179  32.001  1.00  0.00     0.167 HD
ATOM     62  C   UNL A   1      44.825  26.085  31.152  1.00  0.00     0.074 A 
ATOM     63  C   UNL A   1      45.377  25.001  30.366  1.00  0.00     0.031 C 
ATOM     64  C   UNL A   1      45.420  26.613  32.248  1.00  0.00     0.037 A 
BRANCH  51  65
ATOM     65  C   UNL A   1      42.287  31.272  34.820  1.00  0.00     0.057 A 
ATOM     66  C   UNL A   1      41.596  31.005  36.008  1.00  0.00     0.134 A 
ATOM     67  C   UNL A   1      42.871  32.539  34.684  1.00  0.00     0.134 A 
ATOM     68  F   UNL A   1      41.008  29.814  36.200  1.00  0.00    -0.206 F 
ATOM     69  C   UNL A   1      41.490  31.958  37.022  1.00  0.00     0.040 A 
ATOM     70  C   UNL A   1      42.791  33.493  35.699  1.00  0.00     0.040 A 
ATOM     71  F   UNL A   1      43.560  32.853  33.576  1.00  0.00    -0.206 F 
ATOM     72  C   UNL A   1      42.093  33.205  36.872  1.00  0.00     0.006 A 
ENDBRANCH  51  65
BRANCH  52  73
ATOM     73  C   UNL A   1      42.398  24.579  27.424  1.00  0.00     0.057 A 
ATOM     74  C   UNL A   1      43.072  24.822  26.221  1.00  0.00     0.134 A 
ATOM     75  C   UNL A   1      41.753  23.346  27.567  1.00  0.00     0.134 A 
ATOM     76  F   UNL A   1      43.706  25.986  26.023  1.00  0.00    -0.206 F 
ATOM     77  C   UNL A   1      43.095  23.877  25.195  1.00  0.00     0.040 A 
ATOM     78  C   UNL A   1      41.789  22.382  26.558  1.00  0.00     0.040 A 
ATOM     79  F   UNL A   1      41.109  23.049  28.706  1.00  0.00    -0.206 F 
ATOM     80  C   UNL A   1      42.458  22.650  25.365  1.00  0.00     0.006 A 
ENDBRANCH  52  73
BRANCH  64  81
ATOM     81  C   UNL A   1      46.722  26.002  32.673  1.00  0.00     0.057 A 
ATOM     82  C   UNL A   1      46.750  24.964  33.613  1.00  0.00     0.134 A 
ATOM     83  C   UNL A   1      47.946  26.452  32.166  1.00  0.00     0.134 A 
ATOM     84  F   UNL A   1      45.610  24.492  34.140  1.00  0.00    -0.206 F 
ATOM     85  C   UNL A   1      47.952  24.396  34.035  1.00  0.00     0.040 A 
ATOM     86  C   UNL A   1      49.154  25.877  32.563  1.00  0.00     0.040 A 
ATOM     87  F   UNL A   1      47.984  27.432  31.250  1.00  0.00    -0.206 F 
ATOM     88  C   UNL A   1      49.159  24.849  33.504  1.00  0.00     0.006 A 
ENDBRANCH  64  81
ENDBRANCH  38  39
ENDBRANCH  30  33
ENDBRANCH  28  29
ENDBRANCH  27  28
ENDBRANCH  26  27
ENDBRANCH   1  26
TORSDOF 16
ENDMDL
MODEL 2
REMARK VINA RESULT:     -11.0      3.971      6.367
REMARK SMILES CCCc1cc2c(cc1Cl)C=C(C(=O)NCCCCCCNC(=O)c1ccc(-c3c4nc(c(-c5c(F)cccc5F)c5ccc([nH]5)c(-c5c(F)cccc5F)c5nc(c(-c6c(F)cccc6F)c6ccc3[nH]6)C=C5)C=C4)cc1)[C@@H](C(F)(F)F)O2
REMARK SMILES IDX 18 1 17 2 16 3 15 4 13 5 14 6 12 8 4 9 5 10 9 11 6 12 8 13
REMARK SMILES IDX 10 14 7 15 84 16 11 17 79 18 3 19 2 20 1 21 80 22 81 23
REMARK SMILES IDX 82 24 83 25 19 26 20 27 21 28 22 29 23 30 24 32 25 33 26 34
REMARK SMILES IDX 78 35 27 36 77 37 28 38 29 39 30 40 71 41 31 42 76 43 70 44
REMARK SMILES IDX 72 45 32 46 75 47 69 48 68 49 33 51 59 52 42 53 58 54 43 55
REMARK SMILES IDX 46 56 57 57 73 58 44 59 45 60 56 62 74 63 47 64 34 65 35 66
REMARK SMILES IDX 40 67 36 68 37 69 39 70 41 71 38 72 60 73 61 74 66 75 62 76
REMARK SMILES IDX 63 77 65 78 67 79 64 80 48 81 49 82 54 83 50 84 51 85 53 86
REMARK SMILES IDX 55 87 52 88
REMARK H PARENT 15 7 22 31 72 50 46 61
REMARK Flexibility Score: inf
ROOT
ATOM      1  C   UNL A   1      35.021  24.664  25.422  1.00  0.00     0.002 C 
ENDROOT
BRANCH   1   2
ATOM      2  C   UNL A   1      34.181  25.936  25.259  1.00  0.00     0.021 C 
BRANCH   2   3
ATOM      3  C   UNL A   1      33.596  26.130  23.862  1.00  0.00     0.116 C 
BRANCH   3   4
ATOM      4  N   UNL A   1      32.159  25.931  23.847  1.00  0.00    -0.352 N 
ATOM      5  C   UNL A   1      31.287  24.937  24.136  1.00  0.00     0.251 C 
ATOM      6  O   UNL A   1      30.096  25.236  24.003  1.00  0.00    -0.270 OA
ATOM      7  H   UNL A   1      31.688  26.740  23.544  1.00  0.00     0.163 HD
BRANCH   5   8
ATOM      8  C   UNL A   1      31.651  23.558  24.582  1.00  0.00     0.067 C 
ATOM      9  C   UNL A   1      32.978  18.669  24.652  1.00  0.00    -0.026 A 
ATOM     10  C   UNL A   1      32.977  19.710  25.598  1.00  0.00     0.052 A 
ATOM     11  C   UNL A   1      32.530  18.959  23.353  1.00  0.00     0.045 A 
ATOM     12  C   UNL A   1      32.559  20.993  25.251  1.00  0.00     0.128 A 
ATOM     13  C   UNL A   1      32.152  20.262  22.998  1.00  0.00     0.032 A 
ATOM     14  Cl  UNL A   1      32.392  17.745  22.133  1.00  0.00    -0.084 Cl
ATOM     15  C   UNL A   1      32.172  21.286  23.947  1.00  0.00     0.019 A 
ATOM     16  O   UNL A   1      32.593  21.935  26.236  1.00  0.00    -0.475 OA
ATOM     17  C   UNL A   1      31.829  22.658  23.597  1.00  0.00     0.025 C 
ATOM     18  C   UNL A   1      31.788  23.129  26.017  1.00  0.00     0.314 C 
BRANCH   9  19
ATOM     19  C   UNL A   1      33.448  17.302  25.100  1.00  0.00     0.037 C 
BRANCH  19  20
ATOM     20  C   UNL A   1      34.777  16.814  24.508  1.00  0.00     0.001 C 
ATOM     21  C   UNL A   1      35.516  15.807  25.377  1.00  0.00     0.004 C 
ENDBRANCH  19  20
ENDBRANCH   9  19
BRANCH  18  22
ATOM     22  C   UNL A   1      30.425  22.961  26.711  1.00  0.00     0.429 C 
ATOM     23  F   UNL A   1      30.590  22.582  28.003  1.00  0.00    -0.167 F 
ATOM     24  F   UNL A   1      29.715  24.115  26.745  1.00  0.00    -0.167 F 
ATOM     25  F   UNL A   1      29.644  22.035  26.113  1.00  0.00    -0.167 F 
ENDBRANCH  18  22
ENDBRANCH   5   8
ENDBRANCH   3   4
ENDBRANCH   2   3
ENDBRANCH   1   2
BRANCH   1  26
ATOM     26  C   UNL A   1      35.326  23.896  24.130  1.00  0.00     0.002 C 
BRANCH  26  27
ATOM     27  C   UNL A   1      35.750  22.436  24.305  1.00  0.00     0.021 C 
BRANCH  27  28
ATOM     28  C   UNL A   1      36.293  22.081  25.685  1.00  0.00     0.116 C 
BRANCH  28  29
ATOM     29  N   UNL A   1      37.289  21.024  25.644  1.00  0.00    -0.352 N 
ATOM     30  C   UNL A   1      38.633  21.090  25.921  1.00  0.00     0.251 C 
ATOM     31  H   UNL A   1      36.955  20.136  25.380  1.00  0.00     0.163 HD
ATOM     32  O   UNL A   1      39.362  20.127  25.705  1.00  0.00    -0.269 OA
BRANCH  30  33
ATOM     33  C   UNL A   1      39.207  22.348  26.447  1.00  0.00     0.039 A 
ATOM     34  C   UNL A   1      38.644  23.583  26.114  1.00  0.00     0.014 A 
ATOM     35  C   UNL A   1      40.346  22.286  27.253  1.00  0.00     0.014 A 
ATOM     36  C   UNL A   1      39.309  24.756  26.454  1.00  0.00     0.010 A 
ATOM     37  C   UNL A   1      40.974  23.469  27.655  1.00  0.00     0.010 A 
ATOM     38  C   UNL A   1      40.489  24.711  27.215  1.00  0.00    -0.014 A 
BRANCH  38  39
ATOM     39  C   UNL A   1      41.224  25.968  27.510  1.00  0.00     0.031 A 
ATOM     40  C   UNL A   1      40.578  27.051  28.333  1.00  0.00     0.074 A 
ATOM     41  C   UNL A   1      42.489  26.117  27.077  1.00  0.00     0.049 A 
ATOM     42  N   UNL A   1      41.053  28.222  28.678  1.00  0.00    -0.248 NA
ATOM     43  C   UNL A   1      39.219  26.786  28.832  1.00  0.00     0.031 C 
ATOM     44  C   UNL A   1      43.234  25.132  26.290  1.00  0.00     0.029 A 
ATOM     45  N   UNL A   1      43.379  27.146  27.251  1.00  0.00    -0.354 N 
ATOM     46  C   UNL A   1      40.047  28.839  29.412  1.00  0.00     0.074 A 
ATOM     47  C   UNL A   1      38.926  27.925  29.443  1.00  0.00     0.031 C 
ATOM     48  C   UNL A   1      44.478  25.589  26.082  1.00  0.00     0.029 A 
ATOM     49  C   UNL A   1      44.602  26.917  26.670  1.00  0.00     0.049 A 
ATOM     50  H   UNL A   1      43.161  27.969  27.745  1.00  0.00     0.167 HD
ATOM     51  C   UNL A   1      40.060  30.053  30.016  1.00  0.00     0.037 A 
ATOM     52  C   UNL A   1      45.694  27.701  26.603  1.00  0.00     0.037 A 
ATOM     53  C   UNL A   1      41.183  30.954  30.004  1.00  0.00     0.049 A 
ATOM     54  C   UNL A   1      45.664  29.061  27.236  1.00  0.00     0.074 A 
ATOM     55  C   UNL A   1      41.299  32.198  30.600  1.00  0.00     0.029 A 
ATOM     56  N   UNL A   1      42.387  30.706  29.362  1.00  0.00    -0.354 N 
ATOM     57  N   UNL A   1      44.707  29.630  27.928  1.00  0.00    -0.248 NA
ATOM     58  C   UNL A   1      46.863  29.893  27.070  1.00  0.00     0.031 C 
ATOM     59  C   UNL A   1      42.561  32.717  30.291  1.00  0.00     0.029 A 
ATOM     60  C   UNL A   1      43.246  31.779  29.534  1.00  0.00     0.049 A 
ATOM     61  H   UNL A   1      42.600  29.886  28.859  1.00  0.00     0.167 HD
ATOM     62  C   UNL A   1      45.192  30.879  28.292  1.00  0.00     0.074 A 
ATOM     63  C   UNL A   1      46.537  30.976  27.760  1.00  0.00     0.031 C 
ATOM     64  C   UNL A   1      44.580  31.857  29.000  1.00  0.00     0.037 A 
BRANCH  51  65
ATOM     65  C   UNL A   1      38.812  30.482  30.728  1.00  0.00     0.057 A 
ATOM     66  C   UNL A   1      37.832  31.230  30.064  1.00  0.00     0.134 A 
ATOM     67  C   UNL A   1      38.589  30.180  32.079  1.00  0.00     0.134 A 
ATOM     68  F   UNL A   1      37.985  31.558  28.772  1.00  0.00    -0.206 F 
ATOM     69  C   UNL A   1      36.675  31.661  30.716  1.00  0.00     0.040 A 
ATOM     70  C   UNL A   1      37.427  30.587  32.735  1.00  0.00     0.040 A 
ATOM     71  F   UNL A   1      39.482  29.454  32.769  1.00  0.00    -0.206 F 
ATOM     72  C   UNL A   1      36.468  31.335  32.054  1.00  0.00     0.006 A 
ENDBRANCH  51  65
BRANCH  52  73
ATOM     73  C   UNL A   1      46.907  27.221  25.895  1.00  0.00     0.057 A 
ATOM     74  C   UNL A   1      47.118  27.501  24.540  1.00  0.00     0.134 A 
ATOM     75  C   UNL A   1      47.888  26.483  26.565  1.00  0.00     0.134 A 
ATOM     76  F   UNL A   1      46.212  28.202  23.844  1.00  0.00    -0.206 F 
ATOM     77  C   UNL A   1      48.258  27.053  23.872  1.00  0.00     0.040 A 
ATOM     78  C   UNL A   1      49.046  26.050  25.915  1.00  0.00     0.040 A 
ATOM     79  F   UNL A   1      47.750  26.203  27.869  1.00  0.00    -0.206 F 
ATOM     80  C   UNL A   1      49.229  26.331  24.562  1.00  0.00     0.006 A 
ENDBRANCH  52  73
BRANCH  64  81
ATOM     81  C   UNL A   1      45.372  33.103  29.260  1.00  0.00     0.057 A 
ATOM     82  C   UNL A   1      45.306  34.188  28.377  1.00  0.00     0.134 A 
ATOM     83  C   UNL A   1      46.211  33.222  30.373  1.00  0.00     0.134 A 
ATOM     84  F   UNL A   1      44.523  34.134  27.289  1.00  0.00    -0.206 F 
ATOM     85  C   UNL A   1      46.050  35.348  28.592  1.00  0.00     0.040 A 
ATOM     86  C   UNL A   1      46.944  34.386  30.612  1.00  0.00     0.040 A 
ATOM     87  F   UNL A   1      46.304  32.224  31.265  1.00  0.00    -0.206 F 
ATOM     88  C   UNL A   1      46.867  35.452  29.717  1.00  0.00     0.006 A 
ENDBRANCH  64  81
ENDBRANCH  38  39
ENDBRANCH  30  33
ENDBRANCH  28  29
ENDBRANCH  27  28
ENDBRANCH  26  27
ENDBRANCH   1  26
TORSDOF 16
ENDMDL
MODEL 3
REMARK VINA RESULT:     -11.0      3.954      8.593
REMARK SMILES CCCc1cc2c(cc1Cl)C=C(C(=O)NCCCCCCNC(=O)c1ccc(-c3c4nc(c(-c5c(F)cccc5F)c5ccc([nH]5)c(-c5c(F)cccc5F)c5nc(c(-c6c(F)cccc6F)c6ccc3[nH]6)C=C5)C=C4)cc1)[C@@H](C(F)(F)F)O2
REMARK SMILES IDX 18 1 17 2 16 3 15 4 13 5 14 6 12 8 4 9 5 10 9 11 6 12 8 13
REMARK SMILES IDX 10 14 7 15 84 16 11 17 79 18 3 19 2 20 1 21 80 22 81 23
REMARK SMILES IDX 82 24 83 25 19 26 20 27 21 28 22 29 23 30 24 32 25 33 26 34
REMARK SMILES IDX 78 35 27 36 77 37 28 38 29 39 30 40 71 41 31 42 76 43 70 44
REMARK SMILES IDX 72 45 32 46 75 47 69 48 68 49 33 51 59 52 42 53 58 54 43 55
REMARK SMILES IDX 46 56 57 57 73 58 44 59 45 60 56 62 74 63 47 64 34 65 35 66
REMARK SMILES IDX 40 67 36 68 37 69 39 70 41 71 38 72 60 73 61 74 66 75 62 76
REMARK SMILES IDX 63 77 65 78 67 79 64 80 48 81 49 82 54 83 50 84 51 85 53 86
REMARK SMILES IDX 55 87 52 88
REMARK H PARENT 15 7 22 31 72 50 46 61
REMARK Flexibility Score: inf
ROOT
ATOM      1  C   UNL A   1      35.866  21.421  24.607  1.00  0.00     0.002 C 
ENDROOT
BRANCH   1   2
ATOM      2  C   UNL A   1      35.182  21.348  25.978  1.00  0.00     0.021 C 
BRANCH   2   3
ATOM      3  C   UNL A   1      33.722  20.904  25.931  1.00  0.00     0.116 C 
BRANCH   3   4
ATOM      4  N   UNL A   1      33.118  21.172  24.639  1.00  0.00    -0.352 N 
ATOM      5  C   UNL A   1      32.461  22.190  24.037  1.00  0.00     0.251 C 
ATOM      6  O   UNL A   1      32.144  21.980  22.861  1.00  0.00    -0.270 OA
ATOM      7  H   UNL A   1      33.213  20.401  24.033  1.00  0.00     0.163 HD
BRANCH   5   8
ATOM      8  C   UNL A   1      32.104  23.495  24.671  1.00  0.00     0.067 C 
ATOM      9  C   UNL A   1      32.290  28.217  26.496  1.00  0.00    -0.026 A 
ATOM     10  C   UNL A   1      31.257  27.331  26.142  1.00  0.00     0.052 A 
ATOM     11  C   UNL A   1      33.615  27.782  26.335  1.00  0.00     0.045 A 
ATOM     12  C   UNL A   1      31.542  26.067  25.630  1.00  0.00     0.128 A 
ATOM     13  C   UNL A   1      33.896  26.526  25.780  1.00  0.00     0.032 A 
ATOM     14  Cl  UNL A   1      34.966  28.740  26.826  1.00  0.00    -0.084 Cl
ATOM     15  C   UNL A   1      32.857  25.666  25.419  1.00  0.00     0.019 A 
ATOM     16  O   UNL A   1      30.474  25.279  25.316  1.00  0.00    -0.475 OA
ATOM     17  C   UNL A   1      33.117  24.374  24.797  1.00  0.00     0.025 C 
ATOM     18  C   UNL A   1      30.739  23.853  25.188  1.00  0.00     0.314 C 
BRANCH   9  19
ATOM     19  C   UNL A   1      31.905  29.575  27.042  1.00  0.00     0.037 C 
BRANCH  19  20
ATOM     20  C   UNL A   1      31.770  30.706  26.015  1.00  0.00     0.001 C 
ATOM     21  C   UNL A   1      31.143  31.980  26.564  1.00  0.00     0.004 C 
ENDBRANCH  19  20
ENDBRANCH   9  19
BRANCH  18  22
ATOM     22  C   UNL A   1      30.414  23.151  26.519  1.00  0.00     0.429 C 
ATOM     23  F   UNL A   1      31.495  23.163  27.341  1.00  0.00    -0.167 F 
ATOM     24  F   UNL A   1      29.416  23.764  27.199  1.00  0.00    -0.167 F 
ATOM     25  F   UNL A   1      30.045  21.861  26.354  1.00  0.00    -0.167 F 
ENDBRANCH  18  22
ENDBRANCH   5   8
ENDBRANCH   3   4
ENDBRANCH   2   3
ENDBRANCH   1   2
BRANCH   1  26
ATOM     26  C   UNL A   1      37.397  21.499  24.629  1.00  0.00     0.002 C 
BRANCH  26  27
ATOM     27  C   UNL A   1      38.127  20.198  24.967  1.00  0.00     0.021 C 
BRANCH  27  28
ATOM     28  C   UNL A   1      39.180  20.313  26.065  1.00  0.00     0.116 C 
BRANCH  28  29
ATOM     29  N   UNL A   1      40.195  19.276  25.983  1.00  0.00    -0.352 N 
ATOM     30  C   UNL A   1      41.560  19.393  26.080  1.00  0.00     0.251 C 
ATOM     31  H   UNL A   1      39.857  18.363  25.837  1.00  0.00     0.163 HD
ATOM     32  O   UNL A   1      42.286  18.429  25.852  1.00  0.00    -0.269 OA
BRANCH  30  33
ATOM     33  C   UNL A   1      42.158  20.701  26.424  1.00  0.00     0.039 A 
ATOM     34  C   UNL A   1      42.322  21.081  27.759  1.00  0.00     0.014 A 
ATOM     35  C   UNL A   1      42.523  21.570  25.393  1.00  0.00     0.014 A 
ATOM     36  C   UNL A   1      42.700  22.385  28.061  1.00  0.00     0.010 A 
ATOM     37  C   UNL A   1      42.972  22.857  25.700  1.00  0.00     0.010 A 
ATOM     38  C   UNL A   1      43.015  23.291  27.035  1.00  0.00    -0.014 A 
BRANCH  38  39
ATOM     39  C   UNL A   1      43.350  24.699  27.372  1.00  0.00     0.031 A 
ATOM     40  C   UNL A   1      44.730  25.237  27.105  1.00  0.00     0.074 A 
ATOM     41  C   UNL A   1      42.399  25.507  27.876  1.00  0.00     0.049 A 
ATOM     42  N   UNL A   1      45.215  26.429  27.349  1.00  0.00    -0.248 NA
ATOM     43  C   UNL A   1      45.695  24.314  26.486  1.00  0.00     0.031 C 
ATOM     44  C   UNL A   1      41.018  25.111  28.160  1.00  0.00     0.029 A 
ATOM     45  N   UNL A   1      42.444  26.833  28.224  1.00  0.00    -0.354 N 
ATOM     46  C   UNL A   1      46.541  26.393  26.935  1.00  0.00     0.074 A 
ATOM     47  C   UNL A   1      46.794  25.055  26.447  1.00  0.00     0.031 C 
ATOM     48  C   UNL A   1      40.338  26.181  28.602  1.00  0.00     0.029 A 
ATOM     49  C   UNL A   1      41.246  27.319  28.687  1.00  0.00     0.049 A 
ATOM     50  H   UNL A   1      43.257  27.382  28.149  1.00  0.00     0.167 HD
ATOM     51  C   UNL A   1      47.461  27.388  26.949  1.00  0.00     0.037 A 
ATOM     52  C   UNL A   1      40.922  28.542  29.146  1.00  0.00     0.037 A 
ATOM     53  C   UNL A   1      47.204  28.727  27.414  1.00  0.00     0.049 A 
ATOM     54  C   UNL A   1      41.974  29.611  29.198  1.00  0.00     0.074 A 
ATOM     55  C   UNL A   1      48.067  29.808  27.453  1.00  0.00     0.029 A 
ATOM     56  N   UNL A   1      45.990  29.166  27.921  1.00  0.00    -0.354 N 
ATOM     57  N   UNL A   1      43.223  29.562  28.803  1.00  0.00    -0.248 NA
ATOM     58  C   UNL A   1      41.574  30.902  29.773  1.00  0.00     0.031 C 
ATOM     59  C   UNL A   1      47.384  30.894  28.014  1.00  0.00     0.029 A 
ATOM     60  C   UNL A   1      46.085  30.498  28.289  1.00  0.00     0.049 A 
ATOM     61  H   UNL A   1      45.180  28.612  28.005  1.00  0.00     0.167 HD
ATOM     62  C   UNL A   1      43.753  30.818  29.064  1.00  0.00     0.074 A 
ATOM     63  C   UNL A   1      42.685  31.613  29.637  1.00  0.00     0.031 C 
ATOM     64  C   UNL A   1      45.011  31.272  28.854  1.00  0.00     0.037 A 
BRANCH  51  65
ATOM     65  C   UNL A   1      48.840  27.059  26.460  1.00  0.00     0.057 A 
ATOM     66  C   UNL A   1      49.819  26.591  27.345  1.00  0.00     0.134 A 
ATOM     67  C   UNL A   1      49.210  27.228  25.118  1.00  0.00     0.134 A 
ATOM     68  F   UNL A   1      49.533  26.412  28.643  1.00  0.00    -0.206 F 
ATOM     69  C   UNL A   1      51.116  26.303  26.915  1.00  0.00     0.040 A 
ATOM     70  C   UNL A   1      50.497  26.923  24.672  1.00  0.00     0.040 A 
ATOM     71  F   UNL A   1      48.315  27.659  24.216  1.00  0.00    -0.206 F 
ATOM     72  C   UNL A   1      51.456  26.464  25.574  1.00  0.00     0.006 A 
ENDBRANCH  51  65
BRANCH  52  73
ATOM     73  C   UNL A   1      39.539  28.817  29.607  1.00  0.00     0.057 A 
ATOM     74  C   UNL A   1      38.583  29.376  28.751  1.00  0.00     0.134 A 
ATOM     75  C   UNL A   1      39.140  28.514  30.913  1.00  0.00     0.134 A 
ATOM     76  F   UNL A   1      38.905  29.690  27.488  1.00  0.00    -0.206 F 
ATOM     77  C   UNL A   1      37.281  29.634  29.181  1.00  0.00     0.040 A 
ATOM     78  C   UNL A   1      37.834  28.745  31.349  1.00  0.00     0.040 A 
ATOM     79  F   UNL A   1      40.007  27.958  31.772  1.00  0.00    -0.206 F 
ATOM     80  C   UNL A   1      36.902  29.312  30.482  1.00  0.00     0.006 A 
ENDBRANCH  52  73
BRANCH  64  81
ATOM     81  C   UNL A   1      45.288  32.700  29.220  1.00  0.00     0.057 A 
ATOM     82  C   UNL A   1      45.071  33.728  28.294  1.00  0.00     0.134 A 
ATOM     83  C   UNL A   1      45.784  33.054  30.479  1.00  0.00     0.134 A 
ATOM     84  F   UNL A   1      44.601  33.453  27.068  1.00  0.00    -0.206 F 
ATOM     85  C   UNL A   1      45.340  35.060  28.609  1.00  0.00     0.040 A 
ATOM     86  C   UNL A   1      46.036  34.384  30.815  1.00  0.00     0.040 A 
ATOM     87  F   UNL A   1      45.996  32.116  31.415  1.00  0.00    -0.206 F 
ATOM     88  C   UNL A   1      45.818  35.392  29.876  1.00  0.00     0.006 A 
ENDBRANCH  64  81
ENDBRANCH  38  39
ENDBRANCH  30  33
ENDBRANCH  28  29
ENDBRANCH  27  28
ENDBRANCH  26  27
ENDBRANCH   1  26
TORSDOF 16
ENDMDL
