MODEL 1
REMARK VINA RESULT:     -11.4      0.000      0.000
REMARK SMILES Cc1cc(C(=O)N2CCC[C@@H]2C)sc1/C=C/C(=O)NCCCCCCNC(=O)c1ccc(-c2c3nc(c(-c4c(F)cccc4F)c4ccc([nH]4)c(-c4c(F)cccc4F)c4nc(c(-c5c(F)cccc5F)c5ccc2[nH]5)C=C4)C=C3)cc1
REMARK SMILES IDX 22 1 21 2 20 3 19 4 17 5 18 6 16 8 15 9 14 10 1 11 2 12 3 13
REMARK SMILES IDX 4 14 13 15 5 16 6 17 7 18 8 19 11 20 9 21 10 22 12 23 23 24
REMARK SMILES IDX 24 25 25 26 26 27 27 28 28 30 29 31 30 32 82 33 31 34 81 35
REMARK SMILES IDX 32 36 33 37 34 38 75 39 35 40 80 41 74 42 76 43 36 44 79 45
REMARK SMILES IDX 73 46 72 47 37 49 63 50 46 51 62 52 47 53 50 54 61 55 77 56
REMARK SMILES IDX 48 57 49 58 60 60 78 61 51 62 38 63 39 64 44 65 40 66 41 67
REMARK SMILES IDX 43 68 45 69 42 70 64 71 65 72 70 73 66 74 67 75 69 76 71 77
REMARK SMILES IDX 68 78 52 79 53 80 58 81 54 82 55 83 57 84 59 85 56 86
REMARK H PARENT 19 7 26 29 76 48 50 59
REMARK Flexibility Score: inf
ROOT
ATOM      1  C   UNL A   1      30.708  26.768  25.425  1.00  0.00     0.002 C 
ENDROOT
BRANCH   1   2
ATOM      2  C   UNL A   1      30.424  27.720  24.256  1.00  0.00     0.021 C 
BRANCH   2   3
ATOM      3  C   UNL A   1      30.671  27.086  22.888  1.00  0.00     0.116 C 
BRANCH   3   4
ATOM      4  N   UNL A   1      31.925  27.559  22.335  1.00  0.00    -0.353 N 
ATOM      5  C   UNL A   1      33.120  26.933  22.189  1.00  0.00     0.244 C 
ATOM      6  O   UNL A   1      34.050  27.513  21.632  1.00  0.00    -0.270 OA
ATOM      7  H   UNL A   1      31.906  28.489  22.012  1.00  0.00     0.163 HD
BRANCH   5   8
ATOM      8  C   UNL A   1      33.285  25.524  22.597  1.00  0.00     0.072 C 
ATOM      9  C   UNL A   1      33.913  25.120  23.712  1.00  0.00     0.025 C 
BRANCH   9  10
ATOM     10  C   UNL A   1      34.035  23.741  24.061  1.00  0.00     0.031 A 
ATOM     11  C   UNL A   1      36.529  23.598  24.684  1.00  0.00     0.046 C 
ATOM     12  C   UNL A   1      35.166  23.029  24.442  1.00  0.00    -0.032 A 
ATOM     13  C   UNL A   1      34.867  21.635  24.633  1.00  0.00     0.029 A 
ATOM     14  C   UNL A   1      33.533  21.320  24.449  1.00  0.00     0.093 A 
ATOM     15  S   UNL A   1      32.657  22.721  24.051  1.00  0.00    -0.130 S 
BRANCH  14  16
ATOM     16  C   UNL A   1      32.898  20.044  24.769  1.00  0.00     0.264 C 
ATOM     17  O   UNL A   1      31.854  20.017  25.429  1.00  0.00    -0.268 OA
BRANCH  16  18
ATOM     18  N   UNL A   1      33.398  18.850  24.262  1.00  0.00    -0.335 N 
ATOM     19  C   UNL A   1      34.790  18.518  24.474  1.00  0.00     0.120 C 
ATOM     20  C   UNL A   1      32.740  17.807  23.467  1.00  0.00     0.082 C 
ATOM     21  C   UNL A   1      34.761  17.003  24.535  1.00  0.00     0.024 C 
ATOM     22  C   UNL A   1      33.743  16.639  23.459  1.00  0.00     0.026 C 
ATOM     23  C   UNL A   1      32.445  18.292  22.050  1.00  0.00     0.031 C 
ENDBRANCH  16  18
ENDBRANCH  14  16
ENDBRANCH   9  10
ENDBRANCH   5   8
ENDBRANCH   3   4
ENDBRANCH   2   3
ENDBRANCH   1   2
BRANCH   1  24
ATOM     24  C   UNL A   1      31.673  27.319  26.482  1.00  0.00     0.002 C 
BRANCH  24  25
ATOM     25  C   UNL A   1      32.837  28.144  25.927  1.00  0.00     0.021 C 
BRANCH  25  26
ATOM     26  C   UNL A   1      33.923  28.466  26.950  1.00  0.00     0.116 C 
BRANCH  26  27
ATOM     27  N   UNL A   1      33.798  29.823  27.458  1.00  0.00    -0.352 N 
ATOM     28  C   UNL A   1      34.674  30.548  28.224  1.00  0.00     0.251 C 
ATOM     29  H   UNL A   1      32.965  30.288  27.215  1.00  0.00     0.163 HD
ATOM     30  O   UNL A   1      34.313  31.595  28.750  1.00  0.00    -0.269 OA
BRANCH  28  31
ATOM     31  C   UNL A   1      36.054  30.061  28.425  1.00  0.00     0.039 A 
ATOM     32  C   UNL A   1      36.976  30.187  27.383  1.00  0.00     0.014 A 
ATOM     33  C   UNL A   1      36.431  29.460  29.630  1.00  0.00     0.014 A 
ATOM     34  C   UNL A   1      38.291  29.757  27.568  1.00  0.00     0.010 A 
ATOM     35  C   UNL A   1      37.758  29.095  29.837  1.00  0.00     0.010 A 
ATOM     36  C   UNL A   1      38.699  29.234  28.806  1.00  0.00    -0.014 A 
BRANCH  36  37
ATOM     37  C   UNL A   1      40.105  28.822  29.039  1.00  0.00     0.031 A 
ATOM     38  C   UNL A   1      41.075  29.773  29.684  1.00  0.00     0.074 A 
ATOM     39  C   UNL A   1      40.525  27.617  28.612  1.00  0.00     0.049 A 
ATOM     40  N   UNL A   1      42.355  29.622  29.912  1.00  0.00    -0.248 NA
ATOM     41  C   UNL A   1      40.539  31.078  30.104  1.00  0.00     0.031 C 
ATOM     42  C   UNL A   1      39.693  26.623  27.931  1.00  0.00     0.029 A 
ATOM     43  N   UNL A   1      41.761  27.025  28.678  1.00  0.00    -0.354 N 
ATOM     44  C   UNL A   1      42.779  30.814  30.487  1.00  0.00     0.074 A 
ATOM     45  C   UNL A   1      41.633  31.696  30.525  1.00  0.00     0.031 C 
ATOM     46  C   UNL A   1      40.436  25.537  27.662  1.00  0.00     0.029 A 
ATOM     47  C   UNL A   1      41.802  25.772  28.118  1.00  0.00     0.049 A 
ATOM     48  H   UNL A   1      42.545  27.458  29.088  1.00  0.00     0.167 HD
ATOM     49  C   UNL A   1      44.006  31.135  30.960  1.00  0.00     0.037 A 
ATOM     50  C   UNL A   1      42.828  24.911  27.982  1.00  0.00     0.037 A 
ATOM     51  C   UNL A   1      45.138  30.245  30.942  1.00  0.00     0.049 A 
ATOM     52  C   UNL A   1      44.182  25.292  28.511  1.00  0.00     0.074 A 
ATOM     53  C   UNL A   1      46.407  30.453  31.455  1.00  0.00     0.029 A 
ATOM     54  N   UNL A   1      45.137  28.978  30.379  1.00  0.00    -0.354 N 
ATOM     55  N   UNL A   1      44.554  26.396  29.113  1.00  0.00    -0.248 NA
ATOM     56  C   UNL A   1      45.259  24.305  28.345  1.00  0.00     0.031 C 
ATOM     57  C   UNL A   1      47.186  29.329  31.162  1.00  0.00     0.029 A 
ATOM     58  C   UNL A   1      46.389  28.401  30.510  1.00  0.00     0.049 A 
ATOM     59  H   UNL A   1      44.360  28.552  29.950  1.00  0.00     0.167 HD
ATOM     60  C   UNL A   1      45.897  26.227  29.422  1.00  0.00     0.074 A 
ATOM     61  C   UNL A   1      46.272  24.909  28.952  1.00  0.00     0.031 C 
ATOM     62  C   UNL A   1      46.745  27.086  30.039  1.00  0.00     0.037 A 
BRANCH  49  63
ATOM     63  C   UNL A   1      44.185  32.509  31.539  1.00  0.00     0.057 A 
ATOM     64  C   UNL A   1      44.589  33.595  30.751  1.00  0.00     0.134 A 
ATOM     65  C   UNL A   1      43.927  32.755  32.893  1.00  0.00     0.134 A 
ATOM     66  F   UNL A   1      44.865  33.427  29.449  1.00  0.00    -0.206 F 
ATOM     67  C   UNL A   1      44.761  34.870  31.297  1.00  0.00     0.040 A 
ATOM     68  C   UNL A   1      44.067  34.030  33.443  1.00  0.00     0.040 A 
ATOM     69  F   UNL A   1      43.530  31.762  33.703  1.00  0.00    -0.206 F 
ATOM     70  C   UNL A   1      44.494  35.090  32.645  1.00  0.00     0.006 A 
ENDBRANCH  49  63
BRANCH  50  71
ATOM     71  C   UNL A   1      42.607  23.592  27.340  1.00  0.00     0.057 A 
ATOM     72  C   UNL A   1      42.787  23.422  25.962  1.00  0.00     0.134 A 
ATOM     73  C   UNL A   1      42.216  22.471  28.082  1.00  0.00     0.134 A 
ATOM     74  F   UNL A   1      43.145  24.463  25.196  1.00  0.00    -0.206 F 
ATOM     75  C   UNL A   1      42.570  22.191  25.342  1.00  0.00     0.040 A 
ATOM     76  C   UNL A   1      42.018  21.228  27.479  1.00  0.00     0.040 A 
ATOM     77  F   UNL A   1      42.036  22.566  29.408  1.00  0.00    -0.206 F 
ATOM     78  C   UNL A   1      42.189  21.088  26.103  1.00  0.00     0.006 A 
ENDBRANCH  50  71
BRANCH  62  79
ATOM     79  C   UNL A   1      48.151  26.616  30.268  1.00  0.00     0.057 A 
ATOM     80  C   UNL A   1      49.177  26.876  29.352  1.00  0.00     0.134 A 
ATOM     81  C   UNL A   1      48.489  25.924  31.439  1.00  0.00     0.134 A 
ATOM     82  F   UNL A   1      48.916  27.522  28.205  1.00  0.00    -0.206 F 
ATOM     83  C   UNL A   1      50.485  26.448  29.581  1.00  0.00     0.040 A 
ATOM     84  C   UNL A   1      49.798  25.514  31.691  1.00  0.00     0.040 A 
ATOM     85  F   UNL A   1      47.554  25.650  32.362  1.00  0.00    -0.206 F 
ATOM     86  C   UNL A   1      50.799  25.771  30.757  1.00  0.00     0.006 A 
ENDBRANCH  62  79
ENDBRANCH  36  37
ENDBRANCH  28  31
ENDBRANCH  26  27
ENDBRANCH  25  26
ENDBRANCH  24  25
ENDBRANCH   1  24
TORSDOF 16
ENDMDL
MODEL 2
REMARK VINA RESULT:     -11.3      4.467      6.835
REMARK SMILES Cc1cc(C(=O)N2CCC[C@@H]2C)sc1/C=C/C(=O)NCCCCCCNC(=O)c1ccc(-c2c3nc(c(-c4c(F)cccc4F)c4ccc([nH]4)c(-c4c(F)cccc4F)c4nc(c(-c5c(F)cccc5F)c5ccc2[nH]5)C=C4)C=C3)cc1
REMARK SMILES IDX 22 1 21 2 20 3 19 4 17 5 18 6 16 8 15 9 14 10 1 11 2 12 3 13
REMARK SMILES IDX 4 14 13 15 5 16 6 17 7 18 8 19 11 20 9 21 10 22 12 23 23 24
REMARK SMILES IDX 24 25 25 26 26 27 27 28 28 30 29 31 30 32 82 33 31 34 81 35
REMARK SMILES IDX 32 36 33 37 34 38 75 39 35 40 80 41 74 42 76 43 36 44 79 45
REMARK SMILES IDX 73 46 72 47 37 49 63 50 46 51 62 52 47 53 50 54 61 55 77 56
REMARK SMILES IDX 48 57 49 58 60 60 78 61 51 62 38 63 39 64 44 65 40 66 41 67
REMARK SMILES IDX 43 68 45 69 42 70 64 71 65 72 70 73 66 74 67 75 69 76 71 77
REMARK SMILES IDX 68 78 52 79 53 80 58 81 54 82 55 83 57 84 59 85 56 86
REMARK H PARENT 19 7 26 29 76 48 50 59
REMARK Flexibility Score: inf
ROOT
ATOM      1  C   UNL A   1      34.978  33.057  29.035  1.00  0.00     0.002 C 
ENDROOT
BRANCH   1   2
ATOM      2  C   UNL A   1      35.525  32.047  28.018  1.00  0.00     0.021 C 
BRANCH   2   3
ATOM      3  C   UNL A   1      34.490  31.011  27.581  1.00  0.00     0.116 C 
BRANCH   3   4
ATOM      4  N   UNL A   1      33.180  31.623  27.478  1.00  0.00    -0.353 N 
ATOM      5  C   UNL A   1      32.122  31.321  26.684  1.00  0.00     0.244 C 
ATOM      6  O   UNL A   1      31.070  31.944  26.805  1.00  0.00    -0.270 OA
ATOM      7  H   UNL A   1      33.034  32.384  28.086  1.00  0.00     0.163 HD
BRANCH   5   8
ATOM      8  C   UNL A   1      32.187  30.181  25.749  1.00  0.00     0.072 C 
ATOM      9  C   UNL A   1      31.190  29.805  24.932  1.00  0.00     0.025 C 
BRANCH   9  10
ATOM     10  C   UNL A   1      31.312  28.697  24.040  1.00  0.00     0.031 A 
ATOM     11  C   UNL A   1      29.120  28.884  22.702  1.00  0.00     0.046 C 
ATOM     12  C   UNL A   1      30.411  28.234  23.089  1.00  0.00    -0.032 A 
ATOM     13  C   UNL A   1      30.892  27.037  22.453  1.00  0.00     0.029 A 
ATOM     14  C   UNL A   1      32.146  26.641  22.882  1.00  0.00     0.093 A 
ATOM     15  S   UNL A   1      32.729  27.731  24.050  1.00  0.00    -0.130 S 
BRANCH  14  16
ATOM     16  C   UNL A   1      32.972  25.597  22.281  1.00  0.00     0.264 C 
ATOM     17  O   UNL A   1      33.563  25.807  21.217  1.00  0.00    -0.268 OA
BRANCH  16  18
ATOM     18  N   UNL A   1      33.184  24.389  22.936  1.00  0.00    -0.335 N 
ATOM     19  C   UNL A   1      32.066  23.499  23.160  1.00  0.00     0.120 C 
ATOM     20  C   UNL A   1      34.410  23.824  23.512  1.00  0.00     0.082 C 
ATOM     21  C   UNL A   1      32.721  22.131  23.119  1.00  0.00     0.024 C 
ATOM     22  C   UNL A   1      34.043  22.366  23.842  1.00  0.00     0.026 C 
ATOM     23  C   UNL A   1      34.836  24.584  24.765  1.00  0.00     0.031 C 
ENDBRANCH  16  18
ENDBRANCH  14  16
ENDBRANCH   9  10
ENDBRANCH   5   8
ENDBRANCH   3   4
ENDBRANCH   2   3
ENDBRANCH   1   2
BRANCH   1  24
ATOM     24  C   UNL A   1      35.287  34.525  28.711  1.00  0.00     0.002 C 
BRANCH  24  25
ATOM     25  C   UNL A   1      34.096  35.479  28.832  1.00  0.00     0.021 C 
BRANCH  25  26
ATOM     26  C   UNL A   1      32.893  34.892  29.565  1.00  0.00     0.116 C 
BRANCH  26  27
ATOM     27  N   UNL A   1      32.447  35.757  30.646  1.00  0.00    -0.352 N 
ATOM     28  C   UNL A   1      32.854  35.793  31.955  1.00  0.00     0.251 C 
ATOM     29  H   UNL A   1      31.754  36.413  30.402  1.00  0.00     0.163 HD
ATOM     30  O   UNL A   1      32.214  36.432  32.783  1.00  0.00    -0.269 OA
BRANCH  28  31
ATOM     31  C   UNL A   1      34.060  35.048  32.372  1.00  0.00     0.039 A 
ATOM     32  C   UNL A   1      33.915  33.759  32.892  1.00  0.00     0.014 A 
ATOM     33  C   UNL A   1      35.329  35.628  32.271  1.00  0.00     0.014 A 
ATOM     34  C   UNL A   1      35.046  33.032  33.263  1.00  0.00     0.010 A 
ATOM     35  C   UNL A   1      36.459  34.877  32.577  1.00  0.00     0.010 A 
ATOM     36  C   UNL A   1      36.329  33.574  33.082  1.00  0.00    -0.014 A 
BRANCH  36  37
ATOM     37  C   UNL A   1      37.546  32.796  33.419  1.00  0.00     0.031 A 
ATOM     38  C   UNL A   1      38.308  33.093  34.681  1.00  0.00     0.074 A 
ATOM     39  C   UNL A   1      38.001  31.866  32.559  1.00  0.00     0.049 A 
ATOM     40  N   UNL A   1      39.426  32.569  35.115  1.00  0.00    -0.248 NA
ATOM     41  C   UNL A   1      37.754  34.137  35.557  1.00  0.00     0.031 C 
ATOM     42  C   UNL A   1      37.377  31.518  31.281  1.00  0.00     0.029 A 
ATOM     43  N   UNL A   1      39.102  31.049  32.624  1.00  0.00    -0.354 N 
ATOM     44  C   UNL A   1      39.715  33.228  36.304  1.00  0.00     0.074 A 
ATOM     45  C   UNL A   1      38.684  34.225  36.495  1.00  0.00     0.031 C 
ATOM     46  C   UNL A   1      38.091  30.544  30.694  1.00  0.00     0.029 A 
ATOM     47  C   UNL A   1      39.241  30.225  31.535  1.00  0.00     0.049 A 
ATOM     48  H   UNL A   1      39.731  31.053  33.381  1.00  0.00     0.167 HD
ATOM     49  C   UNL A   1      40.734  33.007  37.168  1.00  0.00     0.037 A 
ATOM     50  C   UNL A   1      40.193  29.319  31.243  1.00  0.00     0.037 A 
ATOM     51  C   UNL A   1      41.744  31.997  36.986  1.00  0.00     0.049 A 
ATOM     52  C   UNL A   1      41.317  29.095  32.215  1.00  0.00     0.074 A 
ATOM     53  C   UNL A   1      42.781  31.651  37.834  1.00  0.00     0.029 A 
ATOM     54  N   UNL A   1      41.844  31.172  35.875  1.00  0.00    -0.354 N 
ATOM     55  N   UNL A   1      41.541  29.678  33.368  1.00  0.00    -0.248 NA
ATOM     56  C   UNL A   1      42.317  28.083  31.848  1.00  0.00     0.031 C 
ATOM     57  C   UNL A   1      43.535  30.647  37.217  1.00  0.00     0.029 A 
ATOM     58  C   UNL A   1      42.939  30.334  36.005  1.00  0.00     0.049 A 
ATOM     59  H   UNL A   1      41.227  31.181  35.108  1.00  0.00     0.167 HD
ATOM     60  C   UNL A   1      42.690  29.087  33.876  1.00  0.00     0.074 A 
ATOM     61  C   UNL A   1      43.109  28.091  32.912  1.00  0.00     0.031 C 
ATOM     62  C   UNL A   1      43.341  29.345  35.037  1.00  0.00     0.037 A 
BRANCH  49  63
ATOM     63  C   UNL A   1      40.803  33.875  38.390  1.00  0.00     0.057 A 
ATOM     64  C   UNL A   1      41.580  35.041  38.425  1.00  0.00     0.134 A 
ATOM     65  C   UNL A   1      40.066  33.558  39.538  1.00  0.00     0.134 A 
ATOM     66  F   UNL A   1      42.320  35.397  37.365  1.00  0.00    -0.206 F 
ATOM     67  C   UNL A   1      41.646  35.842  39.568  1.00  0.00     0.040 A 
ATOM     68  C   UNL A   1      40.101  34.365  40.675  1.00  0.00     0.040 A 
ATOM     69  F   UNL A   1      39.295  32.461  39.571  1.00  0.00    -0.206 F 
ATOM     70  C   UNL A   1      40.900  35.507  40.695  1.00  0.00     0.006 A 
ENDBRANCH  49  63
BRANCH  50  71
ATOM     71  C   UNL A   1      40.109  28.536  29.985  1.00  0.00     0.057 A 
ATOM     72  C   UNL A   1      40.776  28.956  28.829  1.00  0.00     0.134 A 
ATOM     73  C   UNL A   1      39.366  27.351  29.907  1.00  0.00     0.134 A 
ATOM     74  F   UNL A   1      41.489  30.092  28.838  1.00  0.00    -0.206 F 
ATOM     75  C   UNL A   1      40.695  28.238  27.636  1.00  0.00     0.040 A 
ATOM     76  C   UNL A   1      39.296  26.610  28.727  1.00  0.00     0.040 A 
ATOM     77  F   UNL A   1      38.711  26.890  30.984  1.00  0.00    -0.206 F 
ATOM     78  C   UNL A   1      39.957  27.057  27.584  1.00  0.00     0.006 A 
ENDBRANCH  50  71
BRANCH  62  79
ATOM     79  C   UNL A   1      44.555  28.519  35.341  1.00  0.00     0.057 A 
ATOM     80  C   UNL A   1      45.840  28.925  34.963  1.00  0.00     0.134 A 
ATOM     81  C   UNL A   1      44.439  27.318  36.053  1.00  0.00     0.134 A 
ATOM     82  F   UNL A   1      46.018  30.059  34.267  1.00  0.00    -0.206 F 
ATOM     83  C   UNL A   1      46.966  28.157  35.265  1.00  0.00     0.040 A 
ATOM     84  C   UNL A   1      45.559  26.554  36.382  1.00  0.00     0.040 A 
ATOM     85  F   UNL A   1      43.237  26.875  36.452  1.00  0.00    -0.206 F 
ATOM     86  C   UNL A   1      46.827  26.971  35.982  1.00  0.00     0.006 A 
ENDBRANCH  62  79
ENDBRANCH  36  37
ENDBRANCH  28  31
ENDBRANCH  26  27
ENDBRANCH  25  26
ENDBRANCH  24  25
ENDBRANCH   1  24
TORSDOF 16
ENDMDL
MODEL 3
REMARK VINA RESULT:     -11.1      1.777      2.359
REMARK SMILES Cc1cc(C(=O)N2CCC[C@@H]2C)sc1/C=C/C(=O)NCCCCCCNC(=O)c1ccc(-c2c3nc(c(-c4c(F)cccc4F)c4ccc([nH]4)c(-c4c(F)cccc4F)c4nc(c(-c5c(F)cccc5F)c5ccc2[nH]5)C=C4)C=C3)cc1
REMARK SMILES IDX 22 1 21 2 20 3 19 4 17 5 18 6 16 8 15 9 14 10 1 11 2 12 3 13
REMARK SMILES IDX 4 14 13 15 5 16 6 17 7 18 8 19 11 20 9 21 10 22 12 23 23 24
REMARK SMILES IDX 24 25 25 26 26 27 27 28 28 30 29 31 30 32 82 33 31 34 81 35
REMARK SMILES IDX 32 36 33 37 34 38 75 39 35 40 80 41 74 42 76 43 36 44 79 45
REMARK SMILES IDX 73 46 72 47 37 49 63 50 46 51 62 52 47 53 50 54 61 55 77 56
REMARK SMILES IDX 48 57 49 58 60 60 78 61 51 62 38 63 39 64 44 65 40 66 41 67
REMARK SMILES IDX 43 68 45 69 42 70 64 71 65 72 70 73 66 74 67 75 69 76 71 77
REMARK SMILES IDX 68 78 52 79 53 80 58 81 54 82 55 83 57 84 59 85 56 86
REMARK H PARENT 19 7 26 29 76 48 50 59
REMARK Flexibility Score: inf
ROOT
ATOM      1  C   UNL A   1      31.190  29.060  24.509  1.00  0.00     0.002 C 
ENDROOT
BRANCH   1   2
ATOM      2  C   UNL A   1      30.818  27.574  24.425  1.00  0.00     0.021 C 
BRANCH   2   3
ATOM      3  C   UNL A   1      30.522  27.105  23.001  1.00  0.00     0.116 C 
BRANCH   3   4
ATOM      4  N   UNL A   1      31.695  27.271  22.165  1.00  0.00    -0.353 N 
ATOM      5  C   UNL A   1      32.806  26.502  22.037  1.00  0.00     0.244 C 
ATOM      6  O   UNL A   1      33.666  26.804  21.213  1.00  0.00    -0.270 OA
ATOM      7  H   UNL A   1      31.684  28.074  21.596  1.00  0.00     0.163 HD
BRANCH   5   8
ATOM      8  C   UNL A   1      32.944  25.248  22.803  1.00  0.00     0.072 C 
ATOM      9  C   UNL A   1      34.094  24.578  22.972  1.00  0.00     0.025 C 
BRANCH   9  10
ATOM     10  C   UNL A   1      34.170  23.372  23.732  1.00  0.00     0.031 A 
ATOM     11  C   UNL A   1      36.158  23.881  25.287  1.00  0.00     0.046 C 
ATOM     12  C   UNL A   1      35.084  23.011  24.715  1.00  0.00    -0.032 A 
ATOM     13  C   UNL A   1      34.850  21.669  25.178  1.00  0.00     0.029 A 
ATOM     14  C   UNL A   1      33.756  21.059  24.592  1.00  0.00     0.093 A 
ATOM     15  S   UNL A   1      33.021  22.123  23.489  1.00  0.00    -0.130 S 
BRANCH  14  16
ATOM     16  C   UNL A   1      33.155  19.792  25.002  1.00  0.00     0.264 C 
ATOM     17  O   UNL A   1      32.223  19.780  25.813  1.00  0.00    -0.268 OA
BRANCH  16  18
ATOM     18  N   UNL A   1      33.552  18.592  24.423  1.00  0.00    -0.335 N 
ATOM     19  C   UNL A   1      34.934  18.179  24.526  1.00  0.00     0.120 C 
ATOM     20  C   UNL A   1      32.783  17.615  23.643  1.00  0.00     0.082 C 
ATOM     21  C   UNL A   1      34.825  16.666  24.541  1.00  0.00     0.024 C 
ATOM     22  C   UNL A   1      33.717  16.396  23.527  1.00  0.00     0.026 C 
ATOM     23  C   UNL A   1      32.420  18.166  22.266  1.00  0.00     0.031 C 
ENDBRANCH  16  18
ENDBRANCH  14  16
ENDBRANCH   9  10
ENDBRANCH   5   8
ENDBRANCH   3   4
ENDBRANCH   2   3
ENDBRANCH   1   2
BRANCH   1  24
ATOM     24  C   UNL A   1      32.695  29.341  24.594  1.00  0.00     0.002 C 
BRANCH  24  25
ATOM     25  C   UNL A   1      33.517  28.256  25.295  1.00  0.00     0.021 C 
BRANCH  25  26
ATOM     26  C   UNL A   1      33.936  28.608  26.719  1.00  0.00     0.116 C 
BRANCH  26  27
ATOM     27  N   UNL A   1      33.790  30.030  26.987  1.00  0.00    -0.352 N 
ATOM     28  C   UNL A   1      34.537  30.844  27.800  1.00  0.00     0.251 C 
ATOM     29  H   UNL A   1      33.048  30.473  26.515  1.00  0.00     0.163 HD
ATOM     30  O   UNL A   1      34.139  31.968  28.083  1.00  0.00    -0.269 OA
BRANCH  28  31
ATOM     31  C   UNL A   1      35.822  30.359  28.346  1.00  0.00     0.039 A 
ATOM     32  C   UNL A   1      35.825  29.683  29.569  1.00  0.00     0.014 A 
ATOM     33  C   UNL A   1      37.021  30.590  27.666  1.00  0.00     0.014 A 
ATOM     34  C   UNL A   1      37.026  29.193  30.085  1.00  0.00     0.010 A 
ATOM     35  C   UNL A   1      38.207  30.042  28.147  1.00  0.00     0.010 A 
ATOM     36  C   UNL A   1      38.222  29.344  29.364  1.00  0.00    -0.014 A 
BRANCH  36  37
ATOM     37  C   UNL A   1      39.499  28.783  29.869  1.00  0.00     0.031 A 
ATOM     38  C   UNL A   1      40.179  29.403  31.058  1.00  0.00     0.074 A 
ATOM     39  C   UNL A   1      40.078  27.758  29.219  1.00  0.00     0.049 A 
ATOM     40  N   UNL A   1      41.328  29.098  31.607  1.00  0.00    -0.248 NA
ATOM     41  C   UNL A   1      39.488  30.533  31.700  1.00  0.00     0.031 C 
ATOM     42  C   UNL A   1      39.541  27.100  28.025  1.00  0.00     0.029 A 
ATOM     43  N   UNL A   1      41.254  27.094  29.463  1.00  0.00    -0.354 N 
ATOM     44  C   UNL A   1      41.502  30.005  32.645  1.00  0.00     0.074 A 
ATOM     45  C   UNL A   1      40.369  30.903  32.617  1.00  0.00     0.031 C 
ATOM     46  C   UNL A   1      40.373  26.113  27.655  1.00  0.00     0.029 A 
ATOM     47  C   UNL A   1      41.518  26.092  28.561  1.00  0.00     0.049 A 
ATOM     48  H   UNL A   1      41.851  27.314  30.213  1.00  0.00     0.167 HD
ATOM     49  C   UNL A   1      42.506  30.069  33.552  1.00  0.00     0.037 A 
ATOM     50  C   UNL A   1      42.568  25.254  28.471  1.00  0.00     0.037 A 
ATOM     51  C   UNL A   1      43.620  29.158  33.590  1.00  0.00     0.049 A 
ATOM     52  C   UNL A   1      43.672  25.348  29.486  1.00  0.00     0.074 A 
ATOM     53  C   UNL A   1      44.655  29.099  34.507  1.00  0.00     0.029 A 
ATOM     54  N   UNL A   1      43.846  28.147  32.668  1.00  0.00    -0.354 N 
ATOM     55  N   UNL A   1      43.792  26.166  30.504  1.00  0.00    -0.248 NA
ATOM     56  C   UNL A   1      44.784  24.397  29.344  1.00  0.00     0.031 C 
ATOM     57  C   UNL A   1      45.531  28.082  34.115  1.00  0.00     0.029 A 
ATOM     58  C   UNL A   1      45.015  27.474  32.979  1.00  0.00     0.049 A 
ATOM     59  H   UNL A   1      43.260  27.939  31.904  1.00  0.00     0.167 HD
ATOM     60  C   UNL A   1      44.976  25.814  31.138  1.00  0.00     0.074 A 
ATOM     61  C   UNL A   1      45.530  24.699  30.398  1.00  0.00     0.031 C 
ATOM     62  C   UNL A   1      45.553  26.364  32.234  1.00  0.00     0.037 A 
BRANCH  49  63
ATOM     63  C   UNL A   1      42.440  31.163  34.578  1.00  0.00     0.057 A 
ATOM     64  C   UNL A   1      41.797  30.982  35.810  1.00  0.00     0.134 A 
ATOM     65  C   UNL A   1      43.047  32.403  34.343  1.00  0.00     0.134 A 
ATOM     66  F   UNL A   1      41.185  29.823  36.095  1.00  0.00    -0.206 F 
ATOM     67  C   UNL A   1      41.733  32.006  36.758  1.00  0.00     0.040 A 
ATOM     68  C   UNL A   1      43.014  33.423  35.294  1.00  0.00     0.040 A 
ATOM     69  F   UNL A   1      43.686  32.641  33.188  1.00  0.00    -0.206 F 
ATOM     70  C   UNL A   1      42.348  33.229  36.503  1.00  0.00     0.006 A 
ENDBRANCH  49  63
BRANCH  50  71
ATOM     71  C   UNL A   1      42.612  24.235  27.393  1.00  0.00     0.057 A 
ATOM     72  C   UNL A   1      43.161  24.533  26.141  1.00  0.00     0.134 A 
ATOM     73  C   UNL A   1      42.111  22.942  27.586  1.00  0.00     0.134 A 
ATOM     74  F   UNL A   1      43.641  25.761  25.891  1.00  0.00    -0.206 F 
ATOM     75  C   UNL A   1      43.197  23.591  25.114  1.00  0.00     0.040 A 
ATOM     76  C   UNL A   1      42.161  21.981  26.576  1.00  0.00     0.040 A 
ATOM     77  F   UNL A   1      41.580  22.590  28.767  1.00  0.00    -0.206 F 
ATOM     78  C   UNL A   1      42.700  22.307  25.332  1.00  0.00     0.006 A 
ENDBRANCH  50  71
BRANCH  62  79
ATOM     79  C   UNL A   1      46.833  25.749  32.716  1.00  0.00     0.057 A 
ATOM     80  C   UNL A   1      48.078  26.132  32.201  1.00  0.00     0.134 A 
ATOM     81  C   UNL A   1      46.823  24.788  33.736  1.00  0.00     0.134 A 
ATOM     82  F   UNL A   1      48.155  27.037  31.213  1.00  0.00    -0.206 F 
ATOM     83  C   UNL A   1      49.265  25.565  32.667  1.00  0.00     0.040 A 
ATOM     84  C   UNL A   1      48.004  24.233  34.227  1.00  0.00     0.040 A 
ATOM     85  F   UNL A   1      45.664  24.383  34.278  1.00  0.00    -0.206 F 
ATOM     86  C   UNL A   1      49.230  24.618  33.688  1.00  0.00     0.006 A 
ENDBRANCH  62  79
ENDBRANCH  36  37
ENDBRANCH  28  31
ENDBRANCH  26  27
ENDBRANCH  25  26
ENDBRANCH  24  25
ENDBRANCH   1  24
TORSDOF 16
ENDMDL
