MODEL 1
REMARK VINA RESULT:     -10.9      0.000      0.000
REMARK SMILES Cc1cc(OCC(C)(C)C(=O)NCCCCCCNC(=O)c2ccc(-c3c4nc(c(-c5c(F)cccc5F)c5ccc([nH]5)c(-c5c(F)cccc5F)c5nc(c(-c6c(F)cccc6F)c6ccc3[nH]6)C=C5)C=C4)cc2)cc(C(C)C)c1
REMARK SMILES IDX 14 1 13 2 12 3 10 4 11 5 7 7 8 8 9 9 6 10 5 11 4 12 1 13
REMARK SMILES IDX 2 14 3 15 81 16 77 17 76 18 78 19 79 20 80 21 15 22 16 23
REMARK SMILES IDX 17 24 18 25 19 26 20 27 21 29 22 30 23 31 75 32 24 33 74 34
REMARK SMILES IDX 25 35 26 36 27 37 68 38 28 39 73 40 67 41 69 42 29 43 72 44
REMARK SMILES IDX 66 45 65 46 30 48 56 49 39 50 55 51 40 52 43 53 54 54 70 55
REMARK SMILES IDX 41 56 42 57 53 59 71 60 44 61 31 62 32 63 37 64 33 65 34 66
REMARK SMILES IDX 36 67 38 68 35 69 57 70 58 71 63 72 59 73 60 74 62 75 64 76
REMARK SMILES IDX 61 77 45 78 46 79 51 80 47 81 48 82 50 83 52 84 49 85
REMARK H PARENT 12 6 19 28 69 47 43 58
REMARK Flexibility Score: inf
ROOT
ATOM      1  C   UNL A   1      34.247  24.741  25.854  1.00  0.00     0.021 C 
ENDROOT
BRANCH   1   2
ATOM      2  C   UNL A   1      32.945  24.382  25.147  1.00  0.00     0.116 C 
BRANCH   2   3
ATOM      3  N   UNL A   1      33.094  23.594  23.941  1.00  0.00    -0.356 N 
ATOM      4  C   UNL A   1      33.049  23.962  22.620  1.00  0.00     0.229 C 
ATOM      5  O   UNL A   1      33.317  23.076  21.805  1.00  0.00    -0.274 OA
ATOM      6  H   UNL A   1      33.254  22.635  24.095  1.00  0.00     0.163 HD
BRANCH   4   7
ATOM      7  C   UNL A   1      32.591  25.370  22.171  1.00  0.00     0.077 C 
ATOM      8  C   UNL A   1      32.615  25.528  20.649  1.00  0.00     0.025 C 
ATOM      9  C   UNL A   1      33.531  26.414  22.813  1.00  0.00     0.025 C 
BRANCH   7  10
ATOM     10  C   UNL A   1      31.156  25.693  22.735  1.00  0.00     0.245 C 
BRANCH  10  11
ATOM     11  O   UNL A   1      31.066  26.481  23.926  1.00  0.00    -0.492 OA
BRANCH  11  12
ATOM     12  C   UNL A   1      30.838  27.825  23.884  1.00  0.00     0.119 A 
ATOM     13  C   UNL A   1      31.938  30.679  26.137  1.00  0.00     0.044 C 
ATOM     14  C   UNL A   1      31.198  29.906  25.087  1.00  0.00    -0.047 A 
ATOM     15  C   UNL A   1      31.496  28.556  24.873  1.00  0.00     0.049 A 
ATOM     16  C   UNL A   1      30.180  30.500  24.333  1.00  0.00     0.007 A 
ATOM     17  C   UNL A   1      29.533  29.790  23.311  1.00  0.00    -0.042 A 
ATOM     18  C   UNL A   1      29.963  28.486  23.027  1.00  0.00     0.050 A 
BRANCH  17  19
ATOM     19  C   UNL A   1      28.286  30.384  22.669  1.00  0.00     0.013 C 
ATOM     20  C   UNL A   1      27.448  31.266  23.598  1.00  0.00     0.012 C 
ATOM     21  C   UNL A   1      28.678  31.178  21.413  1.00  0.00     0.012 C 
ENDBRANCH  17  19
ENDBRANCH  11  12
ENDBRANCH  10  11
ENDBRANCH   7  10
ENDBRANCH   4   7
ENDBRANCH   2   3
ENDBRANCH   1   2
BRANCH   1  22
ATOM     22  C   UNL A   1      35.550  24.319  25.177  1.00  0.00     0.002 C 
BRANCH  22  23
ATOM     23  C   UNL A   1      36.585  23.559  26.020  1.00  0.00     0.002 C 
BRANCH  23  24
ATOM     24  C   UNL A   1      38.068  23.833  25.753  1.00  0.00     0.021 C 
BRANCH  24  25
ATOM     25  C   UNL A   1      39.042  23.191  26.731  1.00  0.00     0.116 C 
BRANCH  25  26
ATOM     26  N   UNL A   1      39.782  22.052  26.205  1.00  0.00    -0.352 N 
ATOM     27  C   UNL A   1      41.155  21.863  26.114  1.00  0.00     0.251 C 
ATOM     28  H   UNL A   1      39.230  21.311  25.865  1.00  0.00     0.163 HD
ATOM     29  O   UNL A   1      41.603  20.851  25.613  1.00  0.00    -0.269 OA
BRANCH  27  30
ATOM     30  C   UNL A   1      42.068  22.844  26.762  1.00  0.00     0.039 A 
ATOM     31  C   UNL A   1      42.342  22.667  28.123  1.00  0.00     0.014 A 
ATOM     32  C   UNL A   1      42.458  24.014  26.119  1.00  0.00     0.014 A 
ATOM     33  C   UNL A   1      42.744  23.761  28.885  1.00  0.00     0.010 A 
ATOM     34  C   UNL A   1      42.766  25.124  26.881  1.00  0.00     0.010 A 
ATOM     35  C   UNL A   1      42.831  25.011  28.272  1.00  0.00    -0.014 A 
BRANCH  35  36
ATOM     36  C   UNL A   1      42.821  26.260  29.024  1.00  0.00     0.031 A 
ATOM     37  C   UNL A   1      41.603  27.086  29.115  1.00  0.00     0.074 A 
ATOM     38  C   UNL A   1      43.937  26.633  29.691  1.00  0.00     0.049 A 
ATOM     39  N   UNL A   1      41.614  28.367  29.271  1.00  0.00    -0.248 NA
ATOM     40  C   UNL A   1      40.261  26.524  29.013  1.00  0.00     0.031 C 
ATOM     41  C   UNL A   1      44.073  27.712  30.664  1.00  0.00     0.029 A 
ATOM     42  N   UNL A   1      45.251  26.209  29.452  1.00  0.00    -0.354 N 
ATOM     43  C   UNL A   1      40.328  28.759  29.552  1.00  0.00     0.074 A 
ATOM     44  C   UNL A   1      39.512  27.588  29.324  1.00  0.00     0.031 C 
ATOM     45  C   UNL A   1      45.366  28.066  30.736  1.00  0.00     0.029 A 
ATOM     46  C   UNL A   1      46.082  27.317  29.718  1.00  0.00     0.049 A 
ATOM     47  H   UNL A   1      45.538  25.314  29.158  1.00  0.00     0.167 HD
ATOM     48  C   UNL A   1      40.092  29.993  30.082  1.00  0.00     0.037 A 
ATOM     49  C   UNL A   1      46.854  27.869  28.737  1.00  0.00     0.037 A 
ATOM     50  C   UNL A   1      41.323  30.755  30.247  1.00  0.00     0.049 A 
ATOM     51  C   UNL A   1      46.505  29.304  28.417  1.00  0.00     0.074 A 
ATOM     52  C   UNL A   1      42.171  30.932  31.328  1.00  0.00     0.029 A 
ATOM     53  N   UNL A   1      42.023  31.184  29.125  1.00  0.00    -0.354 N 
ATOM     54  N   UNL A   1      45.410  29.893  28.810  1.00  0.00    -0.248 NA
ATOM     55  C   UNL A   1      47.339  30.177  27.592  1.00  0.00     0.031 C 
ATOM     56  C   UNL A   1      43.416  31.397  30.840  1.00  0.00     0.029 A 
ATOM     57  C   UNL A   1      43.318  31.529  29.467  1.00  0.00     0.049 A 
ATOM     58  H   UNL A   1      41.649  31.235  28.216  1.00  0.00     0.167 HD
ATOM     59  C   UNL A   1      45.348  31.152  28.274  1.00  0.00     0.074 A 
ATOM     60  C   UNL A   1      46.595  31.297  27.547  1.00  0.00     0.031 C 
ATOM     61  C   UNL A   1      44.266  31.964  28.454  1.00  0.00     0.037 A 
BRANCH  48  62
ATOM     62  C   UNL A   1      38.774  30.340  30.718  1.00  0.00     0.057 A 
ATOM     63  C   UNL A   1      38.559  30.177  32.099  1.00  0.00     0.134 A 
ATOM     64  C   UNL A   1      37.657  30.786  29.992  1.00  0.00     0.134 A 
ATOM     65  F   UNL A   1      39.548  29.829  32.930  1.00  0.00    -0.206 F 
ATOM     66  C   UNL A   1      37.302  30.344  32.694  1.00  0.00     0.040 A 
ATOM     67  C   UNL A   1      36.383  30.909  30.565  1.00  0.00     0.040 A 
ATOM     68  F   UNL A   1      37.765  31.126  28.699  1.00  0.00    -0.206 F 
ATOM     69  C   UNL A   1      36.200  30.675  31.921  1.00  0.00     0.006 A 
ENDBRANCH  48  62
BRANCH  49  70
ATOM     70  C   UNL A   1      47.356  26.868  27.761  1.00  0.00     0.057 A 
ATOM     71  C   UNL A   1      46.676  26.729  26.537  1.00  0.00     0.134 A 
ATOM     72  C   UNL A   1      48.653  26.352  27.830  1.00  0.00     0.134 A 
ATOM     73  F   UNL A   1      45.426  27.201  26.404  1.00  0.00    -0.206 F 
ATOM     74  C   UNL A   1      47.298  26.209  25.400  1.00  0.00     0.040 A 
ATOM     75  C   UNL A   1      49.282  25.818  26.699  1.00  0.00     0.040 A 
ATOM     76  F   UNL A   1      49.373  26.464  28.956  1.00  0.00    -0.206 F 
ATOM     77  C   UNL A   1      48.621  25.784  25.471  1.00  0.00     0.006 A 
ENDBRANCH  49  70
BRANCH  61  78
ATOM     78  C   UNL A   1      44.028  33.272  27.752  1.00  0.00     0.057 A 
ATOM     79  C   UNL A   1      43.858  33.397  26.366  1.00  0.00     0.134 A 
ATOM     80  C   UNL A   1      43.811  34.451  28.498  1.00  0.00     0.134 A 
ATOM     81  F   UNL A   1      43.937  32.336  25.553  1.00  0.00    -0.206 F 
ATOM     82  C   UNL A   1      43.543  34.621  25.760  1.00  0.00     0.040 A 
ATOM     83  C   UNL A   1      43.448  35.664  27.909  1.00  0.00     0.040 A 
ATOM     84  F   UNL A   1      43.921  34.463  29.836  1.00  0.00    -0.206 F 
ATOM     85  C   UNL A   1      43.325  35.756  26.531  1.00  0.00     0.006 A 
ENDBRANCH  61  78
ENDBRANCH  35  36
ENDBRANCH  27  30
ENDBRANCH  25  26
ENDBRANCH  24  25
ENDBRANCH  23  24
ENDBRANCH  22  23
ENDBRANCH   1  22
TORSDOF 17
ENDMDL
MODEL 2
REMARK VINA RESULT:     -10.5      2.475      4.795
REMARK SMILES Cc1cc(OCC(C)(C)C(=O)NCCCCCCNC(=O)c2ccc(-c3c4nc(c(-c5c(F)cccc5F)c5ccc([nH]5)c(-c5c(F)cccc5F)c5nc(c(-c6c(F)cccc6F)c6ccc3[nH]6)C=C5)C=C4)cc2)cc(C(C)C)c1
REMARK SMILES IDX 14 1 13 2 12 3 10 4 11 5 7 7 8 8 9 9 6 10 5 11 4 12 1 13
REMARK SMILES IDX 2 14 3 15 81 16 77 17 76 18 78 19 79 20 80 21 15 22 16 23
REMARK SMILES IDX 17 24 18 25 19 26 20 27 21 29 22 30 23 31 75 32 24 33 74 34
REMARK SMILES IDX 25 35 26 36 27 37 68 38 28 39 73 40 67 41 69 42 29 43 72 44
REMARK SMILES IDX 66 45 65 46 30 48 56 49 39 50 55 51 40 52 43 53 54 54 70 55
REMARK SMILES IDX 41 56 42 57 53 59 71 60 44 61 31 62 32 63 37 64 33 65 34 66
REMARK SMILES IDX 36 67 38 68 35 69 57 70 58 71 63 72 59 73 60 74 62 75 64 76
REMARK SMILES IDX 61 77 45 78 46 79 51 80 47 81 48 82 50 83 52 84 49 85
REMARK H PARENT 12 6 19 28 69 47 43 58
REMARK Flexibility Score: inf
ROOT
ATOM      1  C   UNL A   1      34.312  24.539  25.918  1.00  0.00     0.021 C 
ENDROOT
BRANCH   1   2
ATOM      2  C   UNL A   1      33.182  24.529  24.895  1.00  0.00     0.116 C 
BRANCH   2   3
ATOM      3  N   UNL A   1      31.927  25.087  25.355  1.00  0.00    -0.356 N 
ATOM      4  C   UNL A   1      30.939  24.543  26.136  1.00  0.00     0.229 C 
ATOM      5  O   UNL A   1      30.021  25.304  26.451  1.00  0.00    -0.274 OA
ATOM      6  H   UNL A   1      31.755  26.009  25.058  1.00  0.00     0.163 HD
BRANCH   4   7
ATOM      7  C   UNL A   1      30.919  23.043  26.515  1.00  0.00     0.077 C 
ATOM      8  C   UNL A   1      29.634  22.649  27.247  1.00  0.00     0.025 C 
ATOM      9  C   UNL A   1      32.136  22.753  27.418  1.00  0.00     0.025 C 
BRANCH   7  10
ATOM     10  C   UNL A   1      31.120  22.145  25.236  1.00  0.00     0.245 C 
BRANCH  10  11
ATOM     11  O   UNL A   1      32.441  22.034  24.698  1.00  0.00    -0.492 OA
BRANCH  11  12
ATOM     12  C   UNL A   1      33.178  20.894  24.830  1.00  0.00     0.119 A 
ATOM     13  C   UNL A   1      36.922  20.275  25.001  1.00  0.00     0.044 C 
ATOM     14  C   UNL A   1      35.450  20.030  24.863  1.00  0.00    -0.047 A 
ATOM     15  C   UNL A   1      34.555  21.102  24.931  1.00  0.00     0.049 A 
ATOM     16  C   UNL A   1      34.949  18.746  24.626  1.00  0.00     0.007 A 
ATOM     17  C   UNL A   1      33.566  18.513  24.557  1.00  0.00    -0.042 A 
ATOM     18  C   UNL A   1      32.696  19.590  24.781  1.00  0.00     0.050 A 
BRANCH  17  19
ATOM     19  C   UNL A   1      33.064  17.159  24.075  1.00  0.00     0.013 C 
ATOM     20  C   UNL A   1      34.028  16.412  23.152  1.00  0.00     0.012 C 
ATOM     21  C   UNL A   1      32.715  16.277  25.285  1.00  0.00     0.012 C 
ENDBRANCH  17  19
ENDBRANCH  11  12
ENDBRANCH  10  11
ENDBRANCH   7  10
ENDBRANCH   4   7
ENDBRANCH   2   3
ENDBRANCH   1   2
BRANCH   1  22
ATOM     22  C   UNL A   1      35.732  24.735  25.390  1.00  0.00     0.002 C 
BRANCH  22  23
ATOM     23  C   UNL A   1      36.768  23.641  25.691  1.00  0.00     0.002 C 
BRANCH  23  24
ATOM     24  C   UNL A   1      38.224  24.069  25.897  1.00  0.00     0.021 C 
BRANCH  24  25
ATOM     25  C   UNL A   1      39.033  23.212  26.860  1.00  0.00     0.116 C 
BRANCH  25  26
ATOM     26  N   UNL A   1      39.849  22.182  26.231  1.00  0.00    -0.352 N 
ATOM     27  C   UNL A   1      41.231  22.112  26.106  1.00  0.00     0.251 C 
ATOM     28  H   UNL A   1      39.351  21.429  25.839  1.00  0.00     0.163 HD
ATOM     29  O   UNL A   1      41.747  21.184  25.517  1.00  0.00    -0.269 OA
BRANCH  27  30
ATOM     30  C   UNL A   1      42.076  23.107  26.821  1.00  0.00     0.039 A 
ATOM     31  C   UNL A   1      42.250  22.935  28.198  1.00  0.00     0.014 A 
ATOM     32  C   UNL A   1      42.495  24.284  26.207  1.00  0.00     0.014 A 
ATOM     33  C   UNL A   1      42.575  24.035  28.988  1.00  0.00     0.010 A 
ATOM     34  C   UNL A   1      42.727  25.398  26.990  1.00  0.00     0.010 A 
ATOM     35  C   UNL A   1      42.688  25.286  28.382  1.00  0.00    -0.014 A 
BRANCH  35  36
ATOM     36  C   UNL A   1      42.602  26.534  29.130  1.00  0.00     0.031 A 
ATOM     37  C   UNL A   1      41.366  27.338  29.130  1.00  0.00     0.074 A 
ATOM     38  C   UNL A   1      43.659  26.926  29.876  1.00  0.00     0.049 A 
ATOM     39  N   UNL A   1      41.343  28.619  29.286  1.00  0.00    -0.248 NA
ATOM     40  C   UNL A   1      40.045  26.754  28.932  1.00  0.00     0.031 C 
ATOM     41  C   UNL A   1      43.705  28.008  30.855  1.00  0.00     0.029 A 
ATOM     42  N   UNL A   1      44.995  26.526  29.735  1.00  0.00    -0.354 N 
ATOM     43  C   UNL A   1      40.034  28.989  29.472  1.00  0.00     0.074 A 
ATOM     44  C   UNL A   1      39.257  27.804  29.186  1.00  0.00     0.031 C 
ATOM     45  C   UNL A   1      44.983  28.384  31.022  1.00  0.00     0.029 A 
ATOM     46  C   UNL A   1      45.784  27.648  30.059  1.00  0.00     0.049 A 
ATOM     47  H   UNL A   1      45.318  25.636  29.464  1.00  0.00     0.167 HD
ATOM     48  C   UNL A   1      39.738  30.218  29.981  1.00  0.00     0.037 A 
ATOM     49  C   UNL A   1      46.616  28.213  29.137  1.00  0.00     0.037 A 
ATOM     50  C   UNL A   1      40.940  31.002  30.236  1.00  0.00     0.049 A 
ATOM     51  C   UNL A   1      46.267  29.643  28.791  1.00  0.00     0.074 A 
ATOM     52  C   UNL A   1      41.704  31.194  31.375  1.00  0.00     0.029 A 
ATOM     53  N   UNL A   1      41.712  31.444  29.167  1.00  0.00    -0.354 N 
ATOM     54  N   UNL A   1      45.135  30.212  29.102  1.00  0.00    -0.248 NA
ATOM     55  C   UNL A   1      47.143  30.531  28.029  1.00  0.00     0.031 C 
ATOM     56  C   UNL A   1      42.973  31.680  30.979  1.00  0.00     0.029 A 
ATOM     57  C   UNL A   1      42.973  31.811  29.603  1.00  0.00     0.049 A 
ATOM     58  H   UNL A   1      41.406  31.489  28.233  1.00  0.00     0.167 HD
ATOM     59  C   UNL A   1      45.091  31.470  28.562  1.00  0.00     0.074 A 
ATOM     60  C   UNL A   1      46.385  31.637  27.927  1.00  0.00     0.031 C 
ATOM     61  C   UNL A   1      43.984  32.262  28.661  1.00  0.00     0.037 A 
BRANCH  48  62
ATOM     62  C   UNL A   1      38.371  30.542  30.519  1.00  0.00     0.057 A 
ATOM     63  C   UNL A   1      37.536  31.482  29.887  1.00  0.00     0.134 A 
ATOM     64  C   UNL A   1      37.853  29.990  31.702  1.00  0.00     0.134 A 
ATOM     65  F   UNL A   1      37.862  32.037  28.714  1.00  0.00    -0.206 F 
ATOM     66  C   UNL A   1      36.328  31.917  30.445  1.00  0.00     0.040 A 
ATOM     67  C   UNL A   1      36.670  30.451  32.298  1.00  0.00     0.040 A 
ATOM     68  F   UNL A   1      38.476  28.976  32.321  1.00  0.00    -0.206 F 
ATOM     69  C   UNL A   1      35.908  31.429  31.673  1.00  0.00     0.006 A 
ENDBRANCH  48  62
BRANCH  49  70
ATOM     70  C   UNL A   1      47.206  27.222  28.201  1.00  0.00     0.057 A 
ATOM     71  C   UNL A   1      48.300  26.455  28.643  1.00  0.00     0.134 A 
ATOM     72  C   UNL A   1      46.511  26.753  27.084  1.00  0.00     0.134 A 
ATOM     73  F   UNL A   1      49.013  26.851  29.710  1.00  0.00    -0.206 F 
ATOM     74  C   UNL A   1      48.614  25.219  28.075  1.00  0.00     0.040 A 
ATOM     75  C   UNL A   1      46.824  25.520  26.499  1.00  0.00     0.040 A 
ATOM     76  F   UNL A   1      45.444  27.418  26.615  1.00  0.00    -0.206 F 
ATOM     77  C   UNL A   1      47.850  24.730  27.020  1.00  0.00     0.006 A 
ENDBRANCH  49  70
BRANCH  61  78
ATOM     78  C   UNL A   1      43.776  33.567  27.942  1.00  0.00     0.057 A 
ATOM     79  C   UNL A   1      43.691  33.688  26.549  1.00  0.00     0.134 A 
ATOM     80  C   UNL A   1      43.499  34.744  28.671  1.00  0.00     0.134 A 
ATOM     81  F   UNL A   1      43.833  32.625  25.744  1.00  0.00    -0.206 F 
ATOM     82  C   UNL A   1      43.400  34.906  25.920  1.00  0.00     0.040 A 
ATOM     83  C   UNL A   1      43.160  35.952  28.057  1.00  0.00     0.040 A 
ATOM     84  F   UNL A   1      43.526  34.761  30.012  1.00  0.00    -0.206 F 
ATOM     85  C   UNL A   1      43.122  36.040  26.674  1.00  0.00     0.006 A 
ENDBRANCH  61  78
ENDBRANCH  35  36
ENDBRANCH  27  30
ENDBRANCH  25  26
ENDBRANCH  24  25
ENDBRANCH  23  24
ENDBRANCH  22  23
ENDBRANCH   1  22
TORSDOF 17
ENDMDL
MODEL 3
REMARK VINA RESULT:     -10.2      3.665      9.052
REMARK SMILES Cc1cc(OCC(C)(C)C(=O)NCCCCCCNC(=O)c2ccc(-c3c4nc(c(-c5c(F)cccc5F)c5ccc([nH]5)c(-c5c(F)cccc5F)c5nc(c(-c6c(F)cccc6F)c6ccc3[nH]6)C=C5)C=C4)cc2)cc(C(C)C)c1
REMARK SMILES IDX 14 1 13 2 12 3 10 4 11 5 7 7 8 8 9 9 6 10 5 11 4 12 1 13
REMARK SMILES IDX 2 14 3 15 81 16 77 17 76 18 78 19 79 20 80 21 15 22 16 23
REMARK SMILES IDX 17 24 18 25 19 26 20 27 21 29 22 30 23 31 75 32 24 33 74 34
REMARK SMILES IDX 25 35 26 36 27 37 68 38 28 39 73 40 67 41 69 42 29 43 72 44
REMARK SMILES IDX 66 45 65 46 30 48 56 49 39 50 55 51 40 52 43 53 54 54 70 55
REMARK SMILES IDX 41 56 42 57 53 59 71 60 44 61 31 62 32 63 37 64 33 65 34 66
REMARK SMILES IDX 36 67 38 68 35 69 57 70 58 71 63 72 59 73 60 74 62 75 64 76
REMARK SMILES IDX 61 77 45 78 46 79 51 80 47 81 48 82 50 83 52 84 49 85
REMARK H PARENT 12 6 19 28 69 47 43 58
REMARK Flexibility Score: inf
ROOT
ATOM      1  C   UNL A   1      33.869  33.307  28.331  1.00  0.00     0.021 C 
ENDROOT
BRANCH   1   2
ATOM      2  C   UNL A   1      33.281  31.940  28.000  1.00  0.00     0.116 C 
BRANCH   2   3
ATOM      3  N   UNL A   1      34.239  30.857  27.927  1.00  0.00    -0.356 N 
ATOM      4  C   UNL A   1      34.207  29.679  27.224  1.00  0.00     0.229 C 
ATOM      5  O   UNL A   1      35.228  28.990  27.281  1.00  0.00    -0.274 OA
ATOM      6  H   UNL A   1      35.047  30.986  28.473  1.00  0.00     0.163 HD
BRANCH   4   7
ATOM      7  C   UNL A   1      32.936  29.192  26.489  1.00  0.00     0.077 C 
ATOM      8  C   UNL A   1      32.108  30.353  25.934  1.00  0.00     0.025 C 
ATOM      9  C   UNL A   1      32.081  28.379  27.485  1.00  0.00     0.025 C 
BRANCH   7  10
ATOM     10  C   UNL A   1      33.312  28.185  25.338  1.00  0.00     0.245 C 
BRANCH  10  11
ATOM     11  O   UNL A   1      33.518  26.812  25.689  1.00  0.00    -0.492 OA
BRANCH  11  12
ATOM     12  C   UNL A   1      33.887  25.881  24.764  1.00  0.00     0.119 A 
ATOM     13  C   UNL A   1      32.753  25.230  21.197  1.00  0.00     0.044 C 
ATOM     14  C   UNL A   1      33.394  25.037  22.538  1.00  0.00    -0.047 A 
ATOM     15  C   UNL A   1      33.277  26.029  23.517  1.00  0.00     0.049 A 
ATOM     16  C   UNL A   1      34.081  23.859  22.849  1.00  0.00     0.007 A 
ATOM     17  C   UNL A   1      34.730  23.708  24.085  1.00  0.00    -0.042 A 
ATOM     18  C   UNL A   1      34.716  24.786  24.982  1.00  0.00     0.050 A 
BRANCH  17  19
ATOM     19  C   UNL A   1      35.269  22.339  24.478  1.00  0.00     0.013 C 
ATOM     20  C   UNL A   1      36.752  22.125  24.171  1.00  0.00     0.012 C 
ATOM     21  C   UNL A   1      35.006  22.089  25.971  1.00  0.00     0.012 C 
ENDBRANCH  17  19
ENDBRANCH  11  12
ENDBRANCH  10  11
ENDBRANCH   7  10
ENDBRANCH   4   7
ENDBRANCH   2   3
ENDBRANCH   1   2
BRANCH   1  22
ATOM     22  C   UNL A   1      35.342  33.535  27.994  1.00  0.00     0.002 C 
BRANCH  22  23
ATOM     23  C   UNL A   1      36.337  33.644  29.159  1.00  0.00     0.002 C 
BRANCH  23  24
ATOM     24  C   UNL A   1      35.774  33.885  30.563  1.00  0.00     0.021 C 
BRANCH  24  25
ATOM     25  C   UNL A   1      36.032  32.778  31.575  1.00  0.00     0.116 C 
BRANCH  25  26
ATOM     26  N   UNL A   1      35.628  31.446  31.147  1.00  0.00    -0.352 N 
ATOM     27  C   UNL A   1      36.417  30.374  30.749  1.00  0.00     0.251 C 
ATOM     28  H   UNL A   1      34.657  31.281  31.139  1.00  0.00     0.163 HD
ATOM     29  O   UNL A   1      35.903  29.333  30.392  1.00  0.00    -0.269 OA
BRANCH  27  30
ATOM     30  C   UNL A   1      37.895  30.465  30.899  1.00  0.00     0.039 A 
ATOM     31  C   UNL A   1      38.632  30.876  29.783  1.00  0.00     0.014 A 
ATOM     32  C   UNL A   1      38.549  29.954  32.017  1.00  0.00     0.014 A 
ATOM     33  C   UNL A   1      39.973  30.514  29.681  1.00  0.00     0.010 A 
ATOM     34  C   UNL A   1      39.850  29.512  31.884  1.00  0.00     0.010 A 
ATOM     35  C   UNL A   1      40.534  29.724  30.684  1.00  0.00    -0.014 A 
BRANCH  35  36
ATOM     36  C   UNL A   1      41.754  28.951  30.489  1.00  0.00     0.031 A 
ATOM     37  C   UNL A   1      41.726  27.645  29.805  1.00  0.00     0.074 A 
ATOM     38  C   UNL A   1      42.933  29.471  30.896  1.00  0.00     0.049 A 
ATOM     39  N   UNL A   1      42.569  26.695  30.037  1.00  0.00    -0.248 NA
ATOM     40  C   UNL A   1      40.720  27.297  28.809  1.00  0.00     0.031 C 
ATOM     41  C   UNL A   1      44.274  28.972  30.606  1.00  0.00     0.029 A 
ATOM     42  N   UNL A   1      43.134  30.479  31.850  1.00  0.00    -0.354 N 
ATOM     43  C   UNL A   1      42.393  25.740  29.067  1.00  0.00     0.074 A 
ATOM     44  C   UNL A   1      41.193  26.131  28.360  1.00  0.00     0.031 C 
ATOM     45  C   UNL A   1      45.120  29.446  31.535  1.00  0.00     0.029 A 
ATOM     46  C   UNL A   1      44.329  30.156  32.525  1.00  0.00     0.049 A 
ATOM     47  H   UNL A   1      42.555  31.258  32.016  1.00  0.00     0.167 HD
ATOM     48  C   UNL A   1      43.348  24.790  28.863  1.00  0.00     0.037 A 
ATOM     49  C   UNL A   1      44.332  29.894  33.864  1.00  0.00     0.037 A 
ATOM     50  C   UNL A   1      44.463  24.935  29.791  1.00  0.00     0.049 A 
ATOM     51  C   UNL A   1      44.773  28.492  34.215  1.00  0.00     0.074 A 
ATOM     52  C   UNL A   1      45.689  25.571  29.683  1.00  0.00     0.029 A 
ATOM     53  N   UNL A   1      44.266  24.690  31.146  1.00  0.00    -0.354 N 
ATOM     54  N   UNL A   1      44.872  27.522  33.348  1.00  0.00    -0.248 NA
ATOM     55  C   UNL A   1      45.095  28.057  35.573  1.00  0.00     0.031 C 
ATOM     56  C   UNL A   1      46.195  25.778  30.989  1.00  0.00     0.029 A 
ATOM     57  C   UNL A   1      45.291  25.246  31.890  1.00  0.00     0.049 A 
ATOM     58  H   UNL A   1      43.505  24.192  31.522  1.00  0.00     0.167 HD
ATOM     59  C   UNL A   1      45.199  26.360  33.996  1.00  0.00     0.074 A 
ATOM     60  C   UNL A   1      45.360  26.753  35.383  1.00  0.00     0.031 C 
ATOM     61  C   UNL A   1      45.286  25.165  33.341  1.00  0.00     0.037 A 
BRANCH  48  62
ATOM     62  C   UNL A   1      43.373  23.949  27.616  1.00  0.00     0.057 A 
ATOM     63  C   UNL A   1      43.914  24.435  26.412  1.00  0.00     0.134 A 
ATOM     64  C   UNL A   1      42.815  22.662  27.538  1.00  0.00     0.134 A 
ATOM     65  F   UNL A   1      44.545  25.614  26.348  1.00  0.00    -0.206 F 
ATOM     66  C   UNL A   1      43.814  23.740  25.201  1.00  0.00     0.040 A 
ATOM     67  C   UNL A   1      42.663  21.976  26.325  1.00  0.00     0.040 A 
ATOM     68  F   UNL A   1      42.402  22.021  28.641  1.00  0.00    -0.206 F 
ATOM     69  C   UNL A   1      43.153  22.522  25.146  1.00  0.00     0.006 A 
ENDBRANCH  48  62
BRANCH  49  70
ATOM     70  C   UNL A   1      43.328  30.692  34.615  1.00  0.00     0.057 A 
ATOM     71  C   UNL A   1      42.140  30.057  35.023  1.00  0.00     0.134 A 
ATOM     72  C   UNL A   1      43.659  31.890  35.252  1.00  0.00     0.134 A 
ATOM     73  F   UNL A   1      41.763  28.903  34.450  1.00  0.00    -0.206 F 
ATOM     74  C   UNL A   1      41.382  30.527  36.098  1.00  0.00     0.040 A 
ATOM     75  C   UNL A   1      42.900  32.378  36.322  1.00  0.00     0.040 A 
ATOM     76  F   UNL A   1      44.785  32.544  34.931  1.00  0.00    -0.206 F 
ATOM     77  C   UNL A   1      41.783  31.674  36.774  1.00  0.00     0.006 A 
ENDBRANCH  49  70
BRANCH  61  78
ATOM     78  C   UNL A   1      45.446  23.820  33.995  1.00  0.00     0.057 A 
ATOM     79  C   UNL A   1      44.388  22.931  34.226  1.00  0.00     0.134 A 
ATOM     80  C   UNL A   1      46.735  23.316  34.278  1.00  0.00     0.134 A 
ATOM     81  F   UNL A   1      43.126  23.248  33.906  1.00  0.00    -0.206 F 
ATOM     82  C   UNL A   1      44.592  21.647  34.749  1.00  0.00     0.040 A 
ATOM     83  C   UNL A   1      46.953  22.021  34.753  1.00  0.00     0.040 A 
ATOM     84  F   UNL A   1      47.836  24.057  34.081  1.00  0.00    -0.206 F 
ATOM     85  C   UNL A   1      45.877  21.184  35.003  1.00  0.00     0.006 A 
ENDBRANCH  61  78
ENDBRANCH  35  36
ENDBRANCH  27  30
ENDBRANCH  25  26
ENDBRANCH  24  25
ENDBRANCH  23  24
ENDBRANCH  22  23
ENDBRANCH   1  22
TORSDOF 17
ENDMDL
