MODEL 1
REMARK VINA RESULT:     -11.5      0.000      0.000
REMARK SMILES CC1(C)CCC[C@@H]1NC(=O)CC1(C(=O)NCCCCCCNC(=O)c2ccc(-c3c4nc(c(-c5c(F)cccc5F)c5ccc([nH]5)c(-c5c(F)cccc5F)c5nc(c(-c6c(F)cccc6F)c6ccc3[nH]6)C=C5)C=C4)cc2)CCCCC1
REMARK SMILES IDX 18 1 17 2 16 3 15 4 13 5 14 6 12 8 79 9 83 10 80 11 82 12
REMARK SMILES IDX 81 13 11 14 9 15 8 16 10 18 7 19 1 20 2 21 3 22 4 23 5 24
REMARK SMILES IDX 6 25 19 26 20 27 21 28 22 29 23 30 24 32 25 33 26 34 78 35
REMARK SMILES IDX 27 36 77 37 28 38 29 39 30 40 71 41 31 42 76 43 70 44 72 45
REMARK SMILES IDX 32 46 75 47 69 48 68 49 33 51 59 52 42 53 58 54 43 55 46 56
REMARK SMILES IDX 57 57 73 58 44 59 45 60 56 62 74 63 47 64 34 65 35 66 40 67
REMARK SMILES IDX 36 68 37 69 39 70 41 71 38 72 60 73 61 74 66 75 62 76 63 77
REMARK SMILES IDX 65 78 67 79 64 80 48 81 49 82 54 83 50 84 51 85 53 86 55 87
REMARK SMILES IDX 52 88
REMARK H PARENT 15 7 8 17 22 31 72 50 46 61
REMARK Flexibility Score: inf
ROOT
ATOM      1  C   UNL A   1      33.870  27.826  23.585  1.00  0.00     0.002 C 
ENDROOT
BRANCH   1   2
ATOM      2  C   UNL A   1      33.264  26.504  23.105  1.00  0.00     0.021 C 
BRANCH   2   3
ATOM      3  C   UNL A   1      33.630  25.313  23.987  1.00  0.00     0.116 C 
BRANCH   3   4
ATOM      4  N   UNL A   1      34.461  24.387  23.273  1.00  0.00    -0.356 N 
ATOM      5  C   UNL A   1      35.306  23.391  23.593  1.00  0.00     0.226 C 
ATOM      6  O   UNL A   1      35.925  23.009  22.587  1.00  0.00    -0.274 OA
ATOM      7  H   UNL A   1      34.397  24.512  22.299  1.00  0.00     0.163 HD
BRANCH   5   8
ATOM      8  C   UNL A   1      35.509  22.690  24.981  1.00  0.00     0.058 C 
ATOM      9  C   UNL A   1      36.130  23.705  25.988  1.00  0.00     0.017 C 
ATOM     10  C   UNL A   1      36.312  21.377  25.133  1.00  0.00     0.017 C 
ATOM     11  C   UNL A   1      37.662  23.804  26.007  1.00  0.00     0.001 C 
ATOM     12  C   UNL A   1      37.817  21.421  25.035  1.00  0.00     0.001 C 
ATOM     13  C   UNL A   1      38.415  22.473  25.952  1.00  0.00     0.000 C 
BRANCH   8  14
ATOM     14  C   UNL A   1      34.020  22.366  25.446  1.00  0.00     0.117 C 
BRANCH  14  15
ATOM     15  C   UNL A   1      33.823  21.269  26.483  1.00  0.00     0.221 C 
ATOM     16  N   UNL A   1      33.228  20.073  26.254  1.00  0.00    -0.353 N 
ATOM     17  H   UNL A   1      33.300  19.470  27.030  1.00  0.00     0.163 HD
ATOM     18  O   UNL A   1      34.244  21.452  27.633  1.00  0.00    -0.275 OA
BRANCH  16  19
ATOM     19  C   UNL A   1      32.502  19.454  25.141  1.00  0.00     0.087 C 
ATOM     20  C   UNL A   1      32.869  16.965  25.651  1.00  0.00     0.013 C 
ATOM     21  C   UNL A   1      33.155  18.113  24.682  1.00  0.00    -0.015 C 
ATOM     22  C   UNL A   1      34.684  18.216  24.463  1.00  0.00     0.013 C 
ATOM     23  C   UNL A   1      32.457  17.872  23.331  1.00  0.00     0.008 C 
ATOM     24  C   UNL A   1      32.347  19.247  22.687  1.00  0.00     0.003 C 
ATOM     25  C   UNL A   1      32.514  20.250  23.824  1.00  0.00     0.025 C 
ENDBRANCH  16  19
ENDBRANCH  14  15
ENDBRANCH   8  14
ENDBRANCH   5   8
ENDBRANCH   3   4
ENDBRANCH   2   3
ENDBRANCH   1   2
BRANCH   1  26
ATOM     26  C   UNL A   1      33.338  28.332  24.932  1.00  0.00     0.002 C 
BRANCH  26  27
ATOM     27  C   UNL A   1      34.244  28.058  26.136  1.00  0.00     0.021 C 
BRANCH  27  28
ATOM     28  C   UNL A   1      33.637  28.431  27.485  1.00  0.00     0.116 C 
BRANCH  28  29
ATOM     29  N   UNL A   1      33.589  29.870  27.674  1.00  0.00    -0.352 N 
ATOM     30  C   UNL A   1      34.526  30.714  28.210  1.00  0.00     0.251 C 
ATOM     31  H   UNL A   1      32.759  30.305  27.372  1.00  0.00     0.163 HD
ATOM     32  O   UNL A   1      34.224  31.867  28.498  1.00  0.00    -0.269 OA
BRANCH  30  33
ATOM     33  C   UNL A   1      35.902  30.231  28.449  1.00  0.00     0.039 A 
ATOM     34  C   UNL A   1      36.835  30.324  27.414  1.00  0.00     0.014 A 
ATOM     35  C   UNL A   1      36.262  29.659  29.673  1.00  0.00     0.014 A 
ATOM     36  C   UNL A   1      38.141  29.881  27.620  1.00  0.00     0.010 A 
ATOM     37  C   UNL A   1      37.582  29.281  29.899  1.00  0.00     0.010 A 
ATOM     38  C   UNL A   1      38.531  29.378  28.872  1.00  0.00    -0.014 A 
BRANCH  38  39
ATOM     39  C   UNL A   1      39.929  28.946  29.117  1.00  0.00     0.031 A 
ATOM     40  C   UNL A   1      40.906  29.879  29.775  1.00  0.00     0.074 A 
ATOM     41  C   UNL A   1      40.327  27.730  28.699  1.00  0.00     0.049 A 
ATOM     42  N   UNL A   1      42.175  29.695  30.037  1.00  0.00    -0.248 NA
ATOM     43  C   UNL A   1      40.398  31.203  30.167  1.00  0.00     0.031 C 
ATOM     44  C   UNL A   1      39.484  26.756  28.002  1.00  0.00     0.029 A 
ATOM     45  N   UNL A   1      41.546  27.108  28.791  1.00  0.00    -0.354 N 
ATOM     46  C   UNL A   1      42.618  30.879  30.611  1.00  0.00     0.074 A 
ATOM     47  C   UNL A   1      41.498  31.794  30.613  1.00  0.00     0.031 C 
ATOM     48  C   UNL A   1      40.203  25.651  27.752  1.00  0.00     0.029 A 
ATOM     49  C   UNL A   1      41.565  25.851  28.239  1.00  0.00     0.049 A 
ATOM     50  H   UNL A   1      42.332  27.523  29.213  1.00  0.00     0.167 HD
ATOM     51  C   UNL A   1      43.843  31.170  31.111  1.00  0.00     0.037 A 
ATOM     52  C   UNL A   1      42.569  24.960  28.136  1.00  0.00     0.037 A 
ATOM     53  C   UNL A   1      44.947  30.248  31.131  1.00  0.00     0.049 A 
ATOM     54  C   UNL A   1      43.916  25.305  28.704  1.00  0.00     0.074 A 
ATOM     55  C   UNL A   1      46.208  30.423  31.675  1.00  0.00     0.029 A 
ATOM     56  N   UNL A   1      44.924  28.976  30.579  1.00  0.00    -0.354 N 
ATOM     57  N   UNL A   1      44.301  26.401  29.310  1.00  0.00    -0.248 NA
ATOM     58  C   UNL A   1      44.967  24.286  28.581  1.00  0.00     0.031 C 
ATOM     59  C   UNL A   1      46.960  29.272  31.413  1.00  0.00     0.029 A 
ATOM     60  C   UNL A   1      46.154  28.363  30.747  1.00  0.00     0.049 A 
ATOM     61  H   UNL A   1      44.146  28.569  30.131  1.00  0.00     0.167 HD
ATOM     62  C   UNL A   1      45.628  26.195  29.663  1.00  0.00     0.074 A 
ATOM     63  C   UNL A   1      45.976  24.862  29.218  1.00  0.00     0.031 C 
ATOM     64  C   UNL A   1      46.482  27.035  30.299  1.00  0.00     0.037 A 
BRANCH  51  65
ATOM     65  C   UNL A   1      44.049  32.543  31.683  1.00  0.00     0.057 A 
ATOM     66  C   UNL A   1      43.805  32.825  33.034  1.00  0.00     0.134 A 
ATOM     67  C   UNL A   1      44.532  33.586  30.884  1.00  0.00     0.134 A 
ATOM     68  F   UNL A   1      43.331  31.873  33.852  1.00  0.00    -0.206 F 
ATOM     69  C   UNL A   1      44.008  34.101  33.563  1.00  0.00     0.040 A 
ATOM     70  C   UNL A   1      44.764  34.859  31.406  1.00  0.00     0.040 A 
ATOM     71  F   UNL A   1      44.792  33.384  29.583  1.00  0.00    -0.206 F 
ATOM     72  C   UNL A   1      44.496  35.121  32.749  1.00  0.00     0.006 A 
ENDBRANCH  51  65
BRANCH  52  73
ATOM     73  C   UNL A   1      42.330  23.646  27.488  1.00  0.00     0.057 A 
ATOM     74  C   UNL A   1      42.024  22.512  28.250  1.00  0.00     0.134 A 
ATOM     75  C   UNL A   1      42.404  23.489  26.099  1.00  0.00     0.134 A 
ATOM     76  F   UNL A   1      41.955  22.596  29.587  1.00  0.00    -0.206 F 
ATOM     77  C   UNL A   1      41.820  21.266  27.657  1.00  0.00     0.040 A 
ATOM     78  C   UNL A   1      42.179  22.254  25.490  1.00  0.00     0.040 A 
ATOM     79  F   UNL A   1      42.684  24.540  25.314  1.00  0.00    -0.206 F 
ATOM     80  C   UNL A   1      41.893  21.136  26.270  1.00  0.00     0.006 A 
ENDBRANCH  52  73
BRANCH  64  81
ATOM     81  C   UNL A   1      47.866  26.522  30.572  1.00  0.00     0.057 A 
ATOM     82  C   UNL A   1      48.906  26.679  29.649  1.00  0.00     0.134 A 
ATOM     83  C   UNL A   1      48.166  25.892  31.786  1.00  0.00     0.134 A 
ATOM     84  F   UNL A   1      48.680  27.262  28.462  1.00  0.00    -0.206 F 
ATOM     85  C   UNL A   1      50.193  26.205  29.914  1.00  0.00     0.040 A 
ATOM     86  C   UNL A   1      49.453  25.438  32.073  1.00  0.00     0.040 A 
ATOM     87  F   UNL A   1      47.216  25.718  32.717  1.00  0.00    -0.206 F 
ATOM     88  C   UNL A   1      50.470  25.589  31.133  1.00  0.00     0.006 A 
ENDBRANCH  64  81
ENDBRANCH  38  39
ENDBRANCH  30  33
ENDBRANCH  28  29
ENDBRANCH  27  28
ENDBRANCH  26  27
ENDBRANCH   1  26
TORSDOF 16
ENDMDL
MODEL 2
REMARK VINA RESULT:     -11.5      3.261      8.619
REMARK SMILES CC1(C)CCC[C@@H]1NC(=O)CC1(C(=O)NCCCCCCNC(=O)c2ccc(-c3c4nc(c(-c5c(F)cccc5F)c5ccc([nH]5)c(-c5c(F)cccc5F)c5nc(c(-c6c(F)cccc6F)c6ccc3[nH]6)C=C5)C=C4)cc2)CCCCC1
REMARK SMILES IDX 18 1 17 2 16 3 15 4 13 5 14 6 12 8 79 9 83 10 80 11 82 12
REMARK SMILES IDX 81 13 11 14 9 15 8 16 10 18 7 19 1 20 2 21 3 22 4 23 5 24
REMARK SMILES IDX 6 25 19 26 20 27 21 28 22 29 23 30 24 32 25 33 26 34 78 35
REMARK SMILES IDX 27 36 77 37 28 38 29 39 30 40 71 41 31 42 76 43 70 44 72 45
REMARK SMILES IDX 32 46 75 47 69 48 68 49 33 51 59 52 42 53 58 54 43 55 46 56
REMARK SMILES IDX 57 57 73 58 44 59 45 60 56 62 74 63 47 64 34 65 35 66 40 67
REMARK SMILES IDX 36 68 37 69 39 70 41 71 38 72 60 73 61 74 66 75 62 76 63 77
REMARK SMILES IDX 65 78 67 79 64 80 48 81 49 82 54 83 50 84 51 85 53 86 55 87
REMARK SMILES IDX 52 88
REMARK H PARENT 15 7 8 17 22 31 72 50 46 61
REMARK Flexibility Score: inf
ROOT
ATOM      1  C   UNL A   1      33.354  24.599  24.874  1.00  0.00     0.002 C 
ENDROOT
BRANCH   1   2
ATOM      2  C   UNL A   1      32.137  24.386  25.779  1.00  0.00     0.021 C 
BRANCH   2   3
ATOM      3  C   UNL A   1      30.990  25.350  25.492  1.00  0.00     0.116 C 
BRANCH   3   4
ATOM      4  N   UNL A   1      30.876  26.331  26.533  1.00  0.00    -0.356 N 
ATOM      5  C   UNL A   1      31.427  27.526  26.807  1.00  0.00     0.226 C 
ATOM      6  O   UNL A   1      31.114  27.895  27.951  1.00  0.00    -0.274 OA
ATOM      7  H   UNL A   1      30.228  26.060  27.223  1.00  0.00     0.163 HD
BRANCH   5   8
ATOM      8  C   UNL A   1      32.292  28.442  25.873  1.00  0.00     0.058 C 
ATOM      9  C   UNL A   1      33.804  28.160  26.128  1.00  0.00     0.017 C 
ATOM     10  C   UNL A   1      32.133  29.979  25.846  1.00  0.00     0.017 C 
ATOM     11  C   UNL A   1      34.473  28.966  27.251  1.00  0.00     0.001 C 
ATOM     12  C   UNL A   1      32.672  30.794  26.997  1.00  0.00     0.001 C 
ATOM     13  C   UNL A   1      34.121  30.454  27.301  1.00  0.00     0.000 C 
BRANCH   8  14
ATOM     14  C   UNL A   1      31.923  27.923  24.413  1.00  0.00     0.117 C 
BRANCH  14  15
ATOM     15  C   UNL A   1      32.157  28.870  23.244  1.00  0.00     0.221 C 
ATOM     16  N   UNL A   1      31.196  29.342  22.413  1.00  0.00    -0.353 N 
ATOM     17  H   UNL A   1      31.545  30.023  21.793  1.00  0.00     0.163 HD
ATOM     18  O   UNL A   1      33.308  29.266  23.018  1.00  0.00    -0.275 OA
BRANCH  16  19
ATOM     19  C   UNL A   1      29.766  29.091  22.209  1.00  0.00     0.087 C 
ATOM     20  C   UNL A   1      28.997  31.378  21.331  1.00  0.00     0.013 C 
ATOM     21  C   UNL A   1      28.899  30.363  22.470  1.00  0.00    -0.015 C 
ATOM     22  C   UNL A   1      29.233  31.073  23.804  1.00  0.00     0.013 C 
ATOM     23  C   UNL A   1      27.482  29.764  22.547  1.00  0.00     0.008 C 
ATOM     24  C   UNL A   1      27.644  28.448  23.292  1.00  0.00     0.003 C 
ATOM     25  C   UNL A   1      29.125  28.095  23.190  1.00  0.00     0.025 C 
ENDBRANCH  16  19
ENDBRANCH  14  15
ENDBRANCH   8  14
ENDBRANCH   5   8
ENDBRANCH   3   4
ENDBRANCH   2   3
ENDBRANCH   1   2
BRANCH   1  26
ATOM     26  C   UNL A   1      34.685  24.787  25.609  1.00  0.00     0.002 C 
BRANCH  26  27
ATOM     27  C   UNL A   1      35.557  23.531  25.715  1.00  0.00     0.021 C 
BRANCH  27  28
ATOM     28  C   UNL A   1      36.954  23.676  25.121  1.00  0.00     0.116 C 
BRANCH  28  29
ATOM     29  N   UNL A   1      37.844  22.624  25.576  1.00  0.00    -0.352 N 
ATOM     30  C   UNL A   1      39.068  22.716  26.186  1.00  0.00     0.251 C 
ATOM     31  H   UNL A   1      37.521  21.706  25.424  1.00  0.00     0.163 HD
ATOM     32  O   UNL A   1      39.778  21.722  26.294  1.00  0.00    -0.269 OA
BRANCH  30  33
ATOM     33  C   UNL A   1      39.536  24.017  26.708  1.00  0.00     0.039 A 
ATOM     34  C   UNL A   1      40.240  24.868  25.853  1.00  0.00     0.014 A 
ATOM     35  C   UNL A   1      39.314  24.380  28.040  1.00  0.00     0.014 A 
ATOM     36  C   UNL A   1      40.685  26.104  26.323  1.00  0.00     0.010 A 
ATOM     37  C   UNL A   1      39.698  25.641  28.487  1.00  0.00     0.010 A 
ATOM     38  C   UNL A   1      40.397  26.510  27.635  1.00  0.00    -0.014 A 
BRANCH  38  39
ATOM     39  C   UNL A   1      40.825  27.840  28.132  1.00  0.00     0.031 A 
ATOM     40  C   UNL A   1      42.285  28.197  28.179  1.00  0.00     0.074 A 
ATOM     41  C   UNL A   1      39.900  28.705  28.588  1.00  0.00     0.049 A 
ATOM     42  N   UNL A   1      42.853  29.292  28.616  1.00  0.00    -0.248 NA
ATOM     43  C   UNL A   1      43.232  27.180  27.696  1.00  0.00     0.031 C 
ATOM     44  C   UNL A   1      38.459  28.452  28.642  1.00  0.00     0.029 A 
ATOM     45  N   UNL A   1      40.035  29.969  29.102  1.00  0.00    -0.354 N 
ATOM     46  C   UNL A   1      44.220  29.091  28.472  1.00  0.00     0.074 A 
ATOM     47  C   UNL A   1      44.399  27.752  27.957  1.00  0.00     0.031 C 
ATOM     48  C   UNL A   1      37.840  29.535  29.136  1.00  0.00     0.029 A 
ATOM     49  C   UNL A   1      38.842  30.545  29.466  1.00  0.00     0.049 A 
ATOM     50  H   UNL A   1      40.903  30.421  29.200  1.00  0.00     0.167 HD
ATOM     51  C   UNL A   1      45.232  29.954  28.726  1.00  0.00     0.037 A 
ATOM     52  C   UNL A   1      38.586  31.750  30.007  1.00  0.00     0.037 A 
ATOM     53  C   UNL A   1      45.048  31.295  29.214  1.00  0.00     0.049 A 
ATOM     54  C   UNL A   1      39.727  32.691  30.274  1.00  0.00     0.074 A 
ATOM     55  C   UNL A   1      46.004  32.270  29.440  1.00  0.00     0.029 A 
ATOM     56  N   UNL A   1      43.823  31.850  29.555  1.00  0.00    -0.354 N 
ATOM     57  N   UNL A   1      41.009  32.515  30.064  1.00  0.00    -0.248 NA
ATOM     58  C   UNL A   1      39.385  34.001  30.845  1.00  0.00     0.031 C 
ATOM     59  C   UNL A   1      45.361  33.401  29.958  1.00  0.00     0.029 A 
ATOM     60  C   UNL A   1      44.000  33.145  30.011  1.00  0.00     0.049 A 
ATOM     61  H   UNL A   1      42.955  31.389  29.483  1.00  0.00     0.167 HD
ATOM     62  C   UNL A   1      41.623  33.698  30.453  1.00  0.00     0.074 A 
ATOM     63  C   UNL A   1      40.571  34.590  30.895  1.00  0.00     0.031 C 
ATOM     64  C   UNL A   1      42.940  34.018  30.445  1.00  0.00     0.037 A 
BRANCH  51  65
ATOM     65  C   UNL A   1      46.632  29.473  28.475  1.00  0.00     0.057 A 
ATOM     66  C   UNL A   1      47.265  29.650  27.237  1.00  0.00     0.134 A 
ATOM     67  C   UNL A   1      47.371  28.857  29.494  1.00  0.00     0.134 A 
ATOM     68  F   UNL A   1      46.609  30.222  26.216  1.00  0.00    -0.206 F 
ATOM     69  C   UNL A   1      48.569  29.209  27.013  1.00  0.00     0.040 A 
ATOM     70  C   UNL A   1      48.685  28.435  29.290  1.00  0.00     0.040 A 
ATOM     71  F   UNL A   1      46.829  28.660  30.705  1.00  0.00    -0.206 F 
ATOM     72  C   UNL A   1      49.287  28.606  28.044  1.00  0.00     0.006 A 
ENDBRANCH  51  65
BRANCH  52  73
ATOM     73  C   UNL A   1      37.188  32.146  30.309  1.00  0.00     0.057 A 
ATOM     74  C   UNL A   1      36.400  32.798  29.354  1.00  0.00     0.134 A 
ATOM     75  C   UNL A   1      36.606  31.885  31.556  1.00  0.00     0.134 A 
ATOM     76  F   UNL A   1      36.908  33.090  28.147  1.00  0.00    -0.206 F 
ATOM     77  C   UNL A   1      35.092  33.195  29.632  1.00  0.00     0.040 A 
ATOM     78  C   UNL A   1      35.291  32.255  31.840  1.00  0.00     0.040 A 
ATOM     79  F   UNL A   1      37.305  31.254  32.511  1.00  0.00    -0.206 F 
ATOM     80  C   UNL A   1      34.532  32.919  30.879  1.00  0.00     0.006 A 
ENDBRANCH  52  73
BRANCH  64  81
ATOM     81  C   UNL A   1      43.311  35.398  30.904  1.00  0.00     0.057 A 
ATOM     82  C   UNL A   1      43.517  35.696  32.256  1.00  0.00     0.134 A 
ATOM     83  C   UNL A   1      43.492  36.433  29.978  1.00  0.00     0.134 A 
ATOM     84  F   UNL A   1      43.345  34.752  33.194  1.00  0.00    -0.206 F 
ATOM     85  C   UNL A   1      43.867  36.981  32.674  1.00  0.00     0.040 A 
ATOM     86  C   UNL A   1      43.869  37.714  30.381  1.00  0.00     0.040 A 
ATOM     87  F   UNL A   1      43.319  36.212  28.666  1.00  0.00    -0.206 F 
ATOM     88  C   UNL A   1      44.051  37.993  31.733  1.00  0.00     0.006 A 
ENDBRANCH  64  81
ENDBRANCH  38  39
ENDBRANCH  30  33
ENDBRANCH  28  29
ENDBRANCH  27  28
ENDBRANCH  26  27
ENDBRANCH   1  26
TORSDOF 16
ENDMDL
MODEL 3
REMARK VINA RESULT:     -11.4      2.069      7.796
REMARK SMILES CC1(C)CCC[C@@H]1NC(=O)CC1(C(=O)NCCCCCCNC(=O)c2ccc(-c3c4nc(c(-c5c(F)cccc5F)c5ccc([nH]5)c(-c5c(F)cccc5F)c5nc(c(-c6c(F)cccc6F)c6ccc3[nH]6)C=C5)C=C4)cc2)CCCCC1
REMARK SMILES IDX 18 1 17 2 16 3 15 4 13 5 14 6 12 8 79 9 83 10 80 11 82 12
REMARK SMILES IDX 81 13 11 14 9 15 8 16 10 18 7 19 1 20 2 21 3 22 4 23 5 24
REMARK SMILES IDX 6 25 19 26 20 27 21 28 22 29 23 30 24 32 25 33 26 34 78 35
REMARK SMILES IDX 27 36 77 37 28 38 29 39 30 40 71 41 31 42 76 43 70 44 72 45
REMARK SMILES IDX 32 46 75 47 69 48 68 49 33 51 59 52 42 53 58 54 43 55 46 56
REMARK SMILES IDX 57 57 73 58 44 59 45 60 56 62 74 63 47 64 34 65 35 66 40 67
REMARK SMILES IDX 36 68 37 69 39 70 41 71 38 72 60 73 61 74 66 75 62 76 63 77
REMARK SMILES IDX 65 78 67 79 64 80 48 81 49 82 54 83 50 84 51 85 53 86 55 87
REMARK SMILES IDX 52 88
REMARK H PARENT 15 7 8 17 22 31 72 50 46 61
REMARK Flexibility Score: inf
ROOT
ATOM      1  C   UNL A   1      37.212  21.951  24.391  1.00  0.00     0.002 C 
ENDROOT
BRANCH   1   2
ATOM      2  C   UNL A   1      37.611  22.883  25.539  1.00  0.00     0.021 C 
BRANCH   2   3
ATOM      3  C   UNL A   1      36.443  23.692  26.097  1.00  0.00     0.116 C 
BRANCH   3   4
ATOM      4  N   UNL A   1      35.544  22.848  26.831  1.00  0.00    -0.356 N 
ATOM      5  C   UNL A   1      34.215  22.655  26.883  1.00  0.00     0.226 C 
ATOM      6  O   UNL A   1      33.922  21.916  27.837  1.00  0.00    -0.274 OA
ATOM      7  H   UNL A   1      36.024  22.260  27.458  1.00  0.00     0.163 HD
BRANCH   5   8
ATOM      8  C   UNL A   1      33.112  23.175  25.896  1.00  0.00     0.058 C 
ATOM      9  C   UNL A   1      31.921  22.171  25.876  1.00  0.00     0.017 C 
ATOM     10  C   UNL A   1      33.421  23.517  24.420  1.00  0.00     0.017 C 
ATOM     11  C   UNL A   1      32.020  21.007  24.880  1.00  0.00     0.001 C 
ATOM     12  C   UNL A   1      33.645  22.394  23.437  1.00  0.00     0.001 C 
ATOM     13  C   UNL A   1      32.526  21.370  23.482  1.00  0.00     0.000 C 
BRANCH   8  14
ATOM     14  C   UNL A   1      32.621  24.527  26.581  1.00  0.00     0.117 C 
BRANCH  14  15
ATOM     15  C   UNL A   1      31.405  25.222  25.985  1.00  0.00     0.221 C 
ATOM     16  N   UNL A   1      31.440  26.153  25.000  1.00  0.00    -0.353 N 
ATOM     17  H   UNL A   1      30.537  26.395  24.688  1.00  0.00     0.163 HD
ATOM     18  O   UNL A   1      30.279  24.923  26.406  1.00  0.00    -0.275 OA
BRANCH  16  19
ATOM     19  C   UNL A   1      32.486  26.889  24.284  1.00  0.00     0.087 C 
ATOM     20  C   UNL A   1      33.670  28.064  26.236  1.00  0.00     0.013 C 
ATOM     21  C   UNL A   1      32.830  28.247  24.971  1.00  0.00    -0.015 C 
ATOM     22  C   UNL A   1      31.581  29.095  25.317  1.00  0.00     0.013 C 
ATOM     23  C   UNL A   1      33.644  28.956  23.873  1.00  0.00     0.008 C 
ATOM     24  C   UNL A   1      32.949  28.600  22.567  1.00  0.00     0.003 C 
ATOM     25  C   UNL A   1      32.107  27.364  22.871  1.00  0.00     0.025 C 
ENDBRANCH  16  19
ENDBRANCH  14  15
ENDBRANCH   8  14
ENDBRANCH   5   8
ENDBRANCH   3   4
ENDBRANCH   2   3
ENDBRANCH   1   2
BRANCH   1  26
ATOM     26  C   UNL A   1      36.898  20.509  24.806  1.00  0.00     0.002 C 
BRANCH  26  27
ATOM     27  C   UNL A   1      38.109  19.574  24.888  1.00  0.00     0.021 C 
BRANCH  27  28
ATOM     28  C   UNL A   1      39.126  19.944  25.962  1.00  0.00     0.116 C 
BRANCH  28  29
ATOM     29  N   UNL A   1      40.343  19.161  25.845  1.00  0.00    -0.352 N 
ATOM     30  C   UNL A   1      41.650  19.553  25.968  1.00  0.00     0.251 C 
ATOM     31  H   UNL A   1      40.210  18.205  25.649  1.00  0.00     0.163 HD
ATOM     32  O   UNL A   1      42.553  18.803  25.613  1.00  0.00    -0.269 OA
BRANCH  30  33
ATOM     33  C   UNL A   1      41.973  20.885  26.520  1.00  0.00     0.039 A 
ATOM     34  C   UNL A   1      42.317  21.912  25.639  1.00  0.00     0.014 A 
ATOM     35  C   UNL A   1      41.970  21.111  27.901  1.00  0.00     0.014 A 
ATOM     36  C   UNL A   1      42.617  23.179  26.139  1.00  0.00     0.010 A 
ATOM     37  C   UNL A   1      42.203  22.392  28.393  1.00  0.00     0.010 A 
ATOM     38  C   UNL A   1      42.540  23.435  27.517  1.00  0.00    -0.014 A 
BRANCH  38  39
ATOM     39  C   UNL A   1      42.813  24.790  28.056  1.00  0.00     0.031 A 
ATOM     40  C   UNL A   1      44.206  25.171  28.474  1.00  0.00     0.074 A 
ATOM     41  C   UNL A   1      41.795  25.656  28.216  1.00  0.00     0.049 A 
ATOM     42  N   UNL A   1      44.632  26.291  29.002  1.00  0.00    -0.248 NA
ATOM     43  C   UNL A   1      45.253  24.152  28.300  1.00  0.00     0.031 C 
ATOM     44  C   UNL A   1      40.393  25.381  27.895  1.00  0.00     0.029 A 
ATOM     45  N   UNL A   1      41.782  26.940  28.696  1.00  0.00    -0.354 N 
ATOM     46  C   UNL A   1      45.988  26.107  29.234  1.00  0.00     0.074 A 
ATOM     47  C   UNL A   1      46.306  24.752  28.838  1.00  0.00     0.031 C 
ATOM     48  C   UNL A   1      39.659  26.473  28.165  1.00  0.00     0.029 A 
ATOM     49  C   UNL A   1      40.532  27.509  28.708  1.00  0.00     0.049 A 
ATOM     50  H   UNL A   1      42.590  27.409  29.003  1.00  0.00     0.167 HD
ATOM     51  C   UNL A   1      46.892  26.995  29.713  1.00  0.00     0.037 A 
ATOM     52  C   UNL A   1      40.134  28.730  29.113  1.00  0.00     0.037 A 
ATOM     53  C   UNL A   1      46.577  28.350  30.080  1.00  0.00     0.049 A 
ATOM     54  C   UNL A   1      41.158  29.698  29.635  1.00  0.00     0.074 A 
ATOM     55  C   UNL A   1      47.433  29.348  30.513  1.00  0.00     0.029 A 
ATOM     56  N   UNL A   1      45.303  28.897  30.062  1.00  0.00    -0.354 N 
ATOM     57  N   UNL A   1      42.450  29.536  29.780  1.00  0.00    -0.248 NA
ATOM     58  C   UNL A   1      40.669  31.022  30.042  1.00  0.00     0.031 C 
ATOM     59  C   UNL A   1      46.670  30.486  30.796  1.00  0.00     0.029 A 
ATOM     60  C   UNL A   1      45.345  30.211  30.496  1.00  0.00     0.049 A 
ATOM     61  H   UNL A   1      44.488  28.420  29.781  1.00  0.00     0.167 HD
ATOM     62  C   UNL A   1      42.932  30.742  30.270  1.00  0.00     0.074 A 
ATOM     63  C   UNL A   1      41.796  31.632  30.381  1.00  0.00     0.031 C 
ATOM     64  C   UNL A   1      44.203  31.082  30.599  1.00  0.00     0.037 A 
BRANCH  51  65
ATOM     65  C   UNL A   1      48.311  26.527  29.861  1.00  0.00     0.057 A 
ATOM     66  C   UNL A   1      49.271  26.748  28.865  1.00  0.00     0.134 A 
ATOM     67  C   UNL A   1      48.733  25.879  31.029  1.00  0.00     0.134 A 
ATOM     68  F   UNL A   1      48.930  27.353  27.716  1.00  0.00    -0.206 F 
ATOM     69  C   UNL A   1      50.591  26.320  29.012  1.00  0.00     0.040 A 
ATOM     70  C   UNL A   1      50.056  25.469  31.200  1.00  0.00     0.040 A 
ATOM     71  F   UNL A   1      47.867  25.639  32.026  1.00  0.00    -0.206 F 
ATOM     72  C   UNL A   1      50.989  25.685  30.187  1.00  0.00     0.006 A 
ENDBRANCH  51  65
BRANCH  52  73
ATOM     73  C   UNL A   1      38.704  29.114  29.018  1.00  0.00     0.057 A 
ATOM     74  C   UNL A   1      37.860  29.034  30.131  1.00  0.00     0.134 A 
ATOM     75  C   UNL A   1      38.145  29.565  27.816  1.00  0.00     0.134 A 
ATOM     76  F   UNL A   1      38.334  28.592  31.306  1.00  0.00    -0.206 F 
ATOM     77  C   UNL A   1      36.508  29.370  30.051  1.00  0.00     0.040 A 
ATOM     78  C   UNL A   1      36.801  29.928  27.726  1.00  0.00     0.040 A 
ATOM     79  F   UNL A   1      38.904  29.674  26.715  1.00  0.00    -0.206 F 
ATOM     80  C   UNL A   1      35.976  29.823  28.844  1.00  0.00     0.006 A 
ENDBRANCH  52  73
BRANCH  64  81
ATOM     81  C   UNL A   1      44.430  32.484  31.085  1.00  0.00     0.057 A 
ATOM     82  C   UNL A   1      44.394  32.809  32.446  1.00  0.00     0.134 A 
ATOM     83  C   UNL A   1      44.718  33.514  30.180  1.00  0.00     0.134 A 
ATOM     84  F   UNL A   1      44.110  31.870  33.361  1.00  0.00    -0.206 F 
ATOM     85  C   UNL A   1      44.613  34.115  32.889  1.00  0.00     0.040 A 
ATOM     86  C   UNL A   1      44.965  34.816  30.613  1.00  0.00     0.040 A 
ATOM     87  F   UNL A   1      44.776  33.268  28.862  1.00  0.00    -0.206 F 
ATOM     88  C   UNL A   1      44.907  35.121  31.971  1.00  0.00     0.006 A 
ENDBRANCH  64  81
ENDBRANCH  38  39
ENDBRANCH  30  33
ENDBRANCH  28  29
ENDBRANCH  27  28
ENDBRANCH  26  27
ENDBRANCH   1  26
TORSDOF 16
ENDMDL
