MODEL 1
REMARK VINA RESULT:     -10.7      0.000      0.000
REMARK SMILES CC[C@@](C)([NH2+]CC(=O)Nc1ccc(Br)cc1F)C(=O)NCCCCCCNC(=O)c1ccc(-c2c3nc(c(-c4c(F)cccc4F)c4ccc([nH]4)c(-c4c(F)cccc4F)c4nc(c(-c5c(F)cccc5F)c5ccc2[nH]5)C=C4)C=C3)cc1
REMARK SMILES IDX 22 1 21 2 20 3 18 4 19 5 3 7 4 8 2 9 1 10 5 11 6 14 7 15
REMARK SMILES IDX 8 16 9 17 10 19 11 20 16 21 12 22 15 23 17 24 13 25 14 26
REMARK SMILES IDX 23 27 24 28 25 29 26 30 27 31 28 32 29 34 30 35 31 36 83 37
REMARK SMILES IDX 32 38 82 39 33 40 34 41 35 42 76 43 36 44 81 45 75 46 77 47
REMARK SMILES IDX 37 48 80 49 74 50 73 51 38 53 64 54 47 55 63 56 48 57 51 58
REMARK SMILES IDX 62 59 78 60 49 61 50 62 61 64 79 65 52 66 39 67 40 68 45 69
REMARK SMILES IDX 41 70 42 71 44 72 46 73 43 74 65 75 66 76 71 77 67 78 68 79
REMARK SMILES IDX 70 80 72 81 69 82 53 83 54 84 59 85 55 86 56 87 58 88 60 89
REMARK SMILES IDX 57 90
REMARK H PARENT 20 6 5 12 5 13 9 18 27 33 77 52 51 63
REMARK Flexibility Score: inf
ROOT
ATOM      1  C   UNL A   1      34.411  32.142  28.880  1.00  0.00     0.021 C 
ENDROOT
BRANCH   1   2
ATOM      2  C   UNL A   1      34.332  31.270  27.622  1.00  0.00     0.116 C 
BRANCH   2   3
ATOM      3  N   UNL A   1      33.011  30.685  27.364  1.00  0.00    -0.351 N 
ATOM      4  C   UNL A   1      32.561  29.462  26.909  1.00  0.00     0.281 C 
ATOM      5  O   UNL A   1      31.794  28.945  27.738  1.00  0.00    -0.268 OA
ATOM      6  H   UNL A   1      32.275  31.309  27.562  1.00  0.00     0.163 HD
BRANCH   4   7
ATOM      7  C   UNL A   1      32.669  28.866  25.365  1.00  0.00     0.172 C 
ATOM      8  C   UNL A   1      33.826  28.626  24.331  1.00  0.00     0.090 C 
BRANCH   7   9
ATOM      9  C   UNL A   1      32.154  27.378  25.575  1.00  0.00     0.075 C 
ATOM     10  C   UNL A   1      33.296  26.335  25.786  1.00  0.00     0.011 C 
ENDBRANCH   7   9
BRANCH   7  11
ATOM     11  N   UNL A   1      31.774  29.731  24.591  1.00  0.00    -0.326 N 
ATOM     12  H   UNL A   1      32.321  30.171  23.851  1.00  0.00     0.347 HD
ATOM     13  H   UNL A   1      31.378  30.395  25.257  1.00  0.00     0.347 HD
BRANCH  11  14
ATOM     14  C   UNL A   1      30.615  29.044  23.959  1.00  0.00     0.363 C 
BRANCH  14  15
ATOM     15  C   UNL A   1      30.572  28.443  22.502  1.00  0.00     0.279 C 
ATOM     16  O   UNL A   1      30.210  29.243  21.614  1.00  0.00    -0.268 OA
ATOM     17  N   UNL A   1      31.021  27.255  21.962  1.00  0.00    -0.319 N 
ATOM     18  H   UNL A   1      31.024  27.320  20.979  1.00  0.00     0.170 HD
BRANCH  17  19
ATOM     19  C   UNL A   1      31.482  25.966  22.357  1.00  0.00     0.077 A 
ATOM     20  C   UNL A   1      30.585  25.176  23.087  1.00  0.00     0.030 A 
ATOM     21  C   UNL A   1      32.792  25.459  22.262  1.00  0.00     0.147 A 
ATOM     22  C   UNL A   1      30.901  23.850  23.440  1.00  0.00     0.018 A 
ATOM     23  C   UNL A   1      33.112  24.137  22.578  1.00  0.00     0.057 A 
ATOM     24  F   UNL A   1      33.838  26.213  21.918  1.00  0.00    -0.205 F 
ATOM     25  C   UNL A   1      32.144  23.317  23.121  1.00  0.00     0.021 A 
ATOM     26  Br  UNL A   1      32.527  21.497  23.439  1.00  0.00    -0.051 Br
ENDBRANCH  17  19
ENDBRANCH  14  15
ENDBRANCH  11  14
ENDBRANCH   7  11
ENDBRANCH   4   7
ENDBRANCH   2   3
ENDBRANCH   1   2
BRANCH   1  27
ATOM     27  C   UNL A   1      35.290  33.388  28.699  1.00  0.00     0.002 C 
BRANCH  27  28
ATOM     28  C   UNL A   1      34.599  34.642  28.144  1.00  0.00     0.002 C 
BRANCH  28  29
ATOM     29  C   UNL A   1      33.284  35.045  28.813  1.00  0.00     0.021 C 
BRANCH  29  30
ATOM     30  C   UNL A   1      33.285  36.411  29.496  1.00  0.00     0.116 C 
BRANCH  30  31
ATOM     31  N   UNL A   1      32.503  36.425  30.723  1.00  0.00    -0.352 N 
ATOM     32  C   UNL A   1      32.664  35.716  31.890  1.00  0.00     0.251 C 
ATOM     33  H   UNL A   1      31.735  37.042  30.718  1.00  0.00     0.163 HD
ATOM     34  O   UNL A   1      31.796  35.741  32.749  1.00  0.00    -0.269 OA
BRANCH  32  35
ATOM     35  C   UNL A   1      33.882  34.902  32.094  1.00  0.00     0.039 A 
ATOM     36  C   UNL A   1      35.126  35.539  32.070  1.00  0.00     0.014 A 
ATOM     37  C   UNL A   1      33.799  33.524  32.301  1.00  0.00     0.014 A 
ATOM     38  C   UNL A   1      36.283  34.802  32.330  1.00  0.00     0.010 A 
ATOM     39  C   UNL A   1      34.943  32.805  32.633  1.00  0.00     0.010 A 
ATOM     40  C   UNL A   1      36.195  33.439  32.657  1.00  0.00    -0.014 A 
BRANCH  40  41
ATOM     41  C   UNL A   1      37.396  32.670  33.067  1.00  0.00     0.031 A 
ATOM     42  C   UNL A   1      38.112  32.998  34.343  1.00  0.00     0.074 A 
ATOM     43  C   UNL A   1      37.883  31.725  32.240  1.00  0.00     0.049 A 
ATOM     44  N   UNL A   1      39.215  32.485  34.828  1.00  0.00    -0.248 NA
ATOM     45  C   UNL A   1      37.528  34.061  35.173  1.00  0.00     0.031 C 
ATOM     46  C   UNL A   1      37.307  31.358  30.946  1.00  0.00     0.029 A 
ATOM     47  N   UNL A   1      38.986  30.916  32.355  1.00  0.00    -0.354 N 
ATOM     48  C   UNL A   1      39.458  33.163  36.014  1.00  0.00     0.074 A 
ATOM     49  C   UNL A   1      38.423  34.167  36.144  1.00  0.00     0.031 C 
ATOM     50  C   UNL A   1      38.053  30.389  30.392  1.00  0.00     0.029 A 
ATOM     51  C   UNL A   1      39.180  30.097  31.270  1.00  0.00     0.049 A 
ATOM     52  H   UNL A   1      39.579  30.922  33.141  1.00  0.00     0.167 HD
ATOM     53  C   UNL A   1      40.440  32.953  36.923  1.00  0.00     0.037 A 
ATOM     54  C   UNL A   1      40.167  29.222  31.003  1.00  0.00     0.037 A 
ATOM     55  C   UNL A   1      41.469  31.955  36.784  1.00  0.00     0.049 A 
ATOM     56  C   UNL A   1      41.263  29.023  32.010  1.00  0.00     0.074 A 
ATOM     57  C   UNL A   1      42.478  31.624  37.671  1.00  0.00     0.029 A 
ATOM     58  N   UNL A   1      41.628  31.134  35.676  1.00  0.00    -0.354 N 
ATOM     59  N   UNL A   1      41.437  29.614  33.167  1.00  0.00    -0.248 NA
ATOM     60  C   UNL A   1      42.295  28.031  31.680  1.00  0.00     0.031 C 
ATOM     61  C   UNL A   1      43.281  30.645  37.076  1.00  0.00     0.029 A 
ATOM     62  C   UNL A   1      42.739  30.322  35.841  1.00  0.00     0.049 A 
ATOM     63  H   UNL A   1      41.038  31.130  34.887  1.00  0.00     0.167 HD
ATOM     64  C   UNL A   1      42.589  29.061  33.709  1.00  0.00     0.074 A 
ATOM     65  C   UNL A   1      43.058  28.068  32.764  1.00  0.00     0.031 C 
ATOM     66  C   UNL A   1      43.202  29.348  34.884  1.00  0.00     0.037 A 
BRANCH  53  67
ATOM     67  C   UNL A   1      40.445  33.830  38.144  1.00  0.00     0.057 A 
ATOM     68  C   UNL A   1      39.669  33.530  39.273  1.00  0.00     0.134 A 
ATOM     69  C   UNL A   1      41.237  34.984  38.197  1.00  0.00     0.134 A 
ATOM     70  F   UNL A   1      38.880  32.445  39.288  1.00  0.00    -0.206 F 
ATOM     71  C   UNL A   1      39.650  34.366  40.392  1.00  0.00     0.040 A 
ATOM     72  C   UNL A   1      41.251  35.811  39.322  1.00  0.00     0.040 A 
ATOM     73  F   UNL A   1      42.011  35.328  37.156  1.00  0.00    -0.206 F 
ATOM     74  C   UNL A   1      40.446  35.509  40.419  1.00  0.00     0.006 A 
ENDBRANCH  53  67
BRANCH  54  75
ATOM     75  C   UNL A   1      40.153  28.470  29.722  1.00  0.00     0.057 A 
ATOM     76  C   UNL A   1      40.877  28.914  28.611  1.00  0.00     0.134 A 
ATOM     77  C   UNL A   1      39.436  27.274  29.589  1.00  0.00     0.134 A 
ATOM     78  F   UNL A   1      41.570  30.061  28.671  1.00  0.00    -0.206 F 
ATOM     79  C   UNL A   1      40.883  28.202  27.410  1.00  0.00     0.040 A 
ATOM     80  C   UNL A   1      39.454  26.538  28.404  1.00  0.00     0.040 A 
ATOM     81  F   UNL A   1      38.730  26.789  30.621  1.00  0.00    -0.206 F 
ATOM     82  C   UNL A   1      40.176  27.006  27.307  1.00  0.00     0.006 A 
ENDBRANCH  54  75
BRANCH  66  83
ATOM     83  C   UNL A   1      44.445  28.574  35.215  1.00  0.00     0.057 A 
ATOM     84  C   UNL A   1      44.393  27.348  35.892  1.00  0.00     0.134 A 
ATOM     85  C   UNL A   1      45.705  29.038  34.815  1.00  0.00     0.134 A 
ATOM     86  F   UNL A   1      43.220  26.855  36.316  1.00  0.00    -0.206 F 
ATOM     87  C   UNL A   1      45.552  26.623  36.178  1.00  0.00     0.040 A 
ATOM     88  C   UNL A   1      46.867  28.308  35.069  1.00  0.00     0.040 A 
ATOM     89  F   UNL A   1      45.826  30.200  34.155  1.00  0.00    -0.206 F 
ATOM     90  C   UNL A   1      46.792  27.098  35.758  1.00  0.00     0.006 A 
ENDBRANCH  66  83
ENDBRANCH  40  41
ENDBRANCH  32  35
ENDBRANCH  30  31
ENDBRANCH  29  30
ENDBRANCH  28  29
ENDBRANCH  27  28
ENDBRANCH   1  27
TORSDOF 18
ENDMDL
MODEL 2
REMARK VINA RESULT:     -10.7      6.100     11.017
REMARK SMILES CC[C@@](C)([NH2+]CC(=O)Nc1ccc(Br)cc1F)C(=O)NCCCCCCNC(=O)c1ccc(-c2c3nc(c(-c4c(F)cccc4F)c4ccc([nH]4)c(-c4c(F)cccc4F)c4nc(c(-c5c(F)cccc5F)c5ccc2[nH]5)C=C4)C=C3)cc1
REMARK SMILES IDX 22 1 21 2 20 3 18 4 19 5 3 7 4 8 2 9 1 10 5 11 6 14 7 15
REMARK SMILES IDX 8 16 9 17 10 19 11 20 16 21 12 22 15 23 17 24 13 25 14 26
REMARK SMILES IDX 23 27 24 28 25 29 26 30 27 31 28 32 29 34 30 35 31 36 83 37
REMARK SMILES IDX 32 38 82 39 33 40 34 41 35 42 76 43 36 44 81 45 75 46 77 47
REMARK SMILES IDX 37 48 80 49 74 50 73 51 38 53 64 54 47 55 63 56 48 57 51 58
REMARK SMILES IDX 62 59 78 60 49 61 50 62 61 64 79 65 52 66 39 67 40 68 45 69
REMARK SMILES IDX 41 70 42 71 44 72 46 73 43 74 65 75 66 76 71 77 67 78 68 79
REMARK SMILES IDX 70 80 72 81 69 82 53 83 54 84 59 85 55 86 56 87 58 88 60 89
REMARK SMILES IDX 57 90
REMARK H PARENT 20 6 5 12 5 13 9 18 27 33 77 52 51 63
REMARK Flexibility Score: inf
ROOT
ATOM      1  C   UNL A   1      36.674  23.002  24.257  1.00  0.00     0.021 C 
ENDROOT
BRANCH   1   2
ATOM      2  C   UNL A   1      36.049  23.963  25.274  1.00  0.00     0.116 C 
BRANCH   2   3
ATOM      3  N   UNL A   1      35.082  23.344  26.187  1.00  0.00    -0.351 N 
ATOM      4  C   UNL A   1      34.316  22.195  26.161  1.00  0.00     0.281 C 
ATOM      5  O   UNL A   1      34.565  21.484  27.149  1.00  0.00    -0.268 OA
ATOM      6  H   UNL A   1      34.948  23.868  27.010  1.00  0.00     0.163 HD
BRANCH   4   7
ATOM      7  C   UNL A   1      32.988  21.899  25.214  1.00  0.00     0.172 C 
ATOM      8  C   UNL A   1      32.261  22.635  24.033  1.00  0.00     0.090 C 
BRANCH   7   9
ATOM      9  C   UNL A   1      33.422  20.551  24.492  1.00  0.00     0.075 C 
ATOM     10  C   UNL A   1      32.591  19.303  24.925  1.00  0.00     0.011 C 
ENDBRANCH   7   9
BRANCH   7  11
ATOM     11  N   UNL A   1      31.892  21.762  26.178  1.00  0.00    -0.326 N 
ATOM     12  H   UNL A   1      32.171  21.074  26.878  1.00  0.00     0.347 HD
ATOM     13  H   UNL A   1      31.073  21.485  25.637  1.00  0.00     0.347 HD
BRANCH  11  14
ATOM     14  C   UNL A   1      31.510  23.011  26.890  1.00  0.00     0.363 C 
BRANCH  14  15
ATOM     15  C   UNL A   1      30.075  23.665  26.914  1.00  0.00     0.279 C 
ATOM     16  O   UNL A   1      29.263  23.122  27.694  1.00  0.00    -0.268 OA
ATOM     17  N   UNL A   1      29.564  24.831  26.382  1.00  0.00    -0.319 N 
ATOM     18  H   UNL A   1      28.688  25.023  26.788  1.00  0.00     0.170 HD
BRANCH  17  19
ATOM     19  C   UNL A   1      29.887  25.850  25.440  1.00  0.00     0.077 A 
ATOM     20  C   UNL A   1      28.955  26.079  24.419  1.00  0.00     0.030 A 
ATOM     21  C   UNL A   1      31.112  26.530  25.301  1.00  0.00     0.147 A 
ATOM     22  C   UNL A   1      29.126  27.128  23.497  1.00  0.00     0.018 A 
ATOM     23  C   UNL A   1      31.285  27.594  24.412  1.00  0.00     0.057 A 
ATOM     24  F   UNL A   1      32.215  26.179  25.964  1.00  0.00    -0.205 F 
ATOM     25  C   UNL A   1      30.265  27.924  23.544  1.00  0.00     0.021 A 
ATOM     26  Br  UNL A   1      30.438  29.432  22.423  1.00  0.00    -0.051 Br
ENDBRANCH  17  19
ENDBRANCH  14  15
ENDBRANCH  11  14
ENDBRANCH   7  11
ENDBRANCH   4   7
ENDBRANCH   2   3
ENDBRANCH   1   2
BRANCH   1  27
ATOM     27  C   UNL A   1      37.564  21.930  24.902  1.00  0.00     0.002 C 
BRANCH  27  28
ATOM     28  C   UNL A   1      37.158  20.468  24.667  1.00  0.00     0.002 C 
BRANCH  28  29
ATOM     29  C   UNL A   1      38.214  19.410  24.992  1.00  0.00     0.021 C 
BRANCH  29  30
ATOM     30  C   UNL A   1      39.391  19.893  25.837  1.00  0.00     0.116 C 
BRANCH  30  31
ATOM     31  N   UNL A   1      40.458  18.907  25.927  1.00  0.00    -0.352 N 
ATOM     32  C   UNL A   1      41.809  19.073  26.120  1.00  0.00     0.251 C 
ATOM     33  H   UNL A   1      40.166  17.971  25.835  1.00  0.00     0.163 HD
ATOM     34  O   UNL A   1      42.569  18.126  25.994  1.00  0.00    -0.269 OA
BRANCH  32  35
ATOM     35  C   UNL A   1      42.346  20.408  26.461  1.00  0.00     0.039 A 
ATOM     36  C   UNL A   1      42.933  21.174  25.450  1.00  0.00     0.014 A 
ATOM     37  C   UNL A   1      42.277  20.898  27.767  1.00  0.00     0.014 A 
ATOM     38  C   UNL A   1      43.382  22.465  25.735  1.00  0.00     0.010 A 
ATOM     39  C   UNL A   1      42.657  22.209  28.034  1.00  0.00     0.010 A 
ATOM     40  C   UNL A   1      43.207  23.008  27.019  1.00  0.00    -0.014 A 
BRANCH  40  41
ATOM     41  C   UNL A   1      43.555  24.421  27.308  1.00  0.00     0.031 A 
ATOM     42  C   UNL A   1      44.984  24.878  27.266  1.00  0.00     0.074 A 
ATOM     43  C   UNL A   1      42.583  25.272  27.685  1.00  0.00     0.049 A 
ATOM     44  N   UNL A   1      45.485  26.051  27.557  1.00  0.00    -0.248 NA
ATOM     45  C   UNL A   1      45.985  23.877  26.870  1.00  0.00     0.031 C 
ATOM     46  C   UNL A   1      41.166  24.929  27.818  1.00  0.00     0.029 A 
ATOM     47  N   UNL A   1      42.641  26.595  28.047  1.00  0.00    -0.354 N 
ATOM     48  C   UNL A   1      46.857  25.930  27.384  1.00  0.00     0.074 A 
ATOM     49  C   UNL A   1      47.115  24.551  27.024  1.00  0.00     0.031 C 
ATOM     50  C   UNL A   1      40.487  26.016  28.220  1.00  0.00     0.029 A 
ATOM     51  C   UNL A   1      41.424  27.116  28.413  1.00  0.00     0.049 A 
ATOM     52  H   UNL A   1      43.474  27.118  28.042  1.00  0.00     0.167 HD
ATOM     53  C   UNL A   1      47.812  26.884  27.493  1.00  0.00     0.037 A 
ATOM     54  C   UNL A   1      41.101  28.340  28.872  1.00  0.00     0.037 A 
ATOM     55  C   UNL A   1      47.547  28.252  27.857  1.00  0.00     0.049 A 
ATOM     56  C   UNL A   1      42.178  29.378  29.012  1.00  0.00     0.074 A 
ATOM     57  C   UNL A   1      48.434  29.310  27.943  1.00  0.00     0.029 A 
ATOM     58  N   UNL A   1      46.300  28.749  28.210  1.00  0.00    -0.354 N 
ATOM     59  N   UNL A   1      43.461  29.272  28.768  1.00  0.00    -0.248 NA
ATOM     60  C   UNL A   1      41.762  30.704  29.486  1.00  0.00     0.031 C 
ATOM     61  C   UNL A   1      47.735  30.432  28.403  1.00  0.00     0.029 A 
ATOM     62  C   UNL A   1      46.400  30.088  28.548  1.00  0.00     0.049 A 
ATOM     63  H   UNL A   1      45.466  28.225  28.219  1.00  0.00     0.167 HD
ATOM     64  C   UNL A   1      44.006  30.519  29.045  1.00  0.00     0.074 A 
ATOM     65  C   UNL A   1      42.908  31.371  29.453  1.00  0.00     0.031 C 
ATOM     66  C   UNL A   1      45.299  30.921  28.968  1.00  0.00     0.037 A 
BRANCH  53  67
ATOM     67  C   UNL A   1      49.231  26.471  27.220  1.00  0.00     0.057 A 
ATOM     68  C   UNL A   1      50.062  25.967  28.232  1.00  0.00     0.134 A 
ATOM     69  C   UNL A   1      49.774  26.571  25.933  1.00  0.00     0.134 A 
ATOM     70  F   UNL A   1      49.610  25.853  29.490  1.00  0.00    -0.206 F 
ATOM     71  C   UNL A   1      51.390  25.617  27.981  1.00  0.00     0.040 A 
ATOM     72  C   UNL A   1      51.091  26.195  25.664  1.00  0.00     0.040 A 
ATOM     73  F   UNL A   1      49.034  27.037  24.915  1.00  0.00    -0.206 F 
ATOM     74  C   UNL A   1      51.907  25.727  26.692  1.00  0.00     0.006 A 
ENDBRANCH  53  67
BRANCH  54  75
ATOM     75  C   UNL A   1      39.691  28.641  29.226  1.00  0.00     0.057 A 
ATOM     76  C   UNL A   1      39.207  28.429  30.521  1.00  0.00     0.134 A 
ATOM     77  C   UNL A   1      38.802  29.175  28.284  1.00  0.00     0.134 A 
ATOM     78  F   UNL A   1      40.004  27.906  31.463  1.00  0.00    -0.206 F 
ATOM     79  C   UNL A   1      37.887  28.728  30.866  1.00  0.00     0.040 A 
ATOM     80  C   UNL A   1      37.489  29.503  28.621  1.00  0.00     0.040 A 
ATOM     81  F   UNL A   1      39.208  29.411  27.028  1.00  0.00    -0.206 F 
ATOM     82  C   UNL A   1      37.026  29.274  29.916  1.00  0.00     0.006 A 
ENDBRANCH  54  75
BRANCH  66  83
ATOM     83  C   UNL A   1      45.595  32.349  29.326  1.00  0.00     0.057 A 
ATOM     84  C   UNL A   1      45.970  32.721  30.624  1.00  0.00     0.134 A 
ATOM     85  C   UNL A   1      45.546  33.356  28.353  1.00  0.00     0.134 A 
ATOM     86  F   UNL A   1      46.022  31.809  31.605  1.00  0.00    -0.206 F 
ATOM     87  C   UNL A   1      46.264  34.048  30.945  1.00  0.00     0.040 A 
ATOM     88  C   UNL A   1      45.866  34.680  28.656  1.00  0.00     0.040 A 
ATOM     89  F   UNL A   1      45.202  33.066  27.089  1.00  0.00    -0.206 F 
ATOM     90  C   UNL A   1      46.222  35.030  29.957  1.00  0.00     0.006 A 
ENDBRANCH  66  83
ENDBRANCH  40  41
ENDBRANCH  32  35
ENDBRANCH  30  31
ENDBRANCH  29  30
ENDBRANCH  28  29
ENDBRANCH  27  28
ENDBRANCH   1  27
TORSDOF 18
ENDMDL
MODEL 3
REMARK VINA RESULT:     -10.7      6.242     10.626
REMARK SMILES CC[C@@](C)([NH2+]CC(=O)Nc1ccc(Br)cc1F)C(=O)NCCCCCCNC(=O)c1ccc(-c2c3nc(c(-c4c(F)cccc4F)c4ccc([nH]4)c(-c4c(F)cccc4F)c4nc(c(-c5c(F)cccc5F)c5ccc2[nH]5)C=C4)C=C3)cc1
REMARK SMILES IDX 22 1 21 2 20 3 18 4 19 5 3 7 4 8 2 9 1 10 5 11 6 14 7 15
REMARK SMILES IDX 8 16 9 17 10 19 11 20 16 21 12 22 15 23 17 24 13 25 14 26
REMARK SMILES IDX 23 27 24 28 25 29 26 30 27 31 28 32 29 34 30 35 31 36 83 37
REMARK SMILES IDX 32 38 82 39 33 40 34 41 35 42 76 43 36 44 81 45 75 46 77 47
REMARK SMILES IDX 37 48 80 49 74 50 73 51 38 53 64 54 47 55 63 56 48 57 51 58
REMARK SMILES IDX 62 59 78 60 49 61 50 62 61 64 79 65 52 66 39 67 40 68 45 69
REMARK SMILES IDX 41 70 42 71 44 72 46 73 43 74 65 75 66 76 71 77 67 78 68 79
REMARK SMILES IDX 70 80 72 81 69 82 53 83 54 84 59 85 55 86 56 87 58 88 60 89
REMARK SMILES IDX 57 90
REMARK H PARENT 20 6 5 12 5 13 9 18 27 33 77 52 51 63
REMARK Flexibility Score: inf
ROOT
ATOM      1  C   UNL A   1      36.555  23.355  24.470  1.00  0.00     0.021 C 
ENDROOT
BRANCH   1   2
ATOM      2  C   UNL A   1      35.947  24.134  25.642  1.00  0.00     0.116 C 
BRANCH   2   3
ATOM      3  N   UNL A   1      34.935  23.397  26.408  1.00  0.00    -0.351 N 
ATOM      4  C   UNL A   1      34.208  22.242  26.201  1.00  0.00     0.281 C 
ATOM      5  O   UNL A   1      34.406  21.432  27.121  1.00  0.00    -0.268 OA
ATOM      6  H   UNL A   1      34.727  23.825  27.270  1.00  0.00     0.163 HD
BRANCH   4   7
ATOM      7  C   UNL A   1      32.961  22.023  25.130  1.00  0.00     0.172 C 
ATOM      8  C   UNL A   1      32.312  22.861  23.972  1.00  0.00     0.090 C 
BRANCH   7   9
ATOM      9  C   UNL A   1      33.474  20.757  24.319  1.00  0.00     0.075 C 
ATOM     10  C   UNL A   1      32.478  19.556  24.320  1.00  0.00     0.011 C 
ENDBRANCH   7   9
BRANCH   7  11
ATOM     11  N   UNL A   1      31.798  21.781  25.989  1.00  0.00    -0.326 N 
ATOM     12  H   UNL A   1      32.000  20.968  26.571  1.00  0.00     0.347 HD
ATOM     13  H   UNL A   1      31.006  21.647  25.361  1.00  0.00     0.347 HD
BRANCH  11  14
ATOM     14  C   UNL A   1      31.424  22.907  26.886  1.00  0.00     0.363 C 
BRANCH  14  15
ATOM     15  C   UNL A   1      30.019  23.621  26.946  1.00  0.00     0.279 C 
ATOM     16  O   UNL A   1      29.198  23.100  27.731  1.00  0.00    -0.268 OA
ATOM     17  N   UNL A   1      29.549  24.816  26.441  1.00  0.00    -0.319 N 
ATOM     18  H   UNL A   1      28.689  25.038  26.865  1.00  0.00     0.170 HD
BRANCH  17  19
ATOM     19  C   UNL A   1      29.899  25.835  25.508  1.00  0.00     0.077 A 
ATOM     20  C   UNL A   1      29.017  26.035  24.438  1.00  0.00     0.030 A 
ATOM     21  C   UNL A   1      31.114  26.541  25.428  1.00  0.00     0.147 A 
ATOM     22  C   UNL A   1      29.214  27.082  23.517  1.00  0.00     0.018 A 
ATOM     23  C   UNL A   1      31.311  27.602  24.541  1.00  0.00     0.057 A 
ATOM     24  F   UNL A   1      32.188  26.220  26.152  1.00  0.00    -0.205 F 
ATOM     25  C   UNL A   1      30.331  27.904  23.618  1.00  0.00     0.021 A 
ATOM     26  Br  UNL A   1      30.530  29.407  22.496  1.00  0.00    -0.051 Br
ENDBRANCH  17  19
ENDBRANCH  14  15
ENDBRANCH  11  14
ENDBRANCH   7  11
ENDBRANCH   4   7
ENDBRANCH   2   3
ENDBRANCH   1   2
BRANCH   1  27
ATOM     27  C   UNL A   1      37.518  22.245  24.914  1.00  0.00     0.002 C 
BRANCH  27  28
ATOM     28  C   UNL A   1      37.055  20.800  24.681  1.00  0.00     0.002 C 
BRANCH  28  29
ATOM     29  C   UNL A   1      38.081  19.702  24.970  1.00  0.00     0.021 C 
BRANCH  29  30
ATOM     30  C   UNL A   1      39.319  20.147  25.746  1.00  0.00     0.116 C 
BRANCH  30  31
ATOM     31  N   UNL A   1      40.310  19.089  25.876  1.00  0.00    -0.352 N 
ATOM     32  C   UNL A   1      41.658  19.159  26.137  1.00  0.00     0.251 C 
ATOM     33  H   UNL A   1      39.959  18.177  25.758  1.00  0.00     0.163 HD
ATOM     34  O   UNL A   1      42.356  18.163  26.036  1.00  0.00    -0.269 OA
BRANCH  32  35
ATOM     35  C   UNL A   1      42.267  20.451  26.521  1.00  0.00     0.039 A 
ATOM     36  C   UNL A   1      42.890  21.219  25.533  1.00  0.00     0.014 A 
ATOM     37  C   UNL A   1      42.231  20.897  27.843  1.00  0.00     0.014 A 
ATOM     38  C   UNL A   1      43.410  22.473  25.860  1.00  0.00     0.010 A 
ATOM     39  C   UNL A   1      42.683  22.176  28.153  1.00  0.00     0.010 A 
ATOM     40  C   UNL A   1      43.270  22.979  27.163  1.00  0.00    -0.014 A 
BRANCH  40  41
ATOM     41  C   UNL A   1      43.696  24.360  27.498  1.00  0.00     0.031 A 
ATOM     42  C   UNL A   1      42.681  25.403  27.865  1.00  0.00     0.074 A 
ATOM     43  C   UNL A   1      44.997  24.690  27.394  1.00  0.00     0.049 A 
ATOM     44  N   UNL A   1      42.857  26.675  28.119  1.00  0.00    -0.248 NA
ATOM     45  C   UNL A   1      41.279  24.965  27.930  1.00  0.00     0.031 C 
ATOM     46  C   UNL A   1      46.068  23.777  26.990  1.00  0.00     0.029 A 
ATOM     47  N   UNL A   1      45.637  25.886  27.597  1.00  0.00    -0.354 N 
ATOM     48  C   UNL A   1      41.592  27.189  28.369  1.00  0.00     0.074 A 
ATOM     49  C   UNL A   1      40.651  26.105  28.175  1.00  0.00     0.031 C 
ATOM     50  C   UNL A   1      47.234  24.443  26.987  1.00  0.00     0.029 A 
ATOM     51  C   UNL A   1      46.987  25.835  27.346  1.00  0.00     0.049 A 
ATOM     52  H   UNL A   1      45.174  26.701  27.895  1.00  0.00     0.167 HD
ATOM     53  C   UNL A   1      41.248  28.443  28.748  1.00  0.00     0.037 A 
ATOM     54  C   UNL A   1      47.919  26.805  27.382  1.00  0.00     0.037 A 
ATOM     55  C   UNL A   1      42.190  29.517  28.935  1.00  0.00     0.049 A 
ATOM     56  C   UNL A   1      47.514  28.196  27.778  1.00  0.00     0.074 A 
ATOM     57  C   UNL A   1      41.953  30.808  29.369  1.00  0.00     0.029 A 
ATOM     58  N   UNL A   1      43.552  29.425  28.682  1.00  0.00    -0.354 N 
ATOM     59  N   UNL A   1      46.325  28.651  28.091  1.00  0.00    -0.248 NA
ATOM     60  C   UNL A   1      48.579  29.207  27.832  1.00  0.00     0.031 C 
ATOM     61  C   UNL A   1      43.160  31.515  29.325  1.00  0.00     0.029 A 
ATOM     62  C   UNL A   1      44.162  30.647  28.918  1.00  0.00     0.049 A 
ATOM     63  H   UNL A   1      44.016  28.612  28.380  1.00  0.00     0.167 HD
ATOM     64  C   UNL A   1      46.498  29.996  28.391  1.00  0.00     0.074 A 
ATOM     65  C   UNL A   1      47.912  30.276  28.245  1.00  0.00     0.031 C 
ATOM     66  C   UNL A   1      45.570  30.914  28.754  1.00  0.00     0.037 A 
BRANCH  53  67
ATOM     67  C   UNL A   1      39.788  28.715  28.979  1.00  0.00     0.057 A 
ATOM     68  C   UNL A   1      38.948  29.163  27.948  1.00  0.00     0.134 A 
ATOM     69  C   UNL A   1      39.211  28.523  30.240  1.00  0.00     0.134 A 
ATOM     70  F   UNL A   1      39.436  29.377  26.717  1.00  0.00    -0.206 F 
ATOM     71  C   UNL A   1      37.599  29.448  28.174  1.00  0.00     0.040 A 
ATOM     72  C   UNL A   1      37.857  28.774  30.471  1.00  0.00     0.040 A 
ATOM     73  F   UNL A   1      39.953  28.089  31.270  1.00  0.00    -0.206 F 
ATOM     74  C   UNL A   1      37.050  29.250  29.439  1.00  0.00     0.006 A 
ENDBRANCH  53  67
BRANCH  54  75
ATOM     75  C   UNL A   1      49.326  26.482  27.034  1.00  0.00     0.057 A 
ATOM     76  C   UNL A   1      49.799  26.617  25.724  1.00  0.00     0.134 A 
ATOM     77  C   UNL A   1      50.238  26.059  28.010  1.00  0.00     0.134 A 
ATOM     78  F   UNL A   1      48.971  27.003  24.744  1.00  0.00    -0.206 F 
ATOM     79  C   UNL A   1      51.126  26.334  25.394  1.00  0.00     0.040 A 
ATOM     80  C   UNL A   1      51.573  25.798  27.699  1.00  0.00     0.040 A 
ATOM     81  F   UNL A   1      49.849  25.921  29.286  1.00  0.00    -0.206 F 
ATOM     82  C   UNL A   1      52.019  25.930  26.385  1.00  0.00     0.006 A 
ENDBRANCH  54  75
BRANCH  66  83
ATOM     83  C   UNL A   1      46.056  32.309  29.027  1.00  0.00     0.057 A 
ATOM     84  C   UNL A   1      46.132  33.275  28.015  1.00  0.00     0.134 A 
ATOM     85  C   UNL A   1      46.411  32.702  30.324  1.00  0.00     0.134 A 
ATOM     86  F   UNL A   1      45.821  32.960  26.749  1.00  0.00    -0.206 F 
ATOM     87  C   UNL A   1      46.566  34.576  28.280  1.00  0.00     0.040 A 
ATOM     88  C   UNL A   1      46.818  34.007  30.606  1.00  0.00     0.040 A 
ATOM     89  F   UNL A   1      46.353  31.829  31.341  1.00  0.00    -0.206 F 
ATOM     90  C   UNL A   1      46.900  34.947  29.580  1.00  0.00     0.006 A 
ENDBRANCH  66  83
ENDBRANCH  40  41
ENDBRANCH  32  35
ENDBRANCH  30  31
ENDBRANCH  29  30
ENDBRANCH  28  29
ENDBRANCH  27  28
ENDBRANCH   1  27
TORSDOF 18
ENDMDL
