MODEL 1
REMARK VINA RESULT:     -11.4      0.000      0.000
REMARK SMILES CC(C)[C@H]([NH2+]C[C@H]1CC[C@@H](C(=O)NCCCCCCNC(=O)c2ccc(-c3c4nc(c(-c5c(F)cccc5F)c5ccc([nH]5)c(-c5c(F)cccc5F)c5nc(c(-c6c(F)cccc6F)c6ccc3[nH]6)C=C5)C=C4)cc2)CC1)c1ccccc1
REMARK SMILES IDX 15 1 14 2 13 3 11 4 12 5 10 7 7 8 8 9 78 10 9 11 77 12 6 13
REMARK SMILES IDX 5 14 4 17 2 18 1 19 3 20 79 21 80 22 84 23 81 24 83 25 82 26
REMARK SMILES IDX 16 27 17 28 18 29 19 30 20 31 21 32 22 34 23 35 24 36 76 37
REMARK SMILES IDX 25 38 75 39 26 40 27 41 28 42 69 43 29 44 74 45 68 46 70 47
REMARK SMILES IDX 30 48 73 49 67 50 66 51 31 53 57 54 40 55 56 56 41 57 44 58
REMARK SMILES IDX 55 59 71 60 42 61 43 62 54 64 72 65 45 66 32 67 33 68 38 69
REMARK SMILES IDX 34 70 35 71 37 72 39 73 36 74 58 75 59 76 64 77 60 78 61 79
REMARK SMILES IDX 63 80 65 81 62 82 46 83 47 84 52 85 48 86 49 87 51 88 53 89
REMARK SMILES IDX 50 90
REMARK H PARENT 13 6 5 15 5 16 20 33 70 52 44 63
REMARK Flexibility Score: inf
ROOT
ATOM      1  C   UNL A   1      30.973  29.525  24.286  1.00  0.00     0.021 C 
ENDROOT
BRANCH   1   2
ATOM      2  C   UNL A   1      31.714  28.919  23.093  1.00  0.00     0.116 C 
BRANCH   2   3
ATOM      3  N   UNL A   1      32.623  27.853  23.459  1.00  0.00    -0.356 N 
ATOM      4  C   UNL A   1      32.446  26.571  23.861  1.00  0.00     0.223 C 
ATOM      5  O   UNL A   1      33.488  25.915  24.004  1.00  0.00    -0.275 OA
ATOM      6  H   UNL A   1      33.570  28.115  23.404  1.00  0.00     0.163 HD
BRANCH   4   7
ATOM      7  C   UNL A   1      31.100  25.884  24.142  1.00  0.00     0.078 C 
ATOM      8  C   UNL A   1      30.822  23.121  25.316  1.00  0.00     0.044 C 
ATOM      9  C   UNL A   1      31.102  24.347  26.209  1.00  0.00     0.010 C 
ATOM     10  C   UNL A   1      31.104  23.326  23.816  1.00  0.00     0.010 C 
ATOM     11  C   UNL A   1      30.722  25.688  25.607  1.00  0.00     0.014 C 
ATOM     12  C   UNL A   1      30.745  24.693  23.259  1.00  0.00     0.014 C 
BRANCH   8  13
ATOM     13  C   UNL A   1      31.633  21.927  25.878  1.00  0.00     0.264 C 
BRANCH  13  14
ATOM     14  N   UNL A   1      32.133  21.042  24.827  1.00  0.00    -0.340 N 
ATOM     15  H   UNL A   1      31.391  20.385  24.585  1.00  0.00     0.346 HD
ATOM     16  H   UNL A   1      32.403  21.643  24.049  1.00  0.00     0.346 HD
BRANCH  14  17
ATOM     17  C   UNL A   1      33.335  20.267  25.195  1.00  0.00     0.216 C 
BRANCH  17  18
ATOM     18  C   UNL A   1      33.285  18.826  24.559  1.00  0.00     0.046 C 
ATOM     19  C   UNL A   1      32.863  17.791  25.608  1.00  0.00     0.014 C 
ATOM     20  C   UNL A   1      32.393  18.702  23.319  1.00  0.00     0.014 C 
ENDBRANCH  17  18
BRANCH  17  21
ATOM     21  C   UNL A   1      34.621  20.994  24.806  1.00  0.00     0.009 A 
ATOM     22  C   UNL A   1      34.586  22.240  24.148  1.00  0.00     0.010 A 
ATOM     23  C   UNL A   1      35.865  20.408  25.028  1.00  0.00     0.010 A 
ATOM     24  C   UNL A   1      35.762  22.889  23.757  1.00  0.00     0.001 A 
ATOM     25  C   UNL A   1      37.020  21.089  24.686  1.00  0.00     0.001 A 
ATOM     26  C   UNL A   1      36.990  22.320  24.048  1.00  0.00     0.000 A 
ENDBRANCH  17  21
ENDBRANCH  14  17
ENDBRANCH  13  14
ENDBRANCH   8  13
ENDBRANCH   4   7
ENDBRANCH   2   3
ENDBRANCH   1   2
BRANCH   1  27
ATOM     27  C   UNL A   1      31.836  29.843  25.515  1.00  0.00     0.002 C 
BRANCH  27  28
ATOM     28  C   UNL A   1      31.658  28.926  26.736  1.00  0.00     0.002 C 
BRANCH  28  29
ATOM     29  C   UNL A   1      32.932  28.247  27.270  1.00  0.00     0.021 C 
BRANCH  29  30
ATOM     30  C   UNL A   1      34.244  29.031  27.063  1.00  0.00     0.116 C 
BRANCH  30  31
ATOM     31  N   UNL A   1      34.470  30.047  28.094  1.00  0.00    -0.352 N 
ATOM     32  C   UNL A   1      35.494  30.519  28.871  1.00  0.00     0.251 C 
ATOM     33  H   UNL A   1      33.636  30.534  28.287  1.00  0.00     0.163 HD
ATOM     34  O   UNL A   1      35.186  31.424  29.664  1.00  0.00    -0.269 OA
BRANCH  32  35
ATOM     35  C   UNL A   1      36.911  30.050  28.914  1.00  0.00     0.039 A 
ATOM     36  C   UNL A   1      37.616  30.080  27.698  1.00  0.00     0.014 A 
ATOM     37  C   UNL A   1      37.558  29.483  30.010  1.00  0.00     0.014 A 
ATOM     38  C   UNL A   1      38.936  29.604  27.588  1.00  0.00     0.010 A 
ATOM     39  C   UNL A   1      38.921  29.089  29.920  1.00  0.00     0.010 A 
ATOM     40  C   UNL A   1      39.638  29.131  28.707  1.00  0.00    -0.014 A 
BRANCH  40  41
ATOM     41  C   UNL A   1      41.072  28.670  28.558  1.00  0.00     0.031 A 
ATOM     42  C   UNL A   1      41.418  27.240  28.185  1.00  0.00     0.074 A 
ATOM     43  C   UNL A   1      42.107  29.527  28.720  1.00  0.00     0.049 A 
ATOM     44  N   UNL A   1      42.597  26.697  27.967  1.00  0.00    -0.248 NA
ATOM     45  C   UNL A   1      40.305  26.293  28.059  1.00  0.00     0.031 C 
ATOM     46  C   UNL A   1      41.992  30.930  29.120  1.00  0.00     0.029 A 
ATOM     47  N   UNL A   1      43.469  29.349  28.557  1.00  0.00    -0.354 N 
ATOM     48  C   UNL A   1      42.364  25.351  27.703  1.00  0.00     0.074 A 
ATOM     49  C   UNL A   1      40.937  25.149  27.838  1.00  0.00     0.031 C 
ATOM     50  C   UNL A   1      43.213  31.492  29.128  1.00  0.00     0.029 A 
ATOM     51  C   UNL A   1      44.215  30.485  28.778  1.00  0.00     0.049 A 
ATOM     52  H   UNL A   1      43.869  28.486  28.305  1.00  0.00     0.167 HD
ATOM     53  C   UNL A   1      43.237  24.370  27.356  1.00  0.00     0.037 A 
ATOM     54  C   UNL A   1      45.544  30.712  28.717  1.00  0.00     0.037 A 
ATOM     55  C   UNL A   1      44.657  24.540  27.169  1.00  0.00     0.049 A 
ATOM     56  C   UNL A   1      46.497  29.610  28.331  1.00  0.00     0.074 A 
ATOM     57  C   UNL A   1      45.582  23.604  26.732  1.00  0.00     0.029 A 
ATOM     58  N   UNL A   1      45.360  25.706  27.412  1.00  0.00    -0.354 N 
ATOM     59  N   UNL A   1      46.239  28.369  28.005  1.00  0.00    -0.248 NA
ATOM     60  C   UNL A   1      47.933  29.945  28.301  1.00  0.00     0.031 C 
ATOM     61  C   UNL A   1      46.854  24.187  26.768  1.00  0.00     0.029 A 
ATOM     62  C   UNL A   1      46.712  25.505  27.169  1.00  0.00     0.049 A 
ATOM     63  H   UNL A   1      44.960  26.555  27.714  1.00  0.00     0.167 HD
ATOM     64  C   UNL A   1      47.467  27.787  27.708  1.00  0.00     0.074 A 
ATOM     65  C   UNL A   1      48.473  28.812  27.877  1.00  0.00     0.031 C 
ATOM     66  C   UNL A   1      47.728  26.513  27.328  1.00  0.00     0.037 A 
BRANCH  53  67
ATOM     67  C   UNL A   1      42.676  22.989  27.147  1.00  0.00     0.057 A 
ATOM     68  C   UNL A   1      42.315  22.164  28.220  1.00  0.00     0.134 A 
ATOM     69  C   UNL A   1      42.449  22.500  25.852  1.00  0.00     0.134 A 
ATOM     70  F   UNL A   1      42.505  22.571  29.484  1.00  0.00    -0.206 F 
ATOM     71  C   UNL A   1      41.782  20.889  28.015  1.00  0.00     0.040 A 
ATOM     72  C   UNL A   1      41.887  21.240  25.636  1.00  0.00     0.040 A 
ATOM     73  F   UNL A   1      42.752  23.244  24.779  1.00  0.00    -0.206 F 
ATOM     74  C   UNL A   1      41.562  20.428  26.719  1.00  0.00     0.006 A 
ENDBRANCH  53  67
BRANCH  54  75
ATOM     75  C   UNL A   1      46.082  32.065  29.033  1.00  0.00     0.057 A 
ATOM     76  C   UNL A   1      46.247  33.035  28.035  1.00  0.00     0.134 A 
ATOM     77  C   UNL A   1      46.478  32.405  30.332  1.00  0.00     0.134 A 
ATOM     78  F   UNL A   1      45.920  32.759  26.765  1.00  0.00    -0.206 F 
ATOM     79  C   UNL A   1      46.799  34.287  28.316  1.00  0.00     0.040 A 
ATOM     80  C   UNL A   1      47.004  33.663  30.631  1.00  0.00     0.040 A 
ATOM     81  F   UNL A   1      46.353  31.520  31.332  1.00  0.00    -0.206 F 
ATOM     82  C   UNL A   1      47.174  34.606  29.620  1.00  0.00     0.006 A 
ENDBRANCH  54  75
BRANCH  66  83
ATOM     83  C   UNL A   1      49.155  26.143  27.029  1.00  0.00     0.057 A 
ATOM     84  C   UNL A   1      49.719  26.317  25.758  1.00  0.00     0.134 A 
ATOM     85  C   UNL A   1      49.993  25.649  28.038  1.00  0.00     0.134 A 
ATOM     86  F   UNL A   1      48.975  26.775  24.740  1.00  0.00    -0.206 F 
ATOM     87  C   UNL A   1      51.055  25.995  25.498  1.00  0.00     0.040 A 
ATOM     88  C   UNL A   1      51.336  25.348  27.798  1.00  0.00     0.040 A 
ATOM     89  F   UNL A   1      49.525  25.465  29.282  1.00  0.00    -0.206 F 
ATOM     90  C   UNL A   1      51.868  25.516  26.523  1.00  0.00     0.006 A 
ENDBRANCH  66  83
ENDBRANCH  40  41
ENDBRANCH  32  35
ENDBRANCH  30  31
ENDBRANCH  29  30
ENDBRANCH  28  29
ENDBRANCH  27  28
ENDBRANCH   1  27
TORSDOF 18
ENDMDL
MODEL 2
REMARK VINA RESULT:     -11.2      1.493      2.512
REMARK SMILES CC(C)[C@H]([NH2+]C[C@H]1CC[C@@H](C(=O)NCCCCCCNC(=O)c2ccc(-c3c4nc(c(-c5c(F)cccc5F)c5ccc([nH]5)c(-c5c(F)cccc5F)c5nc(c(-c6c(F)cccc6F)c6ccc3[nH]6)C=C5)C=C4)cc2)CC1)c1ccccc1
REMARK SMILES IDX 15 1 14 2 13 3 11 4 12 5 10 7 7 8 8 9 78 10 9 11 77 12 6 13
REMARK SMILES IDX 5 14 4 17 2 18 1 19 3 20 79 21 80 22 84 23 81 24 83 25 82 26
REMARK SMILES IDX 16 27 17 28 18 29 19 30 20 31 21 32 22 34 23 35 24 36 76 37
REMARK SMILES IDX 25 38 75 39 26 40 27 41 28 42 69 43 29 44 74 45 68 46 70 47
REMARK SMILES IDX 30 48 73 49 67 50 66 51 31 53 57 54 40 55 56 56 41 57 44 58
REMARK SMILES IDX 55 59 71 60 42 61 43 62 54 64 72 65 45 66 32 67 33 68 38 69
REMARK SMILES IDX 34 70 35 71 37 72 39 73 36 74 58 75 59 76 64 77 60 78 61 79
REMARK SMILES IDX 63 80 65 81 62 82 46 83 47 84 52 85 48 86 49 87 51 88 53 89
REMARK SMILES IDX 50 90
REMARK H PARENT 13 6 5 15 5 16 20 33 70 52 44 63
REMARK Flexibility Score: inf
ROOT
ATOM      1  C   UNL A   1      32.693  27.890  22.914  1.00  0.00     0.021 C 
ENDROOT
BRANCH   1   2
ATOM      2  C   UNL A   1      33.651  26.765  22.518  1.00  0.00     0.116 C 
BRANCH   2   3
ATOM      3  N   UNL A   1      33.029  25.458  22.499  1.00  0.00    -0.356 N 
ATOM      4  C   UNL A   1      32.486  24.667  23.456  1.00  0.00     0.223 C 
ATOM      5  O   UNL A   1      31.956  23.626  23.042  1.00  0.00    -0.275 OA
ATOM      6  H   UNL A   1      32.993  25.058  21.600  1.00  0.00     0.163 HD
BRANCH   4   7
ATOM      7  C   UNL A   1      32.469  24.950  24.967  1.00  0.00     0.078 C 
ATOM      8  C   UNL A   1      33.400  22.995  27.065  1.00  0.00     0.044 C 
ATOM      9  C   UNL A   1      34.403  23.857  26.273  1.00  0.00     0.010 C 
ATOM     10  C   UNL A   1      31.993  22.892  26.446  1.00  0.00     0.010 C 
ATOM     11  C   UNL A   1      33.824  25.115  25.648  1.00  0.00     0.014 C 
ATOM     12  C   UNL A   1      31.465  24.160  25.798  1.00  0.00     0.014 C 
BRANCH   8  13
ATOM     13  C   UNL A   1      34.027  21.591  27.259  1.00  0.00     0.264 C 
BRANCH  13  14
ATOM     14  N   UNL A   1      35.296  21.440  26.549  1.00  0.00    -0.340 N 
ATOM     15  H   UNL A   1      35.886  22.238  26.779  1.00  0.00     0.346 HD
ATOM     16  H   UNL A   1      35.692  20.550  26.851  1.00  0.00     0.346 HD
BRANCH  14  17
ATOM     17  C   UNL A   1      35.173  21.365  25.079  1.00  0.00     0.216 C 
BRANCH  17  18
ATOM     18  C   UNL A   1      36.588  21.471  24.395  1.00  0.00     0.046 C 
ATOM     19  C   UNL A   1      36.654  22.706  23.488  1.00  0.00     0.014 C 
ATOM     20  C   UNL A   1      37.773  21.479  25.367  1.00  0.00     0.014 C 
ENDBRANCH  17  18
BRANCH  17  21
ATOM     21  C   UNL A   1      34.443  20.098  24.634  1.00  0.00     0.009 A 
ATOM     22  C   UNL A   1      35.085  18.844  24.643  1.00  0.00     0.010 A 
ATOM     23  C   UNL A   1      33.143  20.163  24.137  1.00  0.00     0.010 A 
ATOM     24  C   UNL A   1      34.431  17.689  24.199  1.00  0.00     0.001 A 
ATOM     25  C   UNL A   1      32.491  19.004  23.756  1.00  0.00     0.001 A 
ATOM     26  C   UNL A   1      33.116  17.766  23.773  1.00  0.00     0.000 A 
ENDBRANCH  17  21
ENDBRANCH  14  17
ENDBRANCH  13  14
ENDBRANCH   8  13
ENDBRANCH   4   7
ENDBRANCH   2   3
ENDBRANCH   1   2
BRANCH   1  27
ATOM     27  C   UNL A   1      32.919  28.499  24.305  1.00  0.00     0.002 C 
BRANCH  27  28
ATOM     28  C   UNL A   1      31.689  28.596  25.222  1.00  0.00     0.002 C 
BRANCH  28  29
ATOM     29  C   UNL A   1      31.923  28.282  26.710  1.00  0.00     0.021 C 
BRANCH  29  30
ATOM     30  C   UNL A   1      33.370  28.466  27.213  1.00  0.00     0.116 C 
BRANCH  30  31
ATOM     31  N   UNL A   1      33.634  29.820  27.706  1.00  0.00    -0.352 N 
ATOM     32  C   UNL A   1      34.671  30.542  28.232  1.00  0.00     0.251 C 
ATOM     33  H   UNL A   1      32.824  30.376  27.639  1.00  0.00     0.163 HD
ATOM     34  O   UNL A   1      34.400  31.715  28.542  1.00  0.00    -0.269 OA
BRANCH  32  35
ATOM     35  C   UNL A   1      36.062  30.082  28.523  1.00  0.00     0.039 A 
ATOM     36  C   UNL A   1      37.009  30.273  27.501  1.00  0.00     0.014 A 
ATOM     37  C   UNL A   1      36.480  29.386  29.655  1.00  0.00     0.014 A 
ATOM     38  C   UNL A   1      38.337  29.825  27.621  1.00  0.00     0.010 A 
ATOM     39  C   UNL A   1      37.844  29.017  29.814  1.00  0.00     0.010 A 
ATOM     40  C   UNL A   1      38.801  29.219  28.798  1.00  0.00    -0.014 A 
BRANCH  40  41
ATOM     41  C   UNL A   1      40.249  28.792  28.907  1.00  0.00     0.031 A 
ATOM     42  C   UNL A   1      40.705  27.399  28.514  1.00  0.00     0.074 A 
ATOM     43  C   UNL A   1      41.206  29.651  29.331  1.00  0.00     0.049 A 
ATOM     44  N   UNL A   1      41.918  26.891  28.498  1.00  0.00    -0.248 NA
ATOM     45  C   UNL A   1      39.666  26.446  28.104  1.00  0.00     0.031 C 
ATOM     46  C   UNL A   1      40.973  31.019  29.794  1.00  0.00     0.029 A 
ATOM     47  N   UNL A   1      42.578  29.506  29.430  1.00  0.00    -0.354 N 
ATOM     48  C   UNL A   1      41.782  25.565  28.102  1.00  0.00     0.074 A 
ATOM     49  C   UNL A   1      40.363  25.332  27.936  1.00  0.00     0.031 C 
ATOM     50  C   UNL A   1      42.151  31.598  30.084  1.00  0.00     0.029 A 
ATOM     51  C   UNL A   1      43.231  30.635  29.873  1.00  0.00     0.049 A 
ATOM     52  H   UNL A   1      43.046  28.670  29.205  1.00  0.00     0.167 HD
ATOM     53  C   UNL A   1      42.735  24.625  27.869  1.00  0.00     0.037 A 
ATOM     54  C   UNL A   1      44.539  30.885  30.094  1.00  0.00     0.037 A 
ATOM     55  C   UNL A   1      44.158  24.830  27.981  1.00  0.00     0.049 A 
ATOM     56  C   UNL A   1      45.582  29.830  29.831  1.00  0.00     0.074 A 
ATOM     57  C   UNL A   1      45.179  23.943  27.675  1.00  0.00     0.029 A 
ATOM     58  N   UNL A   1      44.764  25.986  28.439  1.00  0.00    -0.354 N 
ATOM     59  N   UNL A   1      45.430  28.612  29.376  1.00  0.00    -0.248 NA
ATOM     60  C   UNL A   1      46.985  30.188  30.111  1.00  0.00     0.031 C 
ATOM     61  C   UNL A   1      46.400  24.541  28.004  1.00  0.00     0.029 A 
ATOM     62  C   UNL A   1      46.143  25.823  28.457  1.00  0.00     0.049 A 
ATOM     63  H   UNL A   1      44.288  26.804  28.712  1.00  0.00     0.167 HD
ATOM     64  C   UNL A   1      46.709  28.072  29.291  1.00  0.00     0.074 A 
ATOM     65  C   UNL A   1      47.631  29.097  29.726  1.00  0.00     0.031 C 
ATOM     66  C   UNL A   1      47.078  26.832  28.884  1.00  0.00     0.037 A 
BRANCH  53  67
ATOM     67  C   UNL A   1      42.268  23.254  27.459  1.00  0.00     0.057 A 
ATOM     68  C   UNL A   1      41.939  22.269  28.399  1.00  0.00     0.134 A 
ATOM     69  C   UNL A   1      42.096  22.936  26.104  1.00  0.00     0.134 A 
ATOM     70  F   UNL A   1      42.080  22.509  29.712  1.00  0.00    -0.206 F 
ATOM     71  C   UNL A   1      41.493  21.005  28.008  1.00  0.00     0.040 A 
ATOM     72  C   UNL A   1      41.620  21.685  25.703  1.00  0.00     0.040 A 
ATOM     73  F   UNL A   1      42.371  23.838  25.151  1.00  0.00    -0.206 F 
ATOM     74  C   UNL A   1      41.328  20.714  26.656  1.00  0.00     0.006 A 
ENDBRANCH  53  67
BRANCH  54  75
ATOM     75  C   UNL A   1      44.964  32.220  30.602  1.00  0.00     0.057 A 
ATOM     76  C   UNL A   1      45.096  32.469  31.975  1.00  0.00     0.134 A 
ATOM     77  C   UNL A   1      45.212  33.286  29.729  1.00  0.00     0.134 A 
ATOM     78  F   UNL A   1      44.839  31.500  32.865  1.00  0.00    -0.206 F 
ATOM     79  C   UNL A   1      45.444  33.732  32.460  1.00  0.00     0.040 A 
ATOM     80  C   UNL A   1      45.588  34.545  30.199  1.00  0.00     0.040 A 
ATOM     81  F   UNL A   1      45.097  33.116  28.404  1.00  0.00    -0.206 F 
ATOM     82  C   UNL A   1      45.697  34.774  31.569  1.00  0.00     0.006 A 
ENDBRANCH  54  75
BRANCH  66  83
ATOM     83  C   UNL A   1      48.546  26.508  28.851  1.00  0.00     0.057 A 
ATOM     84  C   UNL A   1      49.348  26.796  27.738  1.00  0.00     0.134 A 
ATOM     85  C   UNL A   1      49.179  25.940  29.966  1.00  0.00     0.134 A 
ATOM     86  F   UNL A   1      48.810  27.330  26.632  1.00  0.00    -0.206 F 
ATOM     87  C   UNL A   1      50.718  26.514  27.729  1.00  0.00     0.040 A 
ATOM     88  C   UNL A   1      50.551  25.677  29.978  1.00  0.00     0.040 A 
ATOM     89  F   UNL A   1      48.476  25.645  31.070  1.00  0.00    -0.206 F 
ATOM     90  C   UNL A   1      51.323  25.960  28.855  1.00  0.00     0.006 A 
ENDBRANCH  66  83
ENDBRANCH  40  41
ENDBRANCH  32  35
ENDBRANCH  30  31
ENDBRANCH  29  30
ENDBRANCH  28  29
ENDBRANCH  27  28
ENDBRANCH   1  27
TORSDOF 18
ENDMDL
MODEL 3
REMARK VINA RESULT:     -11.2      4.931      9.968
REMARK SMILES CC(C)[C@H]([NH2+]C[C@H]1CC[C@@H](C(=O)NCCCCCCNC(=O)c2ccc(-c3c4nc(c(-c5c(F)cccc5F)c5ccc([nH]5)c(-c5c(F)cccc5F)c5nc(c(-c6c(F)cccc6F)c6ccc3[nH]6)C=C5)C=C4)cc2)CC1)c1ccccc1
REMARK SMILES IDX 15 1 14 2 13 3 11 4 12 5 10 7 7 8 8 9 78 10 9 11 77 12 6 13
REMARK SMILES IDX 5 14 4 17 2 18 1 19 3 20 79 21 80 22 84 23 81 24 83 25 82 26
REMARK SMILES IDX 16 27 17 28 18 29 19 30 20 31 21 32 22 34 23 35 24 36 76 37
REMARK SMILES IDX 25 38 75 39 26 40 27 41 28 42 69 43 29 44 74 45 68 46 70 47
REMARK SMILES IDX 30 48 73 49 67 50 66 51 31 53 57 54 40 55 56 56 41 57 44 58
REMARK SMILES IDX 55 59 71 60 42 61 43 62 54 64 72 65 45 66 32 67 33 68 38 69
REMARK SMILES IDX 34 70 35 71 37 72 39 73 36 74 58 75 59 76 64 77 60 78 61 79
REMARK SMILES IDX 63 80 65 81 62 82 46 83 47 84 52 85 48 86 49 87 51 88 53 89
REMARK SMILES IDX 50 90
REMARK H PARENT 13 6 5 15 5 16 20 33 70 52 44 63
REMARK Flexibility Score: inf
ROOT
ATOM      1  C   UNL A   1      41.007  21.472  27.501  1.00  0.00     0.021 C 
ENDROOT
BRANCH   1   2
ATOM      2  C   UNL A   1      40.035  22.189  26.562  1.00  0.00     0.116 C 
BRANCH   2   3
ATOM      3  N   UNL A   1      39.001  21.326  26.033  1.00  0.00    -0.356 N 
ATOM      4  C   UNL A   1      37.894  21.545  25.284  1.00  0.00     0.223 C 
ATOM      5  O   UNL A   1      37.280  20.525  24.940  1.00  0.00    -0.275 OA
ATOM      6  H   UNL A   1      39.130  20.378  26.268  1.00  0.00     0.163 HD
BRANCH   4   7
ATOM      7  C   UNL A   1      37.356  22.913  24.834  1.00  0.00     0.078 C 
ATOM      8  C   UNL A   1      34.429  23.629  24.725  1.00  0.00     0.044 C 
ATOM      9  C   UNL A   1      35.213  23.664  26.052  1.00  0.00     0.010 C 
ATOM     10  C   UNL A   1      35.099  22.832  23.590  1.00  0.00     0.010 C 
ATOM     11  C   UNL A   1      36.720  23.787  25.912  1.00  0.00     0.014 C 
ATOM     12  C   UNL A   1      36.611  22.951  23.505  1.00  0.00     0.014 C 
BRANCH   8  13
ATOM     13  C   UNL A   1      33.009  23.086  25.025  1.00  0.00     0.264 C 
BRANCH  13  14
ATOM     14  N   UNL A   1      31.993  24.137  25.019  1.00  0.00    -0.340 N 
ATOM     15  H   UNL A   1      31.175  23.785  24.521  1.00  0.00     0.346 HD
ATOM     16  H   UNL A   1      31.801  24.359  25.995  1.00  0.00     0.346 HD
BRANCH  14  17
ATOM     17  C   UNL A   1      32.417  25.398  24.378  1.00  0.00     0.216 C 
BRANCH  17  18
ATOM     18  C   UNL A   1      31.444  25.779  23.199  1.00  0.00     0.046 C 
ATOM     19  C   UNL A   1      30.020  25.296  23.501  1.00  0.00     0.014 C 
ATOM     20  C   UNL A   1      31.421  27.268  22.840  1.00  0.00     0.014 C 
ENDBRANCH  17  18
BRANCH  17  21
ATOM     21  C   UNL A   1      32.526  26.540  25.388  1.00  0.00     0.009 A 
ATOM     22  C   UNL A   1      33.685  27.337  25.466  1.00  0.00     0.010 A 
ATOM     23  C   UNL A   1      31.508  26.777  26.309  1.00  0.00     0.010 A 
ATOM     24  C   UNL A   1      33.803  28.359  26.415  1.00  0.00     0.001 A 
ATOM     25  C   UNL A   1      31.616  27.827  27.203  1.00  0.00     0.001 A 
ATOM     26  C   UNL A   1      32.751  28.620  27.276  1.00  0.00     0.000 A 
ENDBRANCH  17  21
ENDBRANCH  14  17
ENDBRANCH  13  14
ENDBRANCH   8  13
ENDBRANCH   4   7
ENDBRANCH   2   3
ENDBRANCH   1   2
BRANCH   1  27
ATOM     27  C   UNL A   1      41.537  20.120  27.005  1.00  0.00     0.002 C 
BRANCH  27  28
ATOM     28  C   UNL A   1      42.624  20.163  25.919  1.00  0.00     0.002 C 
BRANCH  28  29
ATOM     29  C   UNL A   1      43.469  21.447  25.851  1.00  0.00     0.021 C 
BRANCH  29  30
ATOM     30  C   UNL A   1      43.218  22.348  24.624  1.00  0.00     0.116 C 
BRANCH  30  31
ATOM     31  N   UNL A   1      44.190  23.438  24.509  1.00  0.00    -0.352 N 
ATOM     32  C   UNL A   1      44.491  24.620  25.131  1.00  0.00     0.251 C 
ATOM     33  H   UNL A   1      44.810  23.272  23.763  1.00  0.00     0.163 HD
ATOM     34  O   UNL A   1      45.440  25.253  24.638  1.00  0.00    -0.269 OA
BRANCH  32  35
ATOM     35  C   UNL A   1      43.794  25.260  26.286  1.00  0.00     0.039 A 
ATOM     36  C   UNL A   1      44.217  26.557  26.630  1.00  0.00     0.014 A 
ATOM     37  C   UNL A   1      42.855  24.656  27.120  1.00  0.00     0.014 A 
ATOM     38  C   UNL A   1      43.689  27.244  27.739  1.00  0.00     0.010 A 
ATOM     39  C   UNL A   1      42.256  25.386  28.183  1.00  0.00     0.010 A 
ATOM     40  C   UNL A   1      42.665  26.692  28.522  1.00  0.00    -0.014 A 
BRANCH  40  41
ATOM     41  C   UNL A   1      42.090  27.481  29.679  1.00  0.00     0.031 A 
ATOM     42  C   UNL A   1      42.721  27.452  31.059  1.00  0.00     0.074 A 
ATOM     43  C   UNL A   1      41.004  28.274  29.519  1.00  0.00     0.049 A 
ATOM     44  N   UNL A   1      42.381  28.113  32.145  1.00  0.00    -0.248 NA
ATOM     45  C   UNL A   1      43.865  26.554  31.253  1.00  0.00     0.031 C 
ATOM     46  C   UNL A   1      40.227  28.410  28.287  1.00  0.00     0.029 A 
ATOM     47  N   UNL A   1      40.368  29.131  30.398  1.00  0.00    -0.354 N 
ATOM     48  C   UNL A   1      43.252  27.693  33.146  1.00  0.00     0.074 A 
ATOM     49  C   UNL A   1      44.102  26.684  32.551  1.00  0.00     0.031 C 
ATOM     50  C   UNL A   1      39.256  29.321  28.472  1.00  0.00     0.029 A 
ATOM     51  C   UNL A   1      39.303  29.810  29.849  1.00  0.00     0.049 A 
ATOM     52  H   UNL A   1      40.652  29.246  31.334  1.00  0.00     0.167 HD
ATOM     53  C   UNL A   1      43.364  28.113  34.433  1.00  0.00     0.037 A 
ATOM     54  C   UNL A   1      38.450  30.716  30.373  1.00  0.00     0.037 A 
ATOM     55  C   UNL A   1      42.567  29.145  35.049  1.00  0.00     0.049 A 
ATOM     56  C   UNL A   1      38.590  31.169  31.804  1.00  0.00     0.074 A 
ATOM     57  C   UNL A   1      42.690  29.677  36.324  1.00  0.00     0.029 A 
ATOM     58  N   UNL A   1      41.500  29.793  34.452  1.00  0.00    -0.354 N 
ATOM     59  N   UNL A   1      39.476  30.817  32.700  1.00  0.00    -0.248 NA
ATOM     60  C   UNL A   1      37.608  32.154  32.294  1.00  0.00     0.031 C 
ATOM     61  C   UNL A   1      41.660  30.604  36.519  1.00  0.00     0.029 A 
ATOM     62  C   UNL A   1      40.933  30.693  35.344  1.00  0.00     0.049 A 
ATOM     63  H   UNL A   1      41.187  29.637  33.531  1.00  0.00     0.167 HD
ATOM     64  C   UNL A   1      39.176  31.551  33.844  1.00  0.00     0.074 A 
ATOM     65  C   UNL A   1      38.036  32.381  33.528  1.00  0.00     0.031 C 
ATOM     66  C   UNL A   1      39.800  31.531  35.047  1.00  0.00     0.037 A 
BRANCH  53  67
ATOM     67  C   UNL A   1      44.409  27.449  35.288  1.00  0.00     0.057 A 
ATOM     68  C   UNL A   1      45.716  27.944  35.382  1.00  0.00     0.134 A 
ATOM     69  C   UNL A   1      44.086  26.328  36.066  1.00  0.00     0.134 A 
ATOM     70  F   UNL A   1      46.092  29.014  34.665  1.00  0.00    -0.206 F 
ATOM     71  C   UNL A   1      46.675  27.328  36.190  1.00  0.00     0.040 A 
ATOM     72  C   UNL A   1      45.028  25.723  36.901  1.00  0.00     0.040 A 
ATOM     73  F   UNL A   1      42.848  25.813  36.040  1.00  0.00    -0.206 F 
ATOM     74  C   UNL A   1      46.328  26.217  36.956  1.00  0.00     0.006 A 
ENDBRANCH  53  67
BRANCH  54  75
ATOM     75  C   UNL A   1      37.357  31.279  29.533  1.00  0.00     0.057 A 
ATOM     76  C   UNL A   1      37.452  32.563  28.977  1.00  0.00     0.134 A 
ATOM     77  C   UNL A   1      36.177  30.563  29.296  1.00  0.00     0.134 A 
ATOM     78  F   UNL A   1      38.541  33.313  29.195  1.00  0.00    -0.206 F 
ATOM     79  C   UNL A   1      36.409  33.117  28.231  1.00  0.00     0.040 A 
ATOM     80  C   UNL A   1      35.139  31.094  28.529  1.00  0.00     0.040 A 
ATOM     81  F   UNL A   1      36.020  29.332  29.805  1.00  0.00    -0.206 F 
ATOM     82  C   UNL A   1      35.250  32.377  28.001  1.00  0.00     0.006 A 
ENDBRANCH  54  75
BRANCH  66  83
ATOM     83  C   UNL A   1      39.295  32.458  36.119  1.00  0.00     0.057 A 
ATOM     84  C   UNL A   1      39.769  33.770  36.253  1.00  0.00     0.134 A 
ATOM     85  C   UNL A   1      38.286  32.049  37.002  1.00  0.00     0.134 A 
ATOM     86  F   UNL A   1      40.741  34.228  35.451  1.00  0.00    -0.206 F 
ATOM     87  C   UNL A   1      39.273  34.632  37.237  1.00  0.00     0.040 A 
ATOM     88  C   UNL A   1      37.764  32.909  37.972  1.00  0.00     0.040 A 
ATOM     89  F   UNL A   1      37.778  30.809  36.927  1.00  0.00    -0.206 F 
ATOM     90  C   UNL A   1      38.262  34.203  38.094  1.00  0.00     0.006 A 
ENDBRANCH  66  83
ENDBRANCH  40  41
ENDBRANCH  32  35
ENDBRANCH  30  31
ENDBRANCH  29  30
ENDBRANCH  28  29
ENDBRANCH  27  28
ENDBRANCH   1  27
TORSDOF 18
ENDMDL
