MODEL 1
REMARK VINA RESULT:     -12.5      0.000      0.000
REMARK SMILES Cc1cccc(C(=O)NCCCCCCNC(=O)c2ccc(-c3c4nc(c(-c5c(F)cccc5F)c5ccc([nH]5)c(-c5c(F)cccc5F)c5nc(c(-c6c(F)cccc6F)c6ccc3[nH]6)C=C5)C=C4)cc2)c1OC[C@@H]1C[C@H]2CC[C@@H]1C2
REMARK SMILES IDX 12 1 11 2 10 3 9 4 7 5 8 6 6 8 1 9 2 10 3 11 73 12 4 13 5 14
REMARK SMILES IDX 74 15 75 16 76 17 77 18 81 19 78 20 80 21 82 22 79 23 13 24
REMARK SMILES IDX 14 25 15 26 16 27 17 28 18 30 19 31 20 32 72 33 21 34 71 35
REMARK SMILES IDX 22 36 23 37 24 38 65 39 25 40 70 41 64 42 66 43 26 44 69 45
REMARK SMILES IDX 63 46 62 47 27 49 53 50 36 51 52 52 37 53 40 54 51 55 67 56
REMARK SMILES IDX 38 57 39 58 50 60 68 61 41 62 28 63 29 64 34 65 30 66 31 67
REMARK SMILES IDX 33 68 35 69 32 70 54 71 55 72 60 73 56 74 57 75 59 76 61 77
REMARK SMILES IDX 58 78 42 79 43 80 48 81 44 82 45 83 47 84 49 85 46 86
REMARK H PARENT 9 7 16 29 66 48 40 59
REMARK Flexibility Score: inf
ROOT
ATOM      1  C   UNL A   1      37.007  22.319  24.081  1.00  0.00     0.002 C 
ENDROOT
BRANCH   1   2
ATOM      2  C   UNL A   1      35.947  23.373  24.437  1.00  0.00     0.021 C 
BRANCH   2   3
ATOM      3  C   UNL A   1      35.885  23.751  25.921  1.00  0.00     0.116 C 
BRANCH   3   4
ATOM      4  N   UNL A   1      35.331  22.668  26.687  1.00  0.00    -0.352 N 
ATOM      5  C   UNL A   1      34.059  22.219  26.882  1.00  0.00     0.255 C 
ATOM      6  O   UNL A   1      33.959  21.260  27.658  1.00  0.00    -0.269 OA
ATOM      7  H   UNL A   1      36.010  22.142  27.169  1.00  0.00     0.163 HD
BRANCH   5   8
ATOM      8  C   UNL A   1      32.806  22.709  26.219  1.00  0.00     0.082 A 
ATOM      9  C   UNL A   1      31.226  23.678  22.870  1.00  0.00     0.048 C 
ATOM     10  C   UNL A   1      31.436  23.437  24.343  1.00  0.00    -0.008 A 
ATOM     11  C   UNL A   1      30.770  24.344  25.192  1.00  0.00     0.007 A 
ATOM     12  C   UNL A   1      32.379  22.527  24.882  1.00  0.00     0.134 A 
ATOM     13  C   UNL A   1      31.086  24.427  26.537  1.00  0.00     0.001 A 
ATOM     14  C   UNL A   1      32.119  23.644  27.031  1.00  0.00     0.018 A 
BRANCH  12  15
ATOM     15  O   UNL A   1      32.965  21.566  24.111  1.00  0.00    -0.492 OA
BRANCH  15  16
ATOM     16  C   UNL A   1      32.344  20.260  23.986  1.00  0.00     0.233 C 
BRANCH  16  17
ATOM     17  C   UNL A   1      32.909  19.074  24.810  1.00  0.00     0.030 C 
ATOM     18  C   UNL A   1      34.451  18.911  24.638  1.00  0.00     0.011 C 
ATOM     19  C   UNL A   1      32.420  17.693  24.282  1.00  0.00    -0.004 C 
ATOM     20  C   UNL A   1      34.622  17.474  24.109  1.00  0.00    -0.010 C 
ATOM     21  C   UNL A   1      32.743  16.612  25.328  1.00  0.00     0.004 C 
ATOM     22  C   UNL A   1      33.424  17.355  23.177  1.00  0.00     0.007 C 
ATOM     23  C   UNL A   1      34.266  16.472  25.218  1.00  0.00     0.004 C 
ENDBRANCH  16  17
ENDBRANCH  15  16
ENDBRANCH  12  15
ENDBRANCH   5   8
ENDBRANCH   3   4
ENDBRANCH   2   3
ENDBRANCH   1   2
BRANCH   1  24
ATOM     24  C   UNL A   1      37.454  21.390  25.224  1.00  0.00     0.002 C 
BRANCH  24  25
ATOM     25  C   UNL A   1      38.920  21.506  25.651  1.00  0.00     0.021 C 
BRANCH  25  26
ATOM     26  C   UNL A   1      39.244  22.793  26.400  1.00  0.00     0.116 C 
BRANCH  26  27
ATOM     27  N   UNL A   1      40.669  23.099  26.434  1.00  0.00    -0.352 N 
ATOM     28  C   UNL A   1      41.306  24.317  26.630  1.00  0.00     0.251 C 
ATOM     29  H   UNL A   1      41.268  22.330  26.298  1.00  0.00     0.163 HD
ATOM     30  O   UNL A   1      42.514  24.389  26.639  1.00  0.00    -0.269 OA
BRANCH  28  31
ATOM     31  C   UNL A   1      40.476  25.502  26.964  1.00  0.00     0.039 A 
ATOM     32  C   UNL A   1      40.779  26.702  26.312  1.00  0.00     0.014 A 
ATOM     33  C   UNL A   1      39.597  25.485  28.043  1.00  0.00     0.014 A 
ATOM     34  C   UNL A   1      40.414  27.906  26.908  1.00  0.00     0.010 A 
ATOM     35  C   UNL A   1      39.299  26.677  28.677  1.00  0.00     0.010 A 
ATOM     36  C   UNL A   1      39.780  27.880  28.151  1.00  0.00    -0.014 A 
BRANCH  36  37
ATOM     37  C   UNL A   1      39.753  29.040  29.035  1.00  0.00     0.031 A 
ATOM     38  C   UNL A   1      38.700  30.066  28.931  1.00  0.00     0.074 A 
ATOM     39  C   UNL A   1      40.706  29.176  29.986  1.00  0.00     0.049 A 
ATOM     40  N   UNL A   1      38.878  31.301  29.262  1.00  0.00    -0.248 NA
ATOM     41  C   UNL A   1      37.363  29.787  28.421  1.00  0.00     0.031 C 
ATOM     42  C   UNL A   1      40.739  30.149  31.073  1.00  0.00     0.029 A 
ATOM     43  N   UNL A   1      41.974  28.581  30.012  1.00  0.00    -0.354 N 
ATOM     44  C   UNL A   1      37.652  31.912  29.257  1.00  0.00     0.074 A 
ATOM     45  C   UNL A   1      36.746  30.947  28.672  1.00  0.00     0.031 C 
ATOM     46  C   UNL A   1      42.012  30.316  31.462  1.00  0.00     0.029 A 
ATOM     47  C   UNL A   1      42.849  29.545  30.561  1.00  0.00     0.049 A 
ATOM     48  H   UNL A   1      42.208  27.673  29.711  1.00  0.00     0.167 HD
ATOM     49  C   UNL A   1      37.490  33.128  29.848  1.00  0.00     0.037 A 
ATOM     50  C   UNL A   1      43.894  30.035  29.835  1.00  0.00     0.037 A 
ATOM     51  C   UNL A   1      38.727  33.645  30.422  1.00  0.00     0.049 A 
ATOM     52  C   UNL A   1      43.833  31.523  29.557  1.00  0.00     0.074 A 
ATOM     53  C   UNL A   1      39.264  33.679  31.698  1.00  0.00     0.029 A 
ATOM     54  N   UNL A   1      39.759  33.985  29.569  1.00  0.00    -0.354 N 
ATOM     55  N   UNL A   1      42.874  32.314  29.951  1.00  0.00    -0.248 NA
ATOM     56  C   UNL A   1      44.811  32.215  28.714  1.00  0.00     0.031 C 
ATOM     57  C   UNL A   1      40.637  34.046  31.596  1.00  0.00     0.029 A 
ATOM     58  C   UNL A   1      40.927  34.239  30.259  1.00  0.00     0.049 A 
ATOM     59  H   UNL A   1      39.673  34.038  28.589  1.00  0.00     0.167 HD
ATOM     60  C   UNL A   1      43.039  33.547  29.375  1.00  0.00     0.074 A 
ATOM     61  C   UNL A   1      44.273  33.443  28.622  1.00  0.00     0.031 C 
ATOM     62  C   UNL A   1      42.128  34.553  29.506  1.00  0.00     0.037 A 
BRANCH  49  63
ATOM     63  C   UNL A   1      36.132  33.721  30.077  1.00  0.00     0.057 A 
ATOM     64  C   UNL A   1      35.345  34.183  29.010  1.00  0.00     0.134 A 
ATOM     65  C   UNL A   1      35.570  33.891  31.353  1.00  0.00     0.134 A 
ATOM     66  F   UNL A   1      35.728  34.029  27.735  1.00  0.00    -0.206 F 
ATOM     67  C   UNL A   1      34.132  34.853  29.203  1.00  0.00     0.040 A 
ATOM     68  C   UNL A   1      34.383  34.604  31.566  1.00  0.00     0.040 A 
ATOM     69  F   UNL A   1      36.153  33.364  32.441  1.00  0.00    -0.206 F 
ATOM     70  C   UNL A   1      33.664  35.099  30.486  1.00  0.00     0.006 A 
ENDBRANCH  49  63
BRANCH  50  71
ATOM     71  C   UNL A   1      44.493  29.023  28.928  1.00  0.00     0.057 A 
ATOM     72  C   UNL A   1      45.346  28.046  29.476  1.00  0.00     0.134 A 
ATOM     73  C   UNL A   1      43.987  28.782  27.650  1.00  0.00     0.134 A 
ATOM     74  F   UNL A   1      45.865  28.214  30.704  1.00  0.00    -0.206 F 
ATOM     75  C   UNL A   1      45.594  26.836  28.826  1.00  0.00     0.040 A 
ATOM     76  C   UNL A   1      44.242  27.580  26.983  1.00  0.00     0.040 A 
ATOM     77  F   UNL A   1      43.152  29.656  27.070  1.00  0.00    -0.206 F 
ATOM     78  C   UNL A   1      45.014  26.588  27.587  1.00  0.00     0.006 A 
ENDBRANCH  50  71
BRANCH  62  79
ATOM     79  C   UNL A   1      42.299  35.918  28.906  1.00  0.00     0.057 A 
ATOM     80  C   UNL A   1      41.785  36.256  27.646  1.00  0.00     0.134 A 
ATOM     81  C   UNL A   1      43.101  36.901  29.520  1.00  0.00     0.134 A 
ATOM     82  F   UNL A   1      41.060  35.376  26.938  1.00  0.00    -0.206 F 
ATOM     83  C   UNL A   1      42.020  37.503  27.054  1.00  0.00     0.040 A 
ATOM     84  C   UNL A   1      43.382  38.130  28.920  1.00  0.00     0.040 A 
ATOM     85  F   UNL A   1      43.629  36.716  30.739  1.00  0.00    -0.206 F 
ATOM     86  C   UNL A   1      42.831  38.441  27.685  1.00  0.00     0.006 A 
ENDBRANCH  62  79
ENDBRANCH  36  37
ENDBRANCH  28  31
ENDBRANCH  26  27
ENDBRANCH  25  26
ENDBRANCH  24  25
ENDBRANCH   1  24
TORSDOF 16
ENDMDL
MODEL 2
REMARK VINA RESULT:     -12.5      4.570      9.593
REMARK SMILES Cc1cccc(C(=O)NCCCCCCNC(=O)c2ccc(-c3c4nc(c(-c5c(F)cccc5F)c5ccc([nH]5)c(-c5c(F)cccc5F)c5nc(c(-c6c(F)cccc6F)c6ccc3[nH]6)C=C5)C=C4)cc2)c1OC[C@@H]1C[C@H]2CC[C@@H]1C2
REMARK SMILES IDX 12 1 11 2 10 3 9 4 7 5 8 6 6 8 1 9 2 10 3 11 73 12 4 13 5 14
REMARK SMILES IDX 74 15 75 16 76 17 77 18 81 19 78 20 80 21 82 22 79 23 13 24
REMARK SMILES IDX 14 25 15 26 16 27 17 28 18 30 19 31 20 32 72 33 21 34 71 35
REMARK SMILES IDX 22 36 23 37 24 38 65 39 25 40 70 41 64 42 66 43 26 44 69 45
REMARK SMILES IDX 63 46 62 47 27 49 53 50 36 51 52 52 37 53 40 54 51 55 67 56
REMARK SMILES IDX 38 57 39 58 50 60 68 61 41 62 28 63 29 64 34 65 30 66 31 67
REMARK SMILES IDX 33 68 35 69 32 70 54 71 55 72 60 73 56 74 57 75 59 76 61 77
REMARK SMILES IDX 58 78 42 79 43 80 48 81 44 82 45 83 47 84 49 85 46 86
REMARK H PARENT 9 7 16 29 66 48 40 59
REMARK Flexibility Score: inf
ROOT
ATOM      1  C   UNL A   1      35.223  30.237  27.664  1.00  0.00     0.002 C 
ENDROOT
BRANCH   1   2
ATOM      2  C   UNL A   1      34.288  29.256  26.939  1.00  0.00     0.021 C 
BRANCH   2   3
ATOM      3  C   UNL A   1      33.091  29.907  26.235  1.00  0.00     0.116 C 
BRANCH   3   4
ATOM      4  N   UNL A   1      33.258  29.840  24.809  1.00  0.00    -0.352 N 
ATOM      5  C   UNL A   1      33.144  28.827  23.904  1.00  0.00     0.255 C 
ATOM      6  O   UNL A   1      33.407  29.142  22.735  1.00  0.00    -0.269 OA
ATOM      7  H   UNL A   1      33.505  30.703  24.403  1.00  0.00     0.163 HD
BRANCH   5   8
ATOM      8  C   UNL A   1      32.679  27.424  24.156  1.00  0.00     0.082 A 
ATOM      9  C   UNL A   1      30.039  25.286  25.920  1.00  0.00     0.048 C 
ATOM     10  C   UNL A   1      31.244  25.710  25.120  1.00  0.00    -0.008 A 
ATOM     11  C   UNL A   1      32.356  24.849  25.225  1.00  0.00     0.007 A 
ATOM     12  C   UNL A   1      31.378  26.962  24.473  1.00  0.00     0.134 A 
ATOM     13  C   UNL A   1      33.607  25.244  24.785  1.00  0.00     0.001 A 
ATOM     14  C   UNL A   1      33.769  26.531  24.293  1.00  0.00     0.018 A 
BRANCH  12  15
ATOM     15  O   UNL A   1      30.303  27.776  24.259  1.00  0.00    -0.492 OA
BRANCH  15  16
ATOM     16  C   UNL A   1      29.867  28.058  22.905  1.00  0.00     0.233 C 
BRANCH  16  17
ATOM     17  C   UNL A   1      29.679  29.534  22.465  1.00  0.00     0.030 C 
ATOM     18  C   UNL A   1      29.699  30.521  23.672  1.00  0.00     0.011 C 
ATOM     19  C   UNL A   1      28.257  29.811  21.896  1.00  0.00    -0.004 C 
ATOM     20  C   UNL A   1      28.343  31.249  23.585  1.00  0.00    -0.010 C 
ATOM     21  C   UNL A   1      28.256  31.177  21.188  1.00  0.00     0.004 C 
ATOM     22  C   UNL A   1      27.425  30.118  23.144  1.00  0.00     0.007 C 
ATOM     23  C   UNL A   1      28.331  32.169  22.354  1.00  0.00     0.004 C 
ENDBRANCH  16  17
ENDBRANCH  15  16
ENDBRANCH  12  15
ENDBRANCH   5   8
ENDBRANCH   3   4
ENDBRANCH   2   3
ENDBRANCH   1   2
BRANCH   1  24
ATOM     24  C   UNL A   1      34.646  31.631  27.968  1.00  0.00     0.002 C 
BRANCH  24  25
ATOM     25  C   UNL A   1      34.818  32.131  29.405  1.00  0.00     0.021 C 
BRANCH  25  26
ATOM     26  C   UNL A   1      34.717  33.645  29.547  1.00  0.00     0.116 C 
BRANCH  26  27
ATOM     27  N   UNL A   1      33.861  34.066  30.650  1.00  0.00    -0.352 N 
ATOM     28  C   UNL A   1      34.125  34.086  32.014  1.00  0.00     0.251 C 
ATOM     29  H   UNL A   1      32.966  34.384  30.392  1.00  0.00     0.163 HD
ATOM     30  O   UNL A   1      33.294  34.482  32.799  1.00  0.00    -0.269 OA
BRANCH  28  31
ATOM     31  C   UNL A   1      35.494  33.740  32.473  1.00  0.00     0.039 A 
ATOM     32  C   UNL A   1      36.539  34.570  32.057  1.00  0.00     0.014 A 
ATOM     33  C   UNL A   1      35.760  32.520  33.089  1.00  0.00     0.014 A 
ATOM     34  C   UNL A   1      37.834  34.059  32.014  1.00  0.00     0.010 A 
ATOM     35  C   UNL A   1      37.029  31.982  32.977  1.00  0.00     0.010 A 
ATOM     36  C   UNL A   1      38.044  32.724  32.363  1.00  0.00    -0.014 A 
BRANCH  36  37
ATOM     37  C   UNL A   1      39.233  31.989  31.948  1.00  0.00     0.031 A 
ATOM     38  C   UNL A   1      39.139  30.775  31.115  1.00  0.00     0.074 A 
ATOM     39  C   UNL A   1      40.456  32.433  32.319  1.00  0.00     0.049 A 
ATOM     40  N   UNL A   1      40.010  29.822  31.152  1.00  0.00    -0.248 NA
ATOM     41  C   UNL A   1      38.042  30.528  30.188  1.00  0.00     0.031 C 
ATOM     42  C   UNL A   1      41.752  31.952  31.851  1.00  0.00     0.029 A 
ATOM     43  N   UNL A   1      40.764  33.279  33.392  1.00  0.00    -0.354 N 
ATOM     44  C   UNL A   1      39.742  28.978  30.106  1.00  0.00     0.074 A 
ATOM     45  C   UNL A   1      38.475  29.425  29.567  1.00  0.00     0.031 C 
ATOM     46  C   UNL A   1      42.678  32.243  32.778  1.00  0.00     0.029 A 
ATOM     47  C   UNL A   1      41.989  32.813  33.921  1.00  0.00     0.049 A 
ATOM     48  H   UNL A   1      40.236  34.046  33.713  1.00  0.00     0.167 HD
ATOM     49  C   UNL A   1      40.665  28.055  29.718  1.00  0.00     0.037 A 
ATOM     50  C   UNL A   1      42.069  32.357  35.203  1.00  0.00     0.037 A 
ATOM     51  C   UNL A   1      41.872  28.087  30.534  1.00  0.00     0.049 A 
ATOM     52  C   UNL A   1      42.460  30.899  35.337  1.00  0.00     0.074 A 
ATOM     53  C   UNL A   1      43.132  28.642  30.382  1.00  0.00     0.029 A 
ATOM     54  N   UNL A   1      41.781  27.718  31.862  1.00  0.00    -0.354 N 
ATOM     55  N   UNL A   1      42.702  30.100  34.336  1.00  0.00    -0.248 NA
ATOM     56  C   UNL A   1      42.505  30.203  36.625  1.00  0.00     0.031 C 
ATOM     57  C   UNL A   1      43.796  28.598  31.641  1.00  0.00     0.029 A 
ATOM     58  C   UNL A   1      42.939  28.013  32.553  1.00  0.00     0.049 A 
ATOM     59  H   UNL A   1      40.988  27.297  32.267  1.00  0.00     0.167 HD
ATOM     60  C   UNL A   1      42.844  28.820  34.803  1.00  0.00     0.074 A 
ATOM     61  C   UNL A   1      42.728  28.935  36.243  1.00  0.00     0.031 C 
ATOM     62  C   UNL A   1      42.989  27.743  33.979  1.00  0.00     0.037 A 
BRANCH  49  63
ATOM     63  C   UNL A   1      40.520  27.280  28.441  1.00  0.00     0.057 A 
ATOM     64  C   UNL A   1      39.739  26.115  28.377  1.00  0.00     0.134 A 
ATOM     65  C   UNL A   1      41.171  27.633  27.248  1.00  0.00     0.134 A 
ATOM     66  F   UNL A   1      39.013  25.696  29.422  1.00  0.00    -0.206 F 
ATOM     67  C   UNL A   1      39.687  25.306  27.237  1.00  0.00     0.040 A 
ATOM     68  C   UNL A   1      41.169  26.808  26.116  1.00  0.00     0.040 A 
ATOM     69  F   UNL A   1      41.828  28.798  27.136  1.00  0.00    -0.206 F 
ATOM     70  C   UNL A   1      40.432  25.631  26.113  1.00  0.00     0.006 A 
ENDBRANCH  49  63
BRANCH  50  71
ATOM     71  C   UNL A   1      41.170  33.087  36.134  1.00  0.00     0.057 A 
ATOM     72  C   UNL A   1      41.605  34.314  36.669  1.00  0.00     0.134 A 
ATOM     73  C   UNL A   1      39.808  32.799  36.225  1.00  0.00     0.134 A 
ATOM     74  F   UNL A   1      42.903  34.654  36.611  1.00  0.00    -0.206 F 
ATOM     75  C   UNL A   1      40.707  35.257  37.172  1.00  0.00     0.040 A 
ATOM     76  C   UNL A   1      38.902  33.730  36.742  1.00  0.00     0.040 A 
ATOM     77  F   UNL A   1      39.315  31.658  35.719  1.00  0.00    -0.206 F 
ATOM     78  C   UNL A   1      39.345  34.977  37.180  1.00  0.00     0.006 A 
ENDBRANCH  50  71
BRANCH  62  79
ATOM     79  C   UNL A   1      43.170  26.335  34.468  1.00  0.00     0.057 A 
ATOM     80  C   UNL A   1      44.353  25.613  34.259  1.00  0.00     0.134 A 
ATOM     81  C   UNL A   1      42.110  25.613  35.052  1.00  0.00     0.134 A 
ATOM     82  F   UNL A   1      45.409  26.178  33.653  1.00  0.00    -0.206 F 
ATOM     83  C   UNL A   1      44.487  24.273  34.642  1.00  0.00     0.040 A 
ATOM     84  C   UNL A   1      42.215  24.263  35.394  1.00  0.00     0.040 A 
ATOM     85  F   UNL A   1      40.934  26.193  35.332  1.00  0.00    -0.206 F 
ATOM     86  C   UNL A   1      43.411  23.589  35.201  1.00  0.00     0.006 A 
ENDBRANCH  62  79
ENDBRANCH  36  37
ENDBRANCH  28  31
ENDBRANCH  26  27
ENDBRANCH  25  26
ENDBRANCH  24  25
ENDBRANCH   1  24
TORSDOF 16
ENDMDL
MODEL 3
REMARK VINA RESULT:     -12.4      3.810      9.183
REMARK SMILES Cc1cccc(C(=O)NCCCCCCNC(=O)c2ccc(-c3c4nc(c(-c5c(F)cccc5F)c5ccc([nH]5)c(-c5c(F)cccc5F)c5nc(c(-c6c(F)cccc6F)c6ccc3[nH]6)C=C5)C=C4)cc2)c1OC[C@@H]1C[C@H]2CC[C@@H]1C2
REMARK SMILES IDX 12 1 11 2 10 3 9 4 7 5 8 6 6 8 1 9 2 10 3 11 73 12 4 13 5 14
REMARK SMILES IDX 74 15 75 16 76 17 77 18 81 19 78 20 80 21 82 22 79 23 13 24
REMARK SMILES IDX 14 25 15 26 16 27 17 28 18 30 19 31 20 32 72 33 21 34 71 35
REMARK SMILES IDX 22 36 23 37 24 38 65 39 25 40 70 41 64 42 66 43 26 44 69 45
REMARK SMILES IDX 63 46 62 47 27 49 53 50 36 51 52 52 37 53 40 54 51 55 67 56
REMARK SMILES IDX 38 57 39 58 50 60 68 61 41 62 28 63 29 64 34 65 30 66 31 67
REMARK SMILES IDX 33 68 35 69 32 70 54 71 55 72 60 73 56 74 57 75 59 76 61 77
REMARK SMILES IDX 58 78 42 79 43 80 48 81 44 82 45 83 47 84 49 85 46 86
REMARK H PARENT 9 7 16 29 66 48 40 59
REMARK Flexibility Score: inf
ROOT
ATOM      1  C   UNL A   1      32.372  29.751  25.239  1.00  0.00     0.002 C 
ENDROOT
BRANCH   1   2
ATOM      2  C   UNL A   1      33.431  28.656  25.039  1.00  0.00     0.021 C 
BRANCH   2   3
ATOM      3  C   UNL A   1      33.803  28.376  23.578  1.00  0.00     0.116 C 
BRANCH   3   4
ATOM      4  N   UNL A   1      32.625  28.055  22.819  1.00  0.00    -0.352 N 
ATOM      5  C   UNL A   1      31.645  27.121  22.971  1.00  0.00     0.255 C 
ATOM      6  O   UNL A   1      30.789  27.115  22.076  1.00  0.00    -0.269 OA
ATOM      7  H   UNL A   1      32.502  28.628  22.027  1.00  0.00     0.163 HD
BRANCH   5   8
ATOM      8  C   UNL A   1      31.460  26.167  24.114  1.00  0.00     0.082 A 
ATOM      9  C   UNL A   1      31.602  22.487  25.156  1.00  0.00     0.048 C 
ATOM     10  C   UNL A   1      31.400  23.980  25.181  1.00  0.00    -0.008 A 
ATOM     11  C   UNL A   1      30.345  24.420  26.005  1.00  0.00     0.007 A 
ATOM     12  C   UNL A   1      32.045  24.893  24.311  1.00  0.00     0.134 A 
ATOM     13  C   UNL A   1      29.861  25.713  25.916  1.00  0.00     0.001 A 
ATOM     14  C   UNL A   1      30.390  26.561  24.952  1.00  0.00     0.018 A 
BRANCH  12  15
ATOM     15  O   UNL A   1      33.137  24.531  23.577  1.00  0.00    -0.492 OA
BRANCH  15  16
ATOM     16  C   UNL A   1      34.466  24.900  24.026  1.00  0.00     0.233 C 
BRANCH  16  17
ATOM     17  C   UNL A   1      35.546  23.796  24.174  1.00  0.00     0.030 C 
ATOM     18  C   UNL A   1      34.949  22.360  24.053  1.00  0.00     0.011 C 
ATOM     19  C   UNL A   1      36.142  23.733  25.612  1.00  0.00    -0.004 C 
ATOM     20  C   UNL A   1      35.335  21.678  25.380  1.00  0.00    -0.010 C 
ATOM     21  C   UNL A   1      37.411  22.863  25.592  1.00  0.00     0.004 C 
ATOM     22  C   UNL A   1      35.166  22.826  26.365  1.00  0.00     0.007 C 
ATOM     23  C   UNL A   1      36.853  21.446  25.416  1.00  0.00     0.004 C 
ENDBRANCH  16  17
ENDBRANCH  15  16
ENDBRANCH  12  15
ENDBRANCH   5   8
ENDBRANCH   3   4
ENDBRANCH   2   3
ENDBRANCH   1   2
BRANCH   1  24
ATOM     24  C   UNL A   1      32.141  30.220  26.687  1.00  0.00     0.002 C 
BRANCH  24  25
ATOM     25  C   UNL A   1      33.216  31.137  27.277  1.00  0.00     0.021 C 
BRANCH  25  26
ATOM     26  C   UNL A   1      34.237  30.410  28.145  1.00  0.00     0.116 C 
BRANCH  26  27
ATOM     27  N   UNL A   1      35.087  31.311  28.914  1.00  0.00    -0.352 N 
ATOM     28  C   UNL A   1      36.371  31.111  29.403  1.00  0.00     0.251 C 
ATOM     29  H   UNL A   1      34.693  32.190  29.116  1.00  0.00     0.163 HD
ATOM     30  O   UNL A   1      36.940  31.982  30.020  1.00  0.00    -0.269 OA
BRANCH  28  31
ATOM     31  C   UNL A   1      37.079  29.859  29.035  1.00  0.00     0.039 A 
ATOM     32  C   UNL A   1      37.341  28.945  30.061  1.00  0.00     0.014 A 
ATOM     33  C   UNL A   1      37.664  29.704  27.782  1.00  0.00     0.014 A 
ATOM     34  C   UNL A   1      38.390  28.042  29.911  1.00  0.00     0.010 A 
ATOM     35  C   UNL A   1      38.754  28.862  27.657  1.00  0.00     0.010 A 
ATOM     36  C   UNL A   1      39.165  28.094  28.751  1.00  0.00    -0.014 A 
BRANCH  36  37
ATOM     37  C   UNL A   1      40.504  27.520  28.683  1.00  0.00     0.031 A 
ATOM     38  C   UNL A   1      40.722  26.106  28.326  1.00  0.00     0.074 A 
ATOM     39  C   UNL A   1      41.579  28.302  28.939  1.00  0.00     0.049 A 
ATOM     40  N   UNL A   1      41.733  25.418  28.741  1.00  0.00    -0.248 NA
ATOM     41  C   UNL A   1      39.802  25.346  27.489  1.00  0.00     0.031 C 
ATOM     42  C   UNL A   1      42.985  27.967  28.738  1.00  0.00     0.029 A 
ATOM     43  N   UNL A   1      41.606  29.502  29.660  1.00  0.00    -0.354 N 
ATOM     44  C   UNL A   1      41.742  24.238  28.045  1.00  0.00     0.074 A 
ATOM     45  C   UNL A   1      40.490  24.211  27.319  1.00  0.00     0.031 C 
ATOM     46  C   UNL A   1      43.729  28.733  29.550  1.00  0.00     0.029 A 
ATOM     47  C   UNL A   1      42.820  29.500  30.383  1.00  0.00     0.049 A 
ATOM     48  H   UNL A   1      40.918  30.208  29.663  1.00  0.00     0.167 HD
ATOM     49  C   UNL A   1      42.849  23.446  28.055  1.00  0.00     0.037 A 
ATOM     50  C   UNL A   1      42.824  29.525  31.746  1.00  0.00     0.037 A 
ATOM     51  C   UNL A   1      43.927  23.994  28.870  1.00  0.00     0.049 A 
ATOM     52  C   UNL A   1      43.442  28.307  32.403  1.00  0.00     0.074 A 
ATOM     53  C   UNL A   1      45.081  24.710  28.598  1.00  0.00     0.029 A 
ATOM     54  N   UNL A   1      43.743  24.080  30.236  1.00  0.00    -0.354 N 
ATOM     55  N   UNL A   1      43.936  27.286  31.760  1.00  0.00    -0.248 NA
ATOM     56  C   UNL A   1      43.452  28.106  33.855  1.00  0.00     0.031 C 
ATOM     57  C   UNL A   1      45.587  25.226  29.826  1.00  0.00     0.029 A 
ATOM     58  C   UNL A   1      44.742  24.817  30.839  1.00  0.00     0.049 A 
ATOM     59  H   UNL A   1      42.991  23.666  30.721  1.00  0.00     0.167 HD
ATOM     60  C   UNL A   1      44.240  26.293  32.654  1.00  0.00     0.074 A 
ATOM     61  C   UNL A   1      43.935  26.857  33.954  1.00  0.00     0.031 C 
ATOM     62  C   UNL A   1      44.666  25.056  32.270  1.00  0.00     0.037 A 
BRANCH  49  63
ATOM     63  C   UNL A   1      42.994  22.277  27.126  1.00  0.00     0.057 A 
ATOM     64  C   UNL A   1      42.214  21.120  27.279  1.00  0.00     0.134 A 
ATOM     65  C   UNL A   1      43.928  22.237  26.078  1.00  0.00     0.134 A 
ATOM     66  F   UNL A   1      41.241  21.042  28.197  1.00  0.00    -0.206 F 
ATOM     67  C   UNL A   1      42.414  19.969  26.508  1.00  0.00     0.040 A 
ATOM     68  C   UNL A   1      44.175  21.077  25.332  1.00  0.00     0.040 A 
ATOM     69  F   UNL A   1      44.631  23.327  25.735  1.00  0.00    -0.206 F 
ATOM     70  C   UNL A   1      43.422  19.931  25.555  1.00  0.00     0.006 A 
ENDBRANCH  49  63
BRANCH  50  71
ATOM     71  C   UNL A   1      41.708  30.324  32.312  1.00  0.00     0.057 A 
ATOM     72  C   UNL A   1      41.811  31.728  32.304  1.00  0.00     0.134 A 
ATOM     73  C   UNL A   1      40.441  29.780  32.526  1.00  0.00     0.134 A 
ATOM     74  F   UNL A   1      43.001  32.317  32.101  1.00  0.00    -0.206 F 
ATOM     75  C   UNL A   1      40.686  32.550  32.393  1.00  0.00     0.040 A 
ATOM     76  C   UNL A   1      39.309  30.594  32.632  1.00  0.00     0.040 A 
ATOM     77  F   UNL A   1      40.260  28.451  32.526  1.00  0.00    -0.206 F 
ATOM     78  C   UNL A   1      39.425  31.980  32.526  1.00  0.00     0.006 A 
ENDBRANCH  50  71
BRANCH  62  79
ATOM     79  C   UNL A   1      45.028  23.961  33.230  1.00  0.00     0.057 A 
ATOM     80  C   UNL A   1      44.114  22.975  33.626  1.00  0.00     0.134 A 
ATOM     81  C   UNL A   1      46.273  23.938  33.891  1.00  0.00     0.134 A 
ATOM     82  F   UNL A   1      42.875  22.936  33.112  1.00  0.00    -0.206 F 
ATOM     83  C   UNL A   1      44.429  22.006  34.586  1.00  0.00     0.040 A 
ATOM     84  C   UNL A   1      46.583  23.007  34.884  1.00  0.00     0.040 A 
ATOM     85  F   UNL A   1      47.247  24.807  33.586  1.00  0.00    -0.206 F 
ATOM     86  C   UNL A   1      45.664  22.027  35.229  1.00  0.00     0.006 A 
ENDBRANCH  62  79
ENDBRANCH  36  37
ENDBRANCH  28  31
ENDBRANCH  26  27
ENDBRANCH  25  26
ENDBRANCH  24  25
ENDBRANCH   1  24
TORSDOF 16
ENDMDL
