MODEL 1
REMARK VINA RESULT:     -11.6      0.000      0.000
REMARK SMILES O=C(NCCCCCCNC(=O)[C@H]1CSCN1C(=O)c1cccc2cccnc12)c1ccc(-c2c3nc(c(-c4c(F)cccc4F)c4ccc([nH]4)c(-c4c(F)cccc4F)c4nc(c(-c5c(F)cccc5F)c5ccc2[nH]5)C=C4)C=C3)cc1
REMARK SMILES IDX 6 1 5 2 4 3 3 4 1 5 2 6 30 8 31 9 83 10 32 11 82 12 33 13
REMARK SMILES IDX 34 14 35 15 76 16 36 17 81 18 75 19 77 20 37 21 80 22 74 23
REMARK SMILES IDX 73 24 38 26 64 27 47 28 63 29 48 30 51 31 62 32 78 33 49 34
REMARK SMILES IDX 50 35 61 37 79 38 52 39 39 40 40 41 45 42 41 43 42 44 44 45
REMARK SMILES IDX 46 46 43 47 65 48 66 49 71 50 67 51 68 52 70 53 72 54 69 55
REMARK SMILES IDX 53 56 54 57 59 58 55 59 56 60 58 61 60 62 57 63 7 64 8 65
REMARK SMILES IDX 9 66 10 67 11 68 12 70 13 71 14 72 17 73 15 74 16 75 18 76
REMARK SMILES IDX 19 77 20 78 21 79 29 80 22 81 24 82 28 83 23 84 25 85 27 86
REMARK SMILES IDX 26 87
REMARK H PARENT 3 7 77 25 51 36 10 69
REMARK Flexibility Score: inf
ROOT
ATOM      1  C   UNL A   1      31.672  30.490  25.716  1.00  0.00     0.002 C 
ENDROOT
BRANCH   1   2
ATOM      2  C   UNL A   1      31.369  31.748  26.529  1.00  0.00     0.021 C 
BRANCH   2   3
ATOM      3  C   UNL A   1      32.591  32.430  27.131  1.00  0.00     0.116 C 
BRANCH   3   4
ATOM      4  N   UNL A   1      32.336  33.814  27.500  1.00  0.00    -0.352 N 
ATOM      5  O   UNL A   1      32.560  35.711  28.707  1.00  0.00    -0.269 OA
ATOM      6  C   UNL A   1      33.004  34.609  28.400  1.00  0.00     0.251 C 
ATOM      7  H   UNL A   1      31.578  34.241  27.040  1.00  0.00     0.163 HD
BRANCH   6   8
ATOM      8  C   UNL A   1      34.249  34.115  29.026  1.00  0.00     0.039 A 
ATOM      9  C   UNL A   1      35.495  34.450  28.491  1.00  0.00     0.014 A 
ATOM     10  C   UNL A   1      34.168  33.291  30.153  1.00  0.00     0.014 A 
ATOM     11  C   UNL A   1      36.642  33.837  28.981  1.00  0.00     0.010 A 
ATOM     12  C   UNL A   1      35.332  32.745  30.699  1.00  0.00     0.010 A 
ATOM     13  C   UNL A   1      36.575  32.980  30.093  1.00  0.00    -0.014 A 
BRANCH  13  14
ATOM     14  C   UNL A   1      37.827  32.369  30.610  1.00  0.00     0.031 A 
ATOM     15  C   UNL A   1      38.477  32.872  31.870  1.00  0.00     0.074 A 
ATOM     16  C   UNL A   1      38.352  31.315  29.955  1.00  0.00     0.049 A 
ATOM     17  N   UNL A   1      39.535  32.413  32.490  1.00  0.00    -0.248 NA
ATOM     18  C   UNL A   1      37.868  34.045  32.515  1.00  0.00     0.031 C 
ATOM     19  C   UNL A   1      37.821  30.747  28.713  1.00  0.00     0.029 A 
ATOM     20  N   UNL A   1      39.428  30.519  30.252  1.00  0.00    -0.354 N 
ATOM     21  C   UNL A   1      39.735  33.253  33.578  1.00  0.00     0.074 A 
ATOM     22  C   UNL A   1      38.700  34.263  33.525  1.00  0.00     0.031 C 
ATOM     23  C   UNL A   1      38.535  29.659  28.388  1.00  0.00     0.029 A 
ATOM     24  C   UNL A   1      39.605  29.486  29.365  1.00  0.00     0.049 A 
ATOM     25  H   UNL A   1      40.015  30.673  31.027  1.00  0.00     0.167 HD
ATOM     26  C   UNL A   1      40.689  33.182  34.538  1.00  0.00     0.037 A 
ATOM     27  C   UNL A   1      40.528  28.509  29.335  1.00  0.00     0.037 A 
ATOM     28  C   UNL A   1      41.703  32.160  34.604  1.00  0.00     0.049 A 
ATOM     29  C   UNL A   1      41.570  28.453  30.413  1.00  0.00     0.074 A 
ATOM     30  C   UNL A   1      42.687  31.980  35.562  1.00  0.00     0.029 A 
ATOM     31  N   UNL A   1      41.864  31.146  33.673  1.00  0.00    -0.354 N 
ATOM     32  N   UNL A   1      41.720  29.230  31.458  1.00  0.00    -0.248 NA
ATOM     33  C   UNL A   1      42.571  27.383  30.308  1.00  0.00     0.031 C 
ATOM     34  C   UNL A   1      43.467  30.880  35.189  1.00  0.00     0.029 A 
ATOM     35  C   UNL A   1      42.942  30.348  34.024  1.00  0.00     0.049 A 
ATOM     36  H   UNL A   1      41.298  31.012  32.878  1.00  0.00     0.167 HD
ATOM     37  C   UNL A   1      42.818  28.734  32.145  1.00  0.00     0.074 A 
ATOM     38  C   UNL A   1      43.284  27.578  31.407  1.00  0.00     0.031 C 
ATOM     39  C   UNL A   1      43.391  29.197  33.282  1.00  0.00     0.037 A 
BRANCH  26  40
ATOM     40  C   UNL A   1      40.697  34.253  35.591  1.00  0.00     0.057 A 
ATOM     41  C   UNL A   1      41.415  35.446  35.432  1.00  0.00     0.134 A 
ATOM     42  C   UNL A   1      39.939  34.107  36.761  1.00  0.00     0.134 A 
ATOM     43  F   UNL A   1      42.171  35.644  34.342  1.00  0.00    -0.206 F 
ATOM     44  C   UNL A   1      41.395  36.445  36.408  1.00  0.00     0.040 A 
ATOM     45  C   UNL A   1      39.892  35.109  37.732  1.00  0.00     0.040 A 
ATOM     46  F   UNL A   1      39.222  32.994  36.972  1.00  0.00    -0.206 F 
ATOM     47  C   UNL A   1      40.625  36.280  37.559  1.00  0.00     0.006 A 
ENDBRANCH  26  40
BRANCH  27  48
ATOM     48  C   UNL A   1      40.493  27.494  28.254  1.00  0.00     0.057 A 
ATOM     49  C   UNL A   1      39.741  26.321  28.387  1.00  0.00     0.134 A 
ATOM     50  C   UNL A   1      41.200  27.677  27.060  1.00  0.00     0.134 A 
ATOM     51  F   UNL A   1      39.055  26.084  29.516  1.00  0.00    -0.206 F 
ATOM     52  C   UNL A   1      39.703  25.360  27.377  1.00  0.00     0.040 A 
ATOM     53  C   UNL A   1      41.151  26.736  26.031  1.00  0.00     0.040 A 
ATOM     54  F   UNL A   1      41.933  28.784  26.869  1.00  0.00    -0.206 F 
ATOM     55  C   UNL A   1      40.405  25.570  26.191  1.00  0.00     0.006 A 
ENDBRANCH  27  48
BRANCH  39  56
ATOM     56  C   UNL A   1      44.562  28.426  33.814  1.00  0.00     0.057 A 
ATOM     57  C   UNL A   1      44.400  27.351  34.697  1.00  0.00     0.134 A 
ATOM     58  C   UNL A   1      45.867  28.758  33.428  1.00  0.00     0.134 A 
ATOM     59  F   UNL A   1      43.176  26.995  35.116  1.00  0.00    -0.206 F 
ATOM     60  C   UNL A   1      45.496  26.650  35.199  1.00  0.00     0.040 A 
ATOM     61  C   UNL A   1      46.970  28.048  33.905  1.00  0.00     0.040 A 
ATOM     62  F   UNL A   1      46.090  29.773  32.580  1.00  0.00    -0.206 F 
ATOM     63  C   UNL A   1      46.786  26.995  34.798  1.00  0.00     0.006 A 
ENDBRANCH  39  56
ENDBRANCH  13  14
ENDBRANCH   6   8
ENDBRANCH   3   4
ENDBRANCH   2   3
ENDBRANCH   1   2
BRANCH   1  64
ATOM     64  C   UNL A   1      32.365  29.364  26.492  1.00  0.00     0.002 C 
BRANCH  64  65
ATOM     65  C   UNL A   1      31.505  28.120  26.750  1.00  0.00     0.021 C 
BRANCH  65  66
ATOM     66  C   UNL A   1      32.235  26.793  26.548  1.00  0.00     0.116 C 
BRANCH  66  67
ATOM     67  N   UNL A   1      31.403  25.690  26.976  1.00  0.00    -0.354 N 
ATOM     68  C   UNL A   1      31.521  24.353  26.735  1.00  0.00     0.243 C 
ATOM     69  H   UNL A   1      30.628  25.945  27.529  1.00  0.00     0.163 HD
ATOM     70  O   UNL A   1      30.511  23.661  26.912  1.00  0.00    -0.273 OA
BRANCH  68  71
ATOM     71  C   UNL A   1      32.772  23.752  26.065  1.00  0.00     0.185 C 
ATOM     72  C   UNL A   1      33.517  22.934  27.120  1.00  0.00     0.106 C 
ATOM     73  N   UNL A   1      32.544  22.931  24.868  1.00  0.00    -0.316 N 
ATOM     74  S   UNL A   1      34.243  21.500  26.286  1.00  0.00    -0.138 SA
ATOM     75  C   UNL A   1      33.495  21.858  24.690  1.00  0.00     0.190 C 
BRANCH  73  76
ATOM     76  C   UNL A   1      31.833  23.505  23.813  1.00  0.00     0.257 C 
ATOM     77  O   UNL A   1      31.007  22.880  23.154  1.00  0.00    -0.269 OA
BRANCH  76  78
ATOM     78  C   UNL A   1      32.149  24.886  23.395  1.00  0.00     0.066 A 
ATOM     79  C   UNL A   1      33.427  25.145  22.874  1.00  0.00     0.016 A 
ATOM     80  C   UNL A   1      31.136  25.854  23.418  1.00  0.00     0.083 A 
ATOM     81  C   UNL A   1      33.729  26.410  22.389  1.00  0.00     0.002 A 
ATOM     82  C   UNL A   1      31.456  27.124  22.887  1.00  0.00     0.001 A 
ATOM     83  N   UNL A   1      29.906  25.606  23.925  1.00  0.00    -0.255 NA
ATOM     84  C   UNL A   1      32.745  27.395  22.391  1.00  0.00     0.010 A 
ATOM     85  C   UNL A   1      30.455  28.105  22.852  1.00  0.00     0.012 A 
ATOM     86  C   UNL A   1      28.961  26.568  23.858  1.00  0.00     0.112 A 
ATOM     87  C   UNL A   1      29.184  27.823  23.332  1.00  0.00     0.021 A 
ENDBRANCH  76  78
ENDBRANCH  73  76
ENDBRANCH  68  71
ENDBRANCH  66  67
ENDBRANCH  65  66
ENDBRANCH  64  65
ENDBRANCH   1  64
TORSDOF 15
ENDMDL
MODEL 2
REMARK VINA RESULT:     -11.6      1.695      2.896
REMARK SMILES O=C(NCCCCCCNC(=O)[C@H]1CSCN1C(=O)c1cccc2cccnc12)c1ccc(-c2c3nc(c(-c4c(F)cccc4F)c4ccc([nH]4)c(-c4c(F)cccc4F)c4nc(c(-c5c(F)cccc5F)c5ccc2[nH]5)C=C4)C=C3)cc1
REMARK SMILES IDX 6 1 5 2 4 3 3 4 1 5 2 6 30 8 31 9 83 10 32 11 82 12 33 13
REMARK SMILES IDX 34 14 35 15 76 16 36 17 81 18 75 19 77 20 37 21 80 22 74 23
REMARK SMILES IDX 73 24 38 26 64 27 47 28 63 29 48 30 51 31 62 32 78 33 49 34
REMARK SMILES IDX 50 35 61 37 79 38 52 39 39 40 40 41 45 42 41 43 42 44 44 45
REMARK SMILES IDX 46 46 43 47 65 48 66 49 71 50 67 51 68 52 70 53 72 54 69 55
REMARK SMILES IDX 53 56 54 57 59 58 55 59 56 60 58 61 60 62 57 63 7 64 8 65
REMARK SMILES IDX 9 66 10 67 11 68 12 70 13 71 14 72 17 73 15 74 16 75 18 76
REMARK SMILES IDX 19 77 20 78 21 79 29 80 22 81 24 82 28 83 23 84 25 85 27 86
REMARK SMILES IDX 26 87
REMARK H PARENT 3 7 77 25 51 36 10 69
REMARK Flexibility Score: inf
ROOT
ATOM      1  C   UNL A   1      31.669  30.697  26.229  1.00  0.00     0.002 C 
ENDROOT
BRANCH   1   2
ATOM      2  C   UNL A   1      31.412  32.085  26.812  1.00  0.00     0.021 C 
BRANCH   2   3
ATOM      3  C   UNL A   1      32.665  32.840  27.243  1.00  0.00     0.116 C 
BRANCH   3   4
ATOM      4  N   UNL A   1      32.385  34.211  27.641  1.00  0.00    -0.352 N 
ATOM      5  O   UNL A   1      32.523  36.063  28.927  1.00  0.00    -0.269 OA
ATOM      6  C   UNL A   1      32.986  34.970  28.616  1.00  0.00     0.251 C 
ATOM      7  H   UNL A   1      31.664  34.656  27.141  1.00  0.00     0.163 HD
BRANCH   6   8
ATOM      8  C   UNL A   1      34.180  34.449  29.314  1.00  0.00     0.039 A 
ATOM      9  C   UNL A   1      35.451  34.594  28.753  1.00  0.00     0.014 A 
ATOM     10  C   UNL A   1      34.024  33.793  30.539  1.00  0.00     0.014 A 
ATOM     11  C   UNL A   1      36.536  33.947  29.332  1.00  0.00     0.010 A 
ATOM     12  C   UNL A   1      35.132  33.218  31.165  1.00  0.00     0.010 A 
ATOM     13  C   UNL A   1      36.391  33.253  30.546  1.00  0.00    -0.014 A 
BRANCH  13  14
ATOM     14  C   UNL A   1      37.581  32.602  31.153  1.00  0.00     0.031 A 
ATOM     15  C   UNL A   1      38.110  33.038  32.492  1.00  0.00     0.074 A 
ATOM     16  C   UNL A   1      38.158  31.572  30.503  1.00  0.00     0.049 A 
ATOM     17  N   UNL A   1      39.099  32.536  33.189  1.00  0.00    -0.248 NA
ATOM     18  C   UNL A   1      37.452  34.188  33.130  1.00  0.00     0.031 C 
ATOM     19  C   UNL A   1      37.745  31.069  29.190  1.00  0.00     0.029 A 
ATOM     20  N   UNL A   1      39.192  30.749  30.865  1.00  0.00    -0.354 N 
ATOM     21  C   UNL A   1      39.199  33.322  34.330  1.00  0.00     0.074 A 
ATOM     22  C   UNL A   1      38.184  34.348  34.225  1.00  0.00     0.031 C 
ATOM     23  C   UNL A   1      38.477  29.988  28.884  1.00  0.00     0.029 A 
ATOM     24  C   UNL A   1      39.445  29.756  29.951  1.00  0.00     0.049 A 
ATOM     25  H   UNL A   1      39.703  30.858  31.699  1.00  0.00     0.167 HD
ATOM     26  C   UNL A   1      40.055  33.194  35.373  1.00  0.00     0.037 A 
ATOM     27  C   UNL A   1      40.357  28.767  29.965  1.00  0.00     0.037 A 
ATOM     28  C   UNL A   1      41.048  32.156  35.489  1.00  0.00     0.049 A 
ATOM     29  C   UNL A   1      41.288  28.648  31.135  1.00  0.00     0.074 A 
ATOM     30  C   UNL A   1      41.932  31.919  36.528  1.00  0.00     0.029 A 
ATOM     31  N   UNL A   1      41.290  31.184  34.531  1.00  0.00    -0.354 N 
ATOM     32  N   UNL A   1      41.343  29.374  32.224  1.00  0.00    -0.248 NA
ATOM     33  C   UNL A   1      42.285  27.571  31.077  1.00  0.00     0.031 C 
ATOM     34  C   UNL A   1      42.734  30.826  36.181  1.00  0.00     0.029 A 
ATOM     35  C   UNL A   1      42.321  30.356  34.946  1.00  0.00     0.049 A 
ATOM     36  H   UNL A   1      40.802  31.095  33.680  1.00  0.00     0.167 HD
ATOM     37  C   UNL A   1      42.366  28.832  32.990  1.00  0.00     0.074 A 
ATOM     38  C   UNL A   1      42.890  27.704  32.248  1.00  0.00     0.031 C 
ATOM     39  C   UNL A   1      42.829  29.234  34.198  1.00  0.00     0.037 A 
BRANCH  26  40
ATOM     40  C   UNL A   1      39.971  34.216  36.471  1.00  0.00     0.057 A 
ATOM     41  C   UNL A   1      40.678  35.424  36.419  1.00  0.00     0.134 A 
ATOM     42  C   UNL A   1      39.134  34.006  37.576  1.00  0.00     0.134 A 
ATOM     43  F   UNL A   1      41.507  35.682  35.396  1.00  0.00    -0.206 F 
ATOM     44  C   UNL A   1      40.572  36.376  37.434  1.00  0.00     0.040 A 
ATOM     45  C   UNL A   1      39.001  34.961  38.586  1.00  0.00     0.040 A 
ATOM     46  F   UNL A   1      38.421  32.874  37.685  1.00  0.00    -0.206 F 
ATOM     47  C   UNL A   1      39.726  36.148  38.518  1.00  0.00     0.006 A 
ENDBRANCH  26  40
BRANCH  27  48
ATOM     48  C   UNL A   1      40.419  27.804  28.839  1.00  0.00     0.057 A 
ATOM     49  C   UNL A   1      39.673  26.620  28.860  1.00  0.00     0.134 A 
ATOM     50  C   UNL A   1      41.212  28.049  27.712  1.00  0.00     0.134 A 
ATOM     51  F   UNL A   1      38.906  26.324  29.920  1.00  0.00    -0.206 F 
ATOM     52  C   UNL A   1      39.725  25.706  27.807  1.00  0.00     0.040 A 
ATOM     53  C   UNL A   1      41.254  27.157  26.641  1.00  0.00     0.040 A 
ATOM     54  F   UNL A   1      41.944  29.170  27.630  1.00  0.00    -0.206 F 
ATOM     55  C   UNL A   1      40.513  25.978  26.689  1.00  0.00     0.006 A 
ENDBRANCH  27  48
BRANCH  39  56
ATOM     56  C   UNL A   1      43.936  28.424  34.804  1.00  0.00     0.057 A 
ATOM     57  C   UNL A   1      45.283  28.710  34.552  1.00  0.00     0.134 A 
ATOM     58  C   UNL A   1      43.648  27.352  35.658  1.00  0.00     0.134 A 
ATOM     59  F   UNL A   1      45.623  29.714  33.731  1.00  0.00    -0.206 F 
ATOM     60  C   UNL A   1      46.307  27.940  35.108  1.00  0.00     0.040 A 
ATOM     61  C   UNL A   1      44.663  26.591  36.239  1.00  0.00     0.040 A 
ATOM     62  F   UNL A   1      42.378  27.030  35.945  1.00  0.00    -0.206 F 
ATOM     63  C   UNL A   1      45.997  26.880  35.959  1.00  0.00     0.006 A 
ENDBRANCH  39  56
ENDBRANCH  13  14
ENDBRANCH   6   8
ENDBRANCH   3   4
ENDBRANCH   2   3
ENDBRANCH   1   2
BRANCH   1  64
ATOM     64  C   UNL A   1      32.306  29.691  27.194  1.00  0.00     0.002 C 
BRANCH  64  65
ATOM     65  C   UNL A   1      33.823  29.518  27.053  1.00  0.00     0.021 C 
BRANCH  65  66
ATOM     66  C   UNL A   1      34.246  28.392  26.110  1.00  0.00     0.116 C 
BRANCH  66  67
ATOM     67  N   UNL A   1      33.984  28.760  24.736  1.00  0.00    -0.354 N 
ATOM     68  C   UNL A   1      33.175  28.174  23.806  1.00  0.00     0.243 C 
ATOM     69  H   UNL A   1      34.465  29.560  24.421  1.00  0.00     0.163 HD
ATOM     70  O   UNL A   1      33.384  28.463  22.623  1.00  0.00    -0.273 OA
BRANCH  68  71
ATOM     71  C   UNL A   1      32.197  27.041  24.174  1.00  0.00     0.185 C 
ATOM     72  C   UNL A   1      30.837  27.677  24.463  1.00  0.00     0.106 C 
ATOM     73  N   UNL A   1      32.043  25.963  23.189  1.00  0.00    -0.316 N 
ATOM     74  S   UNL A   1      29.564  26.530  23.877  1.00  0.00    -0.138 SA
ATOM     75  C   UNL A   1      30.729  25.363  23.159  1.00  0.00     0.190 C 
BRANCH  73  76
ATOM     76  C   UNL A   1      33.196  25.296  22.769  1.00  0.00     0.257 C 
ATOM     77  O   UNL A   1      33.661  25.423  21.640  1.00  0.00    -0.269 OA
BRANCH  76  78
ATOM     78  C   UNL A   1      33.836  24.319  23.674  1.00  0.00     0.066 A 
ATOM     79  C   UNL A   1      34.749  24.799  24.627  1.00  0.00     0.016 A 
ATOM     80  C   UNL A   1      33.425  22.980  23.633  1.00  0.00     0.083 A 
ATOM     81  C   UNL A   1      35.301  23.923  25.552  1.00  0.00     0.002 A 
ATOM     82  C   UNL A   1      33.975  22.115  24.606  1.00  0.00     0.001 A 
ATOM     83  N   UNL A   1      32.550  22.517  22.710  1.00  0.00    -0.255 NA
ATOM     84  C   UNL A   1      34.912  22.587  25.544  1.00  0.00     0.010 A 
ATOM     85  C   UNL A   1      33.555  20.778  24.625  1.00  0.00     0.012 A 
ATOM     86  C   UNL A   1      32.153  21.228  22.769  1.00  0.00     0.112 A 
ATOM     87  C   UNL A   1      32.620  20.327  23.703  1.00  0.00     0.021 A 
ENDBRANCH  76  78
ENDBRANCH  73  76
ENDBRANCH  68  71
ENDBRANCH  66  67
ENDBRANCH  65  66
ENDBRANCH  64  65
ENDBRANCH   1  64
TORSDOF 15
ENDMDL
MODEL 3
REMARK VINA RESULT:     -11.5      4.822      9.584
REMARK SMILES O=C(NCCCCCCNC(=O)[C@H]1CSCN1C(=O)c1cccc2cccnc12)c1ccc(-c2c3nc(c(-c4c(F)cccc4F)c4ccc([nH]4)c(-c4c(F)cccc4F)c4nc(c(-c5c(F)cccc5F)c5ccc2[nH]5)C=C4)C=C3)cc1
REMARK SMILES IDX 6 1 5 2 4 3 3 4 1 5 2 6 30 8 31 9 83 10 32 11 82 12 33 13
REMARK SMILES IDX 34 14 35 15 76 16 36 17 81 18 75 19 77 20 37 21 80 22 74 23
REMARK SMILES IDX 73 24 38 26 64 27 47 28 63 29 48 30 51 31 62 32 78 33 49 34
REMARK SMILES IDX 50 35 61 37 79 38 52 39 39 40 40 41 45 42 41 43 42 44 44 45
REMARK SMILES IDX 46 46 43 47 65 48 66 49 71 50 67 51 68 52 70 53 72 54 69 55
REMARK SMILES IDX 53 56 54 57 59 58 55 59 56 60 58 61 60 62 57 63 7 64 8 65
REMARK SMILES IDX 9 66 10 67 11 68 12 70 13 71 14 72 17 73 15 74 16 75 18 76
REMARK SMILES IDX 19 77 20 78 21 79 29 80 22 81 24 82 28 83 23 84 25 85 27 86
REMARK SMILES IDX 26 87
REMARK H PARENT 3 7 77 25 51 36 10 69
REMARK Flexibility Score: inf
ROOT
ATOM      1  C   UNL A   1      36.986  20.492  25.001  1.00  0.00     0.002 C 
ENDROOT
BRANCH   1   2
ATOM      2  C   UNL A   1      38.130  19.479  24.990  1.00  0.00     0.021 C 
BRANCH   2   3
ATOM      3  C   UNL A   1      39.363  19.897  25.782  1.00  0.00     0.116 C 
BRANCH   3   4
ATOM      4  N   UNL A   1      40.396  18.874  25.794  1.00  0.00    -0.352 N 
ATOM      5  O   UNL A   1      42.503  18.058  25.798  1.00  0.00    -0.269 OA
ATOM      6  C   UNL A   1      41.752  19.013  25.971  1.00  0.00     0.251 C 
ATOM      7  H   UNL A   1      40.079  17.952  25.655  1.00  0.00     0.163 HD
BRANCH   6   8
ATOM      8  C   UNL A   1      42.308  20.330  26.343  1.00  0.00     0.039 A 
ATOM      9  C   UNL A   1      42.294  20.759  27.672  1.00  0.00     0.014 A 
ATOM     10  C   UNL A   1      42.834  21.156  25.345  1.00  0.00     0.014 A 
ATOM     11  C   UNL A   1      42.657  22.065  27.978  1.00  0.00     0.010 A 
ATOM     12  C   UNL A   1      43.281  22.440  25.669  1.00  0.00     0.010 A 
ATOM     13  C   UNL A   1      43.157  22.921  26.981  1.00  0.00    -0.014 A 
BRANCH  13  14
ATOM     14  C   UNL A   1      43.566  24.300  27.352  1.00  0.00     0.031 A 
ATOM     15  C   UNL A   1      44.990  24.759  27.198  1.00  0.00     0.074 A 
ATOM     16  C   UNL A   1      42.624  25.160  27.787  1.00  0.00     0.049 A 
ATOM     17  N   UNL A   1      45.501  25.944  27.417  1.00  0.00    -0.248 NA
ATOM     18  C   UNL A   1      45.970  23.759  26.748  1.00  0.00     0.031 C 
ATOM     19  C   UNL A   1      41.212  24.828  27.993  1.00  0.00     0.029 A 
ATOM     20  N   UNL A   1      42.703  26.491  28.108  1.00  0.00    -0.354 N 
ATOM     21  C   UNL A   1      46.861  25.828  27.159  1.00  0.00     0.074 A 
ATOM     22  C   UNL A   1      47.102  24.451  26.786  1.00  0.00     0.031 C 
ATOM     23  C   UNL A   1      40.547  25.937  28.347  1.00  0.00     0.029 A 
ATOM     24  C   UNL A   1      41.492  27.043  28.446  1.00  0.00     0.049 A 
ATOM     25  H   UNL A   1      43.545  27.000  28.096  1.00  0.00     0.167 HD
ATOM     26  C   UNL A   1      47.819  26.785  27.221  1.00  0.00     0.037 A 
ATOM     27  C   UNL A   1      41.175  28.301  28.801  1.00  0.00     0.037 A 
ATOM     28  C   UNL A   1      47.573  28.162  27.567  1.00  0.00     0.049 A 
ATOM     29  C   UNL A   1      42.256  29.340  28.856  1.00  0.00     0.074 A 
ATOM     30  C   UNL A   1      48.473  29.214  27.614  1.00  0.00     0.029 A 
ATOM     31  N   UNL A   1      46.338  28.678  27.927  1.00  0.00    -0.354 N 
ATOM     32  N   UNL A   1      43.530  29.223  28.570  1.00  0.00    -0.248 NA
ATOM     33  C   UNL A   1      41.855  30.687  29.285  1.00  0.00     0.031 C 
ATOM     34  C   UNL A   1      47.788  30.358  28.040  1.00  0.00     0.029 A 
ATOM     35  C   UNL A   1      46.455  30.028  28.216  1.00  0.00     0.049 A 
ATOM     36  H   UNL A   1      45.501  28.161  27.972  1.00  0.00     0.167 HD
ATOM     37  C   UNL A   1      44.079  30.483  28.764  1.00  0.00     0.074 A 
ATOM     38  C   UNL A   1      42.996  31.352  29.174  1.00  0.00     0.031 C 
ATOM     39  C   UNL A   1      45.366  30.882  28.618  1.00  0.00     0.037 A 
BRANCH  26  40
ATOM     40  C   UNL A   1      49.233  26.373  26.925  1.00  0.00     0.057 A 
ATOM     41  C   UNL A   1      49.772  26.442  25.634  1.00  0.00     0.134 A 
ATOM     42  C   UNL A   1      50.080  25.944  27.956  1.00  0.00     0.134 A 
ATOM     43  F   UNL A   1      49.012  26.832  24.599  1.00  0.00    -0.206 F 
ATOM     44  C   UNL A   1      51.096  26.078  25.376  1.00  0.00     0.040 A 
ATOM     45  C   UNL A   1      51.412  25.601  27.714  1.00  0.00     0.040 A 
ATOM     46  F   UNL A   1      49.630  25.863  29.217  1.00  0.00    -0.206 F 
ATOM     47  C   UNL A   1      51.921  25.664  26.419  1.00  0.00     0.006 A 
ENDBRANCH  26  40
BRANCH  27  48
ATOM     48  C   UNL A   1      39.768  28.647  29.115  1.00  0.00     0.057 A 
ATOM     49  C   UNL A   1      39.257  28.493  30.408  1.00  0.00     0.134 A 
ATOM     50  C   UNL A   1      38.905  29.150  28.134  1.00  0.00     0.134 A 
ATOM     51  F   UNL A   1      40.033  28.001  31.386  1.00  0.00    -0.206 F 
ATOM     52  C   UNL A   1      37.934  28.815  30.714  1.00  0.00     0.040 A 
ATOM     53  C   UNL A   1      37.587  29.499  28.431  1.00  0.00     0.040 A 
ATOM     54  F   UNL A   1      39.338  29.327  26.877  1.00  0.00    -0.206 F 
ATOM     55  C   UNL A   1      37.097  29.326  29.724  1.00  0.00     0.006 A 
ENDBRANCH  27  48
BRANCH  39  56
ATOM     56  C   UNL A   1      45.659  32.331  28.870  1.00  0.00     0.057 A 
ATOM     57  C   UNL A   1      46.050  32.797  30.132  1.00  0.00     0.134 A 
ATOM     58  C   UNL A   1      45.560  33.268  27.834  1.00  0.00     0.134 A 
ATOM     59  F   UNL A   1      46.148  31.951  31.168  1.00  0.00    -0.206 F 
ATOM     60  C   UNL A   1      46.306  34.149  30.361  1.00  0.00     0.040 A 
ATOM     61  C   UNL A   1      45.837  34.619  28.045  1.00  0.00     0.040 A 
ATOM     62  F   UNL A   1      45.197  32.885  26.601  1.00  0.00    -0.206 F 
ATOM     63  C   UNL A   1      46.204  35.063  29.314  1.00  0.00     0.006 A 
ENDBRANCH  39  56
ENDBRANCH  13  14
ENDBRANCH   6   8
ENDBRANCH   3   4
ENDBRANCH   2   3
ENDBRANCH   1   2
BRANCH   1  64
ATOM     64  C   UNL A   1      37.369  21.913  24.573  1.00  0.00     0.002 C 
BRANCH  64  65
ATOM     65  C   UNL A   1      37.605  22.902  25.721  1.00  0.00     0.021 C 
BRANCH  65  66
ATOM     66  C   UNL A   1      36.370  23.707  26.126  1.00  0.00     0.116 C 
BRANCH  66  67
ATOM     67  N   UNL A   1      35.441  22.872  26.855  1.00  0.00    -0.354 N 
ATOM     68  C   UNL A   1      34.142  22.556  26.585  1.00  0.00     0.243 C 
ATOM     69  H   UNL A   1      35.803  22.467  27.676  1.00  0.00     0.163 HD
ATOM     70  O   UNL A   1      33.466  22.116  27.522  1.00  0.00    -0.273 OA
BRANCH  68  71
ATOM     71  C   UNL A   1      33.472  22.930  25.247  1.00  0.00     0.185 C 
ATOM     72  C   UNL A   1      33.644  21.747  24.294  1.00  0.00     0.106 C 
ATOM     73  N   UNL A   1      32.057  23.319  25.309  1.00  0.00    -0.316 N 
ATOM     74  S   UNL A   1      32.153  21.650  23.272  1.00  0.00    -0.138 SA
ATOM     75  C   UNL A   1      31.290  22.972  24.134  1.00  0.00     0.190 C 
BRANCH  73  76
ATOM     76  C   UNL A   1      31.706  24.360  26.170  1.00  0.00     0.257 C 
ATOM     77  O   UNL A   1      31.065  24.178  27.201  1.00  0.00    -0.269 OA
BRANCH  76  78
ATOM     78  C   UNL A   1      32.022  25.751  25.788  1.00  0.00     0.066 A 
ATOM     79  C   UNL A   1      33.288  26.259  26.126  1.00  0.00     0.016 A 
ATOM     80  C   UNL A   1      31.108  26.469  25.005  1.00  0.00     0.083 A 
ATOM     81  C   UNL A   1      33.653  27.530  25.706  1.00  0.00     0.002 A 
ATOM     82  C   UNL A   1      31.517  27.748  24.561  1.00  0.00     0.001 A 
ATOM     83  N   UNL A   1      29.887  25.982  24.686  1.00  0.00    -0.255 NA
ATOM     84  C   UNL A   1      32.772  28.270  24.922  1.00  0.00     0.010 A 
ATOM     85  C   UNL A   1      30.647  28.478  23.739  1.00  0.00     0.012 A 
ATOM     86  C   UNL A   1      29.083  26.705  23.876  1.00  0.00     0.112 A 
ATOM     87  C   UNL A   1      29.416  27.946  23.378  1.00  0.00     0.021 A 
ENDBRANCH  76  78
ENDBRANCH  73  76
ENDBRANCH  68  71
ENDBRANCH  66  67
ENDBRANCH  65  66
ENDBRANCH  64  65
ENDBRANCH   1  64
TORSDOF 15
ENDMDL
