MODEL 1
REMARK VINA RESULT:     -11.8      0.000      0.000
REMARK SMILES N#Cc1ccc(-c2ccc(F)c(C(=O)NCCCCCCNC(=O)c3ccc(-c4c5nc(c(-c6c(F)cccc6F)c6ccc([nH]6)c(-c6c(F)cccc6F)c6nc(c(-c7c(F)cccc7F)c7ccc4[nH]7)C=C6)C=C5)cc3)c2)cc1
REMARK SMILES IDX 18 1 17 2 16 3 15 4 13 5 14 6 12 8 7 9 8 10 79 11 9 12 10 13
REMARK SMILES IDX 11 14 6 15 3 16 4 17 81 18 5 19 80 20 2 21 1 22 19 23 20 24
REMARK SMILES IDX 21 25 22 26 23 27 24 29 25 30 26 31 78 32 27 33 77 34 28 35
REMARK SMILES IDX 29 36 30 37 71 38 31 39 76 40 70 41 72 42 32 43 75 44 69 45
REMARK SMILES IDX 68 46 33 48 59 49 42 50 58 51 43 52 46 53 57 54 73 55 44 56
REMARK SMILES IDX 45 57 56 59 74 60 47 61 34 62 35 63 40 64 36 65 37 66 39 67
REMARK SMILES IDX 41 68 38 69 60 70 61 71 66 72 62 73 63 74 65 75 67 76 64 77
REMARK SMILES IDX 48 78 49 79 54 80 50 81 51 82 53 83 55 84 52 85
REMARK H PARENT 15 7 22 28 72 47 46 58
REMARK Flexibility Score: inf
ROOT
ATOM      1  C   UNL A   1      36.416  23.228  24.640  1.00  0.00     0.002 C 
ENDROOT
BRANCH   1   2
ATOM      2  C   UNL A   1      35.690  23.891  25.809  1.00  0.00     0.021 C 
BRANCH   2   3
ATOM      3  C   UNL A   1      34.788  25.068  25.464  1.00  0.00     0.116 C 
BRANCH   3   4
ATOM      4  N   UNL A   1      33.450  24.964  26.008  1.00  0.00    -0.352 N 
ATOM      5  C   UNL A   1      32.401  24.138  25.683  1.00  0.00     0.254 C 
ATOM      6  O   UNL A   1      31.355  24.278  26.322  1.00  0.00    -0.269 OA
ATOM      7  H   UNL A   1      33.259  25.594  26.740  1.00  0.00     0.163 HD
BRANCH   5   8
ATOM      8  C   UNL A   1      32.425  23.148  24.570  1.00  0.00     0.076 A 
ATOM      9  C   UNL A   1      32.397  20.768  23.957  1.00  0.00    -0.017 A 
ATOM     10  C   UNL A   1      32.349  21.137  22.605  1.00  0.00     0.012 A 
ATOM     11  C   UNL A   1      32.374  21.784  24.929  1.00  0.00     0.025 A 
ATOM     12  C   UNL A   1      32.449  22.474  22.238  1.00  0.00     0.041 A 
ATOM     13  C   UNL A   1      32.566  23.456  23.218  1.00  0.00     0.135 A 
ATOM     14  F   UNL A   1      32.894  24.686  22.799  1.00  0.00    -0.206 F 
BRANCH   9  15
ATOM     15  C   UNL A   1      32.593  19.358  24.322  1.00  0.00    -0.018 A 
ATOM     16  C   UNL A   1      32.966  16.627  24.920  1.00  0.00     0.052 A 
ATOM     17  C   UNL A   1      32.866  17.570  25.949  1.00  0.00     0.020 A 
ATOM     18  C   UNL A   1      32.897  17.046  23.591  1.00  0.00     0.020 A 
ATOM     19  C   UNL A   1      32.684  18.927  25.652  1.00  0.00     0.010 A 
ATOM     20  C   UNL A   1      32.714  18.398  23.299  1.00  0.00     0.010 A 
BRANCH  16  21
ATOM     21  C   UNL A   1      33.134  15.234  25.220  1.00  0.00     0.099 C 
ATOM     22  N   UNL A   1      33.285  14.112  25.459  1.00  0.00    -0.192 NA
ENDBRANCH  16  21
ENDBRANCH   9  15
ENDBRANCH   5   8
ENDBRANCH   3   4
ENDBRANCH   2   3
ENDBRANCH   1   2
BRANCH   1  23
ATOM     23  C   UNL A   1      36.000  21.790  24.318  1.00  0.00     0.002 C 
BRANCH  23  24
ATOM     24  C   UNL A   1      36.794  20.689  25.026  1.00  0.00     0.021 C 
BRANCH  24  25
ATOM     25  C   UNL A   1      38.231  21.056  25.387  1.00  0.00     0.116 C 
BRANCH  25  26
ATOM     26  N   UNL A   1      39.091  19.887  25.477  1.00  0.00    -0.352 N 
ATOM     27  C   UNL A   1      40.402  19.796  25.873  1.00  0.00     0.251 C 
ATOM     28  H   UNL A   1      38.672  19.035  25.218  1.00  0.00     0.163 HD
ATOM     29  O   UNL A   1      41.035  18.761  25.692  1.00  0.00    -0.269 OA
BRANCH  27  30
ATOM     30  C   UNL A   1      41.062  20.962  26.494  1.00  0.00     0.039 A 
ATOM     31  C   UNL A   1      41.684  21.905  25.673  1.00  0.00     0.014 A 
ATOM     32  C   UNL A   1      41.048  21.136  27.882  1.00  0.00     0.014 A 
ATOM     33  C   UNL A   1      42.213  23.067  26.235  1.00  0.00     0.010 A 
ATOM     34  C   UNL A   1      41.512  22.327  28.433  1.00  0.00     0.010 A 
ATOM     35  C   UNL A   1      42.081  23.313  27.612  1.00  0.00    -0.014 A 
BRANCH  35  36
ATOM     36  C   UNL A   1      42.464  24.621  28.203  1.00  0.00     0.031 A 
ATOM     37  C   UNL A   1      41.434  25.691  28.419  1.00  0.00     0.074 A 
ATOM     38  C   UNL A   1      43.765  24.868  28.460  1.00  0.00     0.049 A 
ATOM     39  N   UNL A   1      41.606  26.928  28.811  1.00  0.00    -0.248 NA
ATOM     40  C   UNL A   1      40.032  25.338  28.146  1.00  0.00     0.031 C 
ATOM     41  C   UNL A   1      44.861  23.916  28.259  1.00  0.00     0.029 A 
ATOM     42  N   UNL A   1      44.393  25.999  28.925  1.00  0.00    -0.354 N 
ATOM     43  C   UNL A   1      40.342  27.502  28.820  1.00  0.00     0.074 A 
ATOM     44  C   UNL A   1      39.413  26.491  28.363  1.00  0.00     0.031 C 
ATOM     45  C   UNL A   1      46.018  24.498  28.605  1.00  0.00     0.029 A 
ATOM     46  C   UNL A   1      45.762  25.881  28.995  1.00  0.00     0.049 A 
ATOM     47  H   UNL A   1      43.909  26.816  29.185  1.00  0.00     0.167 HD
ATOM     48  C   UNL A   1      39.994  28.755  29.191  1.00  0.00     0.037 A 
ATOM     49  C   UNL A   1      46.710  26.788  29.302  1.00  0.00     0.037 A 
ATOM     50  C   UNL A   1      40.925  29.743  29.671  1.00  0.00     0.049 A 
ATOM     51  C   UNL A   1      46.295  28.185  29.674  1.00  0.00     0.074 A 
ATOM     52  C   UNL A   1      40.648  31.015  30.141  1.00  0.00     0.029 A 
ATOM     53  N   UNL A   1      42.298  29.581  29.732  1.00  0.00    -0.354 N 
ATOM     54  N   UNL A   1      45.087  28.689  29.753  1.00  0.00    -0.248 NA
ATOM     55  C   UNL A   1      47.363  29.143  29.997  1.00  0.00     0.031 C 
ATOM     56  C   UNL A   1      41.858  31.651  30.411  1.00  0.00     0.029 A 
ATOM     57  C   UNL A   1      42.886  30.750  30.186  1.00  0.00     0.049 A 
ATOM     58  H   UNL A   1      42.784  28.759  29.491  1.00  0.00     0.167 HD
ATOM     59  C   UNL A   1      45.248  30.009  30.152  1.00  0.00     0.074 A 
ATOM     60  C   UNL A   1      46.669  30.228  30.316  1.00  0.00     0.031 C 
ATOM     61  C   UNL A   1      44.301  30.953  30.360  1.00  0.00     0.037 A 
BRANCH  48  62
ATOM     62  C   UNL A   1      38.552  29.158  29.110  1.00  0.00     0.057 A 
ATOM     63  C   UNL A   1      38.036  29.704  27.927  1.00  0.00     0.134 A 
ATOM     64  C   UNL A   1      37.724  29.158  30.238  1.00  0.00     0.134 A 
ATOM     65  F   UNL A   1      38.783  29.743  26.813  1.00  0.00    -0.206 F 
ATOM     66  C   UNL A   1      36.762  30.270  27.880  1.00  0.00     0.040 A 
ATOM     67  C   UNL A   1      36.437  29.698  30.196  1.00  0.00     0.040 A 
ATOM     68  F   UNL A   1      38.156  28.644  31.400  1.00  0.00    -0.206 F 
ATOM     69  C   UNL A   1      35.960  30.273  29.019  1.00  0.00     0.006 A 
ENDBRANCH  48  62
BRANCH  49  70
ATOM     70  C   UNL A   1      48.146  26.406  29.246  1.00  0.00     0.057 A 
ATOM     71  C   UNL A   1      48.908  26.604  28.087  1.00  0.00     0.134 A 
ATOM     72  C   UNL A   1      48.791  25.827  30.345  1.00  0.00     0.134 A 
ATOM     73  F   UNL A   1      48.351  27.148  26.994  1.00  0.00    -0.206 F 
ATOM     74  C   UNL A   1      50.249  26.224  28.016  1.00  0.00     0.040 A 
ATOM     75  C   UNL A   1      50.141  25.474  30.299  1.00  0.00     0.040 A 
ATOM     76  F   UNL A   1      48.123  25.628  31.491  1.00  0.00    -0.206 F 
ATOM     77  C   UNL A   1      50.872  25.665  29.128  1.00  0.00     0.006 A 
ENDBRANCH  49  70
BRANCH  61  78
ATOM     78  C   UNL A   1      44.740  32.317  30.806  1.00  0.00     0.057 A 
ATOM     79  C   UNL A   1      44.830  32.624  32.172  1.00  0.00     0.134 A 
ATOM     80  C   UNL A   1      44.929  33.361  29.894  1.00  0.00     0.134 A 
ATOM     81  F   UNL A   1      44.646  31.670  33.096  1.00  0.00    -0.206 F 
ATOM     82  C   UNL A   1      45.051  33.928  32.612  1.00  0.00     0.040 A 
ATOM     83  C   UNL A   1      45.181  34.665  30.323  1.00  0.00     0.040 A 
ATOM     84  F   UNL A   1      44.865  33.131  28.573  1.00  0.00    -0.206 F 
ATOM     85  C   UNL A   1      45.223  34.954  31.686  1.00  0.00     0.006 A 
ENDBRANCH  61  78
ENDBRANCH  35  36
ENDBRANCH  27  30
ENDBRANCH  25  26
ENDBRANCH  24  25
ENDBRANCH  23  24
ENDBRANCH   1  23
TORSDOF 15
ENDMDL
MODEL 2
REMARK VINA RESULT:     -11.6      4.343      9.114
REMARK SMILES N#Cc1ccc(-c2ccc(F)c(C(=O)NCCCCCCNC(=O)c3ccc(-c4c5nc(c(-c6c(F)cccc6F)c6ccc([nH]6)c(-c6c(F)cccc6F)c6nc(c(-c7c(F)cccc7F)c7ccc4[nH]7)C=C6)C=C5)cc3)c2)cc1
REMARK SMILES IDX 18 1 17 2 16 3 15 4 13 5 14 6 12 8 7 9 8 10 79 11 9 12 10 13
REMARK SMILES IDX 11 14 6 15 3 16 4 17 81 18 5 19 80 20 2 21 1 22 19 23 20 24
REMARK SMILES IDX 21 25 22 26 23 27 24 29 25 30 26 31 78 32 27 33 77 34 28 35
REMARK SMILES IDX 29 36 30 37 71 38 31 39 76 40 70 41 72 42 32 43 75 44 69 45
REMARK SMILES IDX 68 46 33 48 59 49 42 50 58 51 43 52 46 53 57 54 73 55 44 56
REMARK SMILES IDX 45 57 56 59 74 60 47 61 34 62 35 63 40 64 36 65 37 66 39 67
REMARK SMILES IDX 41 68 38 69 60 70 61 71 66 72 62 73 63 74 65 75 67 76 64 77
REMARK SMILES IDX 48 78 49 79 54 80 50 81 51 82 53 83 55 84 52 85
REMARK H PARENT 15 7 22 28 72 47 46 58
REMARK Flexibility Score: inf
ROOT
ATOM      1  C   UNL A   1      31.841  29.040  27.007  1.00  0.00     0.002 C 
ENDROOT
BRANCH   1   2
ATOM      2  C   UNL A   1      32.276  27.665  26.506  1.00  0.00     0.021 C 
BRANCH   2   3
ATOM      3  C   UNL A   1      31.232  26.862  25.742  1.00  0.00     0.116 C 
BRANCH   3   4
ATOM      4  N   UNL A   1      30.659  25.769  26.501  1.00  0.00    -0.352 N 
ATOM      5  C   UNL A   1      30.822  24.409  26.397  1.00  0.00     0.254 C 
ATOM      6  O   UNL A   1      30.191  23.704  27.187  1.00  0.00    -0.269 OA
ATOM      7  H   UNL A   1      30.046  26.051  27.218  1.00  0.00     0.163 HD
BRANCH   5   8
ATOM      8  C   UNL A   1      31.647  23.740  25.351  1.00  0.00     0.076 A 
ATOM      9  C   UNL A   1      33.801  22.682  24.820  1.00  0.00    -0.017 A 
ATOM     10  C   UNL A   1      33.306  22.361  23.548  1.00  0.00     0.012 A 
ATOM     11  C   UNL A   1      32.939  23.319  25.731  1.00  0.00     0.025 A 
ATOM     12  C   UNL A   1      32.055  22.813  23.145  1.00  0.00     0.041 A 
ATOM     13  C   UNL A   1      31.274  23.564  24.020  1.00  0.00     0.135 A 
ATOM     14  F   UNL A   1      30.196  24.163  23.497  1.00  0.00    -0.206 F 
BRANCH   9  15
ATOM     15  C   UNL A   1      35.221  22.465  25.127  1.00  0.00    -0.018 A 
ATOM     16  C   UNL A   1      37.953  22.149  25.751  1.00  0.00     0.052 A 
ATOM     17  C   UNL A   1      37.235  21.101  25.164  1.00  0.00     0.020 A 
ATOM     18  C   UNL A   1      37.307  23.349  26.045  1.00  0.00     0.020 A 
ATOM     19  C   UNL A   1      35.877  21.257  24.856  1.00  0.00     0.010 A 
ATOM     20  C   UNL A   1      35.954  23.502  25.735  1.00  0.00     0.010 A 
BRANCH  16  21
ATOM     21  C   UNL A   1      39.349  22.000  26.051  1.00  0.00     0.099 C 
ATOM     22  N   UNL A   1      40.472  21.886  26.307  1.00  0.00    -0.192 NA
ENDBRANCH  16  21
ENDBRANCH   9  15
ENDBRANCH   5   8
ENDBRANCH   3   4
ENDBRANCH   2   3
ENDBRANCH   1   2
BRANCH   1  23
ATOM     23  C   UNL A   1      31.863  30.171  25.975  1.00  0.00     0.002 C 
BRANCH  23  24
ATOM     24  C   UNL A   1      31.560  31.572  26.511  1.00  0.00     0.021 C 
BRANCH  24  25
ATOM     25  C   UNL A   1      32.713  32.249  27.247  1.00  0.00     0.116 C 
BRANCH  25  26
ATOM     26  N   UNL A   1      32.446  33.652  27.517  1.00  0.00    -0.352 N 
ATOM     27  C   UNL A   1      33.019  34.488  28.442  1.00  0.00     0.251 C 
ATOM     28  H   UNL A   1      31.753  34.064  26.952  1.00  0.00     0.163 HD
ATOM     29  O   UNL A   1      32.528  35.589  28.673  1.00  0.00    -0.269 OA
BRANCH  27  30
ATOM     30  C   UNL A   1      34.217  34.046  29.184  1.00  0.00     0.039 A 
ATOM     31  C   UNL A   1      34.054  33.248  30.318  1.00  0.00     0.014 A 
ATOM     32  C   UNL A   1      35.498  34.402  28.750  1.00  0.00     0.014 A 
ATOM     33  C   UNL A   1      35.178  32.731  30.964  1.00  0.00     0.010 A 
ATOM     34  C   UNL A   1      36.615  33.828  29.352  1.00  0.00     0.010 A 
ATOM     35  C   UNL A   1      36.464  32.971  30.452  1.00  0.00    -0.014 A 
BRANCH  35  36
ATOM     36  C   UNL A   1      37.657  32.280  31.007  1.00  0.00     0.031 A 
ATOM     37  C   UNL A   1      38.313  31.164  30.247  1.00  0.00     0.074 A 
ATOM     38  C   UNL A   1      38.089  32.608  32.242  1.00  0.00     0.049 A 
ATOM     39  N   UNL A   1      39.285  30.374  30.627  1.00  0.00    -0.248 NA
ATOM     40  C   UNL A   1      37.807  30.884  28.894  1.00  0.00     0.031 C 
ATOM     41  C   UNL A   1      37.510  33.654  33.088  1.00  0.00     0.029 A 
ATOM     42  N   UNL A   1      39.101  32.084  33.011  1.00  0.00    -0.354 N 
ATOM     43  C   UNL A   1      39.497  29.499  29.570  1.00  0.00     0.074 A 
ATOM     44  C   UNL A   1      38.533  29.831  28.544  1.00  0.00     0.031 C 
ATOM     45  C   UNL A   1      38.178  33.699  34.250  1.00  0.00     0.029 A 
ATOM     46  C   UNL A   1      39.192  32.651  34.261  1.00  0.00     0.049 A 
ATOM     47  H   UNL A   1      39.704  31.372  32.697  1.00  0.00     0.167 HD
ATOM     48  C   UNL A   1      40.424  28.520  29.467  1.00  0.00     0.037 A 
ATOM     49  C   UNL A   1      39.976  32.342  35.313  1.00  0.00     0.037 A 
ATOM     50  C   UNL A   1      41.397  28.218  30.484  1.00  0.00     0.049 A 
ATOM     51  C   UNL A   1      40.973  31.222  35.181  1.00  0.00     0.074 A 
ATOM     52  C   UNL A   1      42.423  27.290  30.432  1.00  0.00     0.029 A 
ATOM     53  N   UNL A   1      41.459  28.818  31.730  1.00  0.00    -0.354 N 
ATOM     54  N   UNL A   1      41.214  30.455  34.145  1.00  0.00    -0.248 NA
ATOM     55  C   UNL A   1      41.804  30.917  36.355  1.00  0.00     0.031 C 
ATOM     56  C   UNL A   1      43.056  27.273  31.673  1.00  0.00     0.029 A 
ATOM     57  C   UNL A   1      42.477  28.245  32.474  1.00  0.00     0.049 A 
ATOM     58  H   UNL A   1      40.870  29.543  32.041  1.00  0.00     0.167 HD
ATOM     59  C   UNL A   1      42.233  29.596  34.533  1.00  0.00     0.074 A 
ATOM     60  C   UNL A   1      42.578  29.943  35.895  1.00  0.00     0.031 C 
ATOM     61  C   UNL A   1      42.824  28.607  33.823  1.00  0.00     0.037 A 
BRANCH  48  62
ATOM     62  C   UNL A   1      40.461  27.689  28.219  1.00  0.00     0.057 A 
ATOM     63  C   UNL A   1      39.854  26.425  28.193  1.00  0.00     0.134 A 
ATOM     64  C   UNL A   1      41.227  28.062  27.109  1.00  0.00     0.134 A 
ATOM     65  F   UNL A   1      39.116  26.004  29.230  1.00  0.00    -0.206 F 
ATOM     66  C   UNL A   1      40.040  25.549  27.123  1.00  0.00     0.040 A 
ATOM     67  C   UNL A   1      41.398  27.204  26.021  1.00  0.00     0.040 A 
ATOM     68  F   UNL A   1      41.828  29.261  27.069  1.00  0.00    -0.206 F 
ATOM     69  C   UNL A   1      40.819  25.936  26.035  1.00  0.00     0.006 A 
ENDBRANCH  48  62
BRANCH  49  70
ATOM     70  C   UNL A   1      39.832  33.090  36.589  1.00  0.00     0.057 A 
ATOM     71  C   UNL A   1      40.626  34.211  36.871  1.00  0.00     0.134 A 
ATOM     72  C   UNL A   1      38.904  32.703  37.562  1.00  0.00     0.134 A 
ATOM     73  F   UNL A   1      41.541  34.633  35.985  1.00  0.00    -0.206 F 
ATOM     74  C   UNL A   1      40.517  34.903  38.078  1.00  0.00     0.040 A 
ATOM     75  C   UNL A   1      38.760  33.408  38.759  1.00  0.00     0.040 A 
ATOM     76  F   UNL A   1      38.099  31.652  37.347  1.00  0.00    -0.206 F 
ATOM     77  C   UNL A   1      39.575  34.507  39.023  1.00  0.00     0.006 A 
ENDBRANCH  49  70
BRANCH  61  78
ATOM     78  C   UNL A   1      43.923  27.822  34.475  1.00  0.00     0.057 A 
ATOM     79  C   UNL A   1      45.258  28.240  34.366  1.00  0.00     0.134 A 
ATOM     80  C   UNL A   1      43.681  26.582  35.078  1.00  0.00     0.134 A 
ATOM     81  F   UNL A   1      45.557  29.412  33.786  1.00  0.00    -0.206 F 
ATOM     82  C   UNL A   1      46.311  27.436  34.798  1.00  0.00     0.040 A 
ATOM     83  C   UNL A   1      44.726  25.781  35.541  1.00  0.00     0.040 A 
ATOM     84  F   UNL A   1      42.426  26.129  35.221  1.00  0.00    -0.206 F 
ATOM     85  C   UNL A   1      46.047  26.200  35.384  1.00  0.00     0.006 A 
ENDBRANCH  61  78
ENDBRANCH  35  36
ENDBRANCH  27  30
ENDBRANCH  25  26
ENDBRANCH  24  25
ENDBRANCH  23  24
ENDBRANCH   1  23
TORSDOF 15
ENDMDL
MODEL 3
REMARK VINA RESULT:     -11.3      2.134      6.918
REMARK SMILES N#Cc1ccc(-c2ccc(F)c(C(=O)NCCCCCCNC(=O)c3ccc(-c4c5nc(c(-c6c(F)cccc6F)c6ccc([nH]6)c(-c6c(F)cccc6F)c6nc(c(-c7c(F)cccc7F)c7ccc4[nH]7)C=C6)C=C5)cc3)c2)cc1
REMARK SMILES IDX 18 1 17 2 16 3 15 4 13 5 14 6 12 8 7 9 8 10 79 11 9 12 10 13
REMARK SMILES IDX 11 14 6 15 3 16 4 17 81 18 5 19 80 20 2 21 1 22 19 23 20 24
REMARK SMILES IDX 21 25 22 26 23 27 24 29 25 30 26 31 78 32 27 33 77 34 28 35
REMARK SMILES IDX 29 36 30 37 71 38 31 39 76 40 70 41 72 42 32 43 75 44 69 45
REMARK SMILES IDX 68 46 33 48 59 49 42 50 58 51 43 52 46 53 57 54 73 55 44 56
REMARK SMILES IDX 45 57 56 59 74 60 47 61 34 62 35 63 40 64 36 65 37 66 39 67
REMARK SMILES IDX 41 68 38 69 60 70 61 71 66 72 62 73 63 74 65 75 67 76 64 77
REMARK SMILES IDX 48 78 49 79 54 80 50 81 51 82 53 83 55 84 52 85
REMARK H PARENT 15 7 22 28 72 47 46 58
REMARK Flexibility Score: inf
ROOT
ATOM      1  C   UNL A   1      31.131  26.551  25.729  1.00  0.00     0.002 C 
ENDROOT
BRANCH   1   2
ATOM      2  C   UNL A   1      31.179  25.030  25.858  1.00  0.00     0.021 C 
BRANCH   2   3
ATOM      3  C   UNL A   1      30.884  24.234  24.594  1.00  0.00     0.116 C 
BRANCH   3   4
ATOM      4  N   UNL A   1      31.786  24.517  23.497  1.00  0.00    -0.352 N 
ATOM      5  C   UNL A   1      33.083  24.125  23.264  1.00  0.00     0.254 C 
ATOM      6  O   UNL A   1      33.617  24.530  22.229  1.00  0.00    -0.269 OA
ATOM      7  H   UNL A   1      31.403  25.089  22.793  1.00  0.00     0.163 HD
BRANCH   5   8
ATOM      8  C   UNL A   1      33.897  23.313  24.212  1.00  0.00     0.076 A 
ATOM      9  C   UNL A   1      34.516  21.051  24.948  1.00  0.00    -0.017 A 
ATOM     10  C   UNL A   1      35.441  21.616  25.838  1.00  0.00     0.012 A 
ATOM     11  C   UNL A   1      33.795  21.910  24.100  1.00  0.00     0.025 A 
ATOM     12  C   UNL A   1      35.515  22.995  25.994  1.00  0.00     0.041 A 
ATOM     13  C   UNL A   1      34.689  23.824  25.239  1.00  0.00     0.135 A 
ATOM     14  F   UNL A   1      34.640  25.113  25.602  1.00  0.00    -0.206 F 
BRANCH   9  15
ATOM     15  C   UNL A   1      34.233  19.611  25.006  1.00  0.00    -0.018 A 
ATOM     16  C   UNL A   1      33.600  16.867  25.170  1.00  0.00     0.052 A 
ATOM     17  C   UNL A   1      34.802  17.283  24.585  1.00  0.00     0.020 A 
ATOM     18  C   UNL A   1      32.705  17.818  25.658  1.00  0.00     0.020 A 
ATOM     19  C   UNL A   1      35.115  18.646  24.501  1.00  0.00     0.010 A 
ATOM     20  C   UNL A   1      33.021  19.175  25.575  1.00  0.00     0.010 A 
BRANCH  16  21
ATOM     21  C   UNL A   1      33.284  15.471  25.275  1.00  0.00     0.099 C 
ATOM     22  N   UNL A   1      33.040  14.344  25.372  1.00  0.00    -0.192 NA
ENDBRANCH  16  21
ENDBRANCH   9  15
ENDBRANCH   5   8
ENDBRANCH   3   4
ENDBRANCH   2   3
ENDBRANCH   1   2
BRANCH   1  23
ATOM     23  C   UNL A   1      31.690  27.345  26.913  1.00  0.00     0.002 C 
BRANCH  23  24
ATOM     24  C   UNL A   1      32.340  28.687  26.572  1.00  0.00     0.021 C 
BRANCH  24  25
ATOM     25  C   UNL A   1      33.677  28.954  27.259  1.00  0.00     0.116 C 
BRANCH  25  26
ATOM     26  N   UNL A   1      33.752  30.295  27.815  1.00  0.00    -0.352 N 
ATOM     27  C   UNL A   1      34.756  30.885  28.542  1.00  0.00     0.251 C 
ATOM     28  H   UNL A   1      32.968  30.865  27.645  1.00  0.00     0.163 HD
ATOM     29  O   UNL A   1      34.566  31.956  29.108  1.00  0.00    -0.269 OA
BRANCH  27  30
ATOM     30  C   UNL A   1      36.064  30.209  28.663  1.00  0.00     0.039 A 
ATOM     31  C   UNL A   1      36.940  30.230  27.575  1.00  0.00     0.014 A 
ATOM     32  C   UNL A   1      36.433  29.575  29.854  1.00  0.00     0.014 A 
ATOM     33  C   UNL A   1      38.221  29.694  27.712  1.00  0.00     0.010 A 
ATOM     34  C   UNL A   1      37.734  29.105  30.010  1.00  0.00     0.010 A 
ATOM     35  C   UNL A   1      38.647  29.179  28.947  1.00  0.00    -0.014 A 
BRANCH  35  36
ATOM     36  C   UNL A   1      40.060  28.778  29.171  1.00  0.00     0.031 A 
ATOM     37  C   UNL A   1      41.057  29.766  29.701  1.00  0.00     0.074 A 
ATOM     38  C   UNL A   1      40.456  27.541  28.806  1.00  0.00     0.049 A 
ATOM     39  N   UNL A   1      42.351  29.627  29.847  1.00  0.00    -0.248 NA
ATOM     40  C   UNL A   1      40.546  31.085  30.106  1.00  0.00     0.031 C 
ATOM     41  C   UNL A   1      39.583  26.505  28.249  1.00  0.00     0.029 A 
ATOM     42  N   UNL A   1      41.696  26.948  28.830  1.00  0.00    -0.354 N 
ATOM     43  C   UNL A   1      42.807  30.839  30.347  1.00  0.00     0.074 A 
ATOM     44  C   UNL A   1      41.661  31.716  30.450  1.00  0.00     0.031 C 
ATOM     45  C   UNL A   1      40.310  25.408  27.991  1.00  0.00     0.029 A 
ATOM     46  C   UNL A   1      41.709  25.676  28.306  1.00  0.00     0.049 A 
ATOM     47  H   UNL A   1      42.499  27.392  29.187  1.00  0.00     0.167 HD
ATOM     48  C   UNL A   1      44.068  31.178  30.699  1.00  0.00     0.037 A 
ATOM     49  C   UNL A   1      42.731  24.830  28.072  1.00  0.00     0.037 A 
ATOM     50  C   UNL A   1      45.197  30.287  30.618  1.00  0.00     0.049 A 
ATOM     51  C   UNL A   1      44.129  25.250  28.439  1.00  0.00     0.074 A 
ATOM     52  C   UNL A   1      46.499  30.523  31.025  1.00  0.00     0.029 A 
ATOM     53  N   UNL A   1      45.166  29.008  30.090  1.00  0.00    -0.354 N 
ATOM     54  N   UNL A   1      44.533  26.372  28.984  1.00  0.00    -0.248 NA
ATOM     55  C   UNL A   1      45.214  24.297  28.161  1.00  0.00     0.031 C 
ATOM     56  C   UNL A   1      47.271  29.419  30.671  1.00  0.00     0.029 A 
ATOM     57  C   UNL A   1      46.438  28.461  30.116  1.00  0.00     0.049 A 
ATOM     58  H   UNL A   1      44.362  28.554  29.748  1.00  0.00     0.167 HD
ATOM     59  C   UNL A   1      45.908  26.252  29.132  1.00  0.00     0.074 A 
ATOM     60  C   UNL A   1      46.272  24.943  28.635  1.00  0.00     0.031 C 
ATOM     61  C   UNL A   1      46.788  27.151  29.633  1.00  0.00     0.037 A 
BRANCH  48  62
ATOM     62  C   UNL A   1      44.328  32.563  31.214  1.00  0.00     0.057 A 
ATOM     63  C   UNL A   1      44.151  32.855  32.574  1.00  0.00     0.134 A 
ATOM     64  C   UNL A   1      44.592  33.632  30.351  1.00  0.00     0.134 A 
ATOM     65  F   UNL A   1      43.885  31.876  33.451  1.00  0.00    -0.206 F 
ATOM     66  C   UNL A   1      44.189  34.166  33.049  1.00  0.00     0.040 A 
ATOM     67  C   UNL A   1      44.659  34.945  30.819  1.00  0.00     0.040 A 
ATOM     68  F   UNL A   1      44.778  33.418  29.039  1.00  0.00    -0.206 F 
ATOM     69  C   UNL A   1      44.438  35.216  32.168  1.00  0.00     0.006 A 
ENDBRANCH  48  62
BRANCH  49  70
ATOM     70  C   UNL A   1      42.471  23.512  27.435  1.00  0.00     0.057 A 
ATOM     71  C   UNL A   1      42.133  22.387  28.200  1.00  0.00     0.134 A 
ATOM     72  C   UNL A   1      42.560  23.340  26.049  1.00  0.00     0.134 A 
ATOM     73  F   UNL A   1      42.037  22.480  29.535  1.00  0.00    -0.206 F 
ATOM     74  C   UNL A   1      41.913  21.140  27.614  1.00  0.00     0.040 A 
ATOM     75  C   UNL A   1      42.309  22.105  25.447  1.00  0.00     0.040 A 
ATOM     76  F   UNL A   1      42.860  24.381  25.258  1.00  0.00    -0.206 F 
ATOM     77  C   UNL A   1      41.993  20.998  26.232  1.00  0.00     0.006 A 
ENDBRANCH  49  70
BRANCH  61  78
ATOM     78  C   UNL A   1      48.237  26.770  29.697  1.00  0.00     0.057 A 
ATOM     79  C   UNL A   1      49.092  27.037  28.617  1.00  0.00     0.134 A 
ATOM     80  C   UNL A   1      48.751  26.012  30.755  1.00  0.00     0.134 A 
ATOM     81  F   UNL A   1      48.655  27.747  27.565  1.00  0.00    -0.206 F 
ATOM     82  C   UNL A   1      50.389  26.531  28.572  1.00  0.00     0.040 A 
ATOM     83  C   UNL A   1      50.058  25.525  30.735  1.00  0.00     0.040 A 
ATOM     84  F   UNL A   1      47.987  25.729  31.823  1.00  0.00    -0.206 F 
ATOM     85  C   UNL A   1      50.875  25.768  29.631  1.00  0.00     0.006 A 
ENDBRANCH  61  78
ENDBRANCH  35  36
ENDBRANCH  27  30
ENDBRANCH  25  26
ENDBRANCH  24  25
ENDBRANCH  23  24
ENDBRANCH   1  23
TORSDOF 15
ENDMDL
