MODEL 1
REMARK VINA RESULT:     -10.2      0.000      0.000
REMARK SMILES N#Cc1cccc(NCCCC(=O)NCCCCCCNC(=O)c2ccc(-c3c4nc(c(-c5c(F)cccc5F)c5ccc([nH]5)c(-c5c(F)cccc5F)c5nc(c(-c6c(F)cccc6F)c6ccc3[nH]6)C=C5)C=C4)cc2)c1
REMARK SMILES IDX 16 1 15 2 14 3 12 4 13 5 11 7 10 8 9 9 8 10 7 12 3 13 4 14
REMARK SMILES IDX 78 15 5 16 6 17 2 18 1 19 17 20 18 21 19 22 20 23 21 24
REMARK SMILES IDX 22 25 23 27 24 28 25 29 77 30 26 31 76 32 27 33 28 34 29 35
REMARK SMILES IDX 70 36 30 37 75 38 69 39 71 40 31 41 74 42 68 43 67 44 32 46
REMARK SMILES IDX 58 47 41 48 57 49 42 50 45 51 56 52 72 53 43 54 44 55 55 57
REMARK SMILES IDX 73 58 46 59 33 60 34 61 39 62 35 63 36 64 38 65 40 66 37 67
REMARK SMILES IDX 59 68 60 69 65 70 61 71 62 72 64 73 66 74 63 75 47 76 48 77
REMARK SMILES IDX 53 78 49 79 50 80 52 81 54 82 51 83
REMARK H PARENT 14 6 8 11 21 26 71 45 45 56
REMARK Flexibility Score: inf
ROOT
ATOM      1  C   UNL A   1      33.101  28.241  26.894  1.00  0.00     0.021 C 
ENDROOT
BRANCH   1   2
ATOM      2  C   UNL A   1      34.367  28.325  26.044  1.00  0.00     0.116 C 
BRANCH   2   3
ATOM      3  N   UNL A   1      34.078  28.991  24.793  1.00  0.00    -0.356 N 
ATOM      4  C   UNL A   1      33.790  28.454  23.579  1.00  0.00     0.220 C 
ATOM      5  O   UNL A   1      33.719  29.206  22.605  1.00  0.00    -0.275 OA
ATOM      6  H   UNL A   1      34.092  29.975  24.826  1.00  0.00     0.163 HD
BRANCH   4   7
ATOM      7  C   UNL A   1      33.519  26.972  23.441  1.00  0.00     0.102 C 
BRANCH   7   8
ATOM      8  C   UNL A   1      32.598  26.583  22.282  1.00  0.00     0.031 C 
BRANCH   8   9
ATOM      9  C   UNL A   1      31.098  26.858  22.430  1.00  0.00     0.113 C 
BRANCH   9  10
ATOM     10  N   UNL A   1      30.753  28.222  22.069  1.00  0.00    -0.385 N 
ATOM     11  H   UNL A   1      31.361  28.693  21.454  1.00  0.00     0.160 HD
BRANCH  10  12
ATOM     12  C   UNL A   1      29.644  28.915  22.515  1.00  0.00     0.035 A 
ATOM     13  C   UNL A   1      28.599  31.087  22.945  1.00  0.00     0.054 A 
ATOM     14  C   UNL A   1      27.398  30.458  23.269  1.00  0.00     0.019 A 
ATOM     15  C   UNL A   1      29.712  30.314  22.583  1.00  0.00     0.045 A 
ATOM     16  C   UNL A   1      27.327  29.066  23.259  1.00  0.00     0.003 A 
ATOM     17  C   UNL A   1      28.447  28.304  22.898  1.00  0.00     0.026 A 
BRANCH  13  18
ATOM     18  C   UNL A   1      28.696  32.516  22.954  1.00  0.00     0.099 C 
ATOM     19  N   UNL A   1      28.759  33.676  22.968  1.00  0.00    -0.192 NA
ENDBRANCH  13  18
ENDBRANCH  10  12
ENDBRANCH   9  10
ENDBRANCH   8   9
ENDBRANCH   7   8
ENDBRANCH   4   7
ENDBRANCH   2   3
ENDBRANCH   1   2
BRANCH   1  20
ATOM     20  C   UNL A   1      32.676  29.590  27.474  1.00  0.00     0.002 C 
BRANCH  20  21
ATOM     21  C   UNL A   1      31.429  30.187  26.816  1.00  0.00     0.002 C 
BRANCH  21  22
ATOM     22  C   UNL A   1      31.523  31.685  26.516  1.00  0.00     0.021 C 
BRANCH  22  23
ATOM     23  C   UNL A   1      32.820  32.327  26.994  1.00  0.00     0.116 C 
BRANCH  23  24
ATOM     24  N   UNL A   1      32.610  33.709  27.398  1.00  0.00    -0.352 N 
ATOM     25  C   UNL A   1      33.144  34.393  28.460  1.00  0.00     0.251 C 
ATOM     26  H   UNL A   1      31.997  34.227  26.827  1.00  0.00     0.163 HD
ATOM     27  O   UNL A   1      32.648  35.451  28.830  1.00  0.00    -0.269 OA
BRANCH  25  28
ATOM     28  C   UNL A   1      34.321  33.840  29.157  1.00  0.00     0.039 A 
ATOM     29  C   UNL A   1      34.132  32.902  30.172  1.00  0.00     0.014 A 
ATOM     30  C   UNL A   1      35.608  34.256  28.804  1.00  0.00     0.014 A 
ATOM     31  C   UNL A   1      35.244  32.339  30.799  1.00  0.00     0.010 A 
ATOM     32  C   UNL A   1      36.713  33.629  29.366  1.00  0.00     0.010 A 
ATOM     33  C   UNL A   1      36.543  32.671  30.375  1.00  0.00    -0.014 A 
BRANCH  33  34
ATOM     34  C   UNL A   1      37.733  32.022  30.978  1.00  0.00     0.031 A 
ATOM     35  C   UNL A   1      38.452  30.925  30.244  1.00  0.00     0.074 A 
ATOM     36  C   UNL A   1      38.131  32.387  32.212  1.00  0.00     0.049 A 
ATOM     37  N   UNL A   1      39.479  30.210  30.628  1.00  0.00    -0.248 NA
ATOM     38  C   UNL A   1      37.935  30.565  28.914  1.00  0.00     0.031 C 
ATOM     39  C   UNL A   1      37.487  33.407  33.042  1.00  0.00     0.029 A 
ATOM     40  N   UNL A   1      39.171  31.938  32.986  1.00  0.00    -0.354 N 
ATOM     41  C   UNL A   1      39.724  29.316  29.594  1.00  0.00     0.074 A 
ATOM     42  C   UNL A   1      38.702  29.533  28.595  1.00  0.00     0.031 C 
ATOM     43  C   UNL A   1      38.165  33.529  34.194  1.00  0.00     0.029 A 
ATOM     44  C   UNL A   1      39.257  32.562  34.207  1.00  0.00     0.049 A 
ATOM     45  H   UNL A   1      39.797  31.237  32.694  1.00  0.00     0.167 HD
ATOM     46  C   UNL A   1      40.726  28.413  29.478  1.00  0.00     0.037 A 
ATOM     47  C   UNL A   1      40.111  32.367  35.229  1.00  0.00     0.037 A 
ATOM     48  C   UNL A   1      41.744  28.206  30.474  1.00  0.00     0.049 A 
ATOM     49  C   UNL A   1      41.192  31.329  35.090  1.00  0.00     0.074 A 
ATOM     50  C   UNL A   1      42.831  27.351  30.430  1.00  0.00     0.029 A 
ATOM     51  N   UNL A   1      41.795  28.853  31.700  1.00  0.00    -0.354 N 
ATOM     52  N   UNL A   1      41.457  30.541  34.077  1.00  0.00    -0.248 NA
ATOM     53  C   UNL A   1      42.096  31.159  36.235  1.00  0.00     0.031 C 
ATOM     54  C   UNL A   1      43.496  27.426  31.657  1.00  0.00     0.029 A 
ATOM     55  C   UNL A   1      42.873  28.388  32.436  1.00  0.00     0.049 A 
ATOM     56  H   UNL A   1      41.158  29.541  32.004  1.00  0.00     0.167 HD
ATOM     57  C   UNL A   1      42.576  29.806  34.448  1.00  0.00     0.074 A 
ATOM     58  C   UNL A   1      42.949  30.257  35.773  1.00  0.00     0.031 C 
ATOM     59  C   UNL A   1      43.239  28.849  33.752  1.00  0.00     0.037 A 
BRANCH  46  60
ATOM     60  C   UNL A   1      40.764  27.571  28.233  1.00  0.00     0.057 A 
ATOM     61  C   UNL A   1      41.496  27.950  27.100  1.00  0.00     0.134 A 
ATOM     62  C   UNL A   1      40.091  26.344  28.180  1.00  0.00     0.134 A 
ATOM     63  F   UNL A   1      42.158  29.118  27.076  1.00  0.00    -0.206 F 
ATOM     64  C   UNL A   1      41.532  27.157  25.951  1.00  0.00     0.040 A 
ATOM     65  C   UNL A   1      40.147  25.524  27.052  1.00  0.00     0.040 A 
ATOM     66  F   UNL A   1      39.375  25.913  29.231  1.00  0.00    -0.206 F 
ATOM     67  C   UNL A   1      40.863  25.936  25.929  1.00  0.00     0.006 A 
ENDBRANCH  46  60
BRANCH  47  68
ATOM     68  C   UNL A   1      39.985  33.171  36.472  1.00  0.00     0.057 A 
ATOM     69  C   UNL A   1      39.111  32.791  37.498  1.00  0.00     0.134 A 
ATOM     70  C   UNL A   1      40.720  34.349  36.658  1.00  0.00     0.134 A 
ATOM     71  F   UNL A   1      38.366  31.681  37.374  1.00  0.00    -0.206 F 
ATOM     72  C   UNL A   1      38.951  33.565  38.648  1.00  0.00     0.040 A 
ATOM     73  C   UNL A   1      40.596  35.114  37.818  1.00  0.00     0.040 A 
ATOM     74  F   UNL A   1      41.582  34.763  35.718  1.00  0.00    -0.206 F 
ATOM     75  C   UNL A   1      39.700  34.729  38.812  1.00  0.00     0.006 A 
ENDBRANCH  47  68
BRANCH  59  76
ATOM     76  C   UNL A   1      44.463  28.254  34.388  1.00  0.00     0.057 A 
ATOM     77  C   UNL A   1      45.734  28.825  34.242  1.00  0.00     0.134 A 
ATOM     78  C   UNL A   1      44.360  27.112  35.193  1.00  0.00     0.134 A 
ATOM     79  F   UNL A   1      45.908  29.914  33.477  1.00  0.00    -0.206 F 
ATOM     80  C   UNL A   1      46.861  28.265  34.847  1.00  0.00     0.040 A 
ATOM     81  C   UNL A   1      45.472  26.564  35.834  1.00  0.00     0.040 A 
ATOM     82  F   UNL A   1      43.172  26.519  35.388  1.00  0.00    -0.206 F 
ATOM     83  C   UNL A   1      46.729  27.136  35.653  1.00  0.00     0.006 A 
ENDBRANCH  59  76
ENDBRANCH  33  34
ENDBRANCH  25  28
ENDBRANCH  23  24
ENDBRANCH  22  23
ENDBRANCH  21  22
ENDBRANCH  20  21
ENDBRANCH   1  20
TORSDOF 18
ENDMDL
MODEL 2
REMARK VINA RESULT:     -10.0      2.280      7.485
REMARK SMILES N#Cc1cccc(NCCCC(=O)NCCCCCCNC(=O)c2ccc(-c3c4nc(c(-c5c(F)cccc5F)c5ccc([nH]5)c(-c5c(F)cccc5F)c5nc(c(-c6c(F)cccc6F)c6ccc3[nH]6)C=C5)C=C4)cc2)c1
REMARK SMILES IDX 16 1 15 2 14 3 12 4 13 5 11 7 10 8 9 9 8 10 7 12 3 13 4 14
REMARK SMILES IDX 78 15 5 16 6 17 2 18 1 19 17 20 18 21 19 22 20 23 21 24
REMARK SMILES IDX 22 25 23 27 24 28 25 29 77 30 26 31 76 32 27 33 28 34 29 35
REMARK SMILES IDX 70 36 30 37 75 38 69 39 71 40 31 41 74 42 68 43 67 44 32 46
REMARK SMILES IDX 58 47 41 48 57 49 42 50 45 51 56 52 72 53 43 54 44 55 55 57
REMARK SMILES IDX 73 58 46 59 33 60 34 61 39 62 35 63 36 64 38 65 40 66 37 67
REMARK SMILES IDX 59 68 60 69 65 70 61 71 62 72 64 73 66 74 63 75 47 76 48 77
REMARK SMILES IDX 53 78 49 79 50 80 52 81 54 82 51 83
REMARK H PARENT 14 6 8 11 21 26 71 45 45 56
REMARK Flexibility Score: inf
ROOT
ATOM      1  C   UNL A   1      34.721  32.549  29.266  1.00  0.00     0.021 C 
ENDROOT
BRANCH   1   2
ATOM      2  C   UNL A   1      33.851  32.146  28.077  1.00  0.00     0.116 C 
BRANCH   2   3
ATOM      3  N   UNL A   1      34.423  30.995  27.413  1.00  0.00    -0.356 N 
ATOM      4  C   UNL A   1      33.802  29.900  26.903  1.00  0.00     0.220 C 
ATOM      5  O   UNL A   1      34.496  28.962  26.507  1.00  0.00    -0.275 OA
ATOM      6  H   UNL A   1      35.402  31.008  27.317  1.00  0.00     0.163 HD
BRANCH   4   7
ATOM      7  C   UNL A   1      32.294  29.858  26.786  1.00  0.00     0.102 C 
BRANCH   7   8
ATOM      8  C   UNL A   1      31.756  29.665  25.366  1.00  0.00     0.031 C 
BRANCH   8   9
ATOM      9  C   UNL A   1      31.406  28.243  24.915  1.00  0.00     0.113 C 
BRANCH   9  10
ATOM     10  N   UNL A   1      32.591  27.435  24.684  1.00  0.00    -0.385 N 
ATOM     11  H   UNL A   1      33.277  27.802  24.082  1.00  0.00     0.160 HD
BRANCH  10  12
ATOM     12  C   UNL A   1      32.836  26.193  25.240  1.00  0.00     0.035 A 
ATOM     13  C   UNL A   1      31.923  24.201  26.331  1.00  0.00     0.054 A 
ATOM     14  C   UNL A   1      33.173  23.586  26.279  1.00  0.00     0.019 A 
ATOM     15  C   UNL A   1      31.767  25.499  25.824  1.00  0.00     0.045 A 
ATOM     16  C   UNL A   1      34.259  24.281  25.750  1.00  0.00     0.003 A 
ATOM     17  C   UNL A   1      34.091  25.579  25.249  1.00  0.00     0.026 A 
BRANCH  13  18
ATOM     18  C   UNL A   1      30.794  23.507  26.875  1.00  0.00     0.099 C 
ATOM     19  N   UNL A   1      29.871  22.944  27.300  1.00  0.00    -0.192 NA
ENDBRANCH  13  18
ENDBRANCH  10  12
ENDBRANCH   9  10
ENDBRANCH   8   9
ENDBRANCH   7   8
ENDBRANCH   4   7
ENDBRANCH   2   3
ENDBRANCH   1   2
BRANCH   1  20
ATOM     20  C   UNL A   1      35.117  34.025  29.247  1.00  0.00     0.002 C 
BRANCH  20  21
ATOM     21  C   UNL A   1      34.386  34.853  28.186  1.00  0.00     0.002 C 
BRANCH  21  22
ATOM     22  C   UNL A   1      33.209  35.673  28.720  1.00  0.00     0.021 C 
BRANCH  22  23
ATOM     23  C   UNL A   1      33.561  36.548  29.918  1.00  0.00     0.116 C 
BRANCH  23  24
ATOM     24  N   UNL A   1      32.533  36.478  30.946  1.00  0.00    -0.352 N 
ATOM     25  C   UNL A   1      32.466  35.670  32.052  1.00  0.00     0.251 C 
ATOM     26  H   UNL A   1      31.778  37.100  30.831  1.00  0.00     0.163 HD
ATOM     27  O   UNL A   1      31.408  35.528  32.655  1.00  0.00    -0.269 OA
BRANCH  25  28
ATOM     28  C   UNL A   1      33.682  34.970  32.509  1.00  0.00     0.039 A 
ATOM     29  C   UNL A   1      33.597  33.627  32.877  1.00  0.00     0.014 A 
ATOM     30  C   UNL A   1      34.902  35.649  32.576  1.00  0.00     0.014 A 
ATOM     31  C   UNL A   1      34.753  32.948  33.262  1.00  0.00     0.010 A 
ATOM     32  C   UNL A   1      36.065  34.949  32.872  1.00  0.00     0.010 A 
ATOM     33  C   UNL A   1      36.002  33.593  33.227  1.00  0.00    -0.014 A 
BRANCH  33  34
ATOM     34  C   UNL A   1      37.249  32.863  33.557  1.00  0.00     0.031 A 
ATOM     35  C   UNL A   1      37.983  33.154  34.836  1.00  0.00     0.074 A 
ATOM     36  C   UNL A   1      37.749  31.975  32.675  1.00  0.00     0.049 A 
ATOM     37  N   UNL A   1      39.111  32.653  35.273  1.00  0.00    -0.248 NA
ATOM     38  C   UNL A   1      37.387  34.158  35.731  1.00  0.00     0.031 C 
ATOM     39  C   UNL A   1      37.152  31.641  31.380  1.00  0.00     0.029 A 
ATOM     40  N   UNL A   1      38.876  31.194  32.731  1.00  0.00    -0.354 N 
ATOM     41  C   UNL A   1      39.359  33.284  36.485  1.00  0.00     0.074 A 
ATOM     42  C   UNL A   1      38.302  34.250  36.684  1.00  0.00     0.031 C 
ATOM     43  C   UNL A   1      37.899  30.701  30.781  1.00  0.00     0.029 A 
ATOM     44  C   UNL A   1      39.054  30.405  31.621  1.00  0.00     0.049 A 
ATOM     45  H   UNL A   1      39.497  31.199  33.495  1.00  0.00     0.167 HD
ATOM     46  C   UNL A   1      40.364  33.060  37.364  1.00  0.00     0.037 A 
ATOM     47  C   UNL A   1      40.045  29.548  31.310  1.00  0.00     0.037 A 
ATOM     48  C   UNL A   1      41.410  32.092  37.162  1.00  0.00     0.049 A 
ATOM     49  C   UNL A   1      41.171  29.347  32.287  1.00  0.00     0.074 A 
ATOM     50  C   UNL A   1      42.447  31.754  38.014  1.00  0.00     0.029 A 
ATOM     51  N   UNL A   1      41.560  31.314  36.023  1.00  0.00    -0.354 N 
ATOM     52  N   UNL A   1      41.356  29.897  33.461  1.00  0.00    -0.248 NA
ATOM     53  C   UNL A   1      42.224  28.400  31.895  1.00  0.00     0.031 C 
ATOM     54  C   UNL A   1      43.264  30.827  37.361  1.00  0.00     0.029 A 
ATOM     55  C   UNL A   1      42.694  30.525  36.135  1.00  0.00     0.049 A 
ATOM     56  H   UNL A   1      40.952  31.322  35.248  1.00  0.00     0.167 HD
ATOM     57  C   UNL A   1      42.525  29.339  33.964  1.00  0.00     0.074 A 
ATOM     58  C   UNL A   1      42.995  28.396  32.972  1.00  0.00     0.031 C 
ATOM     59  C   UNL A   1      43.149  29.584  35.143  1.00  0.00     0.037 A 
BRANCH  46  60
ATOM     60  C   UNL A   1      40.389  33.885  38.620  1.00  0.00     0.057 A 
ATOM     61  C   UNL A   1      39.672  33.517  39.767  1.00  0.00     0.134 A 
ATOM     62  C   UNL A   1      41.170  35.045  38.698  1.00  0.00     0.134 A 
ATOM     63  F   UNL A   1      38.893  32.422  39.761  1.00  0.00    -0.206 F 
ATOM     64  C   UNL A   1      39.707  34.285  40.932  1.00  0.00     0.040 A 
ATOM     65  C   UNL A   1      41.242  35.804  39.867  1.00  0.00     0.040 A 
ATOM     66  F   UNL A   1      41.889  35.455  37.641  1.00  0.00    -0.206 F 
ATOM     67  C   UNL A   1      40.502  35.428  40.986  1.00  0.00     0.006 A 
ENDBRANCH  46  60
BRANCH  47  68
ATOM     68  C   UNL A   1      40.016  28.812  30.019  1.00  0.00     0.057 A 
ATOM     69  C   UNL A   1      40.680  29.303  28.888  1.00  0.00     0.134 A 
ATOM     70  C   UNL A   1      39.311  27.611  29.878  1.00  0.00     0.134 A 
ATOM     71  F   UNL A   1      41.361  30.458  28.953  1.00  0.00    -0.206 F 
ATOM     72  C   UNL A   1      40.621  28.643  27.660  1.00  0.00     0.040 A 
ATOM     73  C   UNL A   1      39.271  26.922  28.666  1.00  0.00     0.040 A 
ATOM     74  F   UNL A   1      38.662  27.081  30.926  1.00  0.00    -0.206 F 
ATOM     75  C   UNL A   1      39.917  27.445  27.548  1.00  0.00     0.006 A 
ENDBRANCH  47  68
BRANCH  59  76
ATOM     76  C   UNL A   1      44.385  28.786  35.449  1.00  0.00     0.057 A 
ATOM     77  C   UNL A   1      44.334  27.549  36.106  1.00  0.00     0.134 A 
ATOM     78  C   UNL A   1      45.645  29.246  35.043  1.00  0.00     0.134 A 
ATOM     79  F   UNL A   1      43.162  27.053  36.532  1.00  0.00    -0.206 F 
ATOM     80  C   UNL A   1      45.492  26.816  36.374  1.00  0.00     0.040 A 
ATOM     81  C   UNL A   1      46.805  28.506  35.272  1.00  0.00     0.040 A 
ATOM     82  F   UNL A   1      45.768  30.417  34.398  1.00  0.00    -0.206 F 
ATOM     83  C   UNL A   1      46.730  27.291  35.949  1.00  0.00     0.006 A 
ENDBRANCH  59  76
ENDBRANCH  33  34
ENDBRANCH  25  28
ENDBRANCH  23  24
ENDBRANCH  22  23
ENDBRANCH  21  22
ENDBRANCH  20  21
ENDBRANCH   1  20
TORSDOF 18
ENDMDL
MODEL 3
REMARK VINA RESULT:      -9.9      0.954      6.473
REMARK SMILES N#Cc1cccc(NCCCC(=O)NCCCCCCNC(=O)c2ccc(-c3c4nc(c(-c5c(F)cccc5F)c5ccc([nH]5)c(-c5c(F)cccc5F)c5nc(c(-c6c(F)cccc6F)c6ccc3[nH]6)C=C5)C=C4)cc2)c1
REMARK SMILES IDX 16 1 15 2 14 3 12 4 13 5 11 7 10 8 9 9 8 10 7 12 3 13 4 14
REMARK SMILES IDX 78 15 5 16 6 17 2 18 1 19 17 20 18 21 19 22 20 23 21 24
REMARK SMILES IDX 22 25 23 27 24 28 25 29 77 30 26 31 76 32 27 33 28 34 29 35
REMARK SMILES IDX 70 36 30 37 75 38 69 39 71 40 31 41 74 42 68 43 67 44 32 46
REMARK SMILES IDX 58 47 41 48 57 49 42 50 45 51 56 52 72 53 43 54 44 55 55 57
REMARK SMILES IDX 73 58 46 59 33 60 34 61 39 62 35 63 36 64 38 65 40 66 37 67
REMARK SMILES IDX 59 68 60 69 65 70 61 71 62 72 64 73 66 74 63 75 47 76 48 77
REMARK SMILES IDX 53 78 49 79 50 80 52 81 54 82 51 83
REMARK H PARENT 14 6 8 11 21 26 71 45 45 56
REMARK Flexibility Score: inf
ROOT
ATOM      1  C   UNL A   1      33.117  28.142  26.866  1.00  0.00     0.021 C 
ENDROOT
BRANCH   1   2
ATOM      2  C   UNL A   1      34.391  28.307  26.039  1.00  0.00     0.116 C 
BRANCH   2   3
ATOM      3  N   UNL A   1      34.091  28.992  24.801  1.00  0.00    -0.356 N 
ATOM      4  C   UNL A   1      33.812  28.474  23.577  1.00  0.00     0.220 C 
ATOM      5  O   UNL A   1      33.729  29.243  22.618  1.00  0.00    -0.275 OA
ATOM      6  H   UNL A   1      34.089  29.975  24.853  1.00  0.00     0.163 HD
BRANCH   4   7
ATOM      7  C   UNL A   1      33.565  26.990  23.411  1.00  0.00     0.102 C 
BRANCH   7   8
ATOM      8  C   UNL A   1      32.633  26.609  22.258  1.00  0.00     0.031 C 
BRANCH   8   9
ATOM      9  C   UNL A   1      31.136  26.895  22.418  1.00  0.00     0.113 C 
BRANCH   9  10
ATOM     10  N   UNL A   1      30.803  28.271  22.093  1.00  0.00    -0.385 N 
ATOM     11  H   UNL A   1      31.424  28.758  21.504  1.00  0.00     0.160 HD
BRANCH  10  12
ATOM     12  C   UNL A   1      29.688  28.955  22.541  1.00  0.00     0.035 A 
ATOM     13  C   UNL A   1      28.626  31.119  22.968  1.00  0.00     0.054 A 
ATOM     14  C   UNL A   1      27.431  30.479  23.297  1.00  0.00     0.019 A 
ATOM     15  C   UNL A   1      29.744  30.355  22.605  1.00  0.00     0.045 A 
ATOM     16  C   UNL A   1      27.373  29.087  23.291  1.00  0.00     0.003 A 
ATOM     17  C   UNL A   1      28.498  28.335  22.929  1.00  0.00     0.026 A 
BRANCH  13  18
ATOM     18  C   UNL A   1      28.709  32.549  22.973  1.00  0.00     0.099 C 
ATOM     19  N   UNL A   1      28.760  33.709  22.974  1.00  0.00    -0.192 NA
ENDBRANCH  13  18
ENDBRANCH  10  12
ENDBRANCH   9  10
ENDBRANCH   8   9
ENDBRANCH   7   8
ENDBRANCH   4   7
ENDBRANCH   2   3
ENDBRANCH   1   2
BRANCH   1  20
ATOM     20  C   UNL A   1      32.637  29.450  27.496  1.00  0.00     0.002 C 
BRANCH  20  21
ATOM     21  C   UNL A   1      31.380  30.033  26.843  1.00  0.00     0.002 C 
BRANCH  21  22
ATOM     22  C   UNL A   1      31.482  31.516  26.479  1.00  0.00     0.021 C 
BRANCH  22  23
ATOM     23  C   UNL A   1      32.760  32.184  26.972  1.00  0.00     0.116 C 
BRANCH  23  24
ATOM     24  N   UNL A   1      32.512  33.551  27.404  1.00  0.00    -0.352 N 
ATOM     25  C   UNL A   1      33.100  34.260  28.420  1.00  0.00     0.251 C 
ATOM     26  H   UNL A   1      31.823  34.036  26.894  1.00  0.00     0.163 HD
ATOM     27  O   UNL A   1      32.582  35.288  28.841  1.00  0.00    -0.269 OA
BRANCH  25  28
ATOM     28  C   UNL A   1      34.363  33.771  29.005  1.00  0.00     0.039 A 
ATOM     29  C   UNL A   1      34.316  32.879  30.077  1.00  0.00     0.014 A 
ATOM     30  C   UNL A   1      35.590  34.201  28.491  1.00  0.00     0.014 A 
ATOM     31  C   UNL A   1      35.507  32.375  30.600  1.00  0.00     0.010 A 
ATOM     32  C   UNL A   1      36.769  33.630  28.953  1.00  0.00     0.010 A 
ATOM     33  C   UNL A   1      36.741  32.718  30.019  1.00  0.00    -0.014 A 
BRANCH  33  34
ATOM     34  C   UNL A   1      38.008  32.129  30.513  1.00  0.00     0.031 A 
ATOM     35  C   UNL A   1      38.700  32.714  31.712  1.00  0.00     0.074 A 
ATOM     36  C   UNL A   1      38.564  31.099  29.845  1.00  0.00     0.049 A 
ATOM     37  N   UNL A   1      39.836  32.367  32.262  1.00  0.00    -0.248 NA
ATOM     38  C   UNL A   1      38.043  33.857  32.367  1.00  0.00     0.031 C 
ATOM     39  C   UNL A   1      38.011  30.474  28.641  1.00  0.00     0.029 A 
ATOM     40  N   UNL A   1      39.720  30.398  30.081  1.00  0.00    -0.354 N 
ATOM     41  C   UNL A   1      40.031  33.248  33.317  1.00  0.00     0.074 A 
ATOM     42  C   UNL A   1      38.931  34.187  33.292  1.00  0.00     0.031 C 
ATOM     43  C   UNL A   1      38.810  29.464  28.264  1.00  0.00     0.029 A 
ATOM     44  C   UNL A   1      39.956  29.402  29.165  1.00  0.00     0.049 A 
ATOM     45  H   UNL A   1      40.323  30.591  30.835  1.00  0.00     0.167 HD
ATOM     46  C   UNL A   1      41.024  33.259  34.237  1.00  0.00     0.037 A 
ATOM     47  C   UNL A   1      40.987  28.544  29.055  1.00  0.00     0.037 A 
ATOM     48  C   UNL A   1      42.112  32.317  34.258  1.00  0.00     0.049 A 
ATOM     49  C   UNL A   1      42.098  28.602  30.068  1.00  0.00     0.074 A 
ATOM     50  C   UNL A   1      43.142  32.213  35.178  1.00  0.00     0.029 A 
ATOM     51  N   UNL A   1      42.320  31.325  33.311  1.00  0.00    -0.354 N 
ATOM     52  N   UNL A   1      42.233  29.395  31.103  1.00  0.00    -0.248 NA
ATOM     53  C   UNL A   1      43.197  27.642  29.900  1.00  0.00     0.031 C 
ATOM     54  C   UNL A   1      44.011  31.206  34.746  1.00  0.00     0.029 A 
ATOM     55  C   UNL A   1      43.482  30.629  33.603  1.00  0.00     0.049 A 
ATOM     56  H   UNL A   1      41.730  31.144  32.544  1.00  0.00     0.167 HD
ATOM     57  C   UNL A   1      43.411  29.007  31.729  1.00  0.00     0.074 A 
ATOM     58  C   UNL A   1      43.943  27.898  30.964  1.00  0.00     0.031 C 
ATOM     59  C   UNL A   1      43.998  29.521  32.839  1.00  0.00     0.037 A 
BRANCH  46  60
ATOM     60  C   UNL A   1      40.985  34.329  35.291  1.00  0.00     0.057 A 
ATOM     61  C   UNL A   1      40.374  34.127  36.537  1.00  0.00     0.134 A 
ATOM     62  C   UNL A   1      41.601  35.568  35.074  1.00  0.00     0.134 A 
ATOM     63  F   UNL A   1      39.755  32.967  36.811  1.00  0.00    -0.206 F 
ATOM     64  C   UNL A   1      40.351  35.125  37.513  1.00  0.00     0.040 A 
ATOM     65  C   UNL A   1      41.616  36.562  36.054  1.00  0.00     0.040 A 
ATOM     66  F   UNL A   1      42.212  35.831  33.908  1.00  0.00    -0.206 F 
ATOM     67  C   UNL A   1      40.981  36.344  37.275  1.00  0.00     0.006 A 
ENDBRANCH  46  60
BRANCH  47  68
ATOM     68  C   UNL A   1      41.019  27.553  27.947  1.00  0.00     0.057 A 
ATOM     69  C   UNL A   1      41.667  27.835  26.739  1.00  0.00     0.134 A 
ATOM     70  C   UNL A   1      40.387  26.309  28.063  1.00  0.00     0.134 A 
ATOM     71  F   UNL A   1      42.278  29.016  26.559  1.00  0.00    -0.206 F 
ATOM     72  C   UNL A   1      41.662  26.929  25.677  1.00  0.00     0.040 A 
ATOM     73  C   UNL A   1      40.404  25.380  27.022  1.00  0.00     0.040 A 
ATOM     74  F   UNL A   1      39.757  25.972  29.198  1.00  0.00    -0.206 F 
ATOM     75  C   UNL A   1      41.032  25.694  25.820  1.00  0.00     0.006 A 
ENDBRANCH  47  68
BRANCH  59  76
ATOM     76  C   UNL A   1      45.257  28.861  33.324  1.00  0.00     0.057 A 
ATOM     77  C   UNL A   1      45.241  27.798  34.237  1.00  0.00     0.134 A 
ATOM     78  C   UNL A   1      46.506  29.272  32.837  1.00  0.00     0.134 A 
ATOM     79  F   UNL A   1      44.082  27.360  34.751  1.00  0.00    -0.206 F 
ATOM     80  C   UNL A   1      46.421  27.190  34.670  1.00  0.00     0.040 A 
ATOM     81  C   UNL A   1      47.689  28.647  33.234  1.00  0.00     0.040 A 
ATOM     82  F   UNL A   1      46.596  30.275  31.951  1.00  0.00    -0.206 F 
ATOM     83  C   UNL A   1      47.648  27.609  34.161  1.00  0.00     0.006 A 
ENDBRANCH  59  76
ENDBRANCH  33  34
ENDBRANCH  25  28
ENDBRANCH  23  24
ENDBRANCH  22  23
ENDBRANCH  21  22
ENDBRANCH  20  21
ENDBRANCH   1  20
TORSDOF 18
ENDMDL
