MODEL 1
REMARK VINA RESULT:     -12.0      0.000      0.000
REMARK SMILES Cc1ccc(N)cc1S(=O)(=O)Nc1cccc(C(=O)NCCCCCCNC(=O)c2ccc(-c3c4nc(c(-c5c(F)cccc5F)c5ccc([nH]5)c(-c5c(F)cccc5F)c5nc(c(-c6c(F)cccc6F)c6ccc3[nH]6)C=C5)C=C4)cc2)c1
REMARK SMILES IDX 22 1 21 2 20 3 18 4 19 5 17 7 13 8 14 9 84 10 15 11 16 12
REMARK SMILES IDX 12 13 9 15 10 16 11 17 8 18 1 19 2 20 3 21 4 22 7 23 5 24
REMARK SMILES IDX 6 25 23 28 24 29 25 30 26 31 27 32 28 33 29 35 30 36 31 37
REMARK SMILES IDX 83 38 32 39 82 40 33 41 34 42 35 43 76 44 36 45 81 46 75 47
REMARK SMILES IDX 77 48 37 49 80 50 74 51 73 52 38 54 64 55 47 56 63 57 48 58
REMARK SMILES IDX 51 59 62 60 78 61 49 62 50 63 61 65 79 66 52 67 39 68 40 69
REMARK SMILES IDX 45 70 41 71 42 72 44 73 46 74 43 75 65 76 66 77 71 78 67 79
REMARK SMILES IDX 68 80 70 81 72 82 69 83 53 84 54 85 59 86 55 87 56 88 58 89
REMARK SMILES IDX 60 90 57 91
REMARK H PARENT 20 6 12 14 6 26 6 27 27 34 77 53 51 64
REMARK Flexibility Score: inf
ROOT
ATOM      1  C   UNL A   1      37.235  22.861  25.386  1.00  0.00     0.021 C 
ENDROOT
BRANCH   1   2
ATOM      2  C   UNL A   1      35.994  23.604  25.883  1.00  0.00     0.116 C 
BRANCH   2   3
ATOM      3  N   UNL A   1      35.244  22.752  26.789  1.00  0.00    -0.352 N 
ATOM      4  C   UNL A   1      34.038  22.109  26.690  1.00  0.00     0.251 C 
ATOM      5  O   UNL A   1      33.631  21.519  27.691  1.00  0.00    -0.269 OA
ATOM      6  H   UNL A   1      35.695  22.609  27.652  1.00  0.00     0.163 HD
BRANCH   4   7
ATOM      7  C   UNL A   1      33.261  21.993  25.422  1.00  0.00     0.041 A 
ATOM      8  C   UNL A   1      32.272  22.921  23.425  1.00  0.00     0.050 A 
ATOM      9  C   UNL A   1      32.200  21.645  22.856  1.00  0.00     0.027 A 
ATOM     10  C   UNL A   1      32.665  23.064  24.754  1.00  0.00     0.040 A 
ATOM     11  C   UNL A   1      32.660  20.539  23.563  1.00  0.00     0.003 A 
ATOM     12  C   UNL A   1      33.228  20.721  24.823  1.00  0.00     0.014 A 
BRANCH   8  13
ATOM     13  N   UNL A   1      32.087  24.019  22.543  1.00  0.00    -0.280 N 
ATOM     14  H   UNL A   1      31.233  24.048  22.053  1.00  0.00     0.180 HD
BRANCH  13  15
ATOM     15  S   UNL A   1      33.154  25.264  22.247  1.00  0.00     0.262 S 
ATOM     16  O   UNL A   1      33.078  25.583  20.832  1.00  0.00    -0.201 OA
ATOM     17  O   UNL A   1      34.403  24.832  22.834  1.00  0.00    -0.201 OA
BRANCH  15  18
ATOM     18  C   UNL A   1      32.711  26.771  23.114  1.00  0.00     0.092 A 
ATOM     19  C   UNL A   1      33.629  26.293  25.494  1.00  0.00     0.046 C 
ATOM     20  C   UNL A   1      32.852  27.067  24.478  1.00  0.00    -0.030 A 
ATOM     21  C   UNL A   1      32.194  28.214  24.973  1.00  0.00     0.007 A 
ATOM     22  C   UNL A   1      31.550  29.116  24.125  1.00  0.00     0.026 A 
ATOM     23  C   UNL A   1      32.092  27.722  22.268  1.00  0.00     0.048 A 
ATOM     24  C   UNL A   1      31.573  28.923  22.752  1.00  0.00     0.033 A 
BRANCH  24  25
ATOM     25  N   UNL A   1      30.953  29.824  21.901  1.00  0.00    -0.399 N 
ATOM     26  H   UNL A   1      31.112  29.776  20.931  1.00  0.00     0.156 HD
ATOM     27  H   UNL A   1      30.353  30.513  22.267  1.00  0.00     0.156 HD
ENDBRANCH  24  25
ENDBRANCH  15  18
ENDBRANCH  13  15
ENDBRANCH   8  13
ENDBRANCH   4   7
ENDBRANCH   2   3
ENDBRANCH   1   2
BRANCH   1  28
ATOM     28  C   UNL A   1      36.892  21.815  24.319  1.00  0.00     0.002 C 
BRANCH  28  29
ATOM     29  C   UNL A   1      36.878  20.371  24.837  1.00  0.00     0.002 C 
BRANCH  29  30
ATOM     30  C   UNL A   1      38.215  19.634  24.729  1.00  0.00     0.021 C 
BRANCH  30  31
ATOM     31  C   UNL A   1      39.147  19.850  25.915  1.00  0.00     0.116 C 
BRANCH  31  32
ATOM     32  N   UNL A   1      40.271  18.926  25.895  1.00  0.00    -0.352 N 
ATOM     33  C   UNL A   1      41.613  19.196  25.987  1.00  0.00     0.251 C 
ATOM     34  H   UNL A   1      40.036  17.974  25.802  1.00  0.00     0.163 HD
ATOM     35  O   UNL A   1      42.442  18.325  25.750  1.00  0.00    -0.269 OA
BRANCH  33  36
ATOM     36  C   UNL A   1      42.054  20.554  26.362  1.00  0.00     0.039 A 
ATOM     37  C   UNL A   1      42.201  20.871  27.715  1.00  0.00     0.014 A 
ATOM     38  C   UNL A   1      42.311  21.511  25.376  1.00  0.00     0.014 A 
ATOM     39  C   UNL A   1      42.652  22.140  28.079  1.00  0.00     0.010 A 
ATOM     40  C   UNL A   1      42.823  22.751  25.738  1.00  0.00     0.010 A 
ATOM     41  C   UNL A   1      42.988  23.081  27.092  1.00  0.00    -0.014 A 
BRANCH  41  42
ATOM     42  C   UNL A   1      43.484  24.432  27.445  1.00  0.00     0.031 A 
ATOM     43  C   UNL A   1      42.513  25.484  27.898  1.00  0.00     0.074 A 
ATOM     44  C   UNL A   1      44.785  24.734  27.280  1.00  0.00     0.049 A 
ATOM     45  N   UNL A   1      42.718  26.755  28.133  1.00  0.00    -0.248 NA
ATOM     46  C   UNL A   1      41.118  25.055  28.085  1.00  0.00     0.031 C 
ATOM     47  C   UNL A   1      45.819  23.807  26.817  1.00  0.00     0.029 A 
ATOM     48  N   UNL A   1      45.456  25.916  27.467  1.00  0.00    -0.354 N 
ATOM     49  C   UNL A   1      41.476  27.280  28.468  1.00  0.00     0.074 A 
ATOM     50  C   UNL A   1      40.517  26.202  28.363  1.00  0.00     0.031 C 
ATOM     51  C   UNL A   1      46.995  24.451  26.768  1.00  0.00     0.029 A 
ATOM     52  C   UNL A   1      46.792  25.843  27.158  1.00  0.00     0.049 A 
ATOM     53  H   UNL A   1      45.021  26.738  27.790  1.00  0.00     0.167 HD
ATOM     54  C   UNL A   1      41.166  28.543  28.845  1.00  0.00     0.037 A 
ATOM     55  C   UNL A   1      47.742  26.797  27.177  1.00  0.00     0.037 A 
ATOM     56  C   UNL A   1      42.127  29.606  28.974  1.00  0.00     0.049 A 
ATOM     57  C   UNL A   1      47.374  28.194  27.595  1.00  0.00     0.074 A 
ATOM     58  C   UNL A   1      41.926  30.906  29.400  1.00  0.00     0.029 A 
ATOM     59  N   UNL A   1      43.476  29.486  28.677  1.00  0.00    -0.354 N 
ATOM     60  N   UNL A   1      46.206  28.668  27.955  1.00  0.00    -0.248 NA
ATOM     61  C   UNL A   1      48.456  29.187  27.610  1.00  0.00     0.031 C 
ATOM     62  C   UNL A   1      43.147  31.584  29.327  1.00  0.00     0.029 A 
ATOM     63  C   UNL A   1      44.119  30.694  28.897  1.00  0.00     0.049 A 
ATOM     64  H   UNL A   1      43.915  28.664  28.357  1.00  0.00     0.167 HD
ATOM     65  C   UNL A   1      46.418  30.003  28.271  1.00  0.00     0.074 A 
ATOM     66  C   UNL A   1      47.828  30.263  28.063  1.00  0.00     0.031 C 
ATOM     67  C   UNL A   1      45.526  30.929  28.700  1.00  0.00     0.037 A 
BRANCH  54  68
ATOM     68  C   UNL A   1      39.724  28.836  29.140  1.00  0.00     0.057 A 
ATOM     69  C   UNL A   1      38.837  29.263  28.143  1.00  0.00     0.134 A 
ATOM     70  C   UNL A   1      39.214  28.684  30.435  1.00  0.00     0.134 A 
ATOM     71  F   UNL A   1      39.265  29.442  26.883  1.00  0.00    -0.206 F 
ATOM     72  C   UNL A   1      37.505  29.563  28.429  1.00  0.00     0.040 A 
ATOM     73  C   UNL A   1      37.876  28.953  30.729  1.00  0.00     0.040 A 
ATOM     74  F   UNL A   1      40.006  28.272  31.436  1.00  0.00    -0.206 F 
ATOM     75  C   UNL A   1      37.019  29.403  29.726  1.00  0.00     0.006 A 
ENDBRANCH  54  68
BRANCH  55  76
ATOM     76  C   UNL A   1      49.140  26.454  26.818  1.00  0.00     0.057 A 
ATOM     77  C   UNL A   1      50.010  25.908  27.769  1.00  0.00     0.134 A 
ATOM     78  C   UNL A   1      49.636  26.650  25.524  1.00  0.00     0.134 A 
ATOM     79  F   UNL A   1      49.595  25.714  29.030  1.00  0.00    -0.206 F 
ATOM     80  C   UNL A   1      51.328  25.582  27.451  1.00  0.00     0.040 A 
ATOM     81  C   UNL A   1      50.946  26.308  25.187  1.00  0.00     0.040 A 
ATOM     82  F   UNL A   1      48.848  27.161  24.567  1.00  0.00    -0.206 F 
ATOM     83  C   UNL A   1      51.798  25.776  26.153  1.00  0.00     0.006 A 
ENDBRANCH  55  76
BRANCH  67  84
ATOM     84  C   UNL A   1      46.054  32.296  29.018  1.00  0.00     0.057 A 
ATOM     85  C   UNL A   1      46.129  33.305  28.051  1.00  0.00     0.134 A 
ATOM     86  C   UNL A   1      46.445  32.616  30.325  1.00  0.00     0.134 A 
ATOM     87  F   UNL A   1      45.783  33.056  26.780  1.00  0.00    -0.206 F 
ATOM     88  C   UNL A   1      46.591  34.584  28.370  1.00  0.00     0.040 A 
ATOM     89  C   UNL A   1      46.885  33.897  30.660  1.00  0.00     0.040 A 
ATOM     90  F   UNL A   1      46.389  31.696  31.298  1.00  0.00    -0.206 F 
ATOM     91  C   UNL A   1      46.963  34.884  29.679  1.00  0.00     0.006 A 
ENDBRANCH  67  84
ENDBRANCH  41  42
ENDBRANCH  33  36
ENDBRANCH  31  32
ENDBRANCH  30  31
ENDBRANCH  29  30
ENDBRANCH  28  29
ENDBRANCH   1  28
TORSDOF 17
ENDMDL
MODEL 2
REMARK VINA RESULT:     -11.9      6.073     10.804
REMARK SMILES Cc1ccc(N)cc1S(=O)(=O)Nc1cccc(C(=O)NCCCCCCNC(=O)c2ccc(-c3c4nc(c(-c5c(F)cccc5F)c5ccc([nH]5)c(-c5c(F)cccc5F)c5nc(c(-c6c(F)cccc6F)c6ccc3[nH]6)C=C5)C=C4)cc2)c1
REMARK SMILES IDX 22 1 21 2 20 3 18 4 19 5 17 7 13 8 14 9 84 10 15 11 16 12
REMARK SMILES IDX 12 13 9 15 10 16 11 17 8 18 1 19 2 20 3 21 4 22 7 23 5 24
REMARK SMILES IDX 6 25 23 28 24 29 25 30 26 31 27 32 28 33 29 35 30 36 31 37
REMARK SMILES IDX 83 38 32 39 82 40 33 41 34 42 35 43 76 44 36 45 81 46 75 47
REMARK SMILES IDX 77 48 37 49 80 50 74 51 73 52 38 54 64 55 47 56 63 57 48 58
REMARK SMILES IDX 51 59 62 60 78 61 49 62 50 63 61 65 79 66 52 67 39 68 40 69
REMARK SMILES IDX 45 70 41 71 42 72 44 73 46 74 43 75 65 76 66 77 71 78 67 79
REMARK SMILES IDX 68 80 70 81 72 82 69 83 53 84 54 85 59 86 55 87 56 88 58 89
REMARK SMILES IDX 60 90 57 91
REMARK H PARENT 20 6 12 14 6 26 6 27 27 34 77 53 51 64
REMARK Flexibility Score: inf
ROOT
ATOM      1  C   UNL A   1      35.132  31.833  27.713  1.00  0.00     0.021 C 
ENDROOT
BRANCH   1   2
ATOM      2  C   UNL A   1      34.971  30.313  27.675  1.00  0.00     0.116 C 
BRANCH   2   3
ATOM      3  N   UNL A   1      33.564  29.967  27.755  1.00  0.00    -0.352 N 
ATOM      4  C   UNL A   1      32.752  29.159  27.002  1.00  0.00     0.251 C 
ATOM      5  O   UNL A   1      31.553  29.143  27.287  1.00  0.00    -0.269 OA
ATOM      6  H   UNL A   1      33.096  30.403  28.503  1.00  0.00     0.163 HD
BRANCH   4   7
ATOM      7  C   UNL A   1      33.252  28.230  25.949  1.00  0.00     0.041 A 
ATOM      8  C   UNL A   1      33.900  26.043  25.155  1.00  0.00     0.050 A 
ATOM      9  C   UNL A   1      33.756  26.471  23.831  1.00  0.00     0.027 A 
ATOM     10  C   UNL A   1      33.790  26.964  26.195  1.00  0.00     0.040 A 
ATOM     11  C   UNL A   1      33.356  27.775  23.558  1.00  0.00     0.003 A 
ATOM     12  C   UNL A   1      33.064  28.636  24.616  1.00  0.00     0.014 A 
BRANCH   8  13
ATOM     13  N   UNL A   1      33.996  24.642  25.360  1.00  0.00    -0.280 N 
ATOM     14  H   UNL A   1      34.871  24.230  25.172  1.00  0.00     0.180 HD
BRANCH  13  15
ATOM     15  S   UNL A   1      32.792  23.616  25.886  1.00  0.00     0.262 S 
ATOM     16  O   UNL A   1      31.516  24.232  25.564  1.00  0.00    -0.201 OA
ATOM     17  O   UNL A   1      33.134  23.314  27.258  1.00  0.00    -0.201 OA
BRANCH  15  18
ATOM     18  C   UNL A   1      32.807  22.040  25.028  1.00  0.00     0.092 A 
ATOM     19  C   UNL A   1      32.751  22.797  22.546  1.00  0.00     0.046 C 
ATOM     20  C   UNL A   1      32.681  21.795  23.652  1.00  0.00    -0.030 A 
ATOM     21  C   UNL A   1      32.461  20.462  23.241  1.00  0.00     0.007 A 
ATOM     22  C   UNL A   1      32.516  19.396  24.139  1.00  0.00     0.026 A 
ATOM     23  C   UNL A   1      32.904  20.941  25.914  1.00  0.00     0.048 A 
ATOM     24  C   UNL A   1      32.830  19.621  25.471  1.00  0.00     0.033 A 
BRANCH  24  25
ATOM     25  N   UNL A   1      32.905  18.565  26.367  1.00  0.00    -0.399 N 
ATOM     26  H   UNL A   1      32.081  18.127  26.682  1.00  0.00     0.156 HD
ATOM     27  H   UNL A   1      33.782  18.253  26.687  1.00  0.00     0.156 HD
ENDBRANCH  24  25
ENDBRANCH  15  18
ENDBRANCH  13  15
ENDBRANCH   8  13
ENDBRANCH   4   7
ENDBRANCH   2   3
ENDBRANCH   1   2
BRANCH   1  28
ATOM     28  C   UNL A   1      34.454  32.454  28.939  1.00  0.00     0.002 C 
BRANCH  28  29
ATOM     29  C   UNL A   1      34.572  33.981  29.017  1.00  0.00     0.002 C 
BRANCH  29  30
ATOM     30  C   UNL A   1      33.239  34.728  29.117  1.00  0.00     0.021 C 
BRANCH  30  31
ATOM     31  C   UNL A   1      33.363  36.169  29.594  1.00  0.00     0.116 C 
BRANCH  31  32
ATOM     32  N   UNL A   1      32.496  36.438  30.732  1.00  0.00    -0.352 N 
ATOM     33  C   UNL A   1      32.550  35.921  32.001  1.00  0.00     0.251 C 
ATOM     34  H   UNL A   1      31.768  37.082  30.568  1.00  0.00     0.163 HD
ATOM     35  O   UNL A   1      31.625  36.095  32.786  1.00  0.00    -0.269 OA
BRANCH  33  36
ATOM     36  C   UNL A   1      33.731  35.137  32.413  1.00  0.00     0.039 A 
ATOM     37  C   UNL A   1      33.550  33.833  32.882  1.00  0.00     0.014 A 
ATOM     38  C   UNL A   1      35.010  35.695  32.344  1.00  0.00     0.014 A 
ATOM     39  C   UNL A   1      34.662  33.070  33.241  1.00  0.00     0.010 A 
ATOM     40  C   UNL A   1      36.120  34.914  32.639  1.00  0.00     0.010 A 
ATOM     41  C   UNL A   1      35.956  33.598  33.100  1.00  0.00    -0.014 A 
BRANCH  41  42
ATOM     42  C   UNL A   1      37.160  32.809  33.457  1.00  0.00     0.031 A 
ATOM     43  C   UNL A   1      37.881  33.099  34.742  1.00  0.00     0.074 A 
ATOM     44  C   UNL A   1      37.645  31.898  32.595  1.00  0.00     0.049 A 
ATOM     45  N   UNL A   1      39.015  32.616  35.181  1.00  0.00    -0.248 NA
ATOM     46  C   UNL A   1      37.258  34.084  35.639  1.00  0.00     0.031 C 
ATOM     47  C   UNL A   1      37.050  31.550  31.303  1.00  0.00     0.029 A 
ATOM     48  N   UNL A   1      38.765  31.109  32.669  1.00  0.00    -0.354 N 
ATOM     49  C   UNL A   1      39.254  33.259  36.390  1.00  0.00     0.074 A 
ATOM     50  C   UNL A   1      38.170  34.196  36.592  1.00  0.00     0.031 C 
ATOM     51  C   UNL A   1      37.803  30.609  30.713  1.00  0.00     0.029 A 
ATOM     52  C   UNL A   1      38.952  30.315  31.564  1.00  0.00     0.049 A 
ATOM     53  H   UNL A   1      39.376  31.112  33.442  1.00  0.00     0.167 HD
ATOM     54  C   UNL A   1      40.274  33.072  37.260  1.00  0.00     0.037 A 
ATOM     55  C   UNL A   1      39.946  29.457  31.268  1.00  0.00     0.037 A 
ATOM     56  C   UNL A   1      41.334  32.119  37.068  1.00  0.00     0.049 A 
ATOM     57  C   UNL A   1      41.072  29.270  32.248  1.00  0.00     0.074 A 
ATOM     58  C   UNL A   1      42.386  31.815  37.914  1.00  0.00     0.029 A 
ATOM     59  N   UNL A   1      41.476  31.316  35.947  1.00  0.00    -0.354 N 
ATOM     60  N   UNL A   1      41.262  29.848  33.409  1.00  0.00    -0.248 NA
ATOM     61  C   UNL A   1      42.120  28.310  31.876  1.00  0.00     0.031 C 
ATOM     62  C   UNL A   1      43.183  30.851  37.288  1.00  0.00     0.029 A 
ATOM     63  C   UNL A   1      42.605  30.524  36.072  1.00  0.00     0.049 A 
ATOM     64  H   UNL A   1      40.864  31.308  35.175  1.00  0.00     0.167 HD
ATOM     65  C   UNL A   1      42.430  29.298  33.922  1.00  0.00     0.074 A 
ATOM     66  C   UNL A   1      42.903  28.338  32.945  1.00  0.00     0.031 C 
ATOM     67  C   UNL A   1      43.051  29.562  35.096  1.00  0.00     0.037 A 
BRANCH  54  68
ATOM     68  C   UNL A   1      40.284  33.923  38.496  1.00  0.00     0.057 A 
ATOM     69  C   UNL A   1      39.562  33.569  39.644  1.00  0.00     0.134 A 
ATOM     70  C   UNL A   1      41.029  35.108  38.542  1.00  0.00     0.134 A 
ATOM     71  F   UNL A   1      38.817  32.453  39.661  1.00  0.00    -0.206 F 
ATOM     72  C   UNL A   1      39.553  34.380  40.780  1.00  0.00     0.040 A 
ATOM     73  C   UNL A   1      41.050  35.912  39.683  1.00  0.00     0.040 A 
ATOM     74  F   UNL A   1      41.749  35.503  37.481  1.00  0.00    -0.206 F 
ATOM     75  C   UNL A   1      40.303  35.554  40.803  1.00  0.00     0.006 A 
ENDBRANCH  54  68
BRANCH  55  76
ATOM     76  C   UNL A   1      39.905  28.689  30.001  1.00  0.00     0.057 A 
ATOM     77  C   UNL A   1      40.539  29.172  28.850  1.00  0.00     0.134 A 
ATOM     78  C   UNL A   1      39.248  27.457  29.908  1.00  0.00     0.134 A 
ATOM     79  F   UNL A   1      41.171  30.355  28.874  1.00  0.00    -0.206 F 
ATOM     80  C   UNL A   1      40.510  28.465  27.648  1.00  0.00     0.040 A 
ATOM     81  C   UNL A   1      39.228  26.729  28.718  1.00  0.00     0.040 A 
ATOM     82  F   UNL A   1      38.630  26.937  30.978  1.00  0.00    -0.206 F 
ATOM     83  C   UNL A   1      39.857  27.235  27.582  1.00  0.00     0.006 A 
ENDBRANCH  55  76
BRANCH  67  84
ATOM     84  C   UNL A   1      44.284  28.770  35.415  1.00  0.00     0.057 A 
ATOM     85  C   UNL A   1      45.563  29.214  35.059  1.00  0.00     0.134 A 
ATOM     86  C   UNL A   1      44.188  27.569  36.131  1.00  0.00     0.134 A 
ATOM     87  F   UNL A   1      45.719  30.348  34.360  1.00  0.00    -0.206 F 
ATOM     88  C   UNL A   1      46.705  28.483  35.392  1.00  0.00     0.040 A 
ATOM     89  C   UNL A   1      45.324  26.843  36.490  1.00  0.00     0.040 A 
ATOM     90  F   UNL A   1      42.992  27.094  36.508  1.00  0.00    -0.206 F 
ATOM     91  C   UNL A   1      46.586  27.298  36.116  1.00  0.00     0.006 A 
ENDBRANCH  67  84
ENDBRANCH  41  42
ENDBRANCH  33  36
ENDBRANCH  31  32
ENDBRANCH  30  31
ENDBRANCH  29  30
ENDBRANCH  28  29
ENDBRANCH   1  28
TORSDOF 17
ENDMDL
MODEL 3
REMARK VINA RESULT:     -11.7      2.811      7.959
REMARK SMILES Cc1ccc(N)cc1S(=O)(=O)Nc1cccc(C(=O)NCCCCCCNC(=O)c2ccc(-c3c4nc(c(-c5c(F)cccc5F)c5ccc([nH]5)c(-c5c(F)cccc5F)c5nc(c(-c6c(F)cccc6F)c6ccc3[nH]6)C=C5)C=C4)cc2)c1
REMARK SMILES IDX 22 1 21 2 20 3 18 4 19 5 17 7 13 8 14 9 84 10 15 11 16 12
REMARK SMILES IDX 12 13 9 15 10 16 11 17 8 18 1 19 2 20 3 21 4 22 7 23 5 24
REMARK SMILES IDX 6 25 23 28 24 29 25 30 26 31 27 32 28 33 29 35 30 36 31 37
REMARK SMILES IDX 83 38 32 39 82 40 33 41 34 42 35 43 76 44 36 45 81 46 75 47
REMARK SMILES IDX 77 48 37 49 80 50 74 51 73 52 38 54 64 55 47 56 63 57 48 58
REMARK SMILES IDX 51 59 62 60 78 61 49 62 50 63 61 65 79 66 52 67 39 68 40 69
REMARK SMILES IDX 45 70 41 71 42 72 44 73 46 74 43 75 65 76 66 77 71 78 67 79
REMARK SMILES IDX 68 80 70 81 72 82 69 83 53 84 54 85 59 86 55 87 56 88 58 89
REMARK SMILES IDX 60 90 57 91
REMARK H PARENT 20 6 12 14 6 26 6 27 27 34 77 53 51 64
REMARK Flexibility Score: inf
ROOT
ATOM      1  C   UNL A   1      32.681  24.227  22.353  1.00  0.00     0.021 C 
ENDROOT
BRANCH   1   2
ATOM      2  C   UNL A   1      32.903  25.202  21.196  1.00  0.00     0.116 C 
BRANCH   2   3
ATOM      3  N   UNL A   1      31.933  26.279  21.270  1.00  0.00    -0.352 N 
ATOM      4  C   UNL A   1      31.410  27.001  22.310  1.00  0.00     0.251 C 
ATOM      5  O   UNL A   1      30.520  27.810  22.043  1.00  0.00    -0.269 OA
ATOM      6  H   UNL A   1      31.577  26.545  20.391  1.00  0.00     0.163 HD
BRANCH   4   7
ATOM      7  C   UNL A   1      31.930  26.941  23.706  1.00  0.00     0.041 A 
ATOM      8  C   UNL A   1      32.048  25.955  25.907  1.00  0.00     0.050 A 
ATOM      9  C   UNL A   1      33.263  26.606  26.144  1.00  0.00     0.027 A 
ATOM     10  C   UNL A   1      31.323  26.244  24.753  1.00  0.00     0.040 A 
ATOM     11  C   UNL A   1      33.821  27.422  25.165  1.00  0.00     0.003 A 
ATOM     12  C   UNL A   1      33.176  27.552  23.936  1.00  0.00     0.014 A 
BRANCH   8  13
ATOM     13  N   UNL A   1      31.705  24.908  26.802  1.00  0.00    -0.280 N 
ATOM     14  H   UNL A   1      31.890  25.069  27.756  1.00  0.00     0.180 HD
BRANCH  13  15
ATOM     15  S   UNL A   1      31.022  23.437  26.418  1.00  0.00     0.262 S 
ATOM     16  O   UNL A   1      30.278  23.606  25.182  1.00  0.00    -0.201 OA
ATOM     17  O   UNL A   1      30.351  23.012  27.626  1.00  0.00    -0.201 OA
BRANCH  15  18
ATOM     18  C   UNL A   1      32.252  22.175  26.082  1.00  0.00     0.092 A 
ATOM     19  C   UNL A   1      33.953  22.578  28.001  1.00  0.00     0.046 C 
ATOM     20  C   UNL A   1      33.481  21.961  26.724  1.00  0.00    -0.030 A 
ATOM     21  C   UNL A   1      34.393  21.072  26.115  1.00  0.00     0.007 A 
ATOM     22  C   UNL A   1      34.045  20.308  25.000  1.00  0.00     0.026 A 
ATOM     23  C   UNL A   1      31.904  21.358  24.980  1.00  0.00     0.048 A 
ATOM     24  C   UNL A   1      32.762  20.379  24.479  1.00  0.00     0.033 A 
BRANCH  24  25
ATOM     25  N   UNL A   1      32.401  19.610  23.383  1.00  0.00    -0.399 N 
ATOM     26  H   UNL A   1      31.532  19.754  22.945  1.00  0.00     0.156 HD
ATOM     27  H   UNL A   1      33.015  18.920  23.043  1.00  0.00     0.156 HD
ENDBRANCH  24  25
ENDBRANCH  15  18
ENDBRANCH  13  15
ENDBRANCH   8  13
ENDBRANCH   4   7
ENDBRANCH   2   3
ENDBRANCH   1   2
BRANCH   1  28
ATOM     28  C   UNL A   1      33.948  23.435  22.691  1.00  0.00     0.002 C 
BRANCH  28  29
ATOM     29  C   UNL A   1      34.749  24.002  23.871  1.00  0.00     0.002 C 
BRANCH  29  30
ATOM     30  C   UNL A   1      36.123  23.362  24.085  1.00  0.00     0.021 C 
BRANCH  30  31
ATOM     31  C   UNL A   1      36.755  23.673  25.436  1.00  0.00     0.116 C 
BRANCH  31  32
ATOM     32  N   UNL A   1      37.670  22.622  25.859  1.00  0.00    -0.352 N 
ATOM     33  C   UNL A   1      38.923  22.736  26.403  1.00  0.00     0.251 C 
ATOM     34  H   UNL A   1      37.342  21.701  25.738  1.00  0.00     0.163 HD
ATOM     35  O   UNL A   1      39.646  21.752  26.518  1.00  0.00    -0.269 OA
BRANCH  33  36
ATOM     36  C   UNL A   1      39.406  24.061  26.840  1.00  0.00     0.039 A 
ATOM     37  C   UNL A   1      39.996  24.912  25.902  1.00  0.00     0.014 A 
ATOM     38  C   UNL A   1      39.283  24.453  28.176  1.00  0.00     0.014 A 
ATOM     39  C   UNL A   1      40.422  26.181  26.296  1.00  0.00     0.010 A 
ATOM     40  C   UNL A   1      39.648  25.739  28.552  1.00  0.00     0.010 A 
ATOM     41  C   UNL A   1      40.231  26.611  27.619  1.00  0.00    -0.014 A 
BRANCH  41  42
ATOM     42  C   UNL A   1      40.659  27.958  28.067  1.00  0.00     0.031 A 
ATOM     43  C   UNL A   1      42.121  28.299  28.099  1.00  0.00     0.074 A 
ATOM     44  C   UNL A   1      39.746  28.837  28.519  1.00  0.00     0.049 A 
ATOM     45  N   UNL A   1      42.712  29.366  28.571  1.00  0.00    -0.248 NA
ATOM     46  C   UNL A   1      43.043  27.292  27.552  1.00  0.00     0.031 C 
ATOM     47  C   UNL A   1      38.301  28.610  28.567  1.00  0.00     0.029 A 
ATOM     48  N   UNL A   1      39.903  30.094  29.043  1.00  0.00    -0.354 N 
ATOM     49  C   UNL A   1      44.074  29.146  28.403  1.00  0.00     0.074 A 
ATOM     50  C   UNL A   1      44.223  27.828  27.826  1.00  0.00     0.031 C 
ATOM     51  C   UNL A   1      37.703  29.697  29.079  1.00  0.00     0.029 A 
ATOM     52  C   UNL A   1      38.723  30.680  29.431  1.00  0.00     0.049 A 
ATOM     53  H   UNL A   1      40.780  30.535  29.133  1.00  0.00     0.167 HD
ATOM     54  C   UNL A   1      45.106  29.976  28.687  1.00  0.00     0.037 A 
ATOM     55  C   UNL A   1      38.494  31.870  30.016  1.00  0.00     0.037 A 
ATOM     56  C   UNL A   1      44.952  31.297  29.235  1.00  0.00     0.049 A 
ATOM     57  C   UNL A   1      39.656  32.773  30.327  1.00  0.00     0.074 A 
ATOM     58  C   UNL A   1      45.928  32.238  29.510  1.00  0.00     0.029 A 
ATOM     59  N   UNL A   1      43.738  31.864  29.591  1.00  0.00    -0.354 N 
ATOM     60  N   UNL A   1      40.935  32.575  30.120  1.00  0.00    -0.248 NA
ATOM     61  C   UNL A   1      39.341  34.065  30.951  1.00  0.00     0.031 C 
ATOM     62  C   UNL A   1      45.308  33.361  30.065  1.00  0.00     0.029 A 
ATOM     63  C   UNL A   1      43.940  33.138  30.096  1.00  0.00     0.049 A 
ATOM     64  H   UNL A   1      42.860  31.427  29.498  1.00  0.00     0.167 HD
ATOM     65  C   UNL A   1      41.575  33.727  30.556  1.00  0.00     0.074 A 
ATOM     66  C   UNL A   1      40.541  34.622  31.037  1.00  0.00     0.031 C 
ATOM     67  C   UNL A   1      42.898  34.019  30.555  1.00  0.00     0.037 A 
BRANCH  54  68
ATOM     68  C   UNL A   1      46.490  29.467  28.410  1.00  0.00     0.057 A 
ATOM     69  C   UNL A   1      47.109  29.646  27.165  1.00  0.00     0.134 A 
ATOM     70  C   UNL A   1      47.217  28.795  29.400  1.00  0.00     0.134 A 
ATOM     71  F   UNL A   1      46.462  30.270  26.168  1.00  0.00    -0.206 F 
ATOM     72  C   UNL A   1      48.385  29.145  26.904  1.00  0.00     0.040 A 
ATOM     73  C   UNL A   1      48.505  28.314  29.160  1.00  0.00     0.040 A 
ATOM     74  F   UNL A   1      46.688  28.595  30.617  1.00  0.00    -0.206 F 
ATOM     75  C   UNL A   1      49.089  28.480  27.906  1.00  0.00     0.006 A 
ENDBRANCH  54  68
BRANCH  55  76
ATOM     76  C   UNL A   1      37.104  32.289  30.317  1.00  0.00     0.057 A 
ATOM     77  C   UNL A   1      36.500  31.945  31.533  1.00  0.00     0.134 A 
ATOM     78  C   UNL A   1      36.351  33.047  29.413  1.00  0.00     0.134 A 
ATOM     79  F   UNL A   1      37.167  31.206  32.431  1.00  0.00    -0.206 F 
ATOM     80  C   UNL A   1      35.193  32.328  31.833  1.00  0.00     0.040 A 
ATOM     81  C   UNL A   1      35.050  33.454  29.709  1.00  0.00     0.040 A 
ATOM     82  F   UNL A   1      36.877  33.415  28.236  1.00  0.00    -0.206 F 
ATOM     83  C   UNL A   1      34.465  33.091  30.921  1.00  0.00     0.006 A 
ENDBRANCH  55  76
BRANCH  67  84
ATOM     84  C   UNL A   1      43.302  35.379  31.043  1.00  0.00     0.057 A 
ATOM     85  C   UNL A   1      43.533  35.640  32.399  1.00  0.00     0.134 A 
ATOM     86  C   UNL A   1      43.509  36.425  30.135  1.00  0.00     0.134 A 
ATOM     87  F   UNL A   1      43.338  34.684  33.319  1.00  0.00    -0.206 F 
ATOM     88  C   UNL A   1      43.942  36.901  32.836  1.00  0.00     0.040 A 
ATOM     89  C   UNL A   1      43.940  37.682  30.558  1.00  0.00     0.040 A 
ATOM     90  F   UNL A   1      43.312  36.236  28.822  1.00  0.00    -0.206 F 
ATOM     91  C   UNL A   1      44.154  37.924  31.913  1.00  0.00     0.006 A 
ENDBRANCH  67  84
ENDBRANCH  41  42
ENDBRANCH  33  36
ENDBRANCH  31  32
ENDBRANCH  30  31
ENDBRANCH  29  30
ENDBRANCH  28  29
ENDBRANCH   1  28
TORSDOF 17
ENDMDL
