MODEL 1
REMARK VINA RESULT:     -12.3      0.000      0.000
REMARK SMILES Cc1ccc(Cn2c(C)c(C[NH2+]C[C@@H]3CCCO3)c(C(=O)NCCCCCCNC(=O)c3ccc(-c4c5nc(c(-c6c(F)cccc6F)c6ccc([nH]6)c(-c6c(F)cccc6F)c6nc(c(-c7c(F)cccc7F)c7ccc4[nH]7)C=C6)C=C5)cc3)c2C)cc1
REMARK SMILES IDX 24 1 23 2 22 3 20 4 21 5 19 7 7 8 8 9 86 10 9 11 10 12 87 13
REMARK SMILES IDX 6 14 5 15 1 16 2 17 3 18 89 19 4 20 88 21 11 22 12 23 13 26
REMARK SMILES IDX 14 27 15 28 18 29 16 30 17 31 25 32 26 33 27 34 28 35 29 36
REMARK SMILES IDX 30 37 31 39 32 40 33 41 85 42 34 43 84 44 35 45 36 46 37 47
REMARK SMILES IDX 78 48 38 49 83 50 77 51 79 52 39 53 82 54 76 55 75 56 40 58
REMARK SMILES IDX 66 59 49 60 65 61 50 62 53 63 64 64 80 65 51 66 52 67 63 69
REMARK SMILES IDX 81 70 54 71 41 72 42 73 47 74 43 75 44 76 46 77 48 78 45 79
REMARK SMILES IDX 67 80 68 81 73 82 69 83 70 84 72 85 74 86 71 87 55 88 56 89
REMARK SMILES IDX 61 90 57 91 58 92 60 93 62 94 59 95
REMARK H PARENT 22 6 12 24 12 25 29 38 79 57 53 68
REMARK Flexibility Score: inf
ROOT
ATOM      1  C   UNL A   1      31.449  27.425  26.400  1.00  0.00     0.021 C 
ENDROOT
BRANCH   1   2
ATOM      2  C   UNL A   1      32.041  26.022  26.571  1.00  0.00     0.116 C 
BRANCH   2   3
ATOM      3  N   UNL A   1      31.019  25.057  26.900  1.00  0.00    -0.352 N 
ATOM      4  C   UNL A   1      30.923  23.708  26.668  1.00  0.00     0.253 C 
ATOM      5  O   UNL A   1      30.114  23.126  27.393  1.00  0.00    -0.269 OA
ATOM      6  H   UNL A   1      30.248  25.437  27.380  1.00  0.00     0.163 HD
BRANCH   4   7
ATOM      7  C   UNL A   1      31.777  22.988  25.704  1.00  0.00     0.069 A 
ATOM      8  N   UNL A   1      33.312  21.646  24.754  1.00  0.00    -0.343 N 
ATOM      9  C   UNL A   1      32.532  22.114  23.714  1.00  0.00     0.025 A 
ATOM     10  C   UNL A   1      33.068  22.471  25.850  1.00  0.00     0.028 A 
ATOM     11  C   UNL A   1      32.774  21.868  22.261  1.00  0.00     0.065 C 
ATOM     12  C   UNL A   1      31.555  22.941  24.270  1.00  0.00     0.040 A 
ATOM     13  C   UNL A   1      34.120  22.794  26.852  1.00  0.00     0.065 C 
BRANCH   8  14
ATOM     14  C   UNL A   1      34.398  20.662  24.656  1.00  0.00     0.157 C 
BRANCH  14  15
ATOM     15  C   UNL A   1      33.946  19.220  24.795  1.00  0.00    -0.028 A 
ATOM     16  C   UNL A   1      32.759  15.088  25.379  1.00  0.00     0.044 C 
ATOM     17  C   UNL A   1      33.189  16.513  25.186  1.00  0.00    -0.051 A 
ATOM     18  C   UNL A   1      32.427  17.549  25.726  1.00  0.00     0.004 A 
ATOM     19  C   UNL A   1      34.322  16.835  24.433  1.00  0.00     0.004 A 
ATOM     20  C   UNL A   1      32.812  18.881  25.547  1.00  0.00     0.006 A 
ATOM     21  C   UNL A   1      34.695  18.174  24.238  1.00  0.00     0.006 A 
ENDBRANCH  14  15
ENDBRANCH   8  14
BRANCH  12  22
ATOM     22  C   UNL A   1      30.563  23.778  23.492  1.00  0.00     0.300 C 
BRANCH  22  23
ATOM     23  N   UNL A   1      31.118  25.135  23.457  1.00  0.00    -0.340 N 
ATOM     24  H   UNL A   1      31.862  25.196  24.152  1.00  0.00     0.346 HD
ATOM     25  H   UNL A   1      30.346  25.775  23.651  1.00  0.00     0.346 HD
BRANCH  23  26
ATOM     26  C   UNL A   1      31.672  25.521  22.152  1.00  0.00     0.293 C 
BRANCH  26  27
ATOM     27  C   UNL A   1      32.598  26.746  22.240  1.00  0.00     0.173 C 
ATOM     28  C   UNL A   1      33.576  26.722  23.400  1.00  0.00     0.040 C 
ATOM     29  O   UNL A   1      31.840  27.946  22.505  1.00  0.00    -0.372 OA
ATOM     30  C   UNL A   1      34.000  28.175  23.463  1.00  0.00     0.031 C 
ATOM     31  C   UNL A   1      32.773  28.928  22.972  1.00  0.00     0.161 C 
ENDBRANCH  26  27
ENDBRANCH  23  26
ENDBRANCH  22  23
ENDBRANCH  12  22
ENDBRANCH   4   7
ENDBRANCH   2   3
ENDBRANCH   1   2
BRANCH   1  32
ATOM     32  C   UNL A   1      31.726  28.403  27.549  1.00  0.00     0.002 C 
BRANCH  32  33
ATOM     33  C   UNL A   1      32.558  29.649  27.203  1.00  0.00     0.002 C 
BRANCH  33  34
ATOM     34  C   UNL A   1      34.057  29.420  27.000  1.00  0.00     0.021 C 
BRANCH  34  35
ATOM     35  C   UNL A   1      34.937  30.516  27.584  1.00  0.00     0.116 C 
BRANCH  35  36
ATOM     36  N   UNL A   1      34.224  31.753  27.875  1.00  0.00    -0.352 N 
ATOM     37  C   UNL A   1      34.473  32.736  28.817  1.00  0.00     0.251 C 
ATOM     38  H   UNL A   1      33.435  31.916  27.309  1.00  0.00     0.163 HD
ATOM     39  O   UNL A   1      33.701  33.673  28.933  1.00  0.00    -0.269 OA
BRANCH  37  40
ATOM     40  C   UNL A   1      35.753  32.734  29.575  1.00  0.00     0.039 A 
ATOM     41  C   UNL A   1      36.829  33.448  29.026  1.00  0.00     0.014 A 
ATOM     42  C   UNL A   1      35.963  31.887  30.655  1.00  0.00     0.014 A 
ATOM     43  C   UNL A   1      38.131  33.098  29.373  1.00  0.00     0.010 A 
ATOM     44  C   UNL A   1      37.246  31.459  30.922  1.00  0.00     0.010 A 
ATOM     45  C   UNL A   1      38.323  32.015  30.227  1.00  0.00    -0.014 A 
BRANCH  45  46
ATOM     46  C   UNL A   1      39.590  31.308  30.351  1.00  0.00     0.031 A 
ATOM     47  C   UNL A   1      39.839  30.071  29.589  1.00  0.00     0.074 A 
ATOM     48  C   UNL A   1      40.581  31.866  31.081  1.00  0.00     0.049 A 
ATOM     49  N   UNL A   1      40.701  29.173  29.928  1.00  0.00    -0.248 NA
ATOM     50  C   UNL A   1      39.094  29.727  28.385  1.00  0.00     0.031 C 
ATOM     51  C   UNL A   1      41.995  31.507  31.071  1.00  0.00     0.029 A 
ATOM     52  N   UNL A   1      40.459  32.777  32.138  1.00  0.00    -0.354 N 
ATOM     53  C   UNL A   1      40.836  28.301  28.872  1.00  0.00     0.074 A 
ATOM     54  C   UNL A   1      39.758  28.643  27.972  1.00  0.00     0.031 C 
ATOM     55  C   UNL A   1      42.566  31.957  32.199  1.00  0.00     0.029 A 
ATOM     56  C   UNL A   1      41.504  32.485  33.038  1.00  0.00     0.049 A 
ATOM     57  H   UNL A   1      39.778  33.481  32.233  1.00  0.00     0.167 HD
ATOM     58  C   UNL A   1      41.934  27.491  28.813  1.00  0.00     0.037 A 
ATOM     59  C   UNL A   1      41.251  32.077  34.316  1.00  0.00     0.037 A 
ATOM     60  C   UNL A   1      42.788  27.685  29.985  1.00  0.00     0.049 A 
ATOM     61  C   UNL A   1      41.808  30.713  34.642  1.00  0.00     0.074 A 
ATOM     62  C   UNL A   1      43.932  28.443  30.181  1.00  0.00     0.029 A 
ATOM     63  N   UNL A   1      42.346  27.303  31.246  1.00  0.00    -0.354 N 
ATOM     64  N   UNL A   1      42.122  29.825  33.741  1.00  0.00    -0.248 NA
ATOM     65  C   UNL A   1      42.035  30.231  36.002  1.00  0.00     0.031 C 
ATOM     66  C   UNL A   1      44.158  28.546  31.574  1.00  0.00     0.029 A 
ATOM     67  C   UNL A   1      43.163  27.838  32.224  1.00  0.00     0.049 A 
ATOM     68  H   UNL A   1      41.562  26.734  31.418  1.00  0.00     0.167 HD
ATOM     69  C   UNL A   1      42.559  28.681  34.356  1.00  0.00     0.074 A 
ATOM     70  C   UNL A   1      42.503  28.990  35.771  1.00  0.00     0.031 C 
ATOM     71  C   UNL A   1      42.922  27.578  33.635  1.00  0.00     0.037 A 
BRANCH  58  72
ATOM     72  C   UNL A   1      42.406  26.778  27.561  1.00  0.00     0.057 A 
ATOM     73  C   UNL A   1      43.132  27.467  26.567  1.00  0.00     0.134 A 
ATOM     74  C   UNL A   1      42.135  25.438  27.238  1.00  0.00     0.134 A 
ATOM     75  F   UNL A   1      43.601  28.707  26.764  1.00  0.00    -0.206 F 
ATOM     76  C   UNL A   1      43.428  26.920  25.311  1.00  0.00     0.040 A 
ATOM     77  C   UNL A   1      42.379  24.889  25.969  1.00  0.00     0.040 A 
ATOM     78  F   UNL A   1      41.684  24.571  28.153  1.00  0.00    -0.206 F 
ATOM     79  C   UNL A   1      43.010  25.640  24.990  1.00  0.00     0.006 A 
ENDBRANCH  58  72
BRANCH  59  80
ATOM     80  C   UNL A   1      39.995  32.638  34.873  1.00  0.00     0.057 A 
ATOM     81  C   UNL A   1      40.008  33.956  35.363  1.00  0.00     0.134 A 
ATOM     82  C   UNL A   1      38.749  32.082  34.571  1.00  0.00     0.134 A 
ATOM     83  F   UNL A   1      41.174  34.547  35.671  1.00  0.00    -0.206 F 
ATOM     84  C   UNL A   1      38.847  34.727  35.439  1.00  0.00     0.040 A 
ATOM     85  C   UNL A   1      37.576  32.843  34.649  1.00  0.00     0.040 A 
ATOM     86  F   UNL A   1      38.658  30.839  34.078  1.00  0.00    -0.206 F 
ATOM     87  C   UNL A   1      37.629  34.179  35.046  1.00  0.00     0.006 A 
ENDBRANCH  59  80
BRANCH  71  88
ATOM     88  C   UNL A   1      43.187  26.191  34.174  1.00  0.00     0.057 A 
ATOM     89  C   UNL A   1      44.431  25.547  34.131  1.00  0.00     0.134 A 
ATOM     90  C   UNL A   1      42.189  25.507  34.911  1.00  0.00     0.134 A 
ATOM     91  F   UNL A   1      45.501  26.119  33.566  1.00  0.00    -0.206 F 
ATOM     92  C   UNL A   1      44.654  24.296  34.726  1.00  0.00     0.040 A 
ATOM     93  C   UNL A   1      42.416  24.287  35.554  1.00  0.00     0.040 A 
ATOM     94  F   UNL A   1      40.953  26.005  35.062  1.00  0.00    -0.206 F 
ATOM     95  C   UNL A   1      43.650  23.668  35.452  1.00  0.00     0.006 A 
ENDBRANCH  71  88
ENDBRANCH  45  46
ENDBRANCH  37  40
ENDBRANCH  35  36
ENDBRANCH  34  35
ENDBRANCH  33  34
ENDBRANCH  32  33
ENDBRANCH   1  32
TORSDOF 19
ENDMDL
MODEL 2
REMARK VINA RESULT:     -12.2      1.910      3.019
REMARK SMILES Cc1ccc(Cn2c(C)c(C[NH2+]C[C@@H]3CCCO3)c(C(=O)NCCCCCCNC(=O)c3ccc(-c4c5nc(c(-c6c(F)cccc6F)c6ccc([nH]6)c(-c6c(F)cccc6F)c6nc(c(-c7c(F)cccc7F)c7ccc4[nH]7)C=C6)C=C5)cc3)c2C)cc1
REMARK SMILES IDX 24 1 23 2 22 3 20 4 21 5 19 7 7 8 8 9 86 10 9 11 10 12 87 13
REMARK SMILES IDX 6 14 5 15 1 16 2 17 3 18 89 19 4 20 88 21 11 22 12 23 13 26
REMARK SMILES IDX 14 27 15 28 18 29 16 30 17 31 25 32 26 33 27 34 28 35 29 36
REMARK SMILES IDX 30 37 31 39 32 40 33 41 85 42 34 43 84 44 35 45 36 46 37 47
REMARK SMILES IDX 78 48 38 49 83 50 77 51 79 52 39 53 82 54 76 55 75 56 40 58
REMARK SMILES IDX 66 59 49 60 65 61 50 62 53 63 64 64 80 65 51 66 52 67 63 69
REMARK SMILES IDX 81 70 54 71 41 72 42 73 47 74 43 75 44 76 46 77 48 78 45 79
REMARK SMILES IDX 67 80 68 81 73 82 69 83 70 84 72 85 74 86 71 87 55 88 56 89
REMARK SMILES IDX 61 90 57 91 58 92 60 93 62 94 59 95
REMARK H PARENT 22 6 12 24 12 25 29 38 79 57 53 68
REMARK Flexibility Score: inf
ROOT
ATOM      1  C   UNL A   1      31.032  27.313  26.280  1.00  0.00     0.021 C 
ENDROOT
BRANCH   1   2
ATOM      2  C   UNL A   1      31.726  25.947  26.255  1.00  0.00     0.116 C 
BRANCH   2   3
ATOM      3  N   UNL A   1      30.876  24.916  26.804  1.00  0.00    -0.352 N 
ATOM      4  C   UNL A   1      30.938  23.547  26.742  1.00  0.00     0.253 C 
ATOM      5  O   UNL A   1      30.285  22.970  27.614  1.00  0.00    -0.269 OA
ATOM      6  H   UNL A   1      30.110  25.260  27.318  1.00  0.00     0.163 HD
BRANCH   4   7
ATOM      7  C   UNL A   1      31.787  22.816  25.781  1.00  0.00     0.069 A 
ATOM      8  N   UNL A   1      33.314  21.461  24.836  1.00  0.00    -0.343 N 
ATOM      9  C   UNL A   1      32.532  21.926  23.794  1.00  0.00     0.025 A 
ATOM     10  C   UNL A   1      33.075  22.295  25.926  1.00  0.00     0.028 A 
ATOM     11  C   UNL A   1      32.769  21.668  22.343  1.00  0.00     0.065 C 
ATOM     12  C   UNL A   1      31.561  22.760  24.348  1.00  0.00     0.040 A 
ATOM     13  C   UNL A   1      34.132  22.620  26.924  1.00  0.00     0.065 C 
BRANCH   8  14
ATOM     14  C   UNL A   1      34.394  20.472  24.742  1.00  0.00     0.157 C 
BRANCH  14  15
ATOM     15  C   UNL A   1      33.930  19.031  24.846  1.00  0.00    -0.028 A 
ATOM     16  C   UNL A   1      32.717  14.893  25.325  1.00  0.00     0.044 C 
ATOM     17  C   UNL A   1      33.156  16.319  25.167  1.00  0.00    -0.051 A 
ATOM     18  C   UNL A   1      32.433  17.342  25.781  1.00  0.00     0.004 A 
ATOM     19  C   UNL A   1      34.258  16.657  24.377  1.00  0.00     0.004 A 
ATOM     20  C   UNL A   1      32.827  18.675  25.635  1.00  0.00     0.006 A 
ATOM     21  C   UNL A   1      34.640  17.998  24.215  1.00  0.00     0.006 A 
ENDBRANCH  14  15
ENDBRANCH   8  14
BRANCH  12  22
ATOM     22  C   UNL A   1      30.570  23.597  23.567  1.00  0.00     0.300 C 
BRANCH  22  23
ATOM     23  N   UNL A   1      31.371  24.519  22.754  1.00  0.00    -0.340 N 
ATOM     24  H   UNL A   1      31.409  24.157  21.801  1.00  0.00     0.346 HD
ATOM     25  H   UNL A   1      32.292  24.573  23.190  1.00  0.00     0.346 HD
BRANCH  23  26
ATOM     26  C   UNL A   1      30.843  25.889  22.707  1.00  0.00     0.293 C 
BRANCH  26  27
ATOM     27  C   UNL A   1      31.903  26.919  22.285  1.00  0.00     0.173 C 
ATOM     28  C   UNL A   1      33.286  26.680  22.862  1.00  0.00     0.040 C 
ATOM     29  O   UNL A   1      31.581  28.229  22.797  1.00  0.00    -0.372 OA
ATOM     30  C   UNL A   1      33.941  28.028  22.635  1.00  0.00     0.031 C 
ATOM     31  C   UNL A   1      32.781  29.008  22.722  1.00  0.00     0.161 C 
ENDBRANCH  26  27
ENDBRANCH  23  26
ENDBRANCH  22  23
ENDBRANCH  12  22
ENDBRANCH   4   7
ENDBRANCH   2   3
ENDBRANCH   1   2
BRANCH   1  32
ATOM     32  C   UNL A   1      31.965  28.528  26.189  1.00  0.00     0.002 C 
BRANCH  32  33
ATOM     33  C   UNL A   1      33.468  28.254  26.366  1.00  0.00     0.002 C 
BRANCH  33  34
ATOM     34  C   UNL A   1      34.343  29.476  26.647  1.00  0.00     0.021 C 
BRANCH  34  35
ATOM     35  C   UNL A   1      34.118  30.098  28.019  1.00  0.00     0.116 C 
BRANCH  35  36
ATOM     36  N   UNL A   1      34.979  31.242  28.296  1.00  0.00    -0.352 N 
ATOM     37  C   UNL A   1      36.321  31.298  28.629  1.00  0.00     0.251 C 
ATOM     38  H   UNL A   1      34.532  32.117  28.236  1.00  0.00     0.163 HD
ATOM     39  O   UNL A   1      36.836  32.374  28.883  1.00  0.00    -0.269 OA
BRANCH  37  40
ATOM     40  C   UNL A   1      37.167  30.079  28.525  1.00  0.00     0.039 A 
ATOM     41  C   UNL A   1      37.280  29.273  29.667  1.00  0.00     0.014 A 
ATOM     42  C   UNL A   1      37.996  29.855  27.433  1.00  0.00     0.014 A 
ATOM     43  C   UNL A   1      38.392  28.448  29.816  1.00  0.00     0.010 A 
ATOM     44  C   UNL A   1      39.152  29.127  27.618  1.00  0.00     0.010 A 
ATOM     45  C   UNL A   1      39.382  28.485  28.838  1.00  0.00    -0.014 A 
BRANCH  45  46
ATOM     46  C   UNL A   1      40.737  27.999  29.053  1.00  0.00     0.031 A 
ATOM     47  C   UNL A   1      41.172  26.709  28.487  1.00  0.00     0.074 A 
ATOM     48  C   UNL A   1      41.628  28.801  29.675  1.00  0.00     0.049 A 
ATOM     49  N   UNL A   1      42.153  26.010  28.949  1.00  0.00    -0.248 NA
ATOM     50  C   UNL A   1      40.498  26.077  27.361  1.00  0.00     0.031 C 
ATOM     51  C   UNL A   1      43.080  28.656  29.701  1.00  0.00     0.029 A 
ATOM     52  N   UNL A   1      41.364  29.837  30.581  1.00  0.00    -0.354 N 
ATOM     53  C   UNL A   1      42.425  25.014  28.038  1.00  0.00     0.074 A 
ATOM     54  C   UNL A   1      41.317  25.052  27.110  1.00  0.00     0.031 C 
ATOM     55  C   UNL A   1      43.568  29.353  30.739  1.00  0.00     0.029 A 
ATOM     56  C   UNL A   1      42.432  29.843  31.501  1.00  0.00     0.049 A 
ATOM     57  H   UNL A   1      40.586  30.439  30.576  1.00  0.00     0.167 HD
ATOM     58  C   UNL A   1      43.631  24.375  28.090  1.00  0.00     0.037 A 
ATOM     59  C   UNL A   1      42.230  29.605  32.830  1.00  0.00     0.037 A 
ATOM     60  C   UNL A   1      44.436  24.870  29.206  1.00  0.00     0.049 A 
ATOM     61  C   UNL A   1      42.978  28.403  33.355  1.00  0.00     0.074 A 
ATOM     62  C   UNL A   1      45.454  25.809  29.268  1.00  0.00     0.029 A 
ATOM     63  N   UNL A   1      44.042  24.627  30.517  1.00  0.00    -0.354 N 
ATOM     64  N   UNL A   1      43.427  27.443  32.597  1.00  0.00    -0.248 NA
ATOM     65  C   UNL A   1      43.261  28.176  34.769  1.00  0.00     0.031 C 
ATOM     66  C   UNL A   1      45.650  26.158  30.625  1.00  0.00     0.029 A 
ATOM     67  C   UNL A   1      44.763  25.420  31.390  1.00  0.00     0.049 A 
ATOM     68  H   UNL A   1      43.349  23.982  30.785  1.00  0.00     0.167 HD
ATOM     69  C   UNL A   1      44.022  26.484  33.375  1.00  0.00     0.074 A 
ATOM     70  C   UNL A   1      43.907  26.996  34.726  1.00  0.00     0.031 C 
ATOM     71  C   UNL A   1      44.549  25.349  32.828  1.00  0.00     0.037 A 
BRANCH  58  72
ATOM     72  C   UNL A   1      44.214  23.554  26.956  1.00  0.00     0.057 A 
ATOM     73  C   UNL A   1      43.722  22.262  26.673  1.00  0.00     0.134 A 
ATOM     74  C   UNL A   1      45.291  23.942  26.142  1.00  0.00     0.134 A 
ATOM     75  F   UNL A   1      42.611  21.785  27.251  1.00  0.00    -0.206 F 
ATOM     76  C   UNL A   1      44.340  21.384  25.772  1.00  0.00     0.040 A 
ATOM     77  C   UNL A   1      45.952  23.060  25.273  1.00  0.00     0.040 A 
ATOM     78  F   UNL A   1      45.717  25.210  26.096  1.00  0.00    -0.206 F 
ATOM     79  C   UNL A   1      45.488  21.765  25.100  1.00  0.00     0.006 A 
ENDBRANCH  58  72
BRANCH  59  80
ATOM     80  C   UNL A   1      40.899  30.055  33.311  1.00  0.00     0.057 A 
ATOM     81  C   UNL A   1      40.704  31.425  33.558  1.00  0.00     0.134 A 
ATOM     82  C   UNL A   1      39.757  29.267  33.145  1.00  0.00     0.134 A 
ATOM     83  F   UNL A   1      41.761  32.236  33.724  1.00  0.00    -0.206 F 
ATOM     84  C   UNL A   1      39.435  32.007  33.525  1.00  0.00     0.040 A 
ATOM     85  C   UNL A   1      38.479  29.838  33.118  1.00  0.00     0.040 A 
ATOM     86  F   UNL A   1      39.864  27.956  32.885  1.00  0.00    -0.206 F 
ATOM     87  C   UNL A   1      38.320  31.215  33.268  1.00  0.00     0.006 A 
ENDBRANCH  59  80
BRANCH  71  88
ATOM     88  C   UNL A   1      45.010  24.115  33.569  1.00  0.00     0.057 A 
ATOM     89  C   UNL A   1      44.267  22.931  33.679  1.00  0.00     0.134 A 
ATOM     90  C   UNL A   1      46.328  24.038  34.082  1.00  0.00     0.134 A 
ATOM     91  F   UNL A   1      43.046  22.814  33.145  1.00  0.00    -0.206 F 
ATOM     92  C   UNL A   1      44.773  21.778  34.299  1.00  0.00     0.040 A 
ATOM     93  C   UNL A   1      46.861  22.878  34.651  1.00  0.00     0.040 A 
ATOM     94  F   UNL A   1      47.169  25.081  34.031  1.00  0.00    -0.206 F 
ATOM     95  C   UNL A   1      46.078  21.743  34.775  1.00  0.00     0.006 A 
ENDBRANCH  71  88
ENDBRANCH  45  46
ENDBRANCH  37  40
ENDBRANCH  35  36
ENDBRANCH  34  35
ENDBRANCH  33  34
ENDBRANCH  32  33
ENDBRANCH   1  32
TORSDOF 19
ENDMDL
MODEL 3
REMARK VINA RESULT:     -12.1      2.104      3.112
REMARK SMILES Cc1ccc(Cn2c(C)c(C[NH2+]C[C@@H]3CCCO3)c(C(=O)NCCCCCCNC(=O)c3ccc(-c4c5nc(c(-c6c(F)cccc6F)c6ccc([nH]6)c(-c6c(F)cccc6F)c6nc(c(-c7c(F)cccc7F)c7ccc4[nH]7)C=C6)C=C5)cc3)c2C)cc1
REMARK SMILES IDX 24 1 23 2 22 3 20 4 21 5 19 7 7 8 8 9 86 10 9 11 10 12 87 13
REMARK SMILES IDX 6 14 5 15 1 16 2 17 3 18 89 19 4 20 88 21 11 22 12 23 13 26
REMARK SMILES IDX 14 27 15 28 18 29 16 30 17 31 25 32 26 33 27 34 28 35 29 36
REMARK SMILES IDX 30 37 31 39 32 40 33 41 85 42 34 43 84 44 35 45 36 46 37 47
REMARK SMILES IDX 78 48 38 49 83 50 77 51 79 52 39 53 82 54 76 55 75 56 40 58
REMARK SMILES IDX 66 59 49 60 65 61 50 62 53 63 64 64 80 65 51 66 52 67 63 69
REMARK SMILES IDX 81 70 54 71 41 72 42 73 47 74 43 75 44 76 46 77 48 78 45 79
REMARK SMILES IDX 67 80 68 81 73 82 69 83 70 84 72 85 74 86 71 87 55 88 56 89
REMARK SMILES IDX 61 90 57 91 58 92 60 93 62 94 59 95
REMARK H PARENT 22 6 12 24 12 25 29 38 79 57 53 68
REMARK Flexibility Score: inf
ROOT
ATOM      1  C   UNL A   1      34.533  29.409  27.477  1.00  0.00     0.021 C 
ENDROOT
BRANCH   1   2
ATOM      2  C   UNL A   1      34.044  28.538  26.314  1.00  0.00     0.116 C 
BRANCH   2   3
ATOM      3  N   UNL A   1      32.764  27.938  26.611  1.00  0.00    -0.352 N 
ATOM      4  C   UNL A   1      32.132  26.831  26.104  1.00  0.00     0.253 C 
ATOM      5  O   UNL A   1      31.234  26.386  26.822  1.00  0.00    -0.269 OA
ATOM      6  H   UNL A   1      32.251  28.410  27.305  1.00  0.00     0.163 HD
BRANCH   4   7
ATOM      7  C   UNL A   1      32.544  26.162  24.854  1.00  0.00     0.069 A 
ATOM      8  N   UNL A   1      33.392  24.722  23.349  1.00  0.00    -0.343 N 
ATOM      9  C   UNL A   1      32.653  25.634  22.617  1.00  0.00     0.025 A 
ATOM     10  C   UNL A   1      33.603  25.284  24.605  1.00  0.00     0.028 A 
ATOM     11  C   UNL A   1      32.572  25.698  21.128  1.00  0.00     0.065 C 
ATOM     12  C   UNL A   1      32.098  26.536  23.525  1.00  0.00     0.040 A 
ATOM     13  C   UNL A   1      34.846  25.038  25.387  1.00  0.00     0.065 C 
BRANCH   8  14
ATOM     14  C   UNL A   1      34.069  23.529  22.825  1.00  0.00     0.157 C 
BRANCH  14  15
ATOM     15  C   UNL A   1      33.708  22.242  23.543  1.00  0.00    -0.028 A 
ATOM     16  C   UNL A   1      32.787  18.456  25.450  1.00  0.00     0.044 C 
ATOM     17  C   UNL A   1      33.104  19.756  24.772  1.00  0.00    -0.051 A 
ATOM     18  C   UNL A   1      34.276  20.441  25.093  1.00  0.00     0.004 A 
ATOM     19  C   UNL A   1      32.225  20.326  23.846  1.00  0.00     0.004 A 
ATOM     20  C   UNL A   1      34.579  21.657  24.473  1.00  0.00     0.006 A 
ATOM     21  C   UNL A   1      32.522  21.557  23.241  1.00  0.00     0.006 A 
ENDBRANCH  14  15
ENDBRANCH   8  14
BRANCH  12  22
ATOM     22  C   UNL A   1      31.323  27.785  23.162  1.00  0.00     0.300 C 
BRANCH  22  23
ATOM     23  N   UNL A   1      30.046  27.691  23.877  1.00  0.00    -0.340 N 
ATOM     24  H   UNL A   1      30.106  28.265  24.719  1.00  0.00     0.346 HD
ATOM     25  H   UNL A   1      29.897  26.703  24.086  1.00  0.00     0.346 HD
BRANCH  23  26
ATOM     26  C   UNL A   1      28.887  28.139  23.094  1.00  0.00     0.293 C 
BRANCH  26  27
ATOM     27  C   UNL A   1      28.970  29.626  22.709  1.00  0.00     0.173 C 
ATOM     28  C   UNL A   1      27.932  30.513  23.372  1.00  0.00     0.040 C 
ATOM     29  O   UNL A   1      28.680  29.812  21.308  1.00  0.00    -0.372 OA
ATOM     30  C   UNL A   1      27.993  31.748  22.496  1.00  0.00     0.031 C 
ATOM     31  C   UNL A   1      28.375  31.201  21.130  1.00  0.00     0.161 C 
ENDBRANCH  26  27
ENDBRANCH  23  26
ENDBRANCH  22  23
ENDBRANCH  12  22
ENDBRANCH   4   7
ENDBRANCH   2   3
ENDBRANCH   1   2
BRANCH   1  32
ATOM     32  C   UNL A   1      33.818  30.757  27.638  1.00  0.00     0.002 C 
BRANCH  32  33
ATOM     33  C   UNL A   1      34.657  31.915  28.206  1.00  0.00     0.002 C 
BRANCH  33  34
ATOM     34  C   UNL A   1      34.156  33.324  27.886  1.00  0.00     0.021 C 
BRANCH  34  35
ATOM     35  C   UNL A   1      34.749  34.410  28.774  1.00  0.00     0.116 C 
BRANCH  35  36
ATOM     36  N   UNL A   1      33.824  34.923  29.776  1.00  0.00    -0.352 N 
ATOM     37  C   UNL A   1      33.734  34.666  31.133  1.00  0.00     0.251 C 
ATOM     38  H   UNL A   1      33.154  35.556  29.431  1.00  0.00     0.163 HD
ATOM     39  O   UNL A   1      32.831  35.164  31.784  1.00  0.00    -0.269 OA
BRANCH  37  40
ATOM     40  C   UNL A   1      34.819  33.919  31.824  1.00  0.00     0.039 A 
ATOM     41  C   UNL A   1      35.959  34.641  32.207  1.00  0.00     0.014 A 
ATOM     42  C   UNL A   1      34.824  32.531  31.890  1.00  0.00     0.014 A 
ATOM     43  C   UNL A   1      37.167  33.973  32.380  1.00  0.00     0.010 A 
ATOM     44  C   UNL A   1      36.035  31.875  31.950  1.00  0.00     0.010 A 
ATOM     45  C   UNL A   1      37.214  32.606  32.122  1.00  0.00    -0.014 A 
BRANCH  45  46
ATOM     46  C   UNL A   1      38.451  31.879  31.877  1.00  0.00     0.031 A 
ATOM     47  C   UNL A   1      38.461  30.680  31.020  1.00  0.00     0.074 A 
ATOM     48  C   UNL A   1      39.612  32.387  32.348  1.00  0.00     0.049 A 
ATOM     49  N   UNL A   1      39.360  29.755  31.080  1.00  0.00    -0.248 NA
ATOM     50  C   UNL A   1      37.421  30.406  30.038  1.00  0.00     0.031 C 
ATOM     51  C   UNL A   1      40.964  32.012  31.951  1.00  0.00     0.029 A 
ATOM     52  N   UNL A   1      39.792  33.244  33.441  1.00  0.00    -0.354 N 
ATOM     53  C   UNL A   1      39.193  28.937  29.986  1.00  0.00     0.074 A 
ATOM     54  C   UNL A   1      37.926  29.338  29.416  1.00  0.00     0.031 C 
ATOM     55  C   UNL A   1      41.821  32.397  32.910  1.00  0.00     0.029 A 
ATOM     56  C   UNL A   1      41.028  32.893  34.021  1.00  0.00     0.049 A 
ATOM     57  H   UNL A   1      39.177  33.950  33.744  1.00  0.00     0.167 HD
ATOM     58  C   UNL A   1      40.218  28.118  29.604  1.00  0.00     0.037 A 
ATOM     59  C   UNL A   1      41.108  32.424  35.301  1.00  0.00     0.037 A 
ATOM     60  C   UNL A   1      41.352  28.242  30.519  1.00  0.00     0.049 A 
ATOM     61  C   UNL A   1      41.696  31.038  35.406  1.00  0.00     0.074 A 
ATOM     62  C   UNL A   1      42.526  28.975  30.444  1.00  0.00     0.029 A 
ATOM     63  N   UNL A   1      41.245  27.801  31.833  1.00  0.00    -0.354 N 
ATOM     64  N   UNL A   1      41.742  30.194  34.414  1.00  0.00    -0.248 NA
ATOM     65  C   UNL A   1      42.258  30.485  36.635  1.00  0.00     0.031 C 
ATOM     66  C   UNL A   1      43.110  29.004  31.732  1.00  0.00     0.029 A 
ATOM     67  C   UNL A   1      42.302  28.275  32.586  1.00  0.00     0.049 A 
ATOM     68  H   UNL A   1      40.519  27.233  32.177  1.00  0.00     0.167 HD
ATOM     69  C   UNL A   1      42.296  29.014  34.839  1.00  0.00     0.074 A 
ATOM     70  C   UNL A   1      42.618  29.252  36.233  1.00  0.00     0.031 C 
ATOM     71  C   UNL A   1      42.431  27.946  33.998  1.00  0.00     0.037 A 
BRANCH  58  72
ATOM     72  C   UNL A   1      40.328  27.464  28.240  1.00  0.00     0.057 A 
ATOM     73  C   UNL A   1      39.854  26.153  28.028  1.00  0.00     0.134 A 
ATOM     74  C   UNL A   1      40.937  28.037  27.111  1.00  0.00     0.134 A 
ATOM     75  F   UNL A   1      39.122  25.507  28.945  1.00  0.00    -0.206 F 
ATOM     76  C   UNL A   1      40.097  25.428  26.853  1.00  0.00     0.040 A 
ATOM     77  C   UNL A   1      41.233  27.311  25.947  1.00  0.00     0.040 A 
ATOM     78  F   UNL A   1      41.216  29.345  27.050  1.00  0.00    -0.206 F 
ATOM     79  C   UNL A   1      40.830  25.990  25.822  1.00  0.00     0.006 A 
ENDBRANCH  58  72
BRANCH  59  80
ATOM     80  C   UNL A   1      40.054  32.970  36.192  1.00  0.00     0.057 A 
ATOM     81  C   UNL A   1      38.909  32.192  36.432  1.00  0.00     0.134 A 
ATOM     82  C   UNL A   1      40.322  34.006  37.092  1.00  0.00     0.134 A 
ATOM     83  F   UNL A   1      38.597  31.181  35.604  1.00  0.00    -0.206 F 
ATOM     84  C   UNL A   1      38.129  32.359  37.578  1.00  0.00     0.040 A 
ATOM     85  C   UNL A   1      39.544  34.187  38.242  1.00  0.00     0.040 A 
ATOM     86  F   UNL A   1      41.408  34.777  36.941  1.00  0.00    -0.206 F 
ATOM     87  C   UNL A   1      38.469  33.338  38.506  1.00  0.00     0.006 A 
ENDBRANCH  59  80
BRANCH  71  88
ATOM     88  C   UNL A   1      42.792  26.530  34.384  1.00  0.00     0.057 A 
ATOM     89  C   UNL A   1      43.963  25.872  33.982  1.00  0.00     0.134 A 
ATOM     90  C   UNL A   1      42.009  25.823  35.328  1.00  0.00     0.134 A 
ATOM     91  F   UNL A   1      44.859  26.458  33.178  1.00  0.00    -0.206 F 
ATOM     92  C   UNL A   1      44.303  24.590  34.439  1.00  0.00     0.040 A 
ATOM     93  C   UNL A   1      42.366  24.569  35.833  1.00  0.00     0.040 A 
ATOM     94  F   UNL A   1      40.871  26.330  35.826  1.00  0.00    -0.206 F 
ATOM     95  C   UNL A   1      43.512  23.939  35.378  1.00  0.00     0.006 A 
ENDBRANCH  71  88
ENDBRANCH  45  46
ENDBRANCH  37  40
ENDBRANCH  35  36
ENDBRANCH  34  35
ENDBRANCH  33  34
ENDBRANCH  32  33
ENDBRANCH   1  32
TORSDOF 19
ENDMDL
