MODEL 1
REMARK VINA RESULT:     -11.9      0.000      0.000
REMARK SMILES CCc1ccc2[nH]c(C(=O)c3cc(C)ccn3)c(CC(=O)NCCCCCCNC(=O)c3ccc(-c4c5nc(c(-c6c(F)cccc6F)c6ccc([nH]6)c(-c6c(F)cccc6F)c6nc(c(-c7c(F)cccc7F)c7ccc4[nH]7)C=C6)C=C5)cc3)c2c1
REMARK SMILES IDX 25 1 24 2 23 3 22 4 20 5 21 6 19 8 18 9 3 10 4 11 87 12 5 13
REMARK SMILES IDX 86 14 6 15 7 16 8 17 2 19 1 20 9 21 10 22 11 23 12 24 17 25
REMARK SMILES IDX 13 26 16 27 14 28 15 29 26 30 27 31 28 32 29 33 30 34 31 36
REMARK SMILES IDX 32 37 33 38 85 39 34 40 84 41 35 42 36 43 37 44 78 45 38 46
REMARK SMILES IDX 83 47 77 48 79 49 39 50 82 51 76 52 75 53 40 55 66 56 49 57
REMARK SMILES IDX 65 58 50 59 53 60 64 61 80 62 51 63 52 64 63 66 81 67 54 68
REMARK SMILES IDX 41 69 42 70 47 71 43 72 44 73 46 74 48 75 45 76 67 77 68 78
REMARK SMILES IDX 73 79 69 80 70 81 72 82 74 83 71 84 55 85 56 86 61 87 57 88
REMARK SMILES IDX 58 89 60 90 62 91 59 92
REMARK H PARENT 22 7 7 18 29 35 79 54 53 65
REMARK Flexibility Score: inf
ROOT
ATOM      1  C   UNL A   1      34.124  32.354  28.016  1.00  0.00     0.002 C 
ENDROOT
BRANCH   1   2
ATOM      2  C   UNL A   1      35.225  31.295  28.162  1.00  0.00     0.021 C 
BRANCH   2   3
ATOM      3  C   UNL A   1      34.905  29.966  27.479  1.00  0.00     0.116 C 
BRANCH   3   4
ATOM      4  N   UNL A   1      33.582  29.487  27.813  1.00  0.00    -0.356 N 
ATOM      5  C   UNL A   1      32.529  29.183  27.001  1.00  0.00     0.224 C 
ATOM      6  O   UNL A   1      31.563  28.625  27.532  1.00  0.00    -0.275 OA
ATOM      7  H   UNL A   1      33.415  29.363  28.776  1.00  0.00     0.163 HD
BRANCH   5   8
ATOM      8  C   UNL A   1      32.600  29.373  25.491  1.00  0.00     0.138 C 
BRANCH   8   9
ATOM      9  C   UNL A   1      31.619  28.567  24.680  1.00  0.00    -0.002 A 
ATOM     10  C   UNL A   1      28.672  30.578  23.216  1.00  0.00    -0.048 A 
ATOM     11  C   UNL A   1      28.024  29.466  22.670  1.00  0.00     0.006 A 
ATOM     12  C   UNL A   1      29.896  30.385  23.885  1.00  0.00     0.014 A 
ATOM     13  C   UNL A   1      28.560  28.176  22.774  1.00  0.00     0.027 A 
ATOM     14  C   UNL A   1      30.454  29.094  24.021  1.00  0.00     0.004 A 
ATOM     15  C   UNL A   1      29.772  28.026  23.455  1.00  0.00     0.046 A 
ATOM     16  N   UNL A   1      30.508  26.897  23.716  1.00  0.00    -0.352 N 
ATOM     17  C   UNL A   1      31.676  27.204  24.385  1.00  0.00     0.093 A 
ATOM     18  H   UNL A   1      30.236  25.987  23.460  1.00  0.00     0.167 HD
BRANCH  10  19
ATOM     19  C   UNL A   1      28.123  31.986  23.151  1.00  0.00     0.032 C 
ATOM     20  C   UNL A   1      28.069  32.649  21.781  1.00  0.00     0.009 C 
ENDBRANCH  10  19
BRANCH  17  21
ATOM     21  C   UNL A   1      32.722  26.241  24.715  1.00  0.00     0.227 C 
ATOM     22  O   UNL A   1      33.869  26.307  24.276  1.00  0.00    -0.285 OA
BRANCH  21  23
ATOM     23  C   UNL A   1      32.376  25.081  25.579  1.00  0.00     0.113 A 
ATOM     24  C   UNL A   1      33.395  24.328  26.157  1.00  0.00     0.036 A 
ATOM     25  N   UNL A   1      31.056  24.808  25.723  1.00  0.00    -0.253 NA
ATOM     26  C   UNL A   1      33.044  23.222  26.931  1.00  0.00    -0.047 A 
ATOM     27  C   UNL A   1      30.743  23.757  26.508  1.00  0.00     0.112 A 
ATOM     28  C   UNL A   1      34.087  22.350  27.560  1.00  0.00     0.044 C 
ATOM     29  C   UNL A   1      31.686  22.942  27.117  1.00  0.00     0.023 A 
ENDBRANCH  21  23
ENDBRANCH  17  21
ENDBRANCH   8   9
ENDBRANCH   5   8
ENDBRANCH   3   4
ENDBRANCH   2   3
ENDBRANCH   1   2
BRANCH   1  30
ATOM     30  C   UNL A   1      34.279  33.589  28.912  1.00  0.00     0.002 C 
BRANCH  30  31
ATOM     31  C   UNL A   1      33.155  34.623  28.801  1.00  0.00     0.021 C 
BRANCH  31  32
ATOM     32  C   UNL A   1      33.451  35.961  29.472  1.00  0.00     0.116 C 
BRANCH  32  33
ATOM     33  N   UNL A   1      32.546  36.233  30.578  1.00  0.00    -0.352 N 
ATOM     34  C   UNL A   1      32.595  35.801  31.880  1.00  0.00     0.251 C 
ATOM     35  H   UNL A   1      31.783  36.816  30.360  1.00  0.00     0.163 HD
ATOM     36  O   UNL A   1      31.637  35.981  32.627  1.00  0.00    -0.269 OA
BRANCH  34  37
ATOM     37  C   UNL A   1      33.795  35.099  32.383  1.00  0.00     0.039 A 
ATOM     38  C   UNL A   1      33.653  33.806  32.896  1.00  0.00     0.014 A 
ATOM     39  C   UNL A   1      35.050  35.713  32.366  1.00  0.00     0.014 A 
ATOM     40  C   UNL A   1      34.781  33.104  33.327  1.00  0.00     0.010 A 
ATOM     41  C   UNL A   1      36.181  34.989  32.735  1.00  0.00     0.010 A 
ATOM     42  C   UNL A   1      36.059  33.677  33.215  1.00  0.00    -0.014 A 
BRANCH  42  43
ATOM     43  C   UNL A   1      37.278  32.907  33.569  1.00  0.00     0.031 A 
ATOM     44  C   UNL A   1      38.024  33.204  34.840  1.00  0.00     0.074 A 
ATOM     45  C   UNL A   1      37.753  31.987  32.707  1.00  0.00     0.049 A 
ATOM     46  N   UNL A   1      39.146  32.690  35.278  1.00  0.00    -0.248 NA
ATOM     47  C   UNL A   1      37.447  34.228  35.723  1.00  0.00     0.031 C 
ATOM     48  C   UNL A   1      37.146  31.640  31.420  1.00  0.00     0.029 A 
ATOM     49  N   UNL A   1      38.864  31.184  32.776  1.00  0.00    -0.354 N 
ATOM     50  C   UNL A   1      39.413  33.335  36.478  1.00  0.00     0.074 A 
ATOM     51  C   UNL A   1      38.363  34.311  36.677  1.00  0.00     0.031 C 
ATOM     52  C   UNL A   1      37.880  30.684  30.831  1.00  0.00     0.029 A 
ATOM     53  C   UNL A   1      39.030  30.378  31.677  1.00  0.00     0.049 A 
ATOM     54  H   UNL A   1      39.484  31.186  33.541  1.00  0.00     0.167 HD
ATOM     55  C   UNL A   1      40.431  33.120  37.347  1.00  0.00     0.037 A 
ATOM     56  C   UNL A   1      40.005  29.498  31.377  1.00  0.00     0.037 A 
ATOM     57  C   UNL A   1      41.464  32.134  37.157  1.00  0.00     0.049 A 
ATOM     58  C   UNL A   1      41.129  29.288  32.352  1.00  0.00     0.074 A 
ATOM     59  C   UNL A   1      42.503  31.800  38.007  1.00  0.00     0.029 A 
ATOM     60  N   UNL A   1      41.590  31.326  36.036  1.00  0.00    -0.354 N 
ATOM     61  N   UNL A   1      41.334  29.858  33.513  1.00  0.00    -0.248 NA
ATOM     62  C   UNL A   1      42.156  28.306  31.975  1.00  0.00     0.031 C 
ATOM     63  C   UNL A   1      43.285  30.822  37.382  1.00  0.00     0.029 A 
ATOM     64  C   UNL A   1      42.704  30.512  36.164  1.00  0.00     0.049 A 
ATOM     65  H   UNL A   1      40.979  31.331  35.264  1.00  0.00     0.167 HD
ATOM     66  C   UNL A   1      42.496  29.287  34.019  1.00  0.00     0.074 A 
ATOM     67  C   UNL A   1      42.942  28.315  33.042  1.00  0.00     0.031 C 
ATOM     68  C   UNL A   1      43.135  29.547  35.185  1.00  0.00     0.037 A 
BRANCH  55  69
ATOM     69  C   UNL A   1      40.478  33.966  38.585  1.00  0.00     0.057 A 
ATOM     70  C   UNL A   1      41.224  35.151  38.643  1.00  0.00     0.134 A 
ATOM     71  C   UNL A   1      39.731  33.619  39.718  1.00  0.00     0.134 A 
ATOM     72  F   UNL A   1      41.969  35.536  37.595  1.00  0.00    -0.206 F 
ATOM     73  C   UNL A   1      41.248  35.945  39.790  1.00  0.00     0.040 A 
ATOM     74  C   UNL A   1      39.724  34.419  40.862  1.00  0.00     0.040 A 
ATOM     75  F   UNL A   1      38.989  32.501  39.729  1.00  0.00    -0.206 F 
ATOM     76  C   UNL A   1      40.488  35.583  40.902  1.00  0.00     0.006 A 
ENDBRANCH  55  69
BRANCH  56  77
ATOM     77  C   UNL A   1      39.954  28.739  30.103  1.00  0.00     0.057 A 
ATOM     78  C   UNL A   1      40.586  29.221  28.951  1.00  0.00     0.134 A 
ATOM     79  C   UNL A   1      39.267  27.524  30.002  1.00  0.00     0.134 A 
ATOM     80  F   UNL A   1      41.243  30.390  28.980  1.00  0.00    -0.206 F 
ATOM     81  C   UNL A   1      40.521  28.532  27.738  1.00  0.00     0.040 A 
ATOM     82  C   UNL A   1      39.216  26.811  28.803  1.00  0.00     0.040 A 
ATOM     83  F   UNL A   1      38.647  27.005  31.072  1.00  0.00    -0.206 F 
ATOM     84  C   UNL A   1      39.837  27.320  27.664  1.00  0.00     0.006 A 
ENDBRANCH  56  77
BRANCH  68  85
ATOM     85  C   UNL A   1      44.368  28.745  35.482  1.00  0.00     0.057 A 
ATOM     86  C   UNL A   1      44.307  27.517  36.153  1.00  0.00     0.134 A 
ATOM     87  C   UNL A   1      45.628  29.191  35.061  1.00  0.00     0.134 A 
ATOM     88  F   UNL A   1      43.133  27.041  36.594  1.00  0.00    -0.206 F 
ATOM     89  C   UNL A   1      45.458  26.772  36.416  1.00  0.00     0.040 A 
ATOM     90  C   UNL A   1      46.782  28.442  35.294  1.00  0.00     0.040 A 
ATOM     91  F   UNL A   1      45.755  30.354  34.406  1.00  0.00    -0.206 F 
ATOM     92  C   UNL A   1      46.699  27.232  35.980  1.00  0.00     0.006 A 
ENDBRANCH  68  85
ENDBRANCH  42  43
ENDBRANCH  34  37
ENDBRANCH  32  33
ENDBRANCH  31  32
ENDBRANCH  30  31
ENDBRANCH   1  30
TORSDOF 17
ENDMDL
MODEL 2
REMARK VINA RESULT:     -11.9      5.659      9.925
REMARK SMILES CCc1ccc2[nH]c(C(=O)c3cc(C)ccn3)c(CC(=O)NCCCCCCNC(=O)c3ccc(-c4c5nc(c(-c6c(F)cccc6F)c6ccc([nH]6)c(-c6c(F)cccc6F)c6nc(c(-c7c(F)cccc7F)c7ccc4[nH]7)C=C6)C=C5)cc3)c2c1
REMARK SMILES IDX 25 1 24 2 23 3 22 4 20 5 21 6 19 8 18 9 3 10 4 11 87 12 5 13
REMARK SMILES IDX 86 14 6 15 7 16 8 17 2 19 1 20 9 21 10 22 11 23 12 24 17 25
REMARK SMILES IDX 13 26 16 27 14 28 15 29 26 30 27 31 28 32 29 33 30 34 31 36
REMARK SMILES IDX 32 37 33 38 85 39 34 40 84 41 35 42 36 43 37 44 78 45 38 46
REMARK SMILES IDX 83 47 77 48 79 49 39 50 82 51 76 52 75 53 40 55 66 56 49 57
REMARK SMILES IDX 65 58 50 59 53 60 64 61 80 62 51 63 52 64 63 66 81 67 54 68
REMARK SMILES IDX 41 69 42 70 47 71 43 72 44 73 46 74 48 75 45 76 67 77 68 78
REMARK SMILES IDX 73 79 69 80 70 81 72 82 74 83 71 84 55 85 56 86 61 87 57 88
REMARK SMILES IDX 58 89 60 90 62 91 59 92
REMARK H PARENT 22 7 7 18 29 35 79 54 53 65
REMARK Flexibility Score: inf
ROOT
ATOM      1  C   UNL A   1      36.752  22.220  24.476  1.00  0.00     0.002 C 
ENDROOT
BRANCH   1   2
ATOM      2  C   UNL A   1      36.234  23.317  25.416  1.00  0.00     0.021 C 
BRANCH   2   3
ATOM      3  C   UNL A   1      34.985  24.035  24.906  1.00  0.00     0.116 C 
BRANCH   3   4
ATOM      4  N   UNL A   1      34.662  25.197  25.703  1.00  0.00    -0.356 N 
ATOM      5  C   UNL A   1      33.787  26.214  25.455  1.00  0.00     0.224 C 
ATOM      6  O   UNL A   1      33.571  26.999  26.385  1.00  0.00    -0.275 OA
ATOM      7  H   UNL A   1      35.150  25.266  26.556  1.00  0.00     0.163 HD
BRANCH   5   8
ATOM      8  C   UNL A   1      32.994  26.291  24.155  1.00  0.00     0.138 C 
BRANCH   8   9
ATOM      9  C   UNL A   1      31.507  26.084  24.279  1.00  0.00    -0.002 A 
ATOM     10  C   UNL A   1      29.339  28.785  22.582  1.00  0.00    -0.048 A 
ATOM     11  C   UNL A   1      28.121  28.258  23.022  1.00  0.00     0.006 A 
ATOM     12  C   UNL A   1      30.529  28.115  22.928  1.00  0.00     0.014 A 
ATOM     13  C   UNL A   1      28.058  27.089  23.791  1.00  0.00     0.027 A 
ATOM     14  C   UNL A   1      30.499  26.943  23.717  1.00  0.00     0.004 A 
ATOM     15  C   UNL A   1      29.262  26.460  24.121  1.00  0.00     0.046 A 
ATOM     16  N   UNL A   1      29.497  25.329  24.862  1.00  0.00    -0.352 N 
ATOM     17  C   UNL A   1      30.844  25.028  24.905  1.00  0.00     0.093 A 
ATOM     18  H   UNL A   1      28.795  24.801  25.305  1.00  0.00     0.167 HD
BRANCH  10  19
ATOM     19  C   UNL A   1      29.462  30.056  21.770  1.00  0.00     0.032 C 
ATOM     20  C   UNL A   1      28.168  30.690  21.274  1.00  0.00     0.009 C 
ENDBRANCH  10  19
BRANCH  17  21
ATOM     21  C   UNL A   1      31.409  23.833  25.523  1.00  0.00     0.227 C 
ATOM     22  O   UNL A   1      31.693  23.756  26.718  1.00  0.00    -0.285 OA
BRANCH  21  23
ATOM     23  C   UNL A   1      31.721  22.663  24.660  1.00  0.00     0.113 A 
ATOM     24  C   UNL A   1      32.072  21.451  25.249  1.00  0.00     0.036 A 
ATOM     25  N   UNL A   1      31.673  22.870  23.321  1.00  0.00    -0.253 NA
ATOM     26  C   UNL A   1      32.398  20.380  24.415  1.00  0.00    -0.047 A 
ATOM     27  C   UNL A   1      31.954  21.809  22.540  1.00  0.00     0.112 A 
ATOM     28  C   UNL A   1      32.813  19.055  24.978  1.00  0.00     0.044 C 
ATOM     29  C   UNL A   1      32.325  20.566  23.031  1.00  0.00     0.023 A 
ENDBRANCH  21  23
ENDBRANCH  17  21
ENDBRANCH   8   9
ENDBRANCH   5   8
ENDBRANCH   3   4
ENDBRANCH   2   3
ENDBRANCH   1   2
BRANCH   1  30
ATOM     30  C   UNL A   1      36.546  20.782  24.970  1.00  0.00     0.002 C 
BRANCH  30  31
ATOM     31  C   UNL A   1      37.775  19.875  24.871  1.00  0.00     0.021 C 
BRANCH  31  32
ATOM     32  C   UNL A   1      38.950  20.293  25.750  1.00  0.00     0.116 C 
BRANCH  32  33
ATOM     33  N   UNL A   1      39.972  19.261  25.830  1.00  0.00    -0.352 N 
ATOM     34  C   UNL A   1      41.317  19.376  26.080  1.00  0.00     0.251 C 
ATOM     35  H   UNL A   1      39.650  18.342  25.684  1.00  0.00     0.163 HD
ATOM     36  O   UNL A   1      42.058  18.409  25.922  1.00  0.00    -0.269 OA
BRANCH  34  37
ATOM     37  C   UNL A   1      41.882  20.668  26.520  1.00  0.00     0.039 A 
ATOM     38  C   UNL A   1      42.427  21.527  25.562  1.00  0.00     0.014 A 
ATOM     39  C   UNL A   1      41.892  21.027  27.871  1.00  0.00     0.014 A 
ATOM     40  C   UNL A   1      42.918  22.776  25.950  1.00  0.00     0.010 A 
ATOM     41  C   UNL A   1      42.322  22.298  28.248  1.00  0.00     0.010 A 
ATOM     42  C   UNL A   1      42.835  23.186  27.291  1.00  0.00    -0.014 A 
BRANCH  42  43
ATOM     43  C   UNL A   1      43.253  24.549  27.704  1.00  0.00     0.031 A 
ATOM     44  C   UNL A   1      42.224  25.594  28.035  1.00  0.00     0.074 A 
ATOM     45  C   UNL A   1      44.563  24.866  27.710  1.00  0.00     0.049 A 
ATOM     46  N   UNL A   1      42.397  26.856  28.341  1.00  0.00    -0.248 NA
ATOM     47  C   UNL A   1      40.816  25.173  27.996  1.00  0.00     0.031 C 
ATOM     48  C   UNL A   1      45.656  23.955  27.364  1.00  0.00     0.029 A 
ATOM     49  N   UNL A   1      45.197  26.047  28.007  1.00  0.00    -0.354 N 
ATOM     50  C   UNL A   1      41.124  27.379  28.518  1.00  0.00     0.074 A 
ATOM     51  C   UNL A   1      40.186  26.313  28.240  1.00  0.00     0.031 C 
ATOM     52  C   UNL A   1      46.824  24.603  27.485  1.00  0.00     0.029 A 
ATOM     53  C   UNL A   1      46.563  25.984  27.879  1.00  0.00     0.049 A 
ATOM     54  H   UNL A   1      44.719  26.861  28.285  1.00  0.00     0.167 HD
ATOM     55  C   UNL A   1      40.768  28.631  28.898  1.00  0.00     0.037 A 
ATOM     56  C   UNL A   1      47.502  26.936  28.047  1.00  0.00     0.037 A 
ATOM     57  C   UNL A   1      41.704  29.685  29.195  1.00  0.00     0.049 A 
ATOM     58  C   UNL A   1      47.079  28.319  28.457  1.00  0.00     0.074 A 
ATOM     59  C   UNL A   1      41.444  30.967  29.645  1.00  0.00     0.029 A 
ATOM     60  N   UNL A   1      43.081  29.579  29.067  1.00  0.00    -0.354 N 
ATOM     61  N   UNL A   1      45.875  28.782  28.685  1.00  0.00    -0.248 NA
ATOM     62  C   UNL A   1      48.149  29.311  28.638  1.00  0.00     0.031 C 
ATOM     63  C   UNL A   1      42.659  31.652  29.746  1.00  0.00     0.029 A 
ATOM     64  C   UNL A   1      43.681  30.780  29.406  1.00  0.00     0.049 A 
ATOM     65  H   UNL A   1      43.561  28.769  28.778  1.00  0.00     0.167 HD
ATOM     66  C   UNL A   1      46.042  30.109  29.061  1.00  0.00     0.074 A 
ATOM     67  C   UNL A   1      47.466  30.372  29.045  1.00  0.00     0.031 C 
ATOM     68  C   UNL A   1      45.100  31.028  29.388  1.00  0.00     0.037 A 
BRANCH  55  69
ATOM     69  C   UNL A   1      39.303  28.930  29.018  1.00  0.00     0.057 A 
ATOM     70  C   UNL A   1      38.612  28.768  30.227  1.00  0.00     0.134 A 
ATOM     71  C   UNL A   1      38.582  29.429  27.926  1.00  0.00     0.134 A 
ATOM     72  F   UNL A   1      39.241  28.284  31.309  1.00  0.00    -0.206 F 
ATOM     73  C   UNL A   1      37.253  29.067  30.338  1.00  0.00     0.040 A 
ATOM     74  C   UNL A   1      37.229  29.758  28.031  1.00  0.00     0.040 A 
ATOM     75  F   UNL A   1      39.183  29.615  26.741  1.00  0.00    -0.206 F 
ATOM     76  C   UNL A   1      36.560  29.572  29.239  1.00  0.00     0.006 A 
ENDBRANCH  55  69
BRANCH  56  77
ATOM     77  C   UNL A   1      48.935  26.610  27.843  1.00  0.00     0.057 A 
ATOM     78  C   UNL A   1      49.552  26.817  26.605  1.00  0.00     0.134 A 
ATOM     79  C   UNL A   1      49.718  26.077  28.874  1.00  0.00     0.134 A 
ATOM     80  F   UNL A   1      48.849  27.306  25.573  1.00  0.00    -0.206 F 
ATOM     81  C   UNL A   1      50.891  26.487  26.390  1.00  0.00     0.040 A 
ATOM     82  C   UNL A   1      51.065  25.767  28.681  1.00  0.00     0.040 A 
ATOM     83  F   UNL A   1      49.188  25.862  30.087  1.00  0.00    -0.206 F 
ATOM     84  C   UNL A   1      51.653  25.964  27.434  1.00  0.00     0.006 A 
ENDBRANCH  56  77
BRANCH  68  85
ATOM     85  C   UNL A   1      45.583  32.391  29.786  1.00  0.00     0.057 A 
ATOM     86  C   UNL A   1      45.923  32.698  31.110  1.00  0.00     0.134 A 
ATOM     87  C   UNL A   1      45.744  33.399  28.826  1.00  0.00     0.134 A 
ATOM     88  F   UNL A   1      45.779  31.780  32.078  1.00  0.00    -0.206 F 
ATOM     89  C   UNL A   1      46.382  33.966  31.469  1.00  0.00     0.040 A 
ATOM     90  C   UNL A   1      46.227  34.663  29.169  1.00  0.00     0.040 A 
ATOM     91  F   UNL A   1      45.445  33.168  27.539  1.00  0.00    -0.206 F 
ATOM     92  C   UNL A   1      46.541  34.950  30.496  1.00  0.00     0.006 A 
ENDBRANCH  68  85
ENDBRANCH  42  43
ENDBRANCH  34  37
ENDBRANCH  32  33
ENDBRANCH  31  32
ENDBRANCH  30  31
ENDBRANCH   1  30
TORSDOF 17
ENDMDL
MODEL 3
REMARK VINA RESULT:     -11.8      4.902      9.575
REMARK SMILES CCc1ccc2[nH]c(C(=O)c3cc(C)ccn3)c(CC(=O)NCCCCCCNC(=O)c3ccc(-c4c5nc(c(-c6c(F)cccc6F)c6ccc([nH]6)c(-c6c(F)cccc6F)c6nc(c(-c7c(F)cccc7F)c7ccc4[nH]7)C=C6)C=C5)cc3)c2c1
REMARK SMILES IDX 25 1 24 2 23 3 22 4 20 5 21 6 19 8 18 9 3 10 4 11 87 12 5 13
REMARK SMILES IDX 86 14 6 15 7 16 8 17 2 19 1 20 9 21 10 22 11 23 12 24 17 25
REMARK SMILES IDX 13 26 16 27 14 28 15 29 26 30 27 31 28 32 29 33 30 34 31 36
REMARK SMILES IDX 32 37 33 38 85 39 34 40 84 41 35 42 36 43 37 44 78 45 38 46
REMARK SMILES IDX 83 47 77 48 79 49 39 50 82 51 76 52 75 53 40 55 66 56 49 57
REMARK SMILES IDX 65 58 50 59 53 60 64 61 80 62 51 63 52 64 63 66 81 67 54 68
REMARK SMILES IDX 41 69 42 70 47 71 43 72 44 73 46 74 48 75 45 76 67 77 68 78
REMARK SMILES IDX 73 79 69 80 70 81 72 82 74 83 71 84 55 85 56 86 61 87 57 88
REMARK SMILES IDX 58 89 60 90 62 91 59 92
REMARK H PARENT 22 7 7 18 29 35 79 54 53 65
REMARK Flexibility Score: inf
ROOT
ATOM      1  C   UNL A   1      37.775  23.496  25.697  1.00  0.00     0.002 C 
ENDROOT
BRANCH   1   2
ATOM      2  C   UNL A   1      36.312  23.034  25.761  1.00  0.00     0.021 C 
BRANCH   2   3
ATOM      3  C   UNL A   1      35.298  24.176  25.768  1.00  0.00     0.116 C 
BRANCH   3   4
ATOM      4  N   UNL A   1      34.892  24.552  24.432  1.00  0.00    -0.356 N 
ATOM      5  C   UNL A   1      33.958  25.458  24.021  1.00  0.00     0.224 C 
ATOM      6  O   UNL A   1      33.929  25.715  22.813  1.00  0.00    -0.275 OA
ATOM      7  H   UNL A   1      35.361  24.080  23.706  1.00  0.00     0.163 HD
BRANCH   5   8
ATOM      8  C   UNL A   1      33.101  26.233  25.016  1.00  0.00     0.138 C 
BRANCH   8   9
ATOM      9  C   UNL A   1      31.619  25.970  24.952  1.00  0.00    -0.002 A 
ATOM     10  C   UNL A   1      29.612  28.475  22.814  1.00  0.00    -0.048 A 
ATOM     11  C   UNL A   1      28.364  27.923  23.118  1.00  0.00     0.006 A 
ATOM     12  C   UNL A   1      30.766  27.877  23.357  1.00  0.00     0.014 A 
ATOM     13  C   UNL A   1      28.237  26.799  23.944  1.00  0.00     0.027 A 
ATOM     14  C   UNL A   1      30.669  26.752  24.207  1.00  0.00     0.004 A 
ATOM     15  C   UNL A   1      29.405  26.241  24.471  1.00  0.00     0.046 A 
ATOM     16  N   UNL A   1      29.575  25.165  25.306  1.00  0.00    -0.352 N 
ATOM     17  C   UNL A   1      30.914  24.924  25.548  1.00  0.00     0.093 A 
ATOM     18  H   UNL A   1      28.838  24.633  25.683  1.00  0.00     0.167 HD
BRANCH  10  19
ATOM     19  C   UNL A   1      29.800  29.701  21.948  1.00  0.00     0.032 C 
ATOM     20  C   UNL A   1      28.548  30.479  21.564  1.00  0.00     0.009 C 
ENDBRANCH  10  19
BRANCH  17  21
ATOM     21  C   UNL A   1      31.430  23.792  26.310  1.00  0.00     0.227 C 
ATOM     22  O   UNL A   1      31.452  23.755  27.539  1.00  0.00    -0.285 OA
BRANCH  21  23
ATOM     23  C   UNL A   1      32.020  22.645  25.571  1.00  0.00     0.113 A 
ATOM     24  C   UNL A   1      31.742  22.487  24.215  1.00  0.00     0.036 A 
ATOM     25  N   UNL A   1      32.783  21.789  26.293  1.00  0.00    -0.253 NA
ATOM     26  C   UNL A   1      32.276  21.380  23.555  1.00  0.00    -0.047 A 
ATOM     27  C   UNL A   1      33.319  20.750  25.621  1.00  0.00     0.112 A 
ATOM     28  C   UNL A   1      31.996  21.130  22.103  1.00  0.00     0.044 C 
ATOM     29  C   UNL A   1      33.091  20.502  24.276  1.00  0.00     0.023 A 
ENDBRANCH  21  23
ENDBRANCH  17  21
ENDBRANCH   8   9
ENDBRANCH   5   8
ENDBRANCH   3   4
ENDBRANCH   2   3
ENDBRANCH   1   2
BRANCH   1  30
ATOM     30  C   UNL A   1      38.794  22.537  26.324  1.00  0.00     0.002 C 
BRANCH  30  31
ATOM     31  C   UNL A   1      39.105  21.284  25.502  1.00  0.00     0.021 C 
BRANCH  31  32
ATOM     32  C   UNL A   1      39.335  20.021  26.326  1.00  0.00     0.116 C 
BRANCH  32  33
ATOM     33  N   UNL A   1      40.526  19.300  25.906  1.00  0.00    -0.352 N 
ATOM     34  C   UNL A   1      41.830  19.724  25.839  1.00  0.00     0.251 C 
ATOM     35  H   UNL A   1      40.375  18.368  25.629  1.00  0.00     0.163 HD
ATOM     36  O   UNL A   1      42.676  19.031  25.279  1.00  0.00    -0.269 OA
BRANCH  34  37
ATOM     37  C   UNL A   1      42.218  21.026  26.422  1.00  0.00     0.039 A 
ATOM     38  C   UNL A   1      42.653  22.043  25.568  1.00  0.00     0.014 A 
ATOM     39  C   UNL A   1      42.171  21.240  27.802  1.00  0.00     0.014 A 
ATOM     40  C   UNL A   1      42.973  23.298  26.092  1.00  0.00     0.010 A 
ATOM     41  C   UNL A   1      42.428  22.509  28.316  1.00  0.00     0.010 A 
ATOM     42  C   UNL A   1      42.828  23.551  27.466  1.00  0.00    -0.014 A 
BRANCH  42  43
ATOM     43  C   UNL A   1      43.062  24.906  28.025  1.00  0.00     0.031 A 
ATOM     44  C   UNL A   1      44.433  25.312  28.490  1.00  0.00     0.074 A 
ATOM     45  C   UNL A   1      42.020  25.747  28.179  1.00  0.00     0.049 A 
ATOM     46  N   UNL A   1      44.812  26.422  29.073  1.00  0.00    -0.248 NA
ATOM     47  C   UNL A   1      45.514  24.335  28.297  1.00  0.00     0.031 C 
ATOM     48  C   UNL A   1      40.634  25.454  27.810  1.00  0.00     0.029 A 
ATOM     49  N   UNL A   1      41.963  27.016  28.700  1.00  0.00    -0.354 N 
ATOM     50  C   UNL A   1      46.169  26.271  29.325  1.00  0.00     0.074 A 
ATOM     51  C   UNL A   1      46.538  24.946  28.875  1.00  0.00     0.031 C 
ATOM     52  C   UNL A   1      39.868  26.517  28.098  1.00  0.00     0.029 A 
ATOM     53  C   UNL A   1      40.699  27.551  28.708  1.00  0.00     0.049 A 
ATOM     54  H   UNL A   1      42.754  27.497  29.036  1.00  0.00     0.167 HD
ATOM     55  C   UNL A   1      47.034  27.165  29.863  1.00  0.00     0.037 A 
ATOM     56  C   UNL A   1      40.254  28.737  29.166  1.00  0.00     0.037 A 
ATOM     57  C   UNL A   1      46.669  28.491  30.290  1.00  0.00     0.049 A 
ATOM     58  C   UNL A   1      41.232  29.705  29.770  1.00  0.00     0.074 A 
ATOM     59  C   UNL A   1      47.485  29.489  30.793  1.00  0.00     0.029 A 
ATOM     60  N   UNL A   1      45.380  29.001  30.270  1.00  0.00    -0.354 N 
ATOM     61  N   UNL A   1      42.525  29.574  29.942  1.00  0.00    -0.248 NA
ATOM     62  C   UNL A   1      40.690  30.987  30.240  1.00  0.00     0.031 C 
ATOM     63  C   UNL A   1      46.683  30.589  31.118  1.00  0.00     0.029 A 
ATOM     64  C   UNL A   1      45.375  30.292  30.773  1.00  0.00     0.049 A 
ATOM     65  H   UNL A   1      44.585  28.518  29.945  1.00  0.00     0.167 HD
ATOM     66  C   UNL A   1      42.955  30.765  30.514  1.00  0.00     0.074 A 
ATOM     67  C   UNL A   1      41.787  31.611  30.646  1.00  0.00     0.031 C 
ATOM     68  C   UNL A   1      44.205  31.124  30.897  1.00  0.00     0.037 A 
BRANCH  55  69
ATOM     69  C   UNL A   1      48.464  26.738  30.019  1.00  0.00     0.057 A 
ATOM     70  C   UNL A   1      49.436  27.045  29.057  1.00  0.00     0.134 A 
ATOM     71  C   UNL A   1      48.887  26.053  31.165  1.00  0.00     0.134 A 
ATOM     72  F   UNL A   1      49.097  27.692  27.931  1.00  0.00    -0.206 F 
ATOM     73  C   UNL A   1      50.769  26.664  29.217  1.00  0.00     0.040 A 
ATOM     74  C   UNL A   1      50.222  25.690  31.350  1.00  0.00     0.040 A 
ATOM     75  F   UNL A   1      48.010  25.732  32.129  1.00  0.00    -0.206 F 
ATOM     76  C   UNL A   1      51.167  25.991  30.371  1.00  0.00     0.006 A 
ENDBRANCH  55  69
BRANCH  56  77
ATOM     77  C   UNL A   1      38.815  29.083  29.058  1.00  0.00     0.057 A 
ATOM     78  C   UNL A   1      38.266  29.513  27.845  1.00  0.00     0.134 A 
ATOM     79  C   UNL A   1      37.957  29.002  30.161  1.00  0.00     0.134 A 
ATOM     80  F   UNL A   1      39.041  29.630  26.757  1.00  0.00    -0.206 F 
ATOM     81  C   UNL A   1      36.921  29.871  27.736  1.00  0.00     0.040 A 
ATOM     82  C   UNL A   1      36.605  29.331  30.061  1.00  0.00     0.040 A 
ATOM     83  F   UNL A   1      38.420  28.590  31.351  1.00  0.00    -0.206 F 
ATOM     84  C   UNL A   1      36.085  29.775  28.847  1.00  0.00     0.006 A 
ENDBRANCH  56  77
BRANCH  68  85
ATOM     85  C   UNL A   1      44.377  32.502  31.465  1.00  0.00     0.057 A 
ATOM     86  C   UNL A   1      44.297  32.750  32.841  1.00  0.00     0.134 A 
ATOM     87  C   UNL A   1      44.662  33.588  30.627  1.00  0.00     0.134 A 
ATOM     88  F   UNL A   1      44.014  31.755  33.695  1.00  0.00    -0.206 F 
ATOM     89  C   UNL A   1      44.469  34.033  33.361  1.00  0.00     0.040 A 
ATOM     90  C   UNL A   1      44.863  34.871  31.138  1.00  0.00     0.040 A 
ATOM     91  F   UNL A   1      44.761  33.417  29.300  1.00  0.00    -0.206 F 
ATOM     92  C   UNL A   1      44.760  35.097  32.509  1.00  0.00     0.006 A 
ENDBRANCH  68  85
ENDBRANCH  42  43
ENDBRANCH  34  37
ENDBRANCH  32  33
ENDBRANCH  31  32
ENDBRANCH  30  31
ENDBRANCH   1  30
TORSDOF 17
ENDMDL
