MODEL 1
REMARK VINA RESULT:     -12.1      0.000      0.000
REMARK SMILES Cc1ccc(C(F)(F)F)cc1/C=C/C(=O)NCCCCCCNC(=O)c1ccc(-c2c3nc(c(-c4c(F)cccc4F)c4ccc([nH]4)c(-c4c(F)cccc4F)c4nc(c(-c5c(F)cccc5F)c5ccc2[nH]5)C=C4)C=C3)cc1
REMARK SMILES IDX 19 1 18 2 17 3 16 4 14 5 15 6 13 8 12 9 11 10 1 11 2 12 3 13
REMARK SMILES IDX 4 14 10 15 5 16 6 17 7 18 8 19 9 20 20 21 21 22 22 23 23 24
REMARK SMILES IDX 24 25 25 27 26 28 27 29 79 30 28 31 78 32 29 33 30 34 31 35
REMARK SMILES IDX 72 36 32 37 77 38 71 39 73 40 33 41 76 42 70 43 69 44 34 46
REMARK SMILES IDX 60 47 43 48 59 49 44 50 47 51 58 52 74 53 45 54 46 55 57 57
REMARK SMILES IDX 75 58 48 59 35 60 36 61 41 62 37 63 38 64 40 65 42 66 39 67
REMARK SMILES IDX 61 68 62 69 67 70 63 71 64 72 66 73 68 74 65 75 49 76 50 77
REMARK SMILES IDX 55 78 51 79 52 80 54 81 56 82 53 83
REMARK H PARENT 16 7 23 26 73 45 47 56
REMARK Flexibility Score: inf
ROOT
ATOM      1  C   UNL A   1      32.631  28.968  25.275  1.00  0.00     0.002 C 
ENDROOT
BRANCH   1   2
ATOM      2  C   UNL A   1      32.018  29.028  23.867  1.00  0.00     0.021 C 
BRANCH   2   3
ATOM      3  C   UNL A   1      31.532  27.684  23.325  1.00  0.00     0.116 C 
BRANCH   3   4
ATOM      4  N   UNL A   1      32.216  27.322  22.100  1.00  0.00    -0.353 N 
ATOM      5  C   UNL A   1      32.919  26.200  21.791  1.00  0.00     0.243 C 
ATOM      6  O   UNL A   1      33.282  26.001  20.635  1.00  0.00    -0.270 OA
ATOM      7  H   UNL A   1      32.165  27.993  21.380  1.00  0.00     0.163 HD
BRANCH   5   8
ATOM      8  C   UNL A   1      33.177  25.170  22.820  1.00  0.00     0.072 C 
ATOM      9  C   UNL A   1      34.072  25.312  23.809  1.00  0.00     0.014 C 
BRANCH   9  10
ATOM     10  C   UNL A   1      34.353  24.242  24.779  1.00  0.00    -0.022 A 
ATOM     11  C   UNL A   1      32.458  24.980  26.346  1.00  0.00     0.045 C 
ATOM     12  C   UNL A   1      33.610  24.089  25.967  1.00  0.00    -0.044 A 
ATOM     13  C   UNL A   1      33.967  23.076  26.875  1.00  0.00     0.004 A 
ATOM     14  C   UNL A   1      35.027  22.210  26.607  1.00  0.00     0.013 A 
ATOM     15  C   UNL A   1      35.428  23.367  24.529  1.00  0.00     0.021 A 
ATOM     16  C   UNL A   1      35.764  22.340  25.425  1.00  0.00     0.056 A 
BRANCH  16  17
ATOM     17  C   UNL A   1      36.912  21.403  25.142  1.00  0.00     0.416 C 
ATOM     18  F   UNL A   1      37.966  21.605  25.980  1.00  0.00    -0.166 F 
ATOM     19  F   UNL A   1      36.563  20.094  25.289  1.00  0.00    -0.166 F 
ATOM     20  F   UNL A   1      37.408  21.515  23.879  1.00  0.00    -0.166 F 
ENDBRANCH  16  17
ENDBRANCH   9  10
ENDBRANCH   5   8
ENDBRANCH   3   4
ENDBRANCH   2   3
ENDBRANCH   1   2
BRANCH   1  21
ATOM     21  C   UNL A   1      32.011  29.900  26.333  1.00  0.00     0.002 C 
BRANCH  21  22
ATOM     22  C   UNL A   1      32.955  30.922  26.972  1.00  0.00     0.021 C 
BRANCH  22  23
ATOM     23  C   UNL A   1      34.178  30.306  27.639  1.00  0.00     0.116 C 
BRANCH  23  24
ATOM     24  N   UNL A   1      34.893  31.215  28.526  1.00  0.00    -0.352 N 
ATOM     25  C   UNL A   1      36.083  31.027  29.207  1.00  0.00     0.251 C 
ATOM     26  H   UNL A   1      34.467  32.093  28.660  1.00  0.00     0.163 HD
ATOM     27  O   UNL A   1      36.518  31.905  29.937  1.00  0.00    -0.269 OA
BRANCH  25  28
ATOM     28  C   UNL A   1      36.894  29.811  28.944  1.00  0.00     0.039 A 
ATOM     29  C   UNL A   1      37.145  28.949  30.018  1.00  0.00     0.014 A 
ATOM     30  C   UNL A   1      37.550  29.622  27.730  1.00  0.00     0.014 A 
ATOM     31  C   UNL A   1      38.227  28.072  29.954  1.00  0.00     0.010 A 
ATOM     32  C   UNL A   1      38.676  28.821  27.695  1.00  0.00     0.010 A 
ATOM     33  C   UNL A   1      39.055  28.103  28.832  1.00  0.00    -0.014 A 
BRANCH  33  34
ATOM     34  C   UNL A   1      40.396  27.526  28.816  1.00  0.00     0.031 A 
ATOM     35  C   UNL A   1      40.612  26.109  28.465  1.00  0.00     0.074 A 
ATOM     36  C   UNL A   1      41.456  28.328  29.064  1.00  0.00     0.049 A 
ATOM     37  N   UNL A   1      41.666  25.436  28.779  1.00  0.00    -0.248 NA
ATOM     38  C   UNL A   1      39.616  25.323  27.746  1.00  0.00     0.031 C 
ATOM     39  C   UNL A   1      42.871  28.024  28.866  1.00  0.00     0.029 A 
ATOM     40  N   UNL A   1      41.457  29.528  29.788  1.00  0.00    -0.354 N 
ATOM     41  C   UNL A   1      41.606  24.224  28.131  1.00  0.00     0.074 A 
ATOM     42  C   UNL A   1      40.294  24.191  27.523  1.00  0.00     0.031 C 
ATOM     43  C   UNL A   1      43.594  28.800  29.688  1.00  0.00     0.029 A 
ATOM     44  C   UNL A   1      42.659  29.523  30.533  1.00  0.00     0.049 A 
ATOM     45  H   UNL A   1      40.765  30.228  29.781  1.00  0.00     0.167 HD
ATOM     46  C   UNL A   1      42.708  23.421  28.096  1.00  0.00     0.037 A 
ATOM     47  C   UNL A   1      42.631  29.482  31.896  1.00  0.00     0.037 A 
ATOM     48  C   UNL A   1      43.804  23.972  28.887  1.00  0.00     0.049 A 
ATOM     49  C   UNL A   1      43.285  28.260  32.507  1.00  0.00     0.074 A 
ATOM     50  C   UNL A   1      44.915  24.746  28.590  1.00  0.00     0.029 A 
ATOM     51  N   UNL A   1      43.681  23.990  30.263  1.00  0.00    -0.354 N 
ATOM     52  N   UNL A   1      43.750  27.253  31.823  1.00  0.00    -0.248 NA
ATOM     53  C   UNL A   1      43.373  28.039  33.953  1.00  0.00     0.031 C 
ATOM     54  C   UNL A   1      45.428  25.270  29.810  1.00  0.00     0.029 A 
ATOM     55  C   UNL A   1      44.633  24.806  30.842  1.00  0.00     0.049 A 
ATOM     56  H   UNL A   1      43.002  23.486  30.766  1.00  0.00     0.167 HD
ATOM     57  C   UNL A   1      44.130  26.261  32.686  1.00  0.00     0.074 A 
ATOM     58  C   UNL A   1      43.886  26.799  34.010  1.00  0.00     0.031 C 
ATOM     59  C   UNL A   1      44.577  25.046  32.270  1.00  0.00     0.037 A 
BRANCH  46  60
ATOM     60  C   UNL A   1      42.857  22.244  27.168  1.00  0.00     0.057 A 
ATOM     61  C   UNL A   1      42.065  21.091  27.334  1.00  0.00     0.134 A 
ATOM     62  C   UNL A   1      43.787  22.166  26.119  1.00  0.00     0.134 A 
ATOM     63  F   UNL A   1      41.070  21.043  28.229  1.00  0.00    -0.206 F 
ATOM     64  C   UNL A   1      42.262  19.919  26.594  1.00  0.00     0.040 A 
ATOM     65  C   UNL A   1      44.036  20.983  25.409  1.00  0.00     0.040 A 
ATOM     66  F   UNL A   1      44.459  23.246  25.699  1.00  0.00    -0.206 F 
ATOM     67  C   UNL A   1      43.281  19.846  25.656  1.00  0.00     0.006 A 
ENDBRANCH  46  60
BRANCH  47  68
ATOM     68  C   UNL A   1      41.460  30.192  32.477  1.00  0.00     0.057 A 
ATOM     69  C   UNL A   1      41.461  31.599  32.496  1.00  0.00     0.134 A 
ATOM     70  C   UNL A   1      40.234  29.554  32.677  1.00  0.00     0.134 A 
ATOM     71  F   UNL A   1      42.606  32.275  32.311  1.00  0.00    -0.206 F 
ATOM     72  C   UNL A   1      40.280  32.337  32.590  1.00  0.00     0.040 A 
ATOM     73  C   UNL A   1      39.046  30.283  32.794  1.00  0.00     0.040 A 
ATOM     74  F   UNL A   1      40.145  28.217  32.650  1.00  0.00    -0.206 F 
ATOM     75  C   UNL A   1      39.063  31.675  32.708  1.00  0.00     0.006 A 
ENDBRANCH  47  68
BRANCH  59  76
ATOM     76  C   UNL A   1      45.004  23.982  33.224  1.00  0.00     0.057 A 
ATOM     77  C   UNL A   1      44.125  22.976  33.646  1.00  0.00     0.134 A 
ATOM     78  C   UNL A   1      46.267  24.010  33.838  1.00  0.00     0.134 A 
ATOM     79  F   UNL A   1      42.888  22.886  33.133  1.00  0.00    -0.206 F 
ATOM     80  C   UNL A   1      44.487  22.041  34.620  1.00  0.00     0.040 A 
ATOM     81  C   UNL A   1      46.627  23.105  34.840  1.00  0.00     0.040 A 
ATOM     82  F   UNL A   1      47.196  24.908  33.476  1.00  0.00    -0.206 F 
ATOM     83  C   UNL A   1      45.736  22.113  35.231  1.00  0.00     0.006 A 
ENDBRANCH  59  76
ENDBRANCH  33  34
ENDBRANCH  25  28
ENDBRANCH  23  24
ENDBRANCH  22  23
ENDBRANCH  21  22
ENDBRANCH   1  21
TORSDOF 15
ENDMDL
MODEL 2
REMARK VINA RESULT:     -12.0      1.682      2.027
REMARK SMILES Cc1ccc(C(F)(F)F)cc1/C=C/C(=O)NCCCCCCNC(=O)c1ccc(-c2c3nc(c(-c4c(F)cccc4F)c4ccc([nH]4)c(-c4c(F)cccc4F)c4nc(c(-c5c(F)cccc5F)c5ccc2[nH]5)C=C4)C=C3)cc1
REMARK SMILES IDX 19 1 18 2 17 3 16 4 14 5 15 6 13 8 12 9 11 10 1 11 2 12 3 13
REMARK SMILES IDX 4 14 10 15 5 16 6 17 7 18 8 19 9 20 20 21 21 22 22 23 23 24
REMARK SMILES IDX 24 25 25 27 26 28 27 29 79 30 28 31 78 32 29 33 30 34 31 35
REMARK SMILES IDX 72 36 32 37 77 38 71 39 73 40 33 41 76 42 70 43 69 44 34 46
REMARK SMILES IDX 60 47 43 48 59 49 44 50 47 51 58 52 74 53 45 54 46 55 57 57
REMARK SMILES IDX 75 58 48 59 35 60 36 61 41 62 37 63 38 64 40 65 42 66 39 67
REMARK SMILES IDX 61 68 62 69 67 70 63 71 64 72 66 73 68 74 65 75 49 76 50 77
REMARK SMILES IDX 55 78 51 79 52 80 54 81 56 82 53 83
REMARK H PARENT 16 7 23 26 73 45 47 56
REMARK Flexibility Score: inf
ROOT
ATOM      1  C   UNL A   1      32.301  28.140  26.220  1.00  0.00     0.002 C 
ENDROOT
BRANCH   1   2
ATOM      2  C   UNL A   1      31.926  26.698  26.596  1.00  0.00     0.021 C 
BRANCH   2   3
ATOM      3  C   UNL A   1      30.797  26.093  25.762  1.00  0.00     0.116 C 
BRANCH   3   4
ATOM      4  N   UNL A   1      30.073  25.077  26.499  1.00  0.00    -0.353 N 
ATOM      5  C   UNL A   1      30.392  23.775  26.733  1.00  0.00     0.243 C 
ATOM      6  O   UNL A   1      29.731  23.115  27.529  1.00  0.00    -0.270 OA
ATOM      7  H   UNL A   1      29.220  25.373  26.890  1.00  0.00     0.163 HD
BRANCH   5   8
ATOM      8  C   UNL A   1      31.583  23.169  26.100  1.00  0.00     0.072 C 
ATOM      9  C   UNL A   1      32.605  22.639  26.789  1.00  0.00     0.014 C 
BRANCH   9  10
ATOM     10  C   UNL A   1      33.807  22.102  26.131  1.00  0.00    -0.022 A 
ATOM     11  C   UNL A   1      32.589  19.987  25.333  1.00  0.00     0.045 C 
ATOM     12  C   UNL A   1      33.806  20.863  25.459  1.00  0.00    -0.044 A 
ATOM     13  C   UNL A   1      35.005  20.386  24.898  1.00  0.00     0.004 A 
ATOM     14  C   UNL A   1      36.182  21.130  24.975  1.00  0.00     0.013 A 
ATOM     15  C   UNL A   1      35.006  22.834  26.211  1.00  0.00     0.021 A 
ATOM     16  C   UNL A   1      36.194  22.368  25.626  1.00  0.00     0.056 A 
BRANCH  16  17
ATOM     17  C   UNL A   1      37.470  23.167  25.710  1.00  0.00     0.416 C 
ATOM     18  F   UNL A   1      37.741  23.835  24.554  1.00  0.00    -0.166 F 
ATOM     19  F   UNL A   1      37.428  24.114  26.688  1.00  0.00    -0.166 F 
ATOM     20  F   UNL A   1      38.572  22.410  25.973  1.00  0.00    -0.166 F 
ENDBRANCH  16  17
ENDBRANCH   9  10
ENDBRANCH   5   8
ENDBRANCH   3   4
ENDBRANCH   2   3
ENDBRANCH   1   2
BRANCH   1  21
ATOM     21  C   UNL A   1      31.918  29.235  27.233  1.00  0.00     0.002 C 
BRANCH  21  22
ATOM     22  C   UNL A   1      32.749  30.520  27.188  1.00  0.00     0.021 C 
BRANCH  22  23
ATOM     23  C   UNL A   1      34.231  30.312  27.475  1.00  0.00     0.116 C 
BRANCH  23  24
ATOM     24  N   UNL A   1      34.767  31.195  28.503  1.00  0.00    -0.352 N 
ATOM     25  C   UNL A   1      35.863  31.020  29.330  1.00  0.00     0.251 C 
ATOM     26  H   UNL A   1      34.277  32.040  28.628  1.00  0.00     0.163 HD
ATOM     27  O   UNL A   1      36.144  31.868  30.163  1.00  0.00    -0.269 OA
BRANCH  25  28
ATOM     28  C   UNL A   1      36.770  29.865  29.111  1.00  0.00     0.039 A 
ATOM     29  C   UNL A   1      37.074  29.056  30.212  1.00  0.00     0.014 A 
ATOM     30  C   UNL A   1      37.454  29.694  27.909  1.00  0.00     0.014 A 
ATOM     31  C   UNL A   1      38.222  28.265  30.184  1.00  0.00     0.010 A 
ATOM     32  C   UNL A   1      38.639  28.984  27.910  1.00  0.00     0.010 A 
ATOM     33  C   UNL A   1      39.059  28.329  29.071  1.00  0.00    -0.014 A 
BRANCH  33  34
ATOM     34  C   UNL A   1      40.441  27.860  29.085  1.00  0.00     0.031 A 
ATOM     35  C   UNL A   1      40.798  26.526  28.565  1.00  0.00     0.074 A 
ATOM     36  C   UNL A   1      41.411  28.694  29.523  1.00  0.00     0.049 A 
ATOM     37  N   UNL A   1      41.880  25.893  28.870  1.00  0.00    -0.248 NA
ATOM     38  C   UNL A   1      39.924  25.778  27.669  1.00  0.00     0.031 C 
ATOM     39  C   UNL A   1      42.856  28.524  29.401  1.00  0.00     0.029 A 
ATOM     40  N   UNL A   1      41.262  29.777  30.400  1.00  0.00    -0.354 N 
ATOM     41  C   UNL A   1      41.966  24.784  28.062  1.00  0.00     0.074 A 
ATOM     42  C   UNL A   1      40.707  24.742  27.351  1.00  0.00     0.031 C 
ATOM     43  C   UNL A   1      43.454  29.228  30.376  1.00  0.00     0.029 A 
ATOM     44  C   UNL A   1      42.406  29.755  31.232  1.00  0.00     0.049 A 
ATOM     45  H   UNL A   1      40.517  30.419  30.431  1.00  0.00     0.167 HD
ATOM     46  C   UNL A   1      43.131  24.076  28.008  1.00  0.00     0.037 A 
ATOM     47  C   UNL A   1      42.286  29.521  32.571  1.00  0.00     0.037 A 
ATOM     48  C   UNL A   1      44.120  24.588  28.951  1.00  0.00     0.049 A 
ATOM     49  C   UNL A   1      42.995  28.276  33.062  1.00  0.00     0.074 A 
ATOM     50  C   UNL A   1      45.180  25.476  28.851  1.00  0.00     0.029 A 
ATOM     51  N   UNL A   1      43.900  24.404  30.303  1.00  0.00    -0.354 N 
ATOM     52  N   UNL A   1      43.589  27.411  32.289  1.00  0.00    -0.248 NA
ATOM     53  C   UNL A   1      42.999  27.861  34.468  1.00  0.00     0.031 C 
ATOM     54  C   UNL A   1      45.562  25.858  30.168  1.00  0.00     0.029 A 
ATOM     55  C   UNL A   1      44.738  25.198  31.061  1.00  0.00     0.049 A 
ATOM     56  H   UNL A   1      43.232  23.787  30.677  1.00  0.00     0.167 HD
ATOM     57  C   UNL A   1      43.989  26.339  33.038  1.00  0.00     0.074 A 
ATOM     58  C   UNL A   1      43.609  26.666  34.398  1.00  0.00     0.031 C 
ATOM     59  C   UNL A   1      44.563  25.229  32.499  1.00  0.00     0.037 A 
BRANCH  46  60
ATOM     60  C   UNL A   1      43.441  23.054  26.945  1.00  0.00     0.057 A 
ATOM     61  C   UNL A   1      42.807  21.797  26.946  1.00  0.00     0.134 A 
ATOM     62  C   UNL A   1      44.382  23.232  25.917  1.00  0.00     0.134 A 
ATOM     63  F   UNL A   1      41.819  21.508  27.804  1.00  0.00    -0.206 F 
ATOM     64  C   UNL A   1      43.164  20.763  26.071  1.00  0.00     0.040 A 
ATOM     65  C   UNL A   1      44.792  22.189  25.073  1.00  0.00     0.040 A 
ATOM     66  F   UNL A   1      44.910  24.434  25.652  1.00  0.00    -0.206 F 
ATOM     67  C   UNL A   1      44.190  20.943  25.157  1.00  0.00     0.006 A 
ENDBRANCH  46  60
BRANCH  47  68
ATOM     68  C   UNL A   1      41.022  30.055  33.145  1.00  0.00     0.057 A 
ATOM     69  C   UNL A   1      40.881  31.447  33.296  1.00  0.00     0.134 A 
ATOM     70  C   UNL A   1      39.858  29.286  33.213  1.00  0.00     0.134 A 
ATOM     71  F   UNL A   1      41.960  32.245  33.242  1.00  0.00    -0.206 F 
ATOM     72  C   UNL A   1      39.628  32.056  33.389  1.00  0.00     0.040 A 
ATOM     73  C   UNL A   1      38.598  29.884  33.327  1.00  0.00     0.040 A 
ATOM     74  F   UNL A   1      39.906  27.956  33.056  1.00  0.00    -0.206 F 
ATOM     75  C   UNL A   1      38.479  31.273  33.373  1.00  0.00     0.006 A 
ENDBRANCH  47  68
BRANCH  59  76
ATOM     76  C   UNL A   1      45.010  24.076  33.332  1.00  0.00     0.057 A 
ATOM     77  C   UNL A   1      44.169  22.985  33.589  1.00  0.00     0.134 A 
ATOM     78  C   UNL A   1      46.246  24.086  34.000  1.00  0.00     0.134 A 
ATOM     79  F   UNL A   1      42.958  22.902  33.016  1.00  0.00    -0.206 F 
ATOM     80  C   UNL A   1      44.543  21.953  34.456  1.00  0.00     0.040 A 
ATOM     81  C   UNL A   1      46.615  23.082  34.896  1.00  0.00     0.040 A 
ATOM     82  F   UNL A   1      47.139  25.066  33.791  1.00  0.00    -0.206 F 
ATOM     83  C   UNL A   1      45.763  22.007  35.124  1.00  0.00     0.006 A 
ENDBRANCH  59  76
ENDBRANCH  33  34
ENDBRANCH  25  28
ENDBRANCH  23  24
ENDBRANCH  22  23
ENDBRANCH  21  22
ENDBRANCH   1  21
TORSDOF 15
ENDMDL
MODEL 3
REMARK VINA RESULT:     -11.9      4.347      9.541
REMARK SMILES Cc1ccc(C(F)(F)F)cc1/C=C/C(=O)NCCCCCCNC(=O)c1ccc(-c2c3nc(c(-c4c(F)cccc4F)c4ccc([nH]4)c(-c4c(F)cccc4F)c4nc(c(-c5c(F)cccc5F)c5ccc2[nH]5)C=C4)C=C3)cc1
REMARK SMILES IDX 19 1 18 2 17 3 16 4 14 5 15 6 13 8 12 9 11 10 1 11 2 12 3 13
REMARK SMILES IDX 4 14 10 15 5 16 6 17 7 18 8 19 9 20 20 21 21 22 22 23 23 24
REMARK SMILES IDX 24 25 25 27 26 28 27 29 79 30 28 31 78 32 29 33 30 34 31 35
REMARK SMILES IDX 72 36 32 37 77 38 71 39 73 40 33 41 76 42 70 43 69 44 34 46
REMARK SMILES IDX 60 47 43 48 59 49 44 50 47 51 58 52 74 53 45 54 46 55 57 57
REMARK SMILES IDX 75 58 48 59 35 60 36 61 41 62 37 63 38 64 40 65 42 66 39 67
REMARK SMILES IDX 61 68 62 69 67 70 63 71 64 72 66 73 68 74 65 75 49 76 50 77
REMARK SMILES IDX 55 78 51 79 52 80 54 81 56 82 53 83
REMARK H PARENT 16 7 23 26 73 45 47 56
REMARK Flexibility Score: inf
ROOT
ATOM      1  C   UNL A   1      35.641  21.013  25.170  1.00  0.00     0.002 C 
ENDROOT
BRANCH   1   2
ATOM      2  C   UNL A   1      34.592  21.785  25.985  1.00  0.00     0.021 C 
BRANCH   2   3
ATOM      3  C   UNL A   1      33.158  21.649  25.473  1.00  0.00     0.116 C 
BRANCH   3   4
ATOM      4  N   UNL A   1      32.190  21.888  26.525  1.00  0.00    -0.353 N 
ATOM      5  C   UNL A   1      31.482  23.010  26.821  1.00  0.00     0.243 C 
ATOM      6  O   UNL A   1      30.577  22.964  27.650  1.00  0.00    -0.270 OA
ATOM      7  H   UNL A   1      32.020  21.119  27.116  1.00  0.00     0.163 HD
BRANCH   5   8
ATOM      8  C   UNL A   1      31.733  24.271  26.091  1.00  0.00     0.072 C 
ATOM      9  C   UNL A   1      32.809  25.047  26.292  1.00  0.00     0.014 C 
BRANCH   9  10
ATOM     10  C   UNL A   1      32.998  26.330  25.595  1.00  0.00    -0.022 A 
ATOM     11  C   UNL A   1      34.015  25.208  23.522  1.00  0.00     0.045 C 
ATOM     12  C   UNL A   1      33.568  26.410  24.309  1.00  0.00    -0.044 A 
ATOM     13  C   UNL A   1      33.768  27.674  23.725  1.00  0.00     0.004 A 
ATOM     14  C   UNL A   1      33.390  28.841  24.388  1.00  0.00     0.013 A 
ATOM     15  C   UNL A   1      32.633  27.518  26.256  1.00  0.00     0.021 A 
ATOM     16  C   UNL A   1      32.809  28.776  25.658  1.00  0.00     0.056 A 
BRANCH  16  17
ATOM     17  C   UNL A   1      32.405  30.042  26.372  1.00  0.00     0.416 C 
ATOM     18  F   UNL A   1      31.592  29.799  27.438  1.00  0.00    -0.166 F 
ATOM     19  F   UNL A   1      33.475  30.725  26.867  1.00  0.00    -0.166 F 
ATOM     20  F   UNL A   1      31.735  30.924  25.581  1.00  0.00    -0.166 F 
ENDBRANCH  16  17
ENDBRANCH   9  10
ENDBRANCH   5   8
ENDBRANCH   3   4
ENDBRANCH   2   3
ENDBRANCH   1   2
BRANCH   1  21
ATOM     21  C   UNL A   1      36.830  21.830  24.632  1.00  0.00     0.002 C 
BRANCH  21  22
ATOM     22  C   UNL A   1      38.165  21.644  25.360  1.00  0.00     0.021 C 
BRANCH  22  23
ATOM     23  C   UNL A   1      38.602  22.855  26.174  1.00  0.00     0.116 C 
BRANCH  23  24
ATOM     24  N   UNL A   1      40.042  22.943  26.381  1.00  0.00    -0.352 N 
ATOM     25  C   UNL A   1      40.824  24.047  26.670  1.00  0.00     0.251 C 
ATOM     26  H   UNL A   1      40.531  22.091  26.304  1.00  0.00     0.163 HD
ATOM     27  O   UNL A   1      42.036  23.929  26.780  1.00  0.00    -0.269 OA
BRANCH  25  28
ATOM     28  C   UNL A   1      40.174  25.347  26.976  1.00  0.00     0.039 A 
ATOM     29  C   UNL A   1      40.678  26.492  26.348  1.00  0.00     0.014 A 
ATOM     30  C   UNL A   1      39.229  25.466  27.991  1.00  0.00     0.014 A 
ATOM     31  C   UNL A   1      40.428  27.745  26.908  1.00  0.00     0.010 A 
ATOM     32  C   UNL A   1      39.053  26.694  28.601  1.00  0.00     0.010 A 
ATOM     33  C   UNL A   1      39.713  27.821  28.102  1.00  0.00    -0.014 A 
BRANCH  33  34
ATOM     34  C   UNL A   1      39.718  29.001  28.960  1.00  0.00     0.031 A 
ATOM     35  C   UNL A   1      38.686  30.046  28.825  1.00  0.00     0.074 A 
ATOM     36  C   UNL A   1      40.650  29.096  29.936  1.00  0.00     0.049 A 
ATOM     37  N   UNL A   1      38.816  31.256  29.254  1.00  0.00    -0.248 NA
ATOM     38  C   UNL A   1      37.416  29.807  28.150  1.00  0.00     0.031 C 
ATOM     39  C   UNL A   1      40.691  30.050  31.040  1.00  0.00     0.029 A 
ATOM     40  N   UNL A   1      41.902  28.469  29.972  1.00  0.00    -0.354 N 
ATOM     41  C   UNL A   1      37.600  31.885  29.128  1.00  0.00     0.074 A 
ATOM     42  C   UNL A   1      36.767  30.948  28.407  1.00  0.00     0.031 C 
ATOM     43  C   UNL A   1      41.964  30.181  31.445  1.00  0.00     0.029 A 
ATOM     44  C   UNL A   1      42.790  29.422  30.523  1.00  0.00     0.049 A 
ATOM     45  H   UNL A   1      42.119  27.555  29.676  1.00  0.00     0.167 HD
ATOM     46  C   UNL A   1      37.398  33.092  29.732  1.00  0.00     0.037 A 
ATOM     47  C   UNL A   1      43.815  29.928  29.778  1.00  0.00     0.037 A 
ATOM     48  C   UNL A   1      38.614  33.589  30.367  1.00  0.00     0.049 A 
ATOM     49  C   UNL A   1      43.754  31.425  29.552  1.00  0.00     0.074 A 
ATOM     50  C   UNL A   1      39.121  33.537  31.656  1.00  0.00     0.029 A 
ATOM     51  N   UNL A   1      39.658  34.003  29.562  1.00  0.00    -0.354 N 
ATOM     52  N   UNL A   1      42.765  32.188  29.925  1.00  0.00    -0.248 NA
ATOM     53  C   UNL A   1      44.768  32.160  28.792  1.00  0.00     0.031 C 
ATOM     54  C   UNL A   1      40.502  33.880  31.603  1.00  0.00     0.029 A 
ATOM     55  C   UNL A   1      40.825  34.146  30.285  1.00  0.00     0.049 A 
ATOM     56  H   UNL A   1      39.579  34.174  28.596  1.00  0.00     0.167 HD
ATOM     57  C   UNL A   1      42.961  33.449  29.433  1.00  0.00     0.074 A 
ATOM     58  C   UNL A   1      44.231  33.390  28.738  1.00  0.00     0.031 C 
ATOM     59  C   UNL A   1      42.054  34.453  29.581  1.00  0.00     0.037 A 
BRANCH  46  60
ATOM     60  C   UNL A   1      36.040  33.714  29.926  1.00  0.00     0.057 A 
ATOM     61  C   UNL A   1      35.294  34.175  28.824  1.00  0.00     0.134 A 
ATOM     62  C   UNL A   1      35.428  33.923  31.173  1.00  0.00     0.134 A 
ATOM     63  F   UNL A   1      35.697  33.965  27.564  1.00  0.00    -0.206 F 
ATOM     64  C   UNL A   1      34.096  34.888  28.960  1.00  0.00     0.040 A 
ATOM     65  C   UNL A   1      34.262  34.686  31.329  1.00  0.00     0.040 A 
ATOM     66  F   UNL A   1      35.905  33.357  32.289  1.00  0.00    -0.206 F 
ATOM     67  C   UNL A   1      33.597  35.185  30.219  1.00  0.00     0.006 A 
ENDBRANCH  46  60
BRANCH  47  68
ATOM     68  C   UNL A   1      44.367  28.949  28.804  1.00  0.00     0.057 A 
ATOM     69  C   UNL A   1      43.979  29.043  27.454  1.00  0.00     0.134 A 
ATOM     70  C   UNL A   1      45.496  28.179  29.089  1.00  0.00     0.134 A 
ATOM     71  F   UNL A   1      42.902  29.767  27.111  1.00  0.00    -0.206 F 
ATOM     72  C   UNL A   1      44.749  28.497  26.426  1.00  0.00     0.040 A 
ATOM     73  C   UNL A   1      46.264  27.609  28.069  1.00  0.00     0.040 A 
ATOM     74  F   UNL A   1      45.943  28.059  30.347  1.00  0.00    -0.206 F 
ATOM     75  C   UNL A   1      45.914  27.803  26.732  1.00  0.00     0.006 A 
ENDBRANCH  47  68
BRANCH  59  76
ATOM     76  C   UNL A   1      42.291  35.828  29.053  1.00  0.00     0.057 A 
ATOM     77  C   UNL A   1      41.813  36.226  27.798  1.00  0.00     0.134 A 
ATOM     78  C   UNL A   1      43.107  36.746  29.734  1.00  0.00     0.134 A 
ATOM     79  F   UNL A   1      41.046  35.405  27.064  1.00  0.00    -0.206 F 
ATOM     80  C   UNL A   1      42.123  37.476  27.253  1.00  0.00     0.040 A 
ATOM     81  C   UNL A   1      43.455  37.981  29.185  1.00  0.00     0.040 A 
ATOM     82  F   UNL A   1      43.582  36.476  30.960  1.00  0.00    -0.206 F 
ATOM     83  C   UNL A   1      42.958  38.352  27.940  1.00  0.00     0.006 A 
ENDBRANCH  59  76
ENDBRANCH  33  34
ENDBRANCH  25  28
ENDBRANCH  23  24
ENDBRANCH  22  23
ENDBRANCH  21  22
ENDBRANCH   1  21
TORSDOF 15
ENDMDL
