MODEL 1
REMARK VINA RESULT:     -12.3      0.000      0.000
REMARK SMILES Cc1c(C)c2c(c(C)c1O)CC[C@@](C)(C(=O)NCCCCCCNC(=O)c1ccc(-c3c4nc(c(-c5c(F)cccc5F)c5ccc([nH]5)c(-c5c(F)cccc5F)c5nc(c(-c6c(F)cccc6F)c6ccc3[nH]6)C=C5)C=C4)cc1)O2
REMARK SMILES IDX 21 1 20 2 19 3 18 4 17 5 15 6 16 7 13 9 1 10 2 11 3 12 9 13
REMARK SMILES IDX 4 14 5 15 7 16 6 17 81 18 8 19 11 20 12 21 14 22 10 23 22 25
REMARK SMILES IDX 23 26 24 27 25 28 26 30 27 31 28 32 80 33 29 34 79 35 30 36
REMARK SMILES IDX 31 37 32 38 73 39 33 40 78 41 72 42 74 43 34 44 77 45 71 46
REMARK SMILES IDX 70 47 35 49 61 50 44 51 60 52 45 53 48 54 59 55 75 56 46 57
REMARK SMILES IDX 47 58 58 60 76 61 49 62 36 63 37 64 42 65 38 66 39 67 41 68
REMARK SMILES IDX 43 69 40 70 62 71 63 72 68 73 64 74 65 75 67 76 69 77 66 78
REMARK SMILES IDX 50 79 51 80 56 81 52 82 53 83 55 84 57 85 54 86
REMARK H PARENT 17 8 10 24 24 29 74 48 48 59
REMARK Flexibility Score: inf
ROOT
ATOM      1  C   UNL A   1      36.633  20.583  24.639  1.00  0.00     0.002 C 
ENDROOT
BRANCH   1   2
ATOM      2  C   UNL A   1      36.328  21.604  25.740  1.00  0.00     0.002 C 
BRANCH   2   3
ATOM      3  C   UNL A   1      34.854  21.687  26.142  1.00  0.00     0.021 C 
BRANCH   3   4
ATOM      4  C   UNL A   1      34.491  22.984  26.861  1.00  0.00     0.116 C 
BRANCH   4   5
ATOM      5  N   UNL A   1      33.080  23.023  27.203  1.00  0.00    -0.353 N 
ATOM      6  C   UNL A   1      32.054  23.797  26.723  1.00  0.00     0.263 C 
ATOM      7  O   UNL A   1      30.948  23.627  27.242  1.00  0.00    -0.270 OA
ATOM      8  H   UNL A   1      32.813  22.383  27.901  1.00  0.00     0.163 HD
BRANCH   6   9
ATOM      9  C   UNL A   1      32.294  24.806  25.566  1.00  0.00     0.184 C 
ATOM     10  C   UNL A   1      28.780  28.809  22.492  1.00  0.00     0.049 C 
ATOM     11  C   UNL A   1      30.066  28.253  23.049  1.00  0.00    -0.002 A 
ATOM     12  C   UNL A   1      30.008  27.157  23.949  1.00  0.00    -0.002 A 
ATOM     13  C   UNL A   1      31.326  28.786  22.708  1.00  0.00     0.122 A 
ATOM     14  C   UNL A   1      28.681  26.526  24.297  1.00  0.00     0.049 C 
ATOM     15  C   UNL A   1      31.199  26.656  24.504  1.00  0.00     0.127 A 
ATOM     16  C   UNL A   1      32.514  28.299  23.273  1.00  0.00    -0.002 A 
ATOM     17  C   UNL A   1      32.441  27.249  24.209  1.00  0.00     0.001 A 
ATOM     18  O   UNL A   1      31.082  25.563  25.340  1.00  0.00    -0.477 OA
ATOM     19  C   UNL A   1      33.855  28.872  22.888  1.00  0.00     0.049 C 
ATOM     20  C   UNL A   1      33.696  26.740  24.863  1.00  0.00     0.044 C 
ATOM     21  C   UNL A   1      33.358  25.816  26.008  1.00  0.00     0.063 C 
ATOM     22  C   UNL A   1      32.542  23.982  24.284  1.00  0.00     0.067 C 
BRANCH  13  23
ATOM     23  O   UNL A   1      31.455  29.814  21.812  1.00  0.00    -0.507 OA
ATOM     24  H   UNL A   1      32.253  29.920  21.333  1.00  0.00     0.293 HD
ENDBRANCH  13  23
ENDBRANCH   6   9
ENDBRANCH   4   5
ENDBRANCH   3   4
ENDBRANCH   2   3
ENDBRANCH   1   2
BRANCH   1  25
ATOM     25  C   UNL A   1      37.743  19.583  24.975  1.00  0.00     0.021 C 
BRANCH  25  26
ATOM     26  C   UNL A   1      38.942  20.195  25.687  1.00  0.00     0.116 C 
BRANCH  26  27
ATOM     27  N   UNL A   1      40.050  19.259  25.782  1.00  0.00    -0.352 N 
ATOM     28  C   UNL A   1      41.364  19.501  26.089  1.00  0.00     0.251 C 
ATOM     29  H   UNL A   1      39.826  18.318  25.601  1.00  0.00     0.163 HD
ATOM     30  O   UNL A   1      42.215  18.632  25.916  1.00  0.00    -0.269 OA
BRANCH  28  31
ATOM     31  C   UNL A   1      41.756  20.823  26.614  1.00  0.00     0.039 A 
ATOM     32  C   UNL A   1      42.222  21.794  25.726  1.00  0.00     0.014 A 
ATOM     33  C   UNL A   1      41.663  21.101  27.982  1.00  0.00     0.014 A 
ATOM     34  C   UNL A   1      42.546  23.064  26.204  1.00  0.00     0.010 A 
ATOM     35  C   UNL A   1      41.910  22.389  28.443  1.00  0.00     0.010 A 
ATOM     36  C   UNL A   1      42.365  23.379  27.560  1.00  0.00    -0.014 A 
BRANCH  36  37
ATOM     37  C   UNL A   1      42.668  24.735  28.076  1.00  0.00     0.031 A 
ATOM     38  C   UNL A   1      44.079  25.105  28.434  1.00  0.00     0.074 A 
ATOM     39  C   UNL A   1      41.668  25.620  28.257  1.00  0.00     0.049 A 
ATOM     40  N   UNL A   1      44.539  26.225  28.929  1.00  0.00    -0.248 NA
ATOM     41  C   UNL A   1      45.108  24.073  28.228  1.00  0.00     0.031 C 
ATOM     42  C   UNL A   1      40.255  25.366  27.975  1.00  0.00     0.029 A 
ATOM     43  N   UNL A   1      41.688  26.912  28.719  1.00  0.00    -0.354 N 
ATOM     44  C   UNL A   1      45.904  26.032  29.092  1.00  0.00     0.074 A 
ATOM     45  C   UNL A   1      46.190  24.668  28.708  1.00  0.00     0.031 C 
ATOM     46  C   UNL A   1      39.549  26.478  28.235  1.00  0.00     0.029 A 
ATOM     47  C   UNL A   1      40.451  27.507  28.741  1.00  0.00     0.049 A 
ATOM     48  H   UNL A   1      42.511  27.368  29.007  1.00  0.00     0.167 HD
ATOM     49  C   UNL A   1      46.841  26.923  29.496  1.00  0.00     0.037 A 
ATOM     50  C   UNL A   1      40.086  28.745  29.126  1.00  0.00     0.037 A 
ATOM     51  C   UNL A   1      46.552  28.285  29.862  1.00  0.00     0.049 A 
ATOM     52  C   UNL A   1      41.137  29.703  29.611  1.00  0.00     0.074 A 
ATOM     53  C   UNL A   1      47.437  29.276  30.247  1.00  0.00     0.029 A 
ATOM     54  N   UNL A   1      45.284  28.844  29.893  1.00  0.00    -0.354 N 
ATOM     55  N   UNL A   1      42.433  29.526  29.709  1.00  0.00    -0.248 NA
ATOM     56  C   UNL A   1      40.680  31.034  30.037  1.00  0.00     0.031 C 
ATOM     57  C   UNL A   1      46.699  30.420  30.562  1.00  0.00     0.029 A 
ATOM     58  C   UNL A   1      45.360  30.160  30.318  1.00  0.00     0.049 A 
ATOM     59  H   UNL A   1      44.453  28.375  29.648  1.00  0.00     0.167 HD
ATOM     60  C   UNL A   1      42.948  30.725  30.185  1.00  0.00     0.074 A 
ATOM     61  C   UNL A   1      41.826  31.629  30.340  1.00  0.00     0.031 C 
ATOM     62  C   UNL A   1      44.233  31.048  30.468  1.00  0.00     0.037 A 
BRANCH  49  63
ATOM     63  C   UNL A   1      48.266  26.456  29.550  1.00  0.00     0.057 A 
ATOM     64  C   UNL A   1      49.147  26.650  28.477  1.00  0.00     0.134 A 
ATOM     65  C   UNL A   1      48.781  25.851  30.704  1.00  0.00     0.134 A 
ATOM     66  F   UNL A   1      48.715  27.212  27.337  1.00  0.00    -0.206 F 
ATOM     67  C   UNL A   1      50.480  26.241  28.540  1.00  0.00     0.040 A 
ATOM     68  C   UNL A   1      50.119  25.466  30.791  1.00  0.00     0.040 A 
ATOM     69  F   UNL A   1      47.995  25.640  31.770  1.00  0.00    -0.206 F 
ATOM     70  C   UNL A   1      50.971  25.656  29.705  1.00  0.00     0.006 A 
ENDBRANCH  49  63
BRANCH  50  71
ATOM     71  C   UNL A   1      38.661  29.154  29.030  1.00  0.00     0.057 A 
ATOM     72  C   UNL A   1      38.127  29.622  27.824  1.00  0.00     0.134 A 
ATOM     73  C   UNL A   1      37.793  29.061  30.125  1.00  0.00     0.134 A 
ATOM     74  F   UNL A   1      38.912  29.750  26.744  1.00  0.00    -0.206 F 
ATOM     75  C   UNL A   1      36.785  29.988  27.710  1.00  0.00     0.040 A 
ATOM     76  C   UNL A   1      36.443  29.400  30.019  1.00  0.00     0.040 A 
ATOM     77  F   UNL A   1      38.241  28.614  31.308  1.00  0.00    -0.206 F 
ATOM     78  C   UNL A   1      35.937  29.868  28.809  1.00  0.00     0.006 A 
ENDBRANCH  50  71
BRANCH  62  79
ATOM     79  C   UNL A   1      44.510  32.438  30.964  1.00  0.00     0.057 A 
ATOM     80  C   UNL A   1      44.733  33.504  30.084  1.00  0.00     0.134 A 
ATOM     81  C   UNL A   1      44.474  32.727  32.335  1.00  0.00     0.134 A 
ATOM     82  F   UNL A   1      44.790  33.293  28.760  1.00  0.00    -0.206 F 
ATOM     83  C   UNL A   1      44.919  34.806  30.550  1.00  0.00     0.040 A 
ATOM     84  C   UNL A   1      44.629  34.030  32.810  1.00  0.00     0.040 A 
ATOM     85  F   UNL A   1      44.253  31.754  33.232  1.00  0.00    -0.206 F 
ATOM     86  C   UNL A   1      44.856  35.074  31.916  1.00  0.00     0.006 A 
ENDBRANCH  62  79
ENDBRANCH  36  37
ENDBRANCH  28  31
ENDBRANCH  26  27
ENDBRANCH  25  26
ENDBRANCH   1  25
TORSDOF 14
ENDMDL
MODEL 2
REMARK VINA RESULT:     -12.3      0.295      6.246
REMARK SMILES Cc1c(C)c2c(c(C)c1O)CC[C@@](C)(C(=O)NCCCCCCNC(=O)c1ccc(-c3c4nc(c(-c5c(F)cccc5F)c5ccc([nH]5)c(-c5c(F)cccc5F)c5nc(c(-c6c(F)cccc6F)c6ccc3[nH]6)C=C5)C=C4)cc1)O2
REMARK SMILES IDX 21 1 20 2 19 3 18 4 17 5 15 6 16 7 13 9 1 10 2 11 3 12 9 13
REMARK SMILES IDX 4 14 5 15 7 16 6 17 81 18 8 19 11 20 12 21 14 22 10 23 22 25
REMARK SMILES IDX 23 26 24 27 25 28 26 30 27 31 28 32 80 33 29 34 79 35 30 36
REMARK SMILES IDX 31 37 32 38 73 39 33 40 78 41 72 42 74 43 34 44 77 45 71 46
REMARK SMILES IDX 70 47 35 49 61 50 44 51 60 52 45 53 48 54 59 55 75 56 46 57
REMARK SMILES IDX 47 58 58 60 76 61 49 62 36 63 37 64 42 65 38 66 39 67 41 68
REMARK SMILES IDX 43 69 40 70 62 71 63 72 68 73 64 74 65 75 67 76 69 77 66 78
REMARK SMILES IDX 50 79 51 80 56 81 52 82 53 83 55 84 57 85 54 86
REMARK H PARENT 17 8 10 24 24 29 74 48 48 59
REMARK Flexibility Score: inf
ROOT
ATOM      1  C   UNL A   1      36.329  20.761  24.999  1.00  0.00     0.002 C 
ENDROOT
BRANCH   1   2
ATOM      2  C   UNL A   1      36.497  22.105  25.715  1.00  0.00     0.002 C 
BRANCH   2   3
ATOM      3  C   UNL A   1      35.224  22.639  26.375  1.00  0.00     0.021 C 
BRANCH   3   4
ATOM      4  C   UNL A   1      33.940  22.085  25.760  1.00  0.00     0.116 C 
BRANCH   4   5
ATOM      5  N   UNL A   1      32.771  22.495  26.518  1.00  0.00    -0.353 N 
ATOM      6  C   UNL A   1      31.977  23.609  26.423  1.00  0.00     0.263 C 
ATOM      7  O   UNL A   1      31.060  23.702  27.243  1.00  0.00    -0.270 OA
ATOM      8  H   UNL A   1      32.500  21.863  27.222  1.00  0.00     0.163 HD
BRANCH   6   9
ATOM      9  C   UNL A   1      32.224  24.670  25.315  1.00  0.00     0.184 C 
ATOM     10  C   UNL A   1      28.765  28.902  22.498  1.00  0.00     0.049 C 
ATOM     11  C   UNL A   1      30.045  28.290  23.008  1.00  0.00    -0.002 A 
ATOM     12  C   UNL A   1      29.974  27.152  23.852  1.00  0.00    -0.002 A 
ATOM     13  C   UNL A   1      31.312  28.810  22.674  1.00  0.00     0.122 A 
ATOM     14  C   UNL A   1      28.636  26.534  24.188  1.00  0.00     0.049 C 
ATOM     15  C   UNL A   1      31.159  26.596  24.363  1.00  0.00     0.127 A 
ATOM     16  C   UNL A   1      32.496  28.267  23.196  1.00  0.00    -0.002 A 
ATOM     17  C   UNL A   1      32.411  27.174  24.079  1.00  0.00     0.001 A 
ATOM     18  O   UNL A   1      31.028  25.465  25.145  1.00  0.00    -0.477 OA
ATOM     19  C   UNL A   1      33.845  28.829  22.819  1.00  0.00     0.049 C 
ATOM     20  C   UNL A   1      33.662  26.604  24.688  1.00  0.00     0.044 C 
ATOM     21  C   UNL A   1      33.319  25.631  25.790  1.00  0.00     0.063 C 
ATOM     22  C   UNL A   1      32.435  23.906  23.990  1.00  0.00     0.067 C 
BRANCH  13  23
ATOM     23  O   UNL A   1      31.453  29.878  21.828  1.00  0.00    -0.507 OA
ATOM     24  H   UNL A   1      31.747  29.744  20.949  1.00  0.00     0.293 HD
ENDBRANCH  13  23
ENDBRANCH   6   9
ENDBRANCH   4   5
ENDBRANCH   3   4
ENDBRANCH   2   3
ENDBRANCH   1   2
BRANCH   1  25
ATOM     25  C   UNL A   1      37.620  19.957  24.824  1.00  0.00     0.021 C 
BRANCH  25  26
ATOM     26  C   UNL A   1      38.769  20.417  25.712  1.00  0.00     0.116 C 
BRANCH  26  27
ATOM     27  N   UNL A   1      39.829  19.425  25.783  1.00  0.00    -0.352 N 
ATOM     28  C   UNL A   1      41.158  19.596  26.071  1.00  0.00     0.251 C 
ATOM     29  H   UNL A   1      39.554  18.498  25.597  1.00  0.00     0.163 HD
ATOM     30  O   UNL A   1      41.960  18.686  25.878  1.00  0.00    -0.269 OA
BRANCH  28  31
ATOM     31  C   UNL A   1      41.625  20.892  26.601  1.00  0.00     0.039 A 
ATOM     32  C   UNL A   1      42.086  21.862  25.709  1.00  0.00     0.014 A 
ATOM     33  C   UNL A   1      41.607  21.146  27.977  1.00  0.00     0.014 A 
ATOM     34  C   UNL A   1      42.480  23.110  26.194  1.00  0.00     0.010 A 
ATOM     35  C   UNL A   1      41.926  22.414  28.448  1.00  0.00     0.010 A 
ATOM     36  C   UNL A   1      42.376  23.404  27.563  1.00  0.00    -0.014 A 
BRANCH  36  37
ATOM     37  C   UNL A   1      42.755  24.738  28.088  1.00  0.00     0.031 A 
ATOM     38  C   UNL A   1      41.706  25.793  28.288  1.00  0.00     0.074 A 
ATOM     39  C   UNL A   1      44.049  25.008  28.351  1.00  0.00     0.049 A 
ATOM     40  N   UNL A   1      41.844  27.025  28.705  1.00  0.00    -0.248 NA
ATOM     41  C   UNL A   1      40.320  25.424  27.956  1.00  0.00     0.031 C 
ATOM     42  C   UNL A   1      45.161  24.075  28.167  1.00  0.00     0.029 A 
ATOM     43  N   UNL A   1      44.646  26.147  28.829  1.00  0.00    -0.354 N 
ATOM     44  C   UNL A   1      40.568  27.574  28.685  1.00  0.00     0.074 A 
ATOM     45  C   UNL A   1      39.680  26.565  28.153  1.00  0.00     0.031 C 
ATOM     46  C   UNL A   1      46.300  24.665  28.562  1.00  0.00     0.029 A 
ATOM     47  C   UNL A   1      46.005  26.031  28.986  1.00  0.00     0.049 A 
ATOM     48  H   UNL A   1      44.147  26.969  29.038  1.00  0.00     0.167 HD
ATOM     49  C   UNL A   1      40.169  28.798  29.104  1.00  0.00     0.037 A 
ATOM     50  C   UNL A   1      46.912  26.925  29.424  1.00  0.00     0.037 A 
ATOM     51  C   UNL A   1      41.056  29.793  29.648  1.00  0.00     0.049 A 
ATOM     52  C   UNL A   1      46.451  28.292  29.844  1.00  0.00     0.074 A 
ATOM     53  C   UNL A   1      40.742  31.048  30.136  1.00  0.00     0.029 A 
ATOM     54  N   UNL A   1      42.429  29.645  29.770  1.00  0.00    -0.354 N 
ATOM     55  N   UNL A   1      45.234  28.781  29.872  1.00  0.00    -0.248 NA
ATOM     56  C   UNL A   1      47.486  29.235  30.295  1.00  0.00     0.031 C 
ATOM     57  C   UNL A   1      41.932  31.682  30.505  1.00  0.00     0.029 A 
ATOM     58  C   UNL A   1      42.981  30.800  30.301  1.00  0.00     0.049 A 
ATOM     59  H   UNL A   1      42.936  28.840  29.519  1.00  0.00     0.167 HD
ATOM     60  C   UNL A   1      45.353  30.074  30.363  1.00  0.00     0.074 A 
ATOM     61  C   UNL A   1      46.759  30.290  30.636  1.00  0.00     0.031 C 
ATOM     62  C   UNL A   1      44.384  30.999  30.568  1.00  0.00     0.037 A 
BRANCH  49  63
ATOM     63  C   UNL A   1      38.707  29.125  29.002  1.00  0.00     0.057 A 
ATOM     64  C   UNL A   1      37.849  29.019  30.105  1.00  0.00     0.134 A 
ATOM     65  C   UNL A   1      38.159  29.599  27.803  1.00  0.00     0.134 A 
ATOM     66  F   UNL A   1      38.308  28.560  31.280  1.00  0.00    -0.206 F 
ATOM     67  C   UNL A   1      36.497  29.352  30.015  1.00  0.00     0.040 A 
ATOM     68  C   UNL A   1      36.815  29.963  27.709  1.00  0.00     0.040 A 
ATOM     69  F   UNL A   1      38.924  29.730  26.709  1.00  0.00    -0.206 F 
ATOM     70  C   UNL A   1      35.979  29.835  28.816  1.00  0.00     0.006 A 
ENDBRANCH  49  63
BRANCH  50  71
ATOM     71  C   UNL A   1      48.342  26.534  29.522  1.00  0.00     0.057 A 
ATOM     72  C   UNL A   1      48.831  25.871  30.654  1.00  0.00     0.134 A 
ATOM     73  C   UNL A   1      49.245  26.783  28.482  1.00  0.00     0.134 A 
ATOM     74  F   UNL A   1      48.019  25.619  31.691  1.00  0.00    -0.206 F 
ATOM     75  C   UNL A   1      50.166  25.476  30.751  1.00  0.00     0.040 A 
ATOM     76  C   UNL A   1      50.577  26.371  28.555  1.00  0.00     0.040 A 
ATOM     77  F   UNL A   1      48.838  27.409  27.366  1.00  0.00    -0.206 F 
ATOM     78  C   UNL A   1      51.041  25.718  29.694  1.00  0.00     0.006 A 
ENDBRANCH  50  71
BRANCH  62  79
ATOM     79  C   UNL A   1      44.798  32.331  31.125  1.00  0.00     0.057 A 
ATOM     80  C   UNL A   1      45.100  33.416  30.294  1.00  0.00     0.134 A 
ATOM     81  C   UNL A   1      44.816  32.552  32.510  1.00  0.00     0.134 A 
ATOM     82  F   UNL A   1      45.111  33.269  28.960  1.00  0.00    -0.206 F 
ATOM     83  C   UNL A   1      45.415  34.670  30.818  1.00  0.00     0.040 A 
ATOM     84  C   UNL A   1      45.100  33.809  33.044  1.00  0.00     0.040 A 
ATOM     85  F   UNL A   1      44.525  31.558  33.362  1.00  0.00    -0.206 F 
ATOM     86  C   UNL A   1      45.405  34.872  32.197  1.00  0.00     0.006 A 
ENDBRANCH  62  79
ENDBRANCH  36  37
ENDBRANCH  28  31
ENDBRANCH  26  27
ENDBRANCH  25  26
ENDBRANCH   1  25
TORSDOF 14
ENDMDL
MODEL 3
REMARK VINA RESULT:     -12.2      3.599      9.001
REMARK SMILES Cc1c(C)c2c(c(C)c1O)CC[C@@](C)(C(=O)NCCCCCCNC(=O)c1ccc(-c3c4nc(c(-c5c(F)cccc5F)c5ccc([nH]5)c(-c5c(F)cccc5F)c5nc(c(-c6c(F)cccc6F)c6ccc3[nH]6)C=C5)C=C4)cc1)O2
REMARK SMILES IDX 21 1 20 2 19 3 18 4 17 5 15 6 16 7 13 9 1 10 2 11 3 12 9 13
REMARK SMILES IDX 4 14 5 15 7 16 6 17 81 18 8 19 11 20 12 21 14 22 10 23 22 25
REMARK SMILES IDX 23 26 24 27 25 28 26 30 27 31 28 32 80 33 29 34 79 35 30 36
REMARK SMILES IDX 31 37 32 38 73 39 33 40 78 41 72 42 74 43 34 44 77 45 71 46
REMARK SMILES IDX 70 47 35 49 61 50 44 51 60 52 45 53 48 54 59 55 75 56 46 57
REMARK SMILES IDX 47 58 58 60 76 61 49 62 36 63 37 64 42 65 38 66 39 67 41 68
REMARK SMILES IDX 43 69 40 70 62 71 63 72 68 73 64 74 65 75 67 76 69 77 66 78
REMARK SMILES IDX 50 79 51 80 56 81 52 82 53 83 55 84 57 85 54 86
REMARK H PARENT 17 8 10 24 24 29 74 48 48 59
REMARK Flexibility Score: inf
ROOT
ATOM      1  C   UNL A   1      31.418  30.214  25.441  1.00  0.00     0.002 C 
ENDROOT
BRANCH   1   2
ATOM      2  C   UNL A   1      32.877  29.746  25.410  1.00  0.00     0.002 C 
BRANCH   2   3
ATOM      3  C   UNL A   1      33.281  29.001  24.137  1.00  0.00     0.021 C 
BRANCH   3   4
ATOM      4  C   UNL A   1      32.109  28.327  23.427  1.00  0.00     0.116 C 
BRANCH   4   5
ATOM      5  N   UNL A   1      32.556  27.556  22.280  1.00  0.00    -0.353 N 
ATOM      6  C   UNL A   1      32.932  26.242  22.164  1.00  0.00     0.263 C 
ATOM      7  O   UNL A   1      33.306  25.874  21.048  1.00  0.00    -0.270 OA
ATOM      8  H   UNL A   1      32.596  28.065  21.439  1.00  0.00     0.163 HD
BRANCH   6   9
ATOM      9  C   UNL A   1      32.856  25.284  23.384  1.00  0.00     0.184 C 
ATOM     10  C   UNL A   1      32.416  19.191  24.104  1.00  0.00     0.049 C 
ATOM     11  C   UNL A   1      32.782  20.600  24.498  1.00  0.00    -0.002 A 
ATOM     12  C   UNL A   1      32.670  21.635  23.534  1.00  0.00    -0.002 A 
ATOM     13  C   UNL A   1      33.233  20.925  25.794  1.00  0.00     0.122 A 
ATOM     14  C   UNL A   1      32.140  21.335  22.152  1.00  0.00     0.049 C 
ATOM     15  C   UNL A   1      33.045  22.945  23.881  1.00  0.00     0.127 A 
ATOM     16  C   UNL A   1      33.623  22.228  26.138  1.00  0.00    -0.002 A 
ATOM     17  C   UNL A   1      33.563  23.236  25.157  1.00  0.00     0.001 A 
ATOM     18  O   UNL A   1      32.875  23.916  22.914  1.00  0.00    -0.477 OA
ATOM     19  C   UNL A   1      34.093  22.561  27.533  1.00  0.00     0.049 C 
ATOM     20  C   UNL A   1      34.020  24.630  25.487  1.00  0.00     0.044 C 
ATOM     21  C   UNL A   1      34.118  25.466  24.233  1.00  0.00     0.063 C 
ATOM     22  C   UNL A   1      31.479  25.499  24.050  1.00  0.00     0.067 C 
BRANCH  13  23
ATOM     23  O   UNL A   1      33.322  19.982  26.784  1.00  0.00    -0.507 OA
ATOM     24  H   UNL A   1      33.458  19.082  26.564  1.00  0.00     0.293 HD
ENDBRANCH  13  23
ENDBRANCH   6   9
ENDBRANCH   4   5
ENDBRANCH   3   4
ENDBRANCH   2   3
ENDBRANCH   1   2
BRANCH   1  25
ATOM     25  C   UNL A   1      31.170  31.504  26.227  1.00  0.00     0.021 C 
BRANCH  25  26
ATOM     26  C   UNL A   1      32.403  32.054  26.933  1.00  0.00     0.116 C 
BRANCH  26  27
ATOM     27  N   UNL A   1      32.237  33.449  27.303  1.00  0.00    -0.352 N 
ATOM     28  C   UNL A   1      32.963  34.203  28.189  1.00  0.00     0.251 C 
ATOM     29  H   UNL A   1      31.498  33.921  26.855  1.00  0.00     0.163 HD
ATOM     30  O   UNL A   1      32.559  35.305  28.547  1.00  0.00    -0.269 OA
BRANCH  28  31
ATOM     31  C   UNL A   1      34.232  33.672  28.725  1.00  0.00     0.039 A 
ATOM     32  C   UNL A   1      34.205  32.904  29.891  1.00  0.00     0.014 A 
ATOM     33  C   UNL A   1      35.443  33.933  28.076  1.00  0.00     0.014 A 
ATOM     34  C   UNL A   1      35.391  32.353  30.378  1.00  0.00     0.010 A 
ATOM     35  C   UNL A   1      36.609  33.319  28.518  1.00  0.00     0.010 A 
ATOM     36  C   UNL A   1      36.596  32.532  29.679  1.00  0.00    -0.014 A 
BRANCH  36  37
ATOM     37  C   UNL A   1      37.858  31.922  30.163  1.00  0.00     0.031 A 
ATOM     38  C   UNL A   1      38.643  32.587  31.257  1.00  0.00     0.074 A 
ATOM     39  C   UNL A   1      38.313  30.790  29.592  1.00  0.00     0.049 A 
ATOM     40  N   UNL A   1      39.781  32.228  31.791  1.00  0.00    -0.248 NA
ATOM     41  C   UNL A   1      38.087  33.833  31.810  1.00  0.00     0.031 C 
ATOM     42  C   UNL A   1      37.655  30.070  28.501  1.00  0.00     0.029 A 
ATOM     43  N   UNL A   1      39.437  30.046  29.851  1.00  0.00    -0.354 N 
ATOM     44  C   UNL A   1      40.076  33.199  32.739  1.00  0.00     0.074 A 
ATOM     45  C   UNL A   1      39.033  34.198  32.662  1.00  0.00     0.031 C 
ATOM     46  C   UNL A   1      38.366  28.969  28.210  1.00  0.00     0.029 A 
ATOM     47  C   UNL A   1      39.550  28.928  29.062  1.00  0.00     0.049 A 
ATOM     48  H   UNL A   1      40.098  30.291  30.537  1.00  0.00     0.167 HD
ATOM     49  C   UNL A   1      41.105  33.237  33.617  1.00  0.00     0.037 A 
ATOM     50  C   UNL A   1      40.503  27.977  29.029  1.00  0.00     0.037 A 
ATOM     51  C   UNL A   1      42.132  32.232  33.700  1.00  0.00     0.049 A 
ATOM     52  C   UNL A   1      41.659  28.063  29.985  1.00  0.00     0.074 A 
ATOM     53  C   UNL A   1      43.195  32.160  34.582  1.00  0.00     0.029 A 
ATOM     54  N   UNL A   1      42.224  31.126  32.868  1.00  0.00    -0.354 N 
ATOM     55  N   UNL A   1      41.897  28.958  30.915  1.00  0.00    -0.248 NA
ATOM     56  C   UNL A   1      42.680  27.009  29.893  1.00  0.00     0.031 C 
ATOM     57  C   UNL A   1      43.962  31.041  34.250  1.00  0.00     0.029 A 
ATOM     58  C   UNL A   1      43.344  30.381  33.199  1.00  0.00     0.049 A 
ATOM     59  H   UNL A   1      41.588  30.903  32.151  1.00  0.00     0.167 HD
ATOM     60  C   UNL A   1      43.078  28.564  31.531  1.00  0.00     0.074 A 
ATOM     61  C   UNL A   1      43.500  27.340  30.881  1.00  0.00     0.031 C 
ATOM     62  C   UNL A   1      43.752  29.163  32.542  1.00  0.00     0.037 A 
BRANCH  49  63
ATOM     63  C   UNL A   1      41.165  34.398  34.567  1.00  0.00     0.057 A 
ATOM     64  C   UNL A   1      41.822  35.591  34.233  1.00  0.00     0.134 A 
ATOM     65  C   UNL A   1      40.520  34.344  35.810  1.00  0.00     0.134 A 
ATOM     66  F   UNL A   1      42.472  35.704  33.064  1.00  0.00    -0.206 F 
ATOM     67  C   UNL A   1      41.852  36.679  35.106  1.00  0.00     0.040 A 
ATOM     68  C   UNL A   1      40.517  35.437  36.678  1.00  0.00     0.040 A 
ATOM     69  F   UNL A   1      39.868  33.236  36.191  1.00  0.00    -0.206 F 
ATOM     70  C   UNL A   1      41.189  36.606  36.329  1.00  0.00     0.006 A 
ENDBRANCH  49  63
BRANCH  50  71
ATOM     71  C   UNL A   1      40.376  26.842  28.079  1.00  0.00     0.057 A 
ATOM     72  C   UNL A   1      39.595  25.724  28.395  1.00  0.00     0.134 A 
ATOM     73  C   UNL A   1      41.003  26.857  26.827  1.00  0.00     0.134 A 
ATOM     74  F   UNL A   1      38.983  25.643  29.585  1.00  0.00    -0.206 F 
ATOM     75  C   UNL A   1      39.446  24.660  27.504  1.00  0.00     0.040 A 
ATOM     76  C   UNL A   1      40.842  25.811  25.916  1.00  0.00     0.040 A 
ATOM     77  F   UNL A   1      41.760  27.902  26.461  1.00  0.00    -0.206 F 
ATOM     78  C   UNL A   1      40.064  24.707  26.256  1.00  0.00     0.006 A 
ENDBRANCH  50  71
BRANCH  62  79
ATOM     79  C   UNL A   1      45.012  28.506  33.027  1.00  0.00     0.057 A 
ATOM     80  C   UNL A   1      44.991  27.495  33.996  1.00  0.00     0.134 A 
ATOM     81  C   UNL A   1      46.251  28.831  32.458  1.00  0.00     0.134 A 
ATOM     82  F   UNL A   1      43.838  27.143  34.586  1.00  0.00    -0.206 F 
ATOM     83  C   UNL A   1      46.157  26.839  34.389  1.00  0.00     0.040 A 
ATOM     84  C   UNL A   1      47.420  28.162  32.823  1.00  0.00     0.040 A 
ATOM     85  F   UNL A   1      46.340  29.782  31.516  1.00  0.00    -0.206 F 
ATOM     86  C   UNL A   1      47.375  27.164  33.795  1.00  0.00     0.006 A 
ENDBRANCH  62  79
ENDBRANCH  36  37
ENDBRANCH  28  31
ENDBRANCH  26  27
ENDBRANCH  25  26
ENDBRANCH   1  25
TORSDOF 14
ENDMDL
