MODEL 1
REMARK VINA RESULT:     -12.1      0.000      0.000
REMARK SMILES CC[N@@H+](C)Cc1cc2c(cc1Cl)C=C(C(=O)NCCCCCCNC(=O)c1ccc(-c3c4nc(c(-c5c(F)cccc5F)c5ccc([nH]5)c(-c5c(F)cccc5F)c5nc(c(-c6c(F)cccc6F)c6ccc3[nH]6)C=C5)C=C4)cc1)[C@@H](C(F)(F)F)O2
REMARK SMILES IDX 20 1 19 2 18 3 17 4 15 5 16 6 14 8 6 9 7 10 11 11 8 12 10 13
REMARK SMILES IDX 12 14 9 15 86 16 13 17 81 18 5 19 3 20 4 21 2 23 1 24 82 25
REMARK SMILES IDX 83 26 84 27 85 28 21 29 22 30 23 31 24 32 25 33 26 35 27 36
REMARK SMILES IDX 28 37 80 38 29 39 79 40 30 41 31 42 32 43 73 44 33 45 78 46
REMARK SMILES IDX 72 47 74 48 34 49 77 50 71 51 70 52 35 54 61 55 44 56 60 57
REMARK SMILES IDX 45 58 48 59 59 60 75 61 46 62 47 63 58 65 76 66 49 67 36 68
REMARK SMILES IDX 37 69 42 70 38 71 39 72 41 73 43 74 40 75 62 76 63 77 68 78
REMARK SMILES IDX 64 79 65 80 67 81 69 82 66 83 50 84 51 85 56 86 52 87 53 88
REMARK SMILES IDX 55 89 57 90 54 91
REMARK H PARENT 17 7 3 22 24 34 74 53 48 64
REMARK Flexibility Score: inf
ROOT
ATOM      1  C   UNL A   1      32.546  29.862  27.241  1.00  0.00     0.002 C 
ENDROOT
BRANCH   1   2
ATOM      2  C   UNL A   1      32.588  28.341  27.070  1.00  0.00     0.021 C 
BRANCH   2   3
ATOM      3  C   UNL A   1      33.893  27.810  26.486  1.00  0.00     0.116 C 
BRANCH   3   4
ATOM      4  N   UNL A   1      33.853  27.740  25.038  1.00  0.00    -0.352 N 
ATOM      5  C   UNL A   1      33.606  26.791  24.105  1.00  0.00     0.251 C 
ATOM      6  O   UNL A   1      33.667  27.176  22.933  1.00  0.00    -0.270 OA
ATOM      7  H   UNL A   1      34.060  28.609  24.625  1.00  0.00     0.163 HD
BRANCH   5   8
ATOM      8  C   UNL A   1      33.269  25.365  24.394  1.00  0.00     0.067 C 
ATOM      9  C   UNL A   1      33.594  20.352  24.961  1.00  0.00     0.029 A 
ATOM     10  C   UNL A   1      32.559  21.299  25.044  1.00  0.00     0.058 A 
ATOM     11  C   UNL A   1      34.908  20.833  24.856  1.00  0.00     0.050 A 
ATOM     12  C   UNL A   1      32.812  22.658  24.904  1.00  0.00     0.128 A 
ATOM     13  C   UNL A   1      35.161  22.207  24.726  1.00  0.00     0.033 A 
ATOM     14  Cl  UNL A   1      36.283  19.788  24.905  1.00  0.00    -0.084 Cl
ATOM     15  C   UNL A   1      34.107  23.123  24.720  1.00  0.00     0.019 A 
ATOM     16  O   UNL A   1      31.726  23.473  24.978  1.00  0.00    -0.475 OA
ATOM     17  C   UNL A   1      34.332  24.547  24.529  1.00  0.00     0.025 C 
ATOM     18  C   UNL A   1      31.867  24.823  24.465  1.00  0.00     0.314 C 
BRANCH   9  19
ATOM     19  C   UNL A   1      33.215  18.884  24.949  1.00  0.00     0.300 C 
BRANCH  19  20
ATOM     20  N   UNL A   1      33.519  18.131  23.714  1.00  0.00    -0.334 N 
ATOM     21  C   UNL A   1      32.401  18.134  22.773  1.00  0.00     0.333 C 
ATOM     22  H   UNL A   1      34.299  18.656  23.316  1.00  0.00     0.348 HD
BRANCH  20  23
ATOM     23  C   UNL A   1      34.030  16.767  23.897  1.00  0.00     0.258 C 
ATOM     24  C   UNL A   1      33.423  16.049  25.098  1.00  0.00     0.071 C 
ENDBRANCH  20  23
ENDBRANCH  19  20
ENDBRANCH   9  19
BRANCH  18  25
ATOM     25  C   UNL A   1      31.101  24.908  23.133  1.00  0.00     0.429 C 
ATOM     26  F   UNL A   1      30.505  26.122  23.011  1.00  0.00    -0.167 F 
ATOM     27  F   UNL A   1      31.901  24.771  22.052  1.00  0.00    -0.167 F 
ATOM     28  F   UNL A   1      30.132  23.971  23.033  1.00  0.00    -0.167 F 
ENDBRANCH  18  25
ENDBRANCH   5   8
ENDBRANCH   3   4
ENDBRANCH   2   3
ENDBRANCH   1   2
BRANCH   1  29
ATOM     29  C   UNL A   1      31.655  30.620  26.247  1.00  0.00     0.002 C 
BRANCH  29  30
ATOM     30  C   UNL A   1      31.457  32.110  26.529  1.00  0.00     0.021 C 
BRANCH  30  31
ATOM     31  C   UNL A   1      32.581  32.774  27.313  1.00  0.00     0.116 C 
BRANCH  31  32
ATOM     32  N   UNL A   1      32.292  34.158  27.649  1.00  0.00    -0.352 N 
ATOM     33  C   UNL A   1      32.926  34.983  28.546  1.00  0.00     0.251 C 
ATOM     34  H   UNL A   1      31.536  34.562  27.165  1.00  0.00     0.163 HD
ATOM     35  O   UNL A   1      32.459  36.087  28.813  1.00  0.00    -0.269 OA
BRANCH  33  36
ATOM     36  C   UNL A   1      34.158  34.519  29.221  1.00  0.00     0.039 A 
ATOM     37  C   UNL A   1      35.396  34.616  28.587  1.00  0.00     0.014 A 
ATOM     38  C   UNL A   1      34.063  33.956  30.497  1.00  0.00     0.014 A 
ATOM     39  C   UNL A   1      36.510  34.007  29.154  1.00  0.00     0.010 A 
ATOM     40  C   UNL A   1      35.201  33.416  31.103  1.00  0.00     0.010 A 
ATOM     41  C   UNL A   1      36.424  33.394  30.415  1.00  0.00    -0.014 A 
BRANCH  41  42
ATOM     42  C   UNL A   1      37.625  32.727  30.983  1.00  0.00     0.031 A 
ATOM     43  C   UNL A   1      38.198  33.167  32.302  1.00  0.00     0.074 A 
ATOM     44  C   UNL A   1      38.162  31.678  30.332  1.00  0.00     0.049 A 
ATOM     45  N   UNL A   1      39.213  32.672  32.968  1.00  0.00    -0.248 NA
ATOM     46  C   UNL A   1      37.555  34.315  32.962  1.00  0.00     0.031 C 
ATOM     47  C   UNL A   1      37.695  31.154  29.047  1.00  0.00     0.029 A 
ATOM     48  N   UNL A   1      39.198  30.848  30.673  1.00  0.00    -0.354 N 
ATOM     49  C   UNL A   1      39.338  33.453  34.111  1.00  0.00     0.074 A 
ATOM     50  C   UNL A   1      38.317  34.475  34.034  1.00  0.00     0.031 C 
ATOM     51  C   UNL A   1      38.405  30.060  28.735  1.00  0.00     0.029 A 
ATOM     52  C   UNL A   1      39.411  29.838  29.766  1.00  0.00     0.049 A 
ATOM     53  H   UNL A   1      39.737  30.964  31.488  1.00  0.00     0.167 HD
ATOM     54  C   UNL A   1      40.215  33.323  35.136  1.00  0.00     0.037 A 
ATOM     55  C   UNL A   1      40.322  28.847  29.763  1.00  0.00     0.037 A 
ATOM     56  C   UNL A   1      41.221  32.296  35.221  1.00  0.00     0.049 A 
ATOM     57  C   UNL A   1      41.305  28.750  30.893  1.00  0.00     0.074 A 
ATOM     58  C   UNL A   1      42.141  32.068  36.231  1.00  0.00     0.029 A 
ATOM     59  N   UNL A   1      41.439  31.324  34.257  1.00  0.00    -0.354 N 
ATOM     60  N   UNL A   1      41.397  29.485  31.974  1.00  0.00    -0.248 NA
ATOM     61  C   UNL A   1      42.314  27.688  30.797  1.00  0.00     0.031 C 
ATOM     62  C   UNL A   1      42.939  30.979  35.859  1.00  0.00     0.029 A 
ATOM     63  C   UNL A   1      42.491  30.506  34.637  1.00  0.00     0.049 A 
ATOM     64  H   UNL A   1      40.923  31.229  33.423  1.00  0.00     0.167 HD
ATOM     65  C   UNL A   1      42.467  28.969  32.692  1.00  0.00     0.074 A 
ATOM     66  C   UNL A   1      42.975  27.843  31.935  1.00  0.00     0.031 C 
ATOM     67  C   UNL A   1      42.986  29.393  33.869  1.00  0.00     0.037 A 
BRANCH  54  68
ATOM     68  C   UNL A   1      40.131  34.330  36.246  1.00  0.00     0.057 A 
ATOM     69  C   UNL A   1      39.304  34.105  37.354  1.00  0.00     0.134 A 
ATOM     70  C   UNL A   1      40.845  35.535  36.207  1.00  0.00     0.134 A 
ATOM     71  F   UNL A   1      38.589  32.975  37.451  1.00  0.00    -0.206 F 
ATOM     72  C   UNL A   1      39.193  35.041  38.384  1.00  0.00     0.040 A 
ATOM     73  C   UNL A   1      40.759  36.469  37.243  1.00  0.00     0.040 A 
ATOM     74  F   UNL A   1      41.665  35.806  35.181  1.00  0.00    -0.206 F 
ATOM     75  C   UNL A   1      39.926  36.224  38.333  1.00  0.00     0.006 A 
ENDBRANCH  54  68
BRANCH  55  76
ATOM     76  C   UNL A   1      40.348  27.868  28.648  1.00  0.00     0.057 A 
ATOM     77  C   UNL A   1      39.658  26.652  28.729  1.00  0.00     0.134 A 
ATOM     78  C   UNL A   1      41.058  28.133  27.471  1.00  0.00     0.134 A 
ATOM     79  F   UNL A   1      38.964  26.340  29.833  1.00  0.00    -0.206 F 
ATOM     80  C   UNL A   1      39.680  25.730  27.683  1.00  0.00     0.040 A 
ATOM     81  C   UNL A   1      41.067  27.230  26.407  1.00  0.00     0.040 A 
ATOM     82  F   UNL A   1      41.722  29.289  27.329  1.00  0.00    -0.206 F 
ATOM     83  C   UNL A   1      40.381  26.022  26.515  1.00  0.00     0.006 A 
ENDBRANCH  55  76
BRANCH  67  84
ATOM     84  C   UNL A   1      44.150  28.618  34.411  1.00  0.00     0.057 A 
ATOM     85  C   UNL A   1      43.947  27.501  35.229  1.00  0.00     0.134 A 
ATOM     86  C   UNL A   1      45.472  28.982  34.125  1.00  0.00     0.134 A 
ATOM     87  F   UNL A   1      42.705  27.104  35.545  1.00  0.00    -0.206 F 
ATOM     88  C   UNL A   1      45.018  26.769  35.742  1.00  0.00     0.040 A 
ATOM     89  C   UNL A   1      46.552  28.244  34.612  1.00  0.00     0.040 A 
ATOM     90  F   UNL A   1      45.732  30.033  33.331  1.00  0.00    -0.206 F 
ATOM     91  C   UNL A   1      46.325  27.136  35.426  1.00  0.00     0.006 A 
ENDBRANCH  67  84
ENDBRANCH  41  42
ENDBRANCH  33  36
ENDBRANCH  31  32
ENDBRANCH  30  31
ENDBRANCH  29  30
ENDBRANCH   1  29
TORSDOF 17
ENDMDL
MODEL 2
REMARK VINA RESULT:     -12.0      0.461      5.997
REMARK SMILES CC[N@@H+](C)Cc1cc2c(cc1Cl)C=C(C(=O)NCCCCCCNC(=O)c1ccc(-c3c4nc(c(-c5c(F)cccc5F)c5ccc([nH]5)c(-c5c(F)cccc5F)c5nc(c(-c6c(F)cccc6F)c6ccc3[nH]6)C=C5)C=C4)cc1)[C@@H](C(F)(F)F)O2
REMARK SMILES IDX 20 1 19 2 18 3 17 4 15 5 16 6 14 8 6 9 7 10 11 11 8 12 10 13
REMARK SMILES IDX 12 14 9 15 86 16 13 17 81 18 5 19 3 20 4 21 2 23 1 24 82 25
REMARK SMILES IDX 83 26 84 27 85 28 21 29 22 30 23 31 24 32 25 33 26 35 27 36
REMARK SMILES IDX 28 37 80 38 29 39 79 40 30 41 31 42 32 43 73 44 33 45 78 46
REMARK SMILES IDX 72 47 74 48 34 49 77 50 71 51 70 52 35 54 61 55 44 56 60 57
REMARK SMILES IDX 45 58 48 59 59 60 75 61 46 62 47 63 58 65 76 66 49 67 36 68
REMARK SMILES IDX 37 69 42 70 38 71 39 72 41 73 43 74 40 75 62 76 63 77 68 78
REMARK SMILES IDX 64 79 65 80 67 81 69 82 66 83 50 84 51 85 56 86 52 87 53 88
REMARK SMILES IDX 55 89 57 90 54 91
REMARK H PARENT 17 7 3 22 24 34 74 53 48 64
REMARK Flexibility Score: inf
ROOT
ATOM      1  C   UNL A   1      31.850  29.551  27.291  1.00  0.00     0.002 C 
ENDROOT
BRANCH   1   2
ATOM      2  C   UNL A   1      32.010  28.118  26.774  1.00  0.00     0.021 C 
BRANCH   2   3
ATOM      3  C   UNL A   1      33.449  27.714  26.474  1.00  0.00     0.116 C 
BRANCH   3   4
ATOM      4  N   UNL A   1      33.698  27.600  25.050  1.00  0.00    -0.352 N 
ATOM      5  C   UNL A   1      33.676  26.614  24.123  1.00  0.00     0.251 C 
ATOM      6  O   UNL A   1      33.952  26.967  22.972  1.00  0.00    -0.270 OA
ATOM      7  H   UNL A   1      33.948  28.465  24.653  1.00  0.00     0.163 HD
BRANCH   5   8
ATOM      8  C   UNL A   1      33.345  25.183  24.394  1.00  0.00     0.067 C 
ATOM      9  C   UNL A   1      33.693  20.168  24.916  1.00  0.00     0.029 A 
ATOM     10  C   UNL A   1      32.652  21.107  24.997  1.00  0.00     0.058 A 
ATOM     11  C   UNL A   1      35.006  20.657  24.832  1.00  0.00     0.050 A 
ATOM     12  C   UNL A   1      32.898  22.469  24.873  1.00  0.00     0.128 A 
ATOM     13  C   UNL A   1      35.252  22.034  24.718  1.00  0.00     0.033 A 
ATOM     14  Cl  UNL A   1      36.386  19.620  24.888  1.00  0.00    -0.084 Cl
ATOM     15  C   UNL A   1      34.192  22.944  24.708  1.00  0.00     0.019 A 
ATOM     16  O   UNL A   1      31.806  23.276  24.941  1.00  0.00    -0.475 OA
ATOM     17  C   UNL A   1      34.411  24.371  24.534  1.00  0.00     0.025 C 
ATOM     18  C   UNL A   1      31.945  24.632  24.443  1.00  0.00     0.314 C 
BRANCH   9  19
ATOM     19  C   UNL A   1      33.323  18.697  24.886  1.00  0.00     0.300 C 
BRANCH  19  20
ATOM     20  N   UNL A   1      33.544  17.985  23.609  1.00  0.00    -0.334 N 
ATOM     21  C   UNL A   1      32.419  18.137  22.688  1.00  0.00     0.333 C 
ATOM     22  H   UNL A   1      34.363  18.457  23.226  1.00  0.00     0.348 HD
BRANCH  20  23
ATOM     23  C   UNL A   1      33.931  16.573  23.715  1.00  0.00     0.258 C 
ATOM     24  C   UNL A   1      34.644  16.235  25.020  1.00  0.00     0.071 C 
ENDBRANCH  20  23
ENDBRANCH  19  20
ENDBRANCH   9  19
BRANCH  18  25
ATOM     25  C   UNL A   1      31.195  24.725  23.103  1.00  0.00     0.429 C 
ATOM     26  F   UNL A   1      30.747  25.992  22.902  1.00  0.00    -0.167 F 
ATOM     27  F   UNL A   1      31.973  24.428  22.038  1.00  0.00    -0.167 F 
ATOM     28  F   UNL A   1      30.121  23.906  23.053  1.00  0.00    -0.167 F 
ENDBRANCH  18  25
ENDBRANCH   5   8
ENDBRANCH   3   4
ENDBRANCH   2   3
ENDBRANCH   1   2
BRANCH   1  29
ATOM     29  C   UNL A   1      31.721  30.637  26.215  1.00  0.00     0.002 C 
BRANCH  29  30
ATOM     30  C   UNL A   1      31.438  32.052  26.724  1.00  0.00     0.021 C 
BRANCH  30  31
ATOM     31  C   UNL A   1      32.645  32.786  27.293  1.00  0.00     0.116 C 
BRANCH  31  32
ATOM     32  N   UNL A   1      32.364  34.179  27.597  1.00  0.00    -0.352 N 
ATOM     33  C   UNL A   1      32.939  34.993  28.542  1.00  0.00     0.251 C 
ATOM     34  H   UNL A   1      31.662  34.599  27.049  1.00  0.00     0.163 HD
ATOM     35  O   UNL A   1      32.480  36.110  28.763  1.00  0.00    -0.269 OA
BRANCH  33  36
ATOM     36  C   UNL A   1      34.097  34.503  29.322  1.00  0.00     0.039 A 
ATOM     37  C   UNL A   1      35.384  34.540  28.784  1.00  0.00     0.014 A 
ATOM     38  C   UNL A   1      33.883  33.975  30.598  1.00  0.00     0.014 A 
ATOM     39  C   UNL A   1      36.427  33.906  29.450  1.00  0.00     0.010 A 
ATOM     40  C   UNL A   1      34.949  33.410  31.303  1.00  0.00     0.010 A 
ATOM     41  C   UNL A   1      36.221  33.328  30.713  1.00  0.00    -0.014 A 
BRANCH  41  42
ATOM     42  C   UNL A   1      37.348  32.633  31.388  1.00  0.00     0.031 A 
ATOM     43  C   UNL A   1      38.041  31.470  30.730  1.00  0.00     0.074 A 
ATOM     44  C   UNL A   1      37.789  33.096  32.573  1.00  0.00     0.049 A 
ATOM     45  N   UNL A   1      39.068  30.775  31.152  1.00  0.00    -0.248 NA
ATOM     46  C   UNL A   1      37.511  31.024  29.432  1.00  0.00     0.031 C 
ATOM     47  C   UNL A   1      37.204  34.217  33.310  1.00  0.00     0.029 A 
ATOM     48  N   UNL A   1      38.845  32.700  33.352  1.00  0.00    -0.354 N 
ATOM     49  C   UNL A   1      39.297  29.805  30.184  1.00  0.00     0.074 A 
ATOM     50  C   UNL A   1      38.283  29.979  29.167  1.00  0.00     0.031 C 
ATOM     51  C   UNL A   1      37.941  34.455  34.406  1.00  0.00     0.029 A 
ATOM     52  C   UNL A   1      39.014  33.470  34.477  1.00  0.00     0.049 A 
ATOM     53  H   UNL A   1      39.427  31.938  33.127  1.00  0.00     0.167 HD
ATOM     54  C   UNL A   1      40.270  28.862  30.139  1.00  0.00     0.037 A 
ATOM     55  C   UNL A   1      39.927  33.387  35.462  1.00  0.00     0.037 A 
ATOM     56  C   UNL A   1      41.291  28.699  31.143  1.00  0.00     0.049 A 
ATOM     57  C   UNL A   1      40.971  32.311  35.405  1.00  0.00     0.074 A 
ATOM     58  C   UNL A   1      42.333  27.788  31.175  1.00  0.00     0.029 A 
ATOM     59  N   UNL A   1      41.395  29.465  32.294  1.00  0.00    -0.354 N 
ATOM     60  N   UNL A   1      41.184  31.413  34.474  1.00  0.00    -0.248 NA
ATOM     61  C   UNL A   1      41.897  32.232  36.542  1.00  0.00     0.031 C 
ATOM     62  C   UNL A   1      43.047  27.981  32.364  1.00  0.00     0.029 A 
ATOM     63  C   UNL A   1      42.472  29.036  33.052  1.00  0.00     0.049 A 
ATOM     64  H   UNL A   1      40.792  30.204  32.537  1.00  0.00     0.167 HD
ATOM     65  C   UNL A   1      42.274  30.670  34.906  1.00  0.00     0.074 A 
ATOM     66  C   UNL A   1      42.693  31.239  36.171  1.00  0.00     0.031 C 
ATOM     67  C   UNL A   1      42.871  29.609  34.311  1.00  0.00     0.037 A 
BRANCH  54  68
ATOM     68  C   UNL A   1      40.268  27.925  28.967  1.00  0.00     0.057 A 
ATOM     69  C   UNL A   1      39.565  26.714  29.023  1.00  0.00     0.134 A 
ATOM     70  C   UNL A   1      40.984  28.203  27.795  1.00  0.00     0.134 A 
ATOM     71  F   UNL A   1      38.865  26.383  30.117  1.00  0.00    -0.206 F 
ATOM     72  C   UNL A   1      39.572  25.816  27.953  1.00  0.00     0.040 A 
ATOM     73  C   UNL A   1      40.979  27.323  26.711  1.00  0.00     0.040 A 
ATOM     74  F   UNL A   1      41.666  29.352  27.673  1.00  0.00    -0.206 F 
ATOM     75  C   UNL A   1      40.276  26.123  26.791  1.00  0.00     0.006 A 
ENDBRANCH  54  68
BRANCH  55  76
ATOM     76  C   UNL A   1      39.893  34.352  36.589  1.00  0.00     0.057 A 
ATOM     77  C   UNL A   1      40.523  35.599  36.499  1.00  0.00     0.134 A 
ATOM     78  C   UNL A   1      39.219  34.050  37.777  1.00  0.00     0.134 A 
ATOM     79  F   UNL A   1      41.187  35.944  35.388  1.00  0.00    -0.206 F 
ATOM     80  C   UNL A   1      40.492  36.509  37.556  1.00  0.00     0.040 A 
ATOM     81  C   UNL A   1      39.159  34.961  38.833  1.00  0.00     0.040 A 
ATOM     82  F   UNL A   1      38.582  32.878  37.913  1.00  0.00    -0.206 F 
ATOM     83  C   UNL A   1      39.802  36.193  38.725  1.00  0.00     0.006 A 
ENDBRANCH  55  76
BRANCH  67  84
ATOM     84  C   UNL A   1      44.050  29.014  35.022  1.00  0.00     0.057 A 
ATOM     85  C   UNL A   1      43.879  27.979  35.949  1.00  0.00     0.134 A 
ATOM     86  C   UNL A   1      45.354  29.468  34.788  1.00  0.00     0.134 A 
ATOM     87  F   UNL A   1      42.655  27.503  36.220  1.00  0.00    -0.206 F 
ATOM     88  C   UNL A   1      44.965  27.414  36.618  1.00  0.00     0.040 A 
ATOM     89  C   UNL A   1      46.451  28.895  35.434  1.00  0.00     0.040 A 
ATOM     90  F   UNL A   1      45.585  30.445  33.897  1.00  0.00    -0.206 F 
ATOM     91  C   UNL A   1      46.256  27.867  36.355  1.00  0.00     0.006 A 
ENDBRANCH  67  84
ENDBRANCH  41  42
ENDBRANCH  33  36
ENDBRANCH  31  32
ENDBRANCH  30  31
ENDBRANCH  29  30
ENDBRANCH   1  29
TORSDOF 17
ENDMDL
MODEL 3
REMARK VINA RESULT:     -12.0      4.382      9.712
REMARK SMILES CC[N@@H+](C)Cc1cc2c(cc1Cl)C=C(C(=O)NCCCCCCNC(=O)c1ccc(-c3c4nc(c(-c5c(F)cccc5F)c5ccc([nH]5)c(-c5c(F)cccc5F)c5nc(c(-c6c(F)cccc6F)c6ccc3[nH]6)C=C5)C=C4)cc1)[C@@H](C(F)(F)F)O2
REMARK SMILES IDX 20 1 19 2 18 3 17 4 15 5 16 6 14 8 6 9 7 10 11 11 8 12 10 13
REMARK SMILES IDX 12 14 9 15 86 16 13 17 81 18 5 19 3 20 4 21 2 23 1 24 82 25
REMARK SMILES IDX 83 26 84 27 85 28 21 29 22 30 23 31 24 32 25 33 26 35 27 36
REMARK SMILES IDX 28 37 80 38 29 39 79 40 30 41 31 42 32 43 73 44 33 45 78 46
REMARK SMILES IDX 72 47 74 48 34 49 77 50 71 51 70 52 35 54 61 55 44 56 60 57
REMARK SMILES IDX 45 58 48 59 59 60 75 61 46 62 47 63 58 65 76 66 49 67 36 68
REMARK SMILES IDX 37 69 42 70 38 71 39 72 41 73 43 74 40 75 62 76 63 77 68 78
REMARK SMILES IDX 64 79 65 80 67 81 69 82 66 83 50 84 51 85 56 86 52 87 53 88
REMARK SMILES IDX 55 89 57 90 54 91
REMARK H PARENT 17 7 3 22 24 34 74 53 48 64
REMARK Flexibility Score: inf
ROOT
ATOM      1  C   UNL A   1      35.711  21.743  24.260  1.00  0.00     0.002 C 
ENDROOT
BRANCH   1   2
ATOM      2  C   UNL A   1      36.336  23.141  24.293  1.00  0.00     0.021 C 
BRANCH   2   3
ATOM      3  C   UNL A   1      36.204  23.857  25.632  1.00  0.00     0.116 C 
BRANCH   3   4
ATOM      4  N   UNL A   1      35.012  23.453  26.352  1.00  0.00    -0.352 N 
ATOM      5  C   UNL A   1      33.695  23.766  26.331  1.00  0.00     0.251 C 
ATOM      6  O   UNL A   1      32.994  23.150  27.139  1.00  0.00    -0.270 OA
ATOM      7  H   UNL A   1      35.211  22.773  27.035  1.00  0.00     0.163 HD
BRANCH   5   8
ATOM      8  C   UNL A   1      33.062  24.767  25.420  1.00  0.00     0.067 C 
ATOM      9  C   UNL A   1      30.852  28.950  23.642  1.00  0.00     0.029 A 
ATOM     10  C   UNL A   1      31.180  27.694  23.107  1.00  0.00     0.058 A 
ATOM     11  C   UNL A   1      31.356  29.269  24.913  1.00  0.00     0.050 A 
ATOM     12  C   UNL A   1      31.875  26.751  23.855  1.00  0.00     0.128 A 
ATOM     13  C   UNL A   1      32.067  28.318  25.661  1.00  0.00     0.033 A 
ATOM     14  Cl  UNL A   1      31.164  30.833  25.620  1.00  0.00    -0.084 Cl
ATOM     15  C   UNL A   1      32.303  27.042  25.143  1.00  0.00     0.019 A 
ATOM     16  O   UNL A   1      32.111  25.563  23.236  1.00  0.00    -0.475 OA
ATOM     17  C   UNL A   1      32.986  26.017  25.916  1.00  0.00     0.025 C 
ATOM     18  C   UNL A   1      32.475  24.435  24.074  1.00  0.00     0.314 C 
BRANCH   9  19
ATOM     19  C   UNL A   1      29.944  29.854  22.829  1.00  0.00     0.300 C 
BRANCH  19  20
ATOM     20  N   UNL A   1      28.601  30.118  23.386  1.00  0.00    -0.334 N 
ATOM     21  C   UNL A   1      27.577  29.258  22.794  1.00  0.00     0.333 C 
ATOM     22  H   UNL A   1      28.715  29.881  24.372  1.00  0.00     0.348 HD
BRANCH  20  23
ATOM     23  C   UNL A   1      28.160  31.518  23.377  1.00  0.00     0.258 C 
ATOM     24  C   UNL A   1      28.605  32.286  22.137  1.00  0.00     0.071 C 
ENDBRANCH  20  23
ENDBRANCH  19  20
ENDBRANCH   9  19
BRANCH  18  25
ATOM     25  C   UNL A   1      31.268  23.484  24.141  1.00  0.00     0.429 C 
ATOM     26  F   UNL A   1      30.454  23.682  23.073  1.00  0.00    -0.167 F 
ATOM     27  F   UNL A   1      31.619  22.179  24.110  1.00  0.00    -0.167 F 
ATOM     28  F   UNL A   1      30.524  23.670  25.255  1.00  0.00    -0.167 F 
ENDBRANCH  18  25
ENDBRANCH   5   8
ENDBRANCH   3   4
ENDBRANCH   2   3
ENDBRANCH   1   2
BRANCH   1  29
ATOM     29  C   UNL A   1      36.469  20.656  25.034  1.00  0.00     0.002 C 
BRANCH  29  30
ATOM     30  C   UNL A   1      37.967  20.552  24.744  1.00  0.00     0.021 C 
BRANCH  30  31
ATOM     31  C   UNL A   1      38.857  20.443  25.976  1.00  0.00     0.116 C 
BRANCH  31  32
ATOM     32  N   UNL A   1      39.930  19.477  25.811  1.00  0.00    -0.352 N 
ATOM     33  C   UNL A   1      41.280  19.640  26.008  1.00  0.00     0.251 C 
ATOM     34  H   UNL A   1      39.652  18.581  25.517  1.00  0.00     0.163 HD
ATOM     35  O   UNL A   1      42.067  18.756  25.681  1.00  0.00    -0.269 OA
BRANCH  33  36
ATOM     36  C   UNL A   1      41.788  20.905  26.583  1.00  0.00     0.039 A 
ATOM     37  C   UNL A   1      41.821  21.096  27.965  1.00  0.00     0.014 A 
ATOM     38  C   UNL A   1      42.210  21.922  25.722  1.00  0.00     0.014 A 
ATOM     39  C   UNL A   1      42.121  22.353  28.478  1.00  0.00     0.010 A 
ATOM     40  C   UNL A   1      42.590  23.161  26.245  1.00  0.00     0.010 A 
ATOM     41  C   UNL A   1      42.502  23.401  27.626  1.00  0.00    -0.014 A 
BRANCH  41  42
ATOM     42  C   UNL A   1      42.790  24.740  28.203  1.00  0.00     0.031 A 
ATOM     43  C   UNL A   1      44.202  25.156  28.518  1.00  0.00     0.074 A 
ATOM     44  C   UNL A   1      41.777  25.608  28.385  1.00  0.00     0.049 A 
ATOM     45  N   UNL A   1      44.641  26.299  28.984  1.00  0.00    -0.248 NA
ATOM     46  C   UNL A   1      45.259  24.160  28.287  1.00  0.00     0.031 C 
ATOM     47  C   UNL A   1      40.366  25.325  28.113  1.00  0.00     0.029 A 
ATOM     48  N   UNL A   1      41.779  26.910  28.812  1.00  0.00    -0.354 N 
ATOM     49  C   UNL A   1      46.017  26.155  29.114  1.00  0.00     0.074 A 
ATOM     50  C   UNL A   1      46.338  24.803  28.710  1.00  0.00     0.031 C 
ATOM     51  C   UNL A   1      39.646  26.436  28.329  1.00  0.00     0.029 A 
ATOM     52  C   UNL A   1      40.534  27.491  28.805  1.00  0.00     0.049 A 
ATOM     53  H   UNL A   1      42.594  27.384  29.097  1.00  0.00     0.167 HD
ATOM     54  C   UNL A   1      46.932  27.068  29.522  1.00  0.00     0.037 A 
ATOM     55  C   UNL A   1      40.148  28.733  29.151  1.00  0.00     0.037 A 
ATOM     56  C   UNL A   1      46.616  28.419  29.909  1.00  0.00     0.049 A 
ATOM     57  C   UNL A   1      41.178  29.712  29.634  1.00  0.00     0.074 A 
ATOM     58  C   UNL A   1      47.475  29.426  30.315  1.00  0.00     0.029 A 
ATOM     59  N   UNL A   1      45.336  28.952  29.939  1.00  0.00    -0.354 N 
ATOM     60  N   UNL A   1      42.477  29.565  29.734  1.00  0.00    -0.248 NA
ATOM     61  C   UNL A   1      40.685  31.028  30.059  1.00  0.00     0.031 C 
ATOM     62  C   UNL A   1      46.711  30.557  30.624  1.00  0.00     0.029 A 
ATOM     63  C   UNL A   1      45.380  30.267  30.375  1.00  0.00     0.049 A 
ATOM     64  H   UNL A   1      44.517  28.468  29.688  1.00  0.00     0.167 HD
ATOM     65  C   UNL A   1      42.957  30.772  30.224  1.00  0.00     0.074 A 
ATOM     66  C   UNL A   1      41.814  31.648  30.375  1.00  0.00     0.031 C 
ATOM     67  C   UNL A   1      44.231  31.122  30.525  1.00  0.00     0.037 A 
BRANCH  54  68
ATOM     68  C   UNL A   1      48.366  26.628  29.582  1.00  0.00     0.057 A 
ATOM     69  C   UNL A   1      49.207  26.784  28.473  1.00  0.00     0.134 A 
ATOM     70  C   UNL A   1      48.908  26.026  30.725  1.00  0.00     0.134 A 
ATOM     71  F   UNL A   1      48.751  27.347  27.346  1.00  0.00    -0.206 F 
ATOM     72  C   UNL A   1      50.537  26.357  28.500  1.00  0.00     0.040 A 
ATOM     73  C   UNL A   1      50.242  25.616  30.771  1.00  0.00     0.040 A 
ATOM     74  F   UNL A   1      48.158  25.860  31.826  1.00  0.00    -0.206 F 
ATOM     75  C   UNL A   1      51.059  25.777  29.654  1.00  0.00     0.006 A 
ENDBRANCH  54  68
BRANCH  55  76
ATOM     76  C   UNL A   1      38.720  29.120  29.056  1.00  0.00     0.057 A 
ATOM     77  C   UNL A   1      37.866  29.033  30.162  1.00  0.00     0.134 A 
ATOM     78  C   UNL A   1      38.178  29.596  27.856  1.00  0.00     0.134 A 
ATOM     79  F   UNL A   1      38.325  28.581  31.338  1.00  0.00    -0.206 F 
ATOM     80  C   UNL A   1      36.522  29.397  30.077  1.00  0.00     0.040 A 
ATOM     81  C   UNL A   1      36.842  29.987  27.764  1.00  0.00     0.040 A 
ATOM     82  F   UNL A   1      38.952  29.718  26.768  1.00  0.00    -0.206 F 
ATOM     83  C   UNL A   1      36.009  29.882  28.876  1.00  0.00     0.006 A 
ENDBRANCH  55  76
BRANCH  67  84
ATOM     84  C   UNL A   1      44.446  32.517  31.031  1.00  0.00     0.057 A 
ATOM     85  C   UNL A   1      44.383  32.799  32.400  1.00  0.00     0.134 A 
ATOM     86  C   UNL A   1      44.712  33.581  30.160  1.00  0.00     0.134 A 
ATOM     87  F   UNL A   1      44.127  31.825  33.286  1.00  0.00    -0.206 F 
ATOM     88  C   UNL A   1      44.579  34.091  32.888  1.00  0.00     0.040 A 
ATOM     89  C   UNL A   1      44.933  34.875  30.637  1.00  0.00     0.040 A 
ATOM     90  F   UNL A   1      44.803  33.372  28.837  1.00  0.00    -0.206 F 
ATOM     91  C   UNL A   1      44.864  35.132  32.005  1.00  0.00     0.006 A 
ENDBRANCH  67  84
ENDBRANCH  41  42
ENDBRANCH  33  36
ENDBRANCH  31  32
ENDBRANCH  30  31
ENDBRANCH  29  30
ENDBRANCH   1  29
TORSDOF 17
ENDMDL
