MODEL 1
REMARK VINA RESULT:     -12.6      0.000      0.000
REMARK SMILES O=C(NCCCCCCNC(=O)[C@@H]1CCn2c(C(=O)c3ccccc3)ccc21)c1ccc(-c2c3nc(c(-c4c(F)cccc4F)c4ccc([nH]4)c(-c4c(F)cccc4F)c4nc(c(-c5c(F)cccc5F)c5ccc2[nH]5)C=C4)C=C3)cc1
REMARK SMILES IDX 6 1 5 2 4 3 3 4 1 5 2 6 29 8 30 9 82 10 31 11 81 12 32 13
REMARK SMILES IDX 33 14 34 15 75 16 35 17 80 18 74 19 76 20 36 21 79 22 73 23
REMARK SMILES IDX 72 24 37 26 63 27 46 28 62 29 47 30 50 31 61 32 77 33 48 34
REMARK SMILES IDX 49 35 60 37 78 38 51 39 38 40 39 41 44 42 40 43 41 44 43 45
REMARK SMILES IDX 45 46 42 47 64 48 65 49 70 50 66 51 67 52 69 53 71 54 68 55
REMARK SMILES IDX 52 56 53 57 58 58 54 59 55 60 57 61 59 62 56 63 7 64 8 65
REMARK SMILES IDX 9 66 10 67 11 68 12 70 13 71 14 72 28 73 15 74 16 75 27 76
REMARK SMILES IDX 17 77 26 78 18 79 19 80 20 81 21 82 25 83 22 84 24 85 23 86
REMARK H PARENT 3 7 76 25 50 36 10 69
REMARK Flexibility Score: inf
ROOT
ATOM      1  C   UNL A   1      31.569  30.325  26.163  1.00  0.00     0.002 C 
ENDROOT
BRANCH   1   2
ATOM      2  C   UNL A   1      31.415  31.803  26.519  1.00  0.00     0.021 C 
BRANCH   2   3
ATOM      3  C   UNL A   1      32.684  32.449  27.054  1.00  0.00     0.116 C 
BRANCH   3   4
ATOM      4  N   UNL A   1      32.462  33.822  27.474  1.00  0.00    -0.352 N 
ATOM      5  O   UNL A   1      32.657  35.606  28.849  1.00  0.00    -0.269 OA
ATOM      6  C   UNL A   1      33.085  34.516  28.478  1.00  0.00     0.251 C 
ATOM      7  H   UNL A   1      31.775  34.318  26.973  1.00  0.00     0.163 HD
BRANCH   6   8
ATOM      8  C   UNL A   1      34.281  33.933  29.119  1.00  0.00     0.039 A 
ATOM      9  C   UNL A   1      34.138  32.994  30.144  1.00  0.00     0.014 A 
ATOM     10  C   UNL A   1      35.551  34.319  28.683  1.00  0.00     0.014 A 
ATOM     11  C   UNL A   1      35.262  32.513  30.803  1.00  0.00     0.010 A 
ATOM     12  C   UNL A   1      36.682  33.768  29.288  1.00  0.00     0.010 A 
ATOM     13  C   UNL A   1      36.543  32.861  30.352  1.00  0.00    -0.014 A 
BRANCH  13  14
ATOM     14  C   UNL A   1      37.720  32.148  30.904  1.00  0.00     0.031 A 
ATOM     15  C   UNL A   1      38.411  31.060  30.137  1.00  0.00     0.074 A 
ATOM     16  C   UNL A   1      38.140  32.493  32.137  1.00  0.00     0.049 A 
ATOM     17  N   UNL A   1      39.420  30.314  30.507  1.00  0.00    -0.248 NA
ATOM     18  C   UNL A   1      37.908  30.764  28.786  1.00  0.00     0.031 C 
ATOM     19  C   UNL A   1      37.524  33.527  32.977  1.00  0.00     0.029 A 
ATOM     20  N   UNL A   1      39.170  32.018  32.904  1.00  0.00    -0.354 N 
ATOM     21  C   UNL A   1      39.659  29.445  29.451  1.00  0.00     0.074 A 
ATOM     22  C   UNL A   1      38.686  29.750  28.424  1.00  0.00     0.031 C 
ATOM     23  C   UNL A   1      38.198  33.619  34.130  1.00  0.00     0.029 A 
ATOM     24  C   UNL A   1      39.242  32.604  34.145  1.00  0.00     0.049 A 
ATOM     25  H   UNL A   1      39.798  31.325  32.597  1.00  0.00     0.167 HD
ATOM     26  C   UNL A   1      40.609  28.483  29.358  1.00  0.00     0.037 A 
ATOM     27  C   UNL A   1      40.030  32.325  35.200  1.00  0.00     0.037 A 
ATOM     28  C   UNL A   1      41.581  28.205  30.385  1.00  0.00     0.049 A 
ATOM     29  C   UNL A   1      41.038  31.221  35.075  1.00  0.00     0.074 A 
ATOM     30  C   UNL A   1      42.633  27.306  30.349  1.00  0.00     0.029 A 
ATOM     31  N   UNL A   1      41.610  28.803  31.634  1.00  0.00    -0.354 N 
ATOM     32  N   UNL A   1      41.309  30.466  34.038  1.00  0.00    -0.248 NA
ATOM     33  C   UNL A   1      41.843  30.923  36.266  1.00  0.00     0.031 C 
ATOM     34  C   UNL A   1      43.255  27.310  31.600  1.00  0.00     0.029 A 
ATOM     35  C   UNL A   1      42.629  28.256  32.396  1.00  0.00     0.049 A 
ATOM     36  H   UNL A   1      40.997  29.513  31.936  1.00  0.00     0.167 HD
ATOM     37  C   UNL A   1      42.322  29.611  34.449  1.00  0.00     0.074 A 
ATOM     38  C   UNL A   1      42.638  29.963  35.818  1.00  0.00     0.031 C 
ATOM     39  C   UNL A   1      42.928  28.616  33.758  1.00  0.00     0.037 A 
BRANCH  26  40
ATOM     40  C   UNL A   1      40.644  27.632  28.122  1.00  0.00     0.057 A 
ATOM     41  C   UNL A   1      41.408  27.979  27.001  1.00  0.00     0.134 A 
ATOM     42  C   UNL A   1      39.991  26.392  28.101  1.00  0.00     0.134 A 
ATOM     43  F   UNL A   1      42.053  29.153  26.955  1.00  0.00    -0.206 F 
ATOM     44  C   UNL A   1      41.519  27.124  25.903  1.00  0.00     0.040 A 
ATOM     45  C   UNL A   1      40.113  25.519  27.019  1.00  0.00     0.040 A 
ATOM     46  F   UNL A   1      39.250  25.995  29.147  1.00  0.00    -0.206 F 
ATOM     47  C   UNL A   1      40.880  25.884  25.915  1.00  0.00     0.006 A 
ENDBRANCH  26  40
BRANCH  27  48
ATOM     48  C   UNL A   1      39.852  33.060  36.478  1.00  0.00     0.057 A 
ATOM     49  C   UNL A   1      38.929  32.635  37.440  1.00  0.00     0.134 A 
ATOM     50  C   UNL A   1      40.584  34.222  36.755  1.00  0.00     0.134 A 
ATOM     51  F   UNL A   1      38.188  31.539  37.227  1.00  0.00    -0.206 F 
ATOM     52  C   UNL A   1      38.719  33.355  38.617  1.00  0.00     0.040 A 
ATOM     53  C   UNL A   1      40.410  34.931  37.943  1.00  0.00     0.040 A 
ATOM     54  F   UNL A   1      41.493  34.678  35.880  1.00  0.00    -0.206 F 
ATOM     55  C   UNL A   1      39.464  34.505  38.873  1.00  0.00     0.006 A 
ENDBRANCH  27  48
BRANCH  39  56
ATOM     56  C   UNL A   1      44.001  27.847  34.470  1.00  0.00     0.057 A 
ATOM     57  C   UNL A   1      45.311  28.332  34.567  1.00  0.00     0.134 A 
ATOM     58  C   UNL A   1      43.711  26.629  35.098  1.00  0.00     0.134 A 
ATOM     59  F   UNL A   1      45.656  29.483  33.971  1.00  0.00    -0.206 F 
ATOM     60  C   UNL A   1      46.300  27.626  35.251  1.00  0.00     0.040 A 
ATOM     61  C   UNL A   1      44.684  25.929  35.811  1.00  0.00     0.040 A 
ATOM     62  F   UNL A   1      42.474  26.113  35.048  1.00  0.00    -0.206 F 
ATOM     63  C   UNL A   1      45.985  26.424  35.884  1.00  0.00     0.006 A 
ENDBRANCH  39  56
ENDBRANCH  13  14
ENDBRANCH   6   8
ENDBRANCH   3   4
ENDBRANCH   2   3
ENDBRANCH   1   2
BRANCH   1  64
ATOM     64  C   UNL A   1      32.340  29.494  27.195  1.00  0.00     0.002 C 
BRANCH  64  65
ATOM     65  C   UNL A   1      31.766  28.098  27.463  1.00  0.00     0.021 C 
BRANCH  65  66
ATOM     66  C   UNL A   1      31.296  27.362  26.211  1.00  0.00     0.116 C 
BRANCH  66  67
ATOM     67  N   UNL A   1      30.648  26.113  26.553  1.00  0.00    -0.356 N 
ATOM     68  C   UNL A   1      31.118  24.835  26.458  1.00  0.00     0.229 C 
ATOM     69  H   UNL A   1      29.733  26.199  26.907  1.00  0.00     0.163 HD
ATOM     70  O   UNL A   1      30.335  23.919  26.705  1.00  0.00    -0.274 OA
BRANCH  68  71
ATOM     71  C   UNL A   1      32.557  24.629  26.013  1.00  0.00     0.127 C 
ATOM     72  C   UNL A   1      32.650  24.495  24.476  1.00  0.00     0.042 C 
ATOM     73  C   UNL A   1      33.128  23.340  26.477  1.00  0.00     0.031 A 
ATOM     74  C   UNL A   1      33.709  23.412  24.212  1.00  0.00     0.124 C 
ATOM     75  N   UNL A   1      33.781  22.688  25.470  1.00  0.00    -0.341 N 
ATOM     76  C   UNL A   1      33.211  22.592  27.616  1.00  0.00     0.025 A 
ATOM     77  C   UNL A   1      34.328  21.520  25.908  1.00  0.00     0.090 A 
ATOM     78  C   UNL A   1      33.961  21.442  27.256  1.00  0.00     0.032 A 
BRANCH  77  79
ATOM     79  C   UNL A   1      35.082  20.502  25.194  1.00  0.00     0.209 C 
ATOM     80  O   UNL A   1      36.307  20.538  25.085  1.00  0.00    -0.287 OA
BRANCH  79  81
ATOM     81  C   UNL A   1      34.413  19.342  24.572  1.00  0.00     0.024 A 
ATOM     82  C   UNL A   1      33.102  19.506  24.108  1.00  0.00     0.012 A 
ATOM     83  C   UNL A   1      35.031  18.090  24.509  1.00  0.00     0.012 A 
ATOM     84  C   UNL A   1      32.429  18.427  23.536  1.00  0.00     0.001 A 
ATOM     85  C   UNL A   1      34.357  17.016  23.923  1.00  0.00     0.001 A 
ATOM     86  C   UNL A   1      33.060  17.187  23.435  1.00  0.00     0.000 A 
ENDBRANCH  79  81
ENDBRANCH  77  79
ENDBRANCH  68  71
ENDBRANCH  66  67
ENDBRANCH  65  66
ENDBRANCH  64  65
ENDBRANCH   1  64
TORSDOF 15
ENDMDL
MODEL 2
REMARK VINA RESULT:     -12.3      0.738      6.146
REMARK SMILES O=C(NCCCCCCNC(=O)[C@@H]1CCn2c(C(=O)c3ccccc3)ccc21)c1ccc(-c2c3nc(c(-c4c(F)cccc4F)c4ccc([nH]4)c(-c4c(F)cccc4F)c4nc(c(-c5c(F)cccc5F)c5ccc2[nH]5)C=C4)C=C3)cc1
REMARK SMILES IDX 6 1 5 2 4 3 3 4 1 5 2 6 29 8 30 9 82 10 31 11 81 12 32 13
REMARK SMILES IDX 33 14 34 15 75 16 35 17 80 18 74 19 76 20 36 21 79 22 73 23
REMARK SMILES IDX 72 24 37 26 63 27 46 28 62 29 47 30 50 31 61 32 77 33 48 34
REMARK SMILES IDX 49 35 60 37 78 38 51 39 38 40 39 41 44 42 40 43 41 44 43 45
REMARK SMILES IDX 45 46 42 47 64 48 65 49 70 50 66 51 67 52 69 53 71 54 68 55
REMARK SMILES IDX 52 56 53 57 58 58 54 59 55 60 57 61 59 62 56 63 7 64 8 65
REMARK SMILES IDX 9 66 10 67 11 68 12 70 13 71 14 72 28 73 15 74 16 75 27 76
REMARK SMILES IDX 17 77 26 78 18 79 19 80 20 81 21 82 25 83 22 84 24 85 23 86
REMARK H PARENT 3 7 76 25 50 36 10 69
REMARK Flexibility Score: inf
ROOT
ATOM      1  C   UNL A   1      31.637  30.457  26.102  1.00  0.00     0.002 C 
ENDROOT
BRANCH   1   2
ATOM      2  C   UNL A   1      31.440  31.910  26.531  1.00  0.00     0.021 C 
BRANCH   2   3
ATOM      3  C   UNL A   1      32.626  32.504  27.276  1.00  0.00     0.116 C 
BRANCH   3   4
ATOM      4  N   UNL A   1      32.431  33.912  27.578  1.00  0.00    -0.352 N 
ATOM      5  O   UNL A   1      32.664  35.802  28.795  1.00  0.00    -0.269 OA
ATOM      6  C   UNL A   1      33.071  34.677  28.518  1.00  0.00     0.251 C 
ATOM      7  H   UNL A   1      31.751  34.376  27.039  1.00  0.00     0.163 HD
BRANCH   6   8
ATOM      8  C   UNL A   1      34.257  34.129  29.204  1.00  0.00     0.039 A 
ATOM      9  C   UNL A   1      34.104  33.338  30.346  1.00  0.00     0.014 A 
ATOM     10  C   UNL A   1      35.530  34.397  28.693  1.00  0.00     0.014 A 
ATOM     11  C   UNL A   1      35.224  32.897  31.037  1.00  0.00     0.010 A 
ATOM     12  C   UNL A   1      36.654  33.879  29.340  1.00  0.00     0.010 A 
ATOM     13  C   UNL A   1      36.506  33.125  30.516  1.00  0.00    -0.014 A 
BRANCH  13  14
ATOM     14  C   UNL A   1      37.667  32.437  31.131  1.00  0.00     0.031 A 
ATOM     15  C   UNL A   1      38.307  32.944  32.388  1.00  0.00     0.074 A 
ATOM     16  C   UNL A   1      38.148  31.344  30.506  1.00  0.00     0.049 A 
ATOM     17  N   UNL A   1      39.356  32.479  33.016  1.00  0.00    -0.248 NA
ATOM     18  C   UNL A   1      37.703  34.126  33.022  1.00  0.00     0.031 C 
ATOM     19  C   UNL A   1      37.609  30.778  29.265  1.00  0.00     0.029 A 
ATOM     20  N   UNL A   1      39.195  30.517  30.817  1.00  0.00    -0.354 N 
ATOM     21  C   UNL A   1      39.555  33.320  34.103  1.00  0.00     0.074 A 
ATOM     22  C   UNL A   1      38.521  34.331  34.048  1.00  0.00     0.031 C 
ATOM     23  C   UNL A   1      38.316  29.690  28.931  1.00  0.00     0.029 A 
ATOM     24  C   UNL A   1      39.401  29.525  29.888  1.00  0.00     0.049 A 
ATOM     25  H   UNL A   1      39.746  30.622  31.626  1.00  0.00     0.167 HD
ATOM     26  C   UNL A   1      40.517  33.244  35.054  1.00  0.00     0.037 A 
ATOM     27  C   UNL A   1      40.383  28.610  29.788  1.00  0.00     0.037 A 
ATOM     28  C   UNL A   1      41.528  32.218  35.102  1.00  0.00     0.049 A 
ATOM     29  C   UNL A   1      41.457  28.587  30.835  1.00  0.00     0.074 A 
ATOM     30  C   UNL A   1      42.495  32.011  36.070  1.00  0.00     0.029 A 
ATOM     31  N   UNL A   1      41.718  31.245  34.134  1.00  0.00    -0.354 N 
ATOM     32  N   UNL A   1      41.581  29.336  31.904  1.00  0.00    -0.248 NA
ATOM     33  C   UNL A   1      42.531  27.603  30.660  1.00  0.00     0.031 C 
ATOM     34  C   UNL A   1      43.312  30.956  35.655  1.00  0.00     0.029 A 
ATOM     35  C   UNL A   1      42.817  30.467  34.457  1.00  0.00     0.049 A 
ATOM     36  H   UNL A   1      41.154  31.123  33.336  1.00  0.00     0.167 HD
ATOM     37  C   UNL A   1      42.741  28.905  32.533  1.00  0.00     0.074 A 
ATOM     38  C   UNL A   1      43.264  27.810  31.743  1.00  0.00     0.031 C 
ATOM     39  C   UNL A   1      43.326  29.382  33.658  1.00  0.00     0.037 A 
BRANCH  26  40
ATOM     40  C   UNL A   1      40.555  34.304  36.116  1.00  0.00     0.057 A 
ATOM     41  C   UNL A   1      41.315  35.471  35.977  1.00  0.00     0.134 A 
ATOM     42  C   UNL A   1      39.729  34.201  37.244  1.00  0.00     0.134 A 
ATOM     43  F   UNL A   1      42.130  35.630  34.924  1.00  0.00    -0.206 F 
ATOM     44  C   UNL A   1      41.254  36.497  36.922  1.00  0.00     0.040 A 
ATOM     45  C   UNL A   1      39.643  35.229  38.184  1.00  0.00     0.040 A 
ATOM     46  F   UNL A   1      38.968  33.112  37.433  1.00  0.00    -0.206 F 
ATOM     47  C   UNL A   1      40.407  36.382  38.024  1.00  0.00     0.006 A 
ENDBRANCH  26  40
BRANCH  27  48
ATOM     48  C   UNL A   1      40.427  27.687  28.626  1.00  0.00     0.057 A 
ATOM     49  C   UNL A   1      41.137  28.012  27.465  1.00  0.00     0.134 A 
ATOM     50  C   UNL A   1      39.735  26.469  28.638  1.00  0.00     0.134 A 
ATOM     51  F   UNL A   1      41.808  29.170  27.385  1.00  0.00    -0.206 F 
ATOM     52  C   UNL A   1      41.134  27.174  26.349  1.00  0.00     0.040 A 
ATOM     53  C   UNL A   1      39.752  25.606  27.544  1.00  0.00     0.040 A 
ATOM     54  F   UNL A   1      39.042  26.093  29.724  1.00  0.00    -0.206 F 
ATOM     55  C   UNL A   1      40.443  25.963  26.388  1.00  0.00     0.006 A 
ENDBRANCH  27  48
BRANCH  39  56
ATOM     56  C   UNL A   1      44.592  28.713  34.104  1.00  0.00     0.057 A 
ATOM     57  C   UNL A   1      45.850  29.183  33.708  1.00  0.00     0.134 A 
ATOM     58  C   UNL A   1      44.553  27.613  34.971  1.00  0.00     0.134 A 
ATOM     59  F   UNL A   1      45.953  30.220  32.864  1.00  0.00    -0.206 F 
ATOM     60  C   UNL A   1      47.025  28.573  34.145  1.00  0.00     0.040 A 
ATOM     61  C   UNL A   1      45.722  27.014  35.438  1.00  0.00     0.040 A 
ATOM     62  F   UNL A   1      43.380  27.119  35.393  1.00  0.00    -0.206 F 
ATOM     63  C   UNL A   1      46.964  27.491  35.021  1.00  0.00     0.006 A 
ENDBRANCH  39  56
ENDBRANCH  13  14
ENDBRANCH   6   8
ENDBRANCH   3   4
ENDBRANCH   2   3
ENDBRANCH   1   2
BRANCH   1  64
ATOM     64  C   UNL A   1      32.334  29.570  27.141  1.00  0.00     0.002 C 
BRANCH  64  65
ATOM     65  C   UNL A   1      31.616  28.252  27.454  1.00  0.00     0.021 C 
BRANCH  65  66
ATOM     66  C   UNL A   1      31.393  27.356  26.238  1.00  0.00     0.116 C 
BRANCH  66  67
ATOM     67  N   UNL A   1      30.743  26.118  26.616  1.00  0.00    -0.356 N 
ATOM     68  C   UNL A   1      31.199  24.835  26.526  1.00  0.00     0.229 C 
ATOM     69  H   UNL A   1      29.840  26.217  26.995  1.00  0.00     0.163 HD
ATOM     70  O   UNL A   1      30.415  23.929  26.807  1.00  0.00    -0.274 OA
BRANCH  68  71
ATOM     71  C   UNL A   1      32.623  24.609  26.043  1.00  0.00     0.127 C 
ATOM     72  C   UNL A   1      32.672  24.464  24.506  1.00  0.00     0.042 C 
ATOM     73  C   UNL A   1      33.192  23.316  26.500  1.00  0.00     0.031 A 
ATOM     74  C   UNL A   1      33.711  23.366  24.220  1.00  0.00     0.124 C 
ATOM     75  N   UNL A   1      33.810  22.650  25.481  1.00  0.00    -0.341 N 
ATOM     76  C   UNL A   1      33.298  22.575  27.641  1.00  0.00     0.025 A 
ATOM     77  C   UNL A   1      34.355  21.479  25.912  1.00  0.00     0.090 A 
ATOM     78  C   UNL A   1      34.024  21.414  27.270  1.00  0.00     0.032 A 
BRANCH  77  79
ATOM     79  C   UNL A   1      35.078  20.448  25.185  1.00  0.00     0.209 C 
ATOM     80  O   UNL A   1      36.301  20.462  25.052  1.00  0.00    -0.287 OA
BRANCH  79  81
ATOM     81  C   UNL A   1      34.377  19.298  24.577  1.00  0.00     0.024 A 
ATOM     82  C   UNL A   1      33.045  19.470  24.182  1.00  0.00     0.012 A 
ATOM     83  C   UNL A   1      34.989  18.047  24.463  1.00  0.00     0.012 A 
ATOM     84  C   UNL A   1      32.343  18.402  23.627  1.00  0.00     0.001 A 
ATOM     85  C   UNL A   1      34.286  16.984  23.894  1.00  0.00     0.001 A 
ATOM     86  C   UNL A   1      32.966  17.163  23.473  1.00  0.00     0.000 A 
ENDBRANCH  79  81
ENDBRANCH  77  79
ENDBRANCH  68  71
ENDBRANCH  66  67
ENDBRANCH  65  66
ENDBRANCH  64  65
ENDBRANCH   1  64
TORSDOF 15
ENDMDL
MODEL 3
REMARK VINA RESULT:     -12.3      2.888      4.959
REMARK SMILES O=C(NCCCCCCNC(=O)[C@@H]1CCn2c(C(=O)c3ccccc3)ccc21)c1ccc(-c2c3nc(c(-c4c(F)cccc4F)c4ccc([nH]4)c(-c4c(F)cccc4F)c4nc(c(-c5c(F)cccc5F)c5ccc2[nH]5)C=C4)C=C3)cc1
REMARK SMILES IDX 6 1 5 2 4 3 3 4 1 5 2 6 29 8 30 9 82 10 31 11 81 12 32 13
REMARK SMILES IDX 33 14 34 15 75 16 35 17 80 18 74 19 76 20 36 21 79 22 73 23
REMARK SMILES IDX 72 24 37 26 63 27 46 28 62 29 47 30 50 31 61 32 77 33 48 34
REMARK SMILES IDX 49 35 60 37 78 38 51 39 38 40 39 41 44 42 40 43 41 44 43 45
REMARK SMILES IDX 45 46 42 47 64 48 65 49 70 50 66 51 67 52 69 53 71 54 68 55
REMARK SMILES IDX 52 56 53 57 58 58 54 59 55 60 57 61 59 62 56 63 7 64 8 65
REMARK SMILES IDX 9 66 10 67 11 68 12 70 13 71 14 72 28 73 15 74 16 75 27 76
REMARK SMILES IDX 17 77 26 78 18 79 19 80 20 81 21 82 25 83 22 84 24 85 23 86
REMARK H PARENT 3 7 76 25 50 36 10 69
REMARK Flexibility Score: inf
ROOT
ATOM      1  C   UNL A   1      31.492  30.734  26.255  1.00  0.00     0.002 C 
ENDROOT
BRANCH   1   2
ATOM      2  C   UNL A   1      31.401  32.240  26.501  1.00  0.00     0.021 C 
BRANCH   2   3
ATOM      3  C   UNL A   1      32.601  32.824  27.231  1.00  0.00     0.116 C 
BRANCH   3   4
ATOM      4  N   UNL A   1      32.380  34.204  27.626  1.00  0.00    -0.352 N 
ATOM      5  O   UNL A   1      32.563  36.008  28.976  1.00  0.00    -0.269 OA
ATOM      6  C   UNL A   1      32.991  34.910  28.630  1.00  0.00     0.251 C 
ATOM      7  H   UNL A   1      31.704  34.697  27.106  1.00  0.00     0.163 HD
BRANCH   6   8
ATOM      8  C   UNL A   1      34.171  34.331  29.300  1.00  0.00     0.039 A 
ATOM      9  C   UNL A   1      34.011  33.530  30.435  1.00  0.00     0.014 A 
ATOM     10  C   UNL A   1      35.446  34.578  28.782  1.00  0.00     0.014 A 
ATOM     11  C   UNL A   1      35.127  33.059  31.112  1.00  0.00     0.010 A 
ATOM     12  C   UNL A   1      36.563  34.030  29.414  1.00  0.00     0.010 A 
ATOM     13  C   UNL A   1      36.410  33.267  30.583  1.00  0.00    -0.014 A 
BRANCH  13  14
ATOM     14  C   UNL A   1      37.561  32.548  31.181  1.00  0.00     0.031 A 
ATOM     15  C   UNL A   1      38.220  31.399  30.480  1.00  0.00     0.074 A 
ATOM     16  C   UNL A   1      37.985  32.949  32.396  1.00  0.00     0.049 A 
ATOM     17  N   UNL A   1      39.202  30.642  30.898  1.00  0.00    -0.248 NA
ATOM     18  C   UNL A   1      37.714  31.044  29.145  1.00  0.00     0.031 C 
ATOM     19  C   UNL A   1      37.399  34.046  33.174  1.00  0.00     0.029 A 
ATOM     20  N   UNL A   1      38.997  32.485  33.195  1.00  0.00    -0.354 N 
ATOM     21  C   UNL A   1      39.419  29.709  29.893  1.00  0.00     0.074 A 
ATOM     22  C   UNL A   1      38.460  29.987  28.845  1.00  0.00     0.031 C 
ATOM     23  C   UNL A   1      38.071  34.181  34.324  1.00  0.00     0.029 A 
ATOM     24  C   UNL A   1      39.082  33.136  34.401  1.00  0.00     0.049 A 
ATOM     25  H   UNL A   1      39.604  31.756  32.930  1.00  0.00     0.167 HD
ATOM     26  C   UNL A   1      40.338  28.714  29.860  1.00  0.00     0.037 A 
ATOM     27  C   UNL A   1      39.856  32.892  35.475  1.00  0.00     0.037 A 
ATOM     28  C   UNL A   1      41.296  28.463  30.906  1.00  0.00     0.049 A 
ATOM     29  C   UNL A   1      40.829  31.752  35.418  1.00  0.00     0.074 A 
ATOM     30  C   UNL A   1      42.319  27.530  30.927  1.00  0.00     0.029 A 
ATOM     31  N   UNL A   1      41.338  29.129  32.120  1.00  0.00    -0.354 N 
ATOM     32  N   UNL A   1      41.081  30.932  34.427  1.00  0.00    -0.248 NA
ATOM     33  C   UNL A   1      41.619  31.495  36.628  1.00  0.00     0.031 C 
ATOM     34  C   UNL A   1      42.936  27.585  32.180  1.00  0.00     0.029 A 
ATOM     35  C   UNL A   1      42.336  28.593  32.918  1.00  0.00     0.049 A 
ATOM     36  H   UNL A   1      40.747  29.873  32.378  1.00  0.00     0.167 HD
ATOM     37  C   UNL A   1      42.064  30.069  34.890  1.00  0.00     0.074 A 
ATOM     38  C   UNL A   1      42.385  30.486  36.239  1.00  0.00     0.031 C 
ATOM     39  C   UNL A   1      42.641  29.019  34.260  1.00  0.00     0.037 A 
BRANCH  26  40
ATOM     40  C   UNL A   1      40.351  27.794  28.673  1.00  0.00     0.057 A 
ATOM     41  C   UNL A   1      41.130  28.054  27.539  1.00  0.00     0.134 A 
ATOM     42  C   UNL A   1      39.660  26.576  28.717  1.00  0.00     0.134 A 
ATOM     43  F   UNL A   1      41.812  29.204  27.431  1.00  0.00    -0.206 F 
ATOM     44  C   UNL A   1      41.219  27.136  26.490  1.00  0.00     0.040 A 
ATOM     45  C   UNL A   1      39.759  25.641  27.686  1.00  0.00     0.040 A 
ATOM     46  F   UNL A   1      38.903  26.261  29.780  1.00  0.00    -0.206 F 
ATOM     47  C   UNL A   1      40.541  25.919  26.568  1.00  0.00     0.006 A 
ENDBRANCH  26  40
BRANCH  27  48
ATOM     48  C   UNL A   1      39.696  33.702  36.709  1.00  0.00     0.057 A 
ATOM     49  C   UNL A   1      38.797  33.329  37.714  1.00  0.00     0.134 A 
ATOM     50  C   UNL A   1      40.421  34.885  36.900  1.00  0.00     0.134 A 
ATOM     51  F   UNL A   1      38.063  32.215  37.583  1.00  0.00    -0.206 F 
ATOM     52  C   UNL A   1      38.602  34.117  38.849  1.00  0.00     0.040 A 
ATOM     53  C   UNL A   1      40.263  35.665  38.045  1.00  0.00     0.040 A 
ATOM     54  F   UNL A   1      41.307  35.295  35.980  1.00  0.00    -0.206 F 
ATOM     55  C   UNL A   1      39.340  35.288  39.019  1.00  0.00     0.006 A 
ENDBRANCH  27  48
BRANCH  39  56
ATOM     56  C   UNL A   1      43.685  28.257  35.020  1.00  0.00     0.057 A 
ATOM     57  C   UNL A   1      43.367  27.103  35.749  1.00  0.00     0.134 A 
ATOM     58  C   UNL A   1      45.027  28.656  34.989  1.00  0.00     0.134 A 
ATOM     59  F   UNL A   1      42.097  26.680  35.832  1.00  0.00    -0.206 F 
ATOM     60  C   UNL A   1      44.345  26.384  36.434  1.00  0.00     0.040 A 
ATOM     61  C   UNL A   1      46.018  27.927  35.646  1.00  0.00     0.040 A 
ATOM     62  F   UNL A   1      45.398  29.748  34.304  1.00  0.00    -0.206 F 
ATOM     63  C   UNL A   1      45.678  26.790  36.376  1.00  0.00     0.006 A 
ENDBRANCH  39  56
ENDBRANCH  13  14
ENDBRANCH   6   8
ENDBRANCH   3   4
ENDBRANCH   2   3
ENDBRANCH   1   2
BRANCH   1  64
ATOM     64  C   UNL A   1      32.510  30.001  27.135  1.00  0.00     0.002 C 
BRANCH  64  65
ATOM     65  C   UNL A   1      32.207  28.518  27.379  1.00  0.00     0.021 C 
BRANCH  65  66
ATOM     66  C   UNL A   1      31.776  27.753  26.130  1.00  0.00     0.116 C 
BRANCH  66  67
ATOM     67  N   UNL A   1      32.829  26.873  25.667  1.00  0.00    -0.356 N 
ATOM     68  C   UNL A   1      33.098  26.427  24.406  1.00  0.00     0.229 C 
ATOM     69  H   UNL A   1      33.444  26.551  26.366  1.00  0.00     0.163 HD
ATOM     70  O   UNL A   1      33.988  25.588  24.274  1.00  0.00    -0.274 OA
BRANCH  68  71
ATOM     71  C   UNL A   1      32.254  26.961  23.259  1.00  0.00     0.127 C 
ATOM     72  C   UNL A   1      32.417  28.491  23.114  1.00  0.00     0.042 C 
ATOM     73  C   UNL A   1      30.796  26.820  23.497  1.00  0.00     0.031 A 
ATOM     74  C   UNL A   1      31.020  29.031  22.767  1.00  0.00     0.124 C 
ATOM     75  N   UNL A   1      30.124  27.972  23.200  1.00  0.00    -0.341 N 
ATOM     76  C   UNL A   1      29.900  25.883  23.923  1.00  0.00     0.025 A 
ATOM     77  C   UNL A   1      28.784  27.828  23.393  1.00  0.00     0.090 A 
ATOM     78  C   UNL A   1      28.633  26.519  23.864  1.00  0.00     0.032 A 
BRANCH  77  79
ATOM     79  C   UNL A   1      27.697  28.781  23.229  1.00  0.00     0.209 C 
ATOM     80  O   UNL A   1      26.529  28.509  23.501  1.00  0.00    -0.287 OA
BRANCH  79  81
ATOM     81  C   UNL A   1      27.944  30.153  22.741  1.00  0.00     0.024 A 
ATOM     82  C   UNL A   1      28.027  30.358  21.359  1.00  0.00     0.012 A 
ATOM     83  C   UNL A   1      28.164  31.213  23.626  1.00  0.00     0.012 A 
ATOM     84  C   UNL A   1      28.282  31.636  20.862  1.00  0.00     0.001 A 
ATOM     85  C   UNL A   1      28.404  32.493  23.122  1.00  0.00     0.001 A 
ATOM     86  C   UNL A   1      28.460  32.703  21.743  1.00  0.00     0.000 A 
ENDBRANCH  79  81
ENDBRANCH  77  79
ENDBRANCH  68  71
ENDBRANCH  66  67
ENDBRANCH  65  66
ENDBRANCH  64  65
ENDBRANCH   1  64
TORSDOF 15
ENDMDL
