MODEL 1
REMARK VINA RESULT:     -11.9      0.000      0.000
REMARK SMILES O=C(NCCCCCCNC(=O)[C@@H]1[C@H](C(=O)Nc2ccccc2OC(F)F)[C@@H]2C=C[C@H]1C2)c1ccc(-c2c3nc(c(-c4c(F)cccc4F)c4ccc([nH]4)c(-c4c(F)cccc4F)c4nc(c(-c5c(F)cccc5F)c5ccc2[nH]5)C=C4)C=C3)cc1
REMARK SMILES IDX 7 1 6 2 5 3 4 4 3 5 1 6 2 7 33 9 34 10 86 11 35 12 85 13
REMARK SMILES IDX 36 14 37 15 38 16 79 17 39 18 84 19 78 20 80 21 40 22 83 23
REMARK SMILES IDX 77 24 76 25 41 27 67 28 50 29 66 30 51 31 54 32 65 33 81 34
REMARK SMILES IDX 52 35 53 36 64 38 82 39 55 40 42 41 43 42 48 43 44 44 45 45
REMARK SMILES IDX 47 46 49 47 46 48 68 49 69 50 74 51 70 52 71 53 73 54 75 55
REMARK SMILES IDX 72 56 56 57 57 58 62 59 58 60 59 61 61 62 63 63 60 64 8 65
REMARK SMILES IDX 9 66 10 67 11 68 12 70 13 71 14 72 31 73 28 74 30 75 32 76
REMARK SMILES IDX 29 77 15 78 16 79 17 80 18 82 19 83 23 84 20 85 22 86 21 87
REMARK SMILES IDX 24 88 25 89 26 90 27 91
REMARK H PARENT 3 8 80 26 54 37 10 69 17 81
REMARK Flexibility Score: inf
ROOT
ATOM      1  C   UNL A   1      30.988  30.117  24.923  1.00  0.00     0.002 C 
ENDROOT
BRANCH   1   2
ATOM      2  C   UNL A   1      31.710  30.635  26.173  1.00  0.00     0.002 C 
BRANCH   2   3
ATOM      3  C   UNL A   1      31.447  32.093  26.544  1.00  0.00     0.021 C 
BRANCH   3   4
ATOM      4  C   UNL A   1      32.584  32.795  27.275  1.00  0.00     0.116 C 
BRANCH   4   5
ATOM      5  N   UNL A   1      32.287  34.180  27.601  1.00  0.00    -0.352 N 
ATOM      6  O   UNL A   1      32.446  36.117  28.760  1.00  0.00    -0.269 OA
ATOM      7  C   UNL A   1      32.906  35.005  28.513  1.00  0.00     0.251 C 
ATOM      8  H   UNL A   1      31.544  34.584  27.100  1.00  0.00     0.163 HD
BRANCH   7   9
ATOM      9  C   UNL A   1      34.108  34.528  29.233  1.00  0.00     0.039 A 
ATOM     10  C   UNL A   1      35.365  34.581  28.631  1.00  0.00     0.014 A 
ATOM     11  C   UNL A   1      33.967  33.979  30.511  1.00  0.00     0.014 A 
ATOM     12  C   UNL A   1      36.437  33.917  29.216  1.00  0.00     0.010 A 
ATOM     13  C   UNL A   1      35.074  33.407  31.147  1.00  0.00     0.010 A 
ATOM     14  C   UNL A   1      36.309  33.325  30.484  1.00  0.00    -0.014 A 
BRANCH  14  15
ATOM     15  C   UNL A   1      37.487  32.655  31.097  1.00  0.00     0.031 A 
ATOM     16  C   UNL A   1      38.022  33.081  32.440  1.00  0.00     0.074 A 
ATOM     17  C   UNL A   1      38.056  31.620  30.447  1.00  0.00     0.049 A 
ATOM     18  N   UNL A   1      39.017  32.579  33.128  1.00  0.00    -0.248 NA
ATOM     19  C   UNL A   1      37.362  34.222  33.092  1.00  0.00     0.031 C 
ATOM     20  C   UNL A   1      37.639  31.118  29.135  1.00  0.00     0.029 A 
ATOM     21  N   UNL A   1      39.086  30.789  30.807  1.00  0.00    -0.354 N 
ATOM     22  C   UNL A   1      39.123  33.357  34.275  1.00  0.00     0.074 A 
ATOM     23  C   UNL A   1      38.104  34.380  34.181  1.00  0.00     0.031 C 
ATOM     24  C   UNL A   1      38.362  30.032  28.829  1.00  0.00     0.029 A 
ATOM     25  C   UNL A   1      39.339  29.801  29.886  1.00  0.00     0.049 A 
ATOM     26  H   UNL A   1      39.594  30.890  31.643  1.00  0.00     0.167 HD
ATOM     27  C   UNL A   1      39.985  33.226  35.312  1.00  0.00     0.037 A 
ATOM     28  C   UNL A   1      40.262  28.823  29.884  1.00  0.00     0.037 A 
ATOM     29  C   UNL A   1      40.984  32.191  35.415  1.00  0.00     0.049 A 
ATOM     30  C   UNL A   1      41.210  28.709  31.041  1.00  0.00     0.074 A 
ATOM     31  C   UNL A   1      41.875  31.951  36.447  1.00  0.00     0.029 A 
ATOM     32  N   UNL A   1      41.225  31.226  34.449  1.00  0.00    -0.354 N 
ATOM     33  N   UNL A   1      41.270  29.430  32.134  1.00  0.00    -0.248 NA
ATOM     34  C   UNL A   1      42.218  27.644  30.964  1.00  0.00     0.031 C 
ATOM     35  C   UNL A   1      42.687  30.871  36.084  1.00  0.00     0.029 A 
ATOM     36  C   UNL A   1      42.265  30.402  34.851  1.00  0.00     0.049 A 
ATOM     37  H   UNL A   1      40.730  31.138  33.602  1.00  0.00     0.167 HD
ATOM     38  C   UNL A   1      42.304  28.889  32.887  1.00  0.00     0.074 A 
ATOM     39  C   UNL A   1      42.829  27.770  32.133  1.00  0.00     0.031 C 
ATOM     40  C   UNL A   1      42.774  29.285  34.095  1.00  0.00     0.037 A 
BRANCH  27  41
ATOM     41  C   UNL A   1      39.906  34.242  36.418  1.00  0.00     0.057 A 
ATOM     42  C   UNL A   1      40.541  35.488  36.334  1.00  0.00     0.134 A 
ATOM     43  C   UNL A   1      39.146  33.985  37.568  1.00  0.00     0.134 A 
ATOM     44  F   UNL A   1      41.293  35.798  35.266  1.00  0.00    -0.206 F 
ATOM     45  C   UNL A   1      40.443  36.429  37.362  1.00  0.00     0.040 A 
ATOM     46  C   UNL A   1      39.019  34.927  38.589  1.00  0.00     0.040 A 
ATOM     47  F   UNL A   1      38.503  32.816  37.711  1.00  0.00    -0.206 F 
ATOM     48  C   UNL A   1      39.674  36.153  38.490  1.00  0.00     0.006 A 
ENDBRANCH  27  41
BRANCH  28  49
ATOM     49  C   UNL A   1      40.326  27.869  28.748  1.00  0.00     0.057 A 
ATOM     50  C   UNL A   1      39.654  26.642  28.796  1.00  0.00     0.134 A 
ATOM     51  C   UNL A   1      41.054  28.162  27.589  1.00  0.00     0.134 A 
ATOM     52  F   UNL A   1      38.953  26.298  29.885  1.00  0.00    -0.206 F 
ATOM     53  C   UNL A   1      39.719  25.734  27.739  1.00  0.00     0.040 A 
ATOM     54  C   UNL A   1      41.103  27.276  26.513  1.00  0.00     0.040 A 
ATOM     55  F   UNL A   1      41.711  29.326  27.479  1.00  0.00    -0.206 F 
ATOM     56  C   UNL A   1      40.440  26.053  26.590  1.00  0.00     0.006 A 
ENDBRANCH  28  49
BRANCH  40  57
ATOM     57  C   UNL A   1      43.878  28.466  34.697  1.00  0.00     0.057 A 
ATOM     58  C   UNL A   1      43.622  27.350  35.503  1.00  0.00     0.134 A 
ATOM     59  C   UNL A   1      45.218  28.795  34.453  1.00  0.00     0.134 A 
ATOM     60  F   UNL A   1      42.361  26.991  35.788  1.00  0.00    -0.206 F 
ATOM     61  C   UNL A   1      44.660  26.611  36.074  1.00  0.00     0.040 A 
ATOM     62  C   UNL A   1      46.264  28.045  34.995  1.00  0.00     0.040 A 
ATOM     63  F   UNL A   1      45.533  29.847  33.682  1.00  0.00    -0.206 F 
ATOM     64  C   UNL A   1      45.985  26.955  35.815  1.00  0.00     0.006 A 
ENDBRANCH  40  57
ENDBRANCH  14  15
ENDBRANCH   7   9
ENDBRANCH   4   5
ENDBRANCH   3   4
ENDBRANCH   2   3
ENDBRANCH   1   2
BRANCH   1  65
ATOM     65  C   UNL A   1      31.837  29.311  23.939  1.00  0.00     0.021 C 
BRANCH  65  66
ATOM     66  C   UNL A   1      33.280  29.065  24.368  1.00  0.00     0.116 C 
BRANCH  66  67
ATOM     67  N   UNL A   1      33.630  27.721  24.781  1.00  0.00    -0.356 N 
ATOM     68  C   UNL A   1      33.187  27.220  25.990  1.00  0.00     0.224 C 
ATOM     69  H   UNL A   1      34.189  27.161  24.195  1.00  0.00     0.163 HD
ATOM     70  O   UNL A   1      33.329  27.828  27.048  1.00  0.00    -0.275 OA
BRANCH  68  71
ATOM     71  C   UNL A   1      32.209  26.074  25.870  1.00  0.00     0.098 C 
ATOM     72  C   UNL A   1      32.349  24.817  24.972  1.00  0.00     0.099 C 
ATOM     73  C   UNL A   1      30.682  26.319  25.932  1.00  0.00     0.025 C 
ATOM     74  C   UNL A   1      30.849  24.396  24.798  1.00  0.00     0.025 C 
ATOM     75  C   UNL A   1      30.090  26.552  24.566  1.00  0.00    -0.027 C 
ATOM     76  C   UNL A   1      30.223  24.862  26.120  1.00  0.00     0.017 C 
ATOM     77  C   UNL A   1      30.143  25.386  23.907  1.00  0.00    -0.027 C 
BRANCH  72  78
ATOM     78  C   UNL A   1      33.136  24.527  23.685  1.00  0.00     0.229 C 
ATOM     79  O   UNL A   1      33.324  25.485  22.913  1.00  0.00    -0.274 OA
ATOM     80  N   UNL A   1      33.877  23.424  23.396  1.00  0.00    -0.323 N 
ATOM     81  H   UNL A   1      34.505  23.553  22.649  1.00  0.00     0.170 HD
BRANCH  80  82
ATOM     82  C   UNL A   1      33.920  22.148  23.951  1.00  0.00     0.084 A 
ATOM     83  C   UNL A   1      32.761  21.369  23.819  1.00  0.00     0.030 A 
ATOM     84  C   UNL A   1      35.013  21.626  24.639  1.00  0.00     0.149 A 
ATOM     85  C   UNL A   1      32.775  20.015  24.154  1.00  0.00     0.002 A 
ATOM     86  C   UNL A   1      35.039  20.258  24.935  1.00  0.00     0.049 A 
ATOM     87  C   UNL A   1      33.935  19.447  24.670  1.00  0.00     0.004 A 
BRANCH  84  88
ATOM     88  O   UNL A   1      36.088  22.313  25.116  1.00  0.00    -0.433 OA
BRANCH  88  89
ATOM     89  C   UNL A   1      35.899  23.275  26.155  1.00  0.00     0.542 C 
ATOM     90  F   UNL A   1      35.826  24.521  25.640  1.00  0.00    -0.167 F 
ATOM     91  F   UNL A   1      34.758  23.031  26.843  1.00  0.00    -0.167 F 
ENDBRANCH  88  89
ENDBRANCH  84  88
ENDBRANCH  80  82
ENDBRANCH  72  78
ENDBRANCH  68  71
ENDBRANCH  66  67
ENDBRANCH  65  66
ENDBRANCH   1  65
TORSDOF 17
ENDMDL
MODEL 2
REMARK VINA RESULT:     -11.9      4.384      9.776
REMARK SMILES O=C(NCCCCCCNC(=O)[C@@H]1[C@H](C(=O)Nc2ccccc2OC(F)F)[C@@H]2C=C[C@H]1C2)c1ccc(-c2c3nc(c(-c4c(F)cccc4F)c4ccc([nH]4)c(-c4c(F)cccc4F)c4nc(c(-c5c(F)cccc5F)c5ccc2[nH]5)C=C4)C=C3)cc1
REMARK SMILES IDX 7 1 6 2 5 3 4 4 3 5 1 6 2 7 33 9 34 10 86 11 35 12 85 13
REMARK SMILES IDX 36 14 37 15 38 16 79 17 39 18 84 19 78 20 80 21 40 22 83 23
REMARK SMILES IDX 77 24 76 25 41 27 67 28 50 29 66 30 51 31 54 32 65 33 81 34
REMARK SMILES IDX 52 35 53 36 64 38 82 39 55 40 42 41 43 42 48 43 44 44 45 45
REMARK SMILES IDX 47 46 49 47 46 48 68 49 69 50 74 51 70 52 71 53 73 54 75 55
REMARK SMILES IDX 72 56 56 57 57 58 62 59 58 60 59 61 61 62 63 63 60 64 8 65
REMARK SMILES IDX 9 66 10 67 11 68 12 70 13 71 14 72 31 73 28 74 30 75 32 76
REMARK SMILES IDX 29 77 15 78 16 79 17 80 18 82 19 83 23 84 20 85 22 86 21 87
REMARK SMILES IDX 24 88 25 89 26 90 27 91
REMARK H PARENT 3 8 80 26 54 37 10 69 17 81
REMARK Flexibility Score: inf
ROOT
ATOM      1  C   UNL A   1      35.630  21.491  24.601  1.00  0.00     0.002 C 
ENDROOT
BRANCH   1   2
ATOM      2  C   UNL A   1      37.160  21.597  24.608  1.00  0.00     0.002 C 
BRANCH   2   3
ATOM      3  C   UNL A   1      37.921  20.307  24.908  1.00  0.00     0.021 C 
BRANCH   3   4
ATOM      4  C   UNL A   1      39.003  20.421  25.972  1.00  0.00     0.116 C 
BRANCH   4   5
ATOM      5  N   UNL A   1      40.053  19.424  25.832  1.00  0.00    -0.352 N 
ATOM      6  O   UNL A   1      42.176  18.649  25.740  1.00  0.00    -0.269 OA
ATOM      7  C   UNL A   1      41.409  19.562  26.028  1.00  0.00     0.251 C 
ATOM      8  H   UNL A   1      39.753  18.529  25.559  1.00  0.00     0.163 HD
BRANCH   7   9
ATOM      9  C   UNL A   1      41.946  20.839  26.549  1.00  0.00     0.039 A 
ATOM     10  C   UNL A   1      42.049  21.060  27.923  1.00  0.00     0.014 A 
ATOM     11  C   UNL A   1      42.309  21.847  25.650  1.00  0.00     0.014 A 
ATOM     12  C   UNL A   1      42.326  22.337  28.396  1.00  0.00     0.010 A 
ATOM     13  C   UNL A   1      42.693  23.102  26.132  1.00  0.00     0.010 A 
ATOM     14  C   UNL A   1      42.657  23.375  27.509  1.00  0.00    -0.014 A 
BRANCH  14  15
ATOM     15  C   UNL A   1      42.984  24.720  28.053  1.00  0.00     0.031 A 
ATOM     16  C   UNL A   1      44.410  25.146  28.288  1.00  0.00     0.074 A 
ATOM     17  C   UNL A   1      41.978  25.583  28.299  1.00  0.00     0.049 A 
ATOM     18  N   UNL A   1      44.867  26.295  28.723  1.00  0.00    -0.248 NA
ATOM     19  C   UNL A   1      45.460  24.155  28.007  1.00  0.00     0.031 C 
ATOM     20  C   UNL A   1      40.554  25.288  28.123  1.00  0.00     0.029 A 
ATOM     21  N   UNL A   1      41.996  26.887  28.723  1.00  0.00    -0.354 N 
ATOM     22  C   UNL A   1      46.248  26.156  28.797  1.00  0.00     0.074 A 
ATOM     23  C   UNL A   1      46.555  24.803  28.384  1.00  0.00     0.031 C 
ATOM     24  C   UNL A   1      39.840  26.394  28.377  1.00  0.00     0.029 A 
ATOM     25  C   UNL A   1      40.747  27.455  28.800  1.00  0.00     0.049 A 
ATOM     26  H   UNL A   1      42.822  27.370  28.951  1.00  0.00     0.167 HD
ATOM     27  C   UNL A   1      47.174  27.073  29.170  1.00  0.00     0.037 A 
ATOM     28  C   UNL A   1      40.368  28.688  29.179  1.00  0.00     0.037 A 
ATOM     29  C   UNL A   1      46.867  28.427  29.559  1.00  0.00     0.049 A 
ATOM     30  C   UNL A   1      41.414  29.679  29.596  1.00  0.00     0.074 A 
ATOM     31  C   UNL A   1      47.740  29.442  29.912  1.00  0.00     0.029 A 
ATOM     32  N   UNL A   1      45.587  28.954  29.649  1.00  0.00    -0.354 N 
ATOM     33  N   UNL A   1      42.717  29.542  29.625  1.00  0.00    -0.248 NA
ATOM     34  C   UNL A   1      40.935  30.996  30.034  1.00  0.00     0.031 C 
ATOM     35  C   UNL A   1      46.986  30.568  30.262  1.00  0.00     0.029 A 
ATOM     36  C   UNL A   1      45.647  30.273  30.072  1.00  0.00     0.049 A 
ATOM     37  H   UNL A   1      44.759  28.464  29.442  1.00  0.00     0.167 HD
ATOM     38  C   UNL A   1      43.216  30.763  30.057  1.00  0.00     0.074 A 
ATOM     39  C   UNL A   1      42.075  31.632  30.261  1.00  0.00     0.031 C 
ATOM     40  C   UNL A   1      44.504  31.131  30.264  1.00  0.00     0.037 A 
BRANCH  27  41
ATOM     41  C   UNL A   1      48.613  26.640  29.199  1.00  0.00     0.057 A 
ATOM     42  C   UNL A   1      49.474  26.834  28.111  1.00  0.00     0.134 A 
ATOM     43  C   UNL A   1      49.158  26.058  30.353  1.00  0.00     0.134 A 
ATOM     44  F   UNL A   1      49.018  27.377  26.971  1.00  0.00    -0.206 F 
ATOM     45  C   UNL A   1      50.815  26.444  28.160  1.00  0.00     0.040 A 
ATOM     46  C   UNL A   1      50.502  25.688  30.423  1.00  0.00     0.040 A 
ATOM     47  F   UNL A   1      48.394  25.851  31.436  1.00  0.00    -0.206 F 
ATOM     48  C   UNL A   1      51.333  25.876  29.321  1.00  0.00     0.006 A 
ENDBRANCH  27  41
BRANCH  28  49
ATOM     49  C   UNL A   1      38.929  29.054  29.172  1.00  0.00     0.057 A 
ATOM     50  C   UNL A   1      38.309  29.528  28.010  1.00  0.00     0.134 A 
ATOM     51  C   UNL A   1      38.140  28.935  30.322  1.00  0.00     0.134 A 
ATOM     52  F   UNL A   1      39.016  29.679  26.881  1.00  0.00    -0.206 F 
ATOM     53  C   UNL A   1      36.961  29.887  27.997  1.00  0.00     0.040 A 
ATOM     54  C   UNL A   1      36.784  29.263  30.316  1.00  0.00     0.040 A 
ATOM     55  F   UNL A   1      38.674  28.478  31.465  1.00  0.00    -0.206 F 
ATOM     56  C   UNL A   1      36.193  29.748  29.152  1.00  0.00     0.006 A 
ENDBRANCH  28  49
BRANCH  40  57
ATOM     57  C   UNL A   1      44.747  32.551  30.685  1.00  0.00     0.057 A 
ATOM     58  C   UNL A   1      44.928  33.582  29.755  1.00  0.00     0.134 A 
ATOM     59  C   UNL A   1      44.787  32.891  32.043  1.00  0.00     0.134 A 
ATOM     60  F   UNL A   1      44.917  33.321  28.438  1.00  0.00    -0.206 F 
ATOM     61  C   UNL A   1      45.175  34.894  30.161  1.00  0.00     0.040 A 
ATOM     62  C   UNL A   1      45.003  34.205  32.461  1.00  0.00     0.040 A 
ATOM     63  F   UNL A   1      44.612  31.952  32.987  1.00  0.00    -0.206 F 
ATOM     64  C   UNL A   1      45.207  35.209  31.518  1.00  0.00     0.006 A 
ENDBRANCH  40  57
ENDBRANCH  14  15
ENDBRANCH   7   9
ENDBRANCH   4   5
ENDBRANCH   3   4
ENDBRANCH   2   3
ENDBRANCH   1   2
BRANCH   1  65
ATOM     65  C   UNL A   1      34.879  22.627  23.905  1.00  0.00     0.021 C 
BRANCH  65  66
ATOM     66  C   UNL A   1      34.015  23.495  24.815  1.00  0.00     0.116 C 
BRANCH  66  67
ATOM     67  N   UNL A   1      34.343  24.903  24.896  1.00  0.00    -0.356 N 
ATOM     68  C   UNL A   1      33.612  25.837  24.187  1.00  0.00     0.224 C 
ATOM     69  H   UNL A   1      35.094  25.198  25.460  1.00  0.00     0.163 HD
ATOM     70  O   UNL A   1      33.386  25.724  22.985  1.00  0.00    -0.275 OA
BRANCH  68  71
ATOM     71  C   UNL A   1      32.813  26.789  25.048  1.00  0.00     0.098 C 
ATOM     72  C   UNL A   1      32.019  28.034  24.573  1.00  0.00     0.099 C 
ATOM     73  C   UNL A   1      33.292  27.172  26.469  1.00  0.00     0.025 C 
ATOM     74  C   UNL A   1      31.990  28.896  25.882  1.00  0.00     0.025 C 
ATOM     75  C   UNL A   1      34.158  28.405  26.462  1.00  0.00    -0.027 C 
ATOM     76  C   UNL A   1      31.994  27.823  26.980  1.00  0.00     0.017 C 
ATOM     77  C   UNL A   1      33.365  29.444  26.161  1.00  0.00    -0.027 C 
BRANCH  72  78
ATOM     78  C   UNL A   1      32.128  28.943  23.339  1.00  0.00     0.229 C 
ATOM     79  O   UNL A   1      33.208  28.923  22.720  1.00  0.00    -0.274 OA
ATOM     80  N   UNL A   1      31.120  29.573  22.681  1.00  0.00    -0.323 N 
ATOM     81  H   UNL A   1      31.365  29.879  21.778  1.00  0.00     0.170 HD
BRANCH  80  82
ATOM     82  C   UNL A   1      29.806  29.872  23.036  1.00  0.00     0.084 A 
ATOM     83  C   UNL A   1      29.572  31.160  23.540  1.00  0.00     0.030 A 
ATOM     84  C   UNL A   1      28.745  28.974  22.948  1.00  0.00     0.149 A 
ATOM     85  C   UNL A   1      28.269  31.621  23.725  1.00  0.00     0.002 A 
ATOM     86  C   UNL A   1      27.437  29.452  23.094  1.00  0.00     0.049 A 
ATOM     87  C   UNL A   1      27.196  30.778  23.456  1.00  0.00     0.004 A 
BRANCH  84  88
ATOM     88  O   UNL A   1      28.822  27.627  22.770  1.00  0.00    -0.433 OA
BRANCH  88  89
ATOM     89  C   UNL A   1      28.886  26.772  23.913  1.00  0.00     0.542 C 
ATOM     90  F   UNL A   1      27.649  26.374  24.279  1.00  0.00    -0.167 F 
ATOM     91  F   UNL A   1      29.629  25.668  23.653  1.00  0.00    -0.167 F 
ENDBRANCH  88  89
ENDBRANCH  84  88
ENDBRANCH  80  82
ENDBRANCH  72  78
ENDBRANCH  68  71
ENDBRANCH  66  67
ENDBRANCH  65  66
ENDBRANCH   1  65
TORSDOF 17
ENDMDL
MODEL 3
REMARK VINA RESULT:     -11.8      1.550      2.878
REMARK SMILES O=C(NCCCCCCNC(=O)[C@@H]1[C@H](C(=O)Nc2ccccc2OC(F)F)[C@@H]2C=C[C@H]1C2)c1ccc(-c2c3nc(c(-c4c(F)cccc4F)c4ccc([nH]4)c(-c4c(F)cccc4F)c4nc(c(-c5c(F)cccc5F)c5ccc2[nH]5)C=C4)C=C3)cc1
REMARK SMILES IDX 7 1 6 2 5 3 4 4 3 5 1 6 2 7 33 9 34 10 86 11 35 12 85 13
REMARK SMILES IDX 36 14 37 15 38 16 79 17 39 18 84 19 78 20 80 21 40 22 83 23
REMARK SMILES IDX 77 24 76 25 41 27 67 28 50 29 66 30 51 31 54 32 65 33 81 34
REMARK SMILES IDX 52 35 53 36 64 38 82 39 55 40 42 41 43 42 48 43 44 44 45 45
REMARK SMILES IDX 47 46 49 47 46 48 68 49 69 50 74 51 70 52 71 53 73 54 75 55
REMARK SMILES IDX 72 56 56 57 57 58 62 59 58 60 59 61 61 62 63 63 60 64 8 65
REMARK SMILES IDX 9 66 10 67 11 68 12 70 13 71 14 72 31 73 28 74 30 75 32 76
REMARK SMILES IDX 29 77 15 78 16 79 17 80 18 82 19 83 23 84 20 85 22 86 21 87
REMARK SMILES IDX 24 88 25 89 26 90 27 91
REMARK H PARENT 3 8 80 26 54 37 10 69 17 81
REMARK Flexibility Score: inf
ROOT
ATOM      1  C   UNL A   1      31.779  29.189  26.841  1.00  0.00     0.002 C 
ENDROOT
BRANCH   1   2
ATOM      2  C   UNL A   1      31.800  30.399  25.899  1.00  0.00     0.002 C 
BRANCH   2   3
ATOM      3  C   UNL A   1      31.472  31.750  26.534  1.00  0.00     0.021 C 
BRANCH   3   4
ATOM      4  C   UNL A   1      32.638  32.448  27.219  1.00  0.00     0.116 C 
BRANCH   4   5
ATOM      5  N   UNL A   1      32.357  33.833  27.561  1.00  0.00    -0.352 N 
ATOM      6  O   UNL A   1      32.528  35.750  28.749  1.00  0.00    -0.269 OA
ATOM      7  C   UNL A   1      32.975  34.636  28.492  1.00  0.00     0.251 C 
ATOM      8  H   UNL A   1      31.625  34.253  27.058  1.00  0.00     0.163 HD
BRANCH   7   9
ATOM      9  C   UNL A   1      34.163  34.133  29.219  1.00  0.00     0.039 A 
ATOM     10  C   UNL A   1      35.450  34.428  28.769  1.00  0.00     0.014 A 
ATOM     11  C   UNL A   1      33.983  33.318  30.341  1.00  0.00     0.014 A 
ATOM     12  C   UNL A   1      36.540  33.759  29.314  1.00  0.00     0.010 A 
ATOM     13  C   UNL A   1      35.093  32.731  30.957  1.00  0.00     0.010 A 
ATOM     14  C   UNL A   1      36.379  32.904  30.419  1.00  0.00    -0.014 A 
BRANCH  14  15
ATOM     15  C   UNL A   1      37.572  32.234  31.000  1.00  0.00     0.031 A 
ATOM     16  C   UNL A   1      38.082  32.591  32.373  1.00  0.00     0.074 A 
ATOM     17  C   UNL A   1      38.178  31.260  30.292  1.00  0.00     0.049 A 
ATOM     18  N   UNL A   1      39.087  32.077  33.038  1.00  0.00    -0.248 NA
ATOM     19  C   UNL A   1      37.381  33.668  33.088  1.00  0.00     0.031 C 
ATOM     20  C   UNL A   1      37.788  30.829  28.948  1.00  0.00     0.029 A 
ATOM     21  N   UNL A   1      39.230  30.440  30.610  1.00  0.00    -0.354 N 
ATOM     22  C   UNL A   1      39.158  32.785  34.232  1.00  0.00     0.074 A 
ATOM     23  C   UNL A   1      38.109  33.780  34.192  1.00  0.00     0.031 C 
ATOM     24  C   UNL A   1      38.546  29.787  28.582  1.00  0.00     0.029 A 
ATOM     25  C   UNL A   1      39.522  29.520  29.632  1.00  0.00     0.049 A 
ATOM     26  H   UNL A   1      39.728  30.503  31.457  1.00  0.00     0.167 HD
ATOM     27  C   UNL A   1      40.015  32.615  35.268  1.00  0.00     0.037 A 
ATOM     28  C   UNL A   1      40.474  28.572  29.579  1.00  0.00     0.037 A 
ATOM     29  C   UNL A   1      41.045  31.606  35.316  1.00  0.00     0.049 A 
ATOM     30  C   UNL A   1      41.416  28.415  30.736  1.00  0.00     0.074 A 
ATOM     31  C   UNL A   1      41.935  31.330  36.340  1.00  0.00     0.029 A 
ATOM     32  N   UNL A   1      41.324  30.712  34.294  1.00  0.00    -0.354 N 
ATOM     33  N   UNL A   1      41.445  29.068  31.872  1.00  0.00    -0.248 NA
ATOM     34  C   UNL A   1      42.457  27.388  30.602  1.00  0.00     0.031 C 
ATOM     35  C   UNL A   1      42.784  30.300  35.918  1.00  0.00     0.029 A 
ATOM     36  C   UNL A   1      42.387  29.897  34.655  1.00  0.00     0.049 A 
ATOM     37  H   UNL A   1      40.840  30.663  33.438  1.00  0.00     0.167 HD
ATOM     38  C   UNL A   1      42.489  28.512  32.600  1.00  0.00     0.074 A 
ATOM     39  C   UNL A   1      43.054  27.459  31.783  1.00  0.00     0.031 C 
ATOM     40  C   UNL A   1      42.936  28.846  33.836  1.00  0.00     0.037 A 
BRANCH  27  41
ATOM     41  C   UNL A   1      39.896  33.557  36.435  1.00  0.00     0.057 A 
ATOM     42  C   UNL A   1      40.600  34.767  36.492  1.00  0.00     0.134 A 
ATOM     43  C   UNL A   1      39.029  33.266  37.497  1.00  0.00     0.134 A 
ATOM     44  F   UNL A   1      41.455  35.104  35.514  1.00  0.00    -0.206 F 
ATOM     45  C   UNL A   1      40.463  35.641  37.574  1.00  0.00     0.040 A 
ATOM     46  C   UNL A   1      38.865  34.144  38.570  1.00  0.00     0.040 A 
ATOM     47  F   UNL A   1      38.317  32.130  37.504  1.00  0.00    -0.206 F 
ATOM     48  C   UNL A   1      39.589  35.333  38.613  1.00  0.00     0.006 A 
ENDBRANCH  27  41
BRANCH  28  49
ATOM     49  C   UNL A   1      40.577  27.694  28.386  1.00  0.00     0.057 A 
ATOM     50  C   UNL A   1      41.329  28.077  27.269  1.00  0.00     0.134 A 
ATOM     51  C   UNL A   1      39.931  26.453  28.335  1.00  0.00     0.134 A 
ATOM     52  F   UNL A   1      41.957  29.261  27.252  1.00  0.00    -0.206 F 
ATOM     53  C   UNL A   1      41.421  27.265  26.139  1.00  0.00     0.040 A 
ATOM     54  C   UNL A   1      40.038  25.619  27.222  1.00  0.00     0.040 A 
ATOM     55  F   UNL A   1      39.203  26.026  29.377  1.00  0.00    -0.206 F 
ATOM     56  C   UNL A   1      40.779  26.028  26.116  1.00  0.00     0.006 A 
ENDBRANCH  28  49
BRANCH  40  57
ATOM     57  C   UNL A   1      44.060  28.025  34.396  1.00  0.00     0.057 A 
ATOM     58  C   UNL A   1      43.834  26.837  35.104  1.00  0.00     0.134 A 
ATOM     59  C   UNL A   1      45.390  28.424  34.212  1.00  0.00     0.134 A 
ATOM     60  F   UNL A   1      42.583  26.407  35.328  1.00  0.00    -0.206 F 
ATOM     61  C   UNL A   1      44.888  26.095  35.638  1.00  0.00     0.040 A 
ATOM     62  C   UNL A   1      46.454  27.675  34.717  1.00  0.00     0.040 A 
ATOM     63  F   UNL A   1      45.677  29.547  33.536  1.00  0.00    -0.206 F 
ATOM     64  C   UNL A   1      46.203  26.511  35.440  1.00  0.00     0.006 A 
ENDBRANCH  40  57
ENDBRANCH  14  15
ENDBRANCH   7   9
ENDBRANCH   4   5
ENDBRANCH   3   4
ENDBRANCH   2   3
ENDBRANCH   1   2
BRANCH   1  65
ATOM     65  C   UNL A   1      33.126  28.770  27.431  1.00  0.00     0.021 C 
BRANCH  65  66
ATOM     66  C   UNL A   1      34.026  27.963  26.501  1.00  0.00     0.116 C 
BRANCH  66  67
ATOM     67  N   UNL A   1      33.479  26.743  25.942  1.00  0.00    -0.356 N 
ATOM     68  C   UNL A   1      33.605  26.470  24.594  1.00  0.00     0.224 C 
ATOM     69  H   UNL A   1      33.013  26.104  26.528  1.00  0.00     0.163 HD
ATOM     70  O   UNL A   1      33.292  27.280  23.724  1.00  0.00    -0.275 OA
BRANCH  68  71
ATOM     71  C   UNL A   1      34.482  25.280  24.277  1.00  0.00     0.098 C 
ATOM     72  C   UNL A   1      34.286  24.256  23.129  1.00  0.00     0.099 C 
ATOM     73  C   UNL A   1      35.141  24.452  25.406  1.00  0.00     0.025 C 
ATOM     74  C   UNL A   1      35.047  23.009  23.697  1.00  0.00     0.025 C 
ATOM     75  C   UNL A   1      34.276  23.298  25.842  1.00  0.00    -0.027 C 
ATOM     76  C   UNL A   1      36.146  23.657  24.551  1.00  0.00     0.017 C 
ATOM     77  C   UNL A   1      34.263  22.411  24.836  1.00  0.00    -0.027 C 
BRANCH  72  78
ATOM     78  C   UNL A   1      33.061  23.808  22.317  1.00  0.00     0.229 C 
ATOM     79  O   UNL A   1      33.278  23.344  21.182  1.00  0.00    -0.274 OA
ATOM     80  N   UNL A   1      31.794  23.611  22.767  1.00  0.00    -0.323 N 
ATOM     81  H   UNL A   1      31.235  23.076  22.158  1.00  0.00     0.170 HD
BRANCH  80  82
ATOM     82  C   UNL A   1      31.132  24.018  23.923  1.00  0.00     0.084 A 
ATOM     83  C   UNL A   1      31.039  23.073  24.955  1.00  0.00     0.030 A 
ATOM     84  C   UNL A   1      30.546  25.269  24.094  1.00  0.00     0.149 A 
ATOM     85  C   UNL A   1      30.584  23.448  26.219  1.00  0.00     0.002 A 
ATOM     86  C   UNL A   1      30.129  25.655  25.374  1.00  0.00     0.049 A 
ATOM     87  C   UNL A   1      30.172  24.758  26.441  1.00  0.00     0.004 A 
BRANCH  84  88
ATOM     88  O   UNL A   1      30.279  26.190  23.127  1.00  0.00    -0.433 OA
BRANCH  88  89
ATOM     89  C   UNL A   1      29.745  27.462  23.499  1.00  0.00     0.542 C 
ATOM     90  F   UNL A   1      30.392  28.456  22.855  1.00  0.00    -0.167 F 
ATOM     91  F   UNL A   1      28.426  27.544  23.195  1.00  0.00    -0.167 F 
ENDBRANCH  88  89
ENDBRANCH  84  88
ENDBRANCH  80  82
ENDBRANCH  72  78
ENDBRANCH  68  71
ENDBRANCH  66  67
ENDBRANCH  65  66
ENDBRANCH   1  65
TORSDOF 17
ENDMDL
