MODEL 1
REMARK VINA RESULT:     -11.2      0.000      0.000
REMARK SMILES CCN1C(=O)CC[C@H](C(=O)NCCCCCCNC(=O)c2ccc(-c3c4nc(c(-c5c(F)cccc5F)c5ccc([nH]5)c(-c5c(F)cccc5F)c5nc(c(-c6c(F)cccc6F)c6ccc3[nH]6)C=C5)C=C4)cc2)[C@@H]1c1ccc(OC)cc1
REMARK SMILES IDX 14 1 13 2 12 3 11 4 9 5 10 6 8 8 3 9 4 10 75 11 5 12 6 13
REMARK SMILES IDX 7 14 2 15 1 16 76 17 77 18 83 19 78 20 82 21 79 22 80 23
REMARK SMILES IDX 81 24 15 25 16 26 17 27 18 28 19 29 20 31 21 32 22 33 74 34
REMARK SMILES IDX 23 35 73 36 24 37 25 38 26 39 67 40 27 41 72 42 66 43 68 44
REMARK SMILES IDX 28 45 71 46 65 47 64 48 29 50 55 51 38 52 54 53 39 54 42 55
REMARK SMILES IDX 53 56 69 57 40 58 41 59 52 61 70 62 43 63 30 64 31 65 36 66
REMARK SMILES IDX 32 67 33 68 35 69 37 70 34 71 56 72 57 73 62 74 58 75 59 76
REMARK SMILES IDX 61 77 63 78 60 79 44 80 45 81 50 82 46 83 47 84 49 85 51 86
REMARK SMILES IDX 48 87
REMARK H PARENT 11 7 18 30 68 49 42 60
REMARK Flexibility Score: inf
ROOT
ATOM      1  C   UNL A   1      32.755  30.075  27.265  1.00  0.00     0.002 C 
ENDROOT
BRANCH   1   2
ATOM      2  C   UNL A   1      33.090  28.769  26.538  1.00  0.00     0.021 C 
BRANCH   2   3
ATOM      3  C   UNL A   1      32.753  27.514  27.329  1.00  0.00     0.116 C 
BRANCH   3   4
ATOM      4  N   UNL A   1      31.414  27.020  27.080  1.00  0.00    -0.356 N 
ATOM      5  C   UNL A   1      30.959  26.139  26.150  1.00  0.00     0.225 C 
ATOM      6  O   UNL A   1      29.859  25.619  26.363  1.00  0.00    -0.275 OA
ATOM      7  H   UNL A   1      30.723  27.380  27.683  1.00  0.00     0.163 HD
BRANCH   5   8
ATOM      8  C   UNL A   1      31.734  25.769  24.889  1.00  0.00     0.106 C 
ATOM      9  N   UNL A   1      32.593  26.455  22.600  1.00  0.00    -0.335 N 
ATOM     10  C   UNL A   1      32.624  25.127  22.187  1.00  0.00     0.223 C 
ATOM     11  C   UNL A   1      31.962  26.908  23.872  1.00  0.00     0.128 C 
ATOM     12  O   UNL A   1      32.970  24.763  21.064  1.00  0.00    -0.275 OA
ATOM     13  C   UNL A   1      32.341  24.055  23.216  1.00  0.00     0.101 C 
ATOM     14  C   UNL A   1      31.322  24.452  24.255  1.00  0.00     0.026 C 
BRANCH   9  15
ATOM     15  C   UNL A   1      33.296  27.502  21.834  1.00  0.00     0.117 C 
ATOM     16  C   UNL A   1      34.192  28.479  22.581  1.00  0.00     0.027 C 
ENDBRANCH   9  15
BRANCH  11  17
ATOM     17  C   UNL A   1      30.765  27.828  23.625  1.00  0.00    -0.024 A 
ATOM     18  C   UNL A   1      30.841  29.224  23.740  1.00  0.00     0.010 A 
ATOM     19  C   UNL A   1      29.525  27.265  23.263  1.00  0.00     0.010 A 
ATOM     20  C   UNL A   1      29.729  30.025  23.449  1.00  0.00     0.047 A 
ATOM     21  C   UNL A   1      28.419  28.069  22.957  1.00  0.00     0.047 A 
ATOM     22  C   UNL A   1      28.526  29.456  23.023  1.00  0.00     0.118 A 
BRANCH  22  23
ATOM     23  O   UNL A   1      27.544  30.349  22.694  1.00  0.00    -0.497 OA
ATOM     24  C   UNL A   1      27.647  31.648  23.268  1.00  0.00     0.278 C 
ENDBRANCH  22  23
ENDBRANCH  11  17
ENDBRANCH   5   8
ENDBRANCH   3   4
ENDBRANCH   2   3
ENDBRANCH   1   2
BRANCH   1  25
ATOM     25  C   UNL A   1      31.428  30.737  26.869  1.00  0.00     0.002 C 
BRANCH  25  26
ATOM     26  C   UNL A   1      31.476  32.252  26.659  1.00  0.00     0.021 C 
BRANCH  26  27
ATOM     27  C   UNL A   1      32.786  32.918  27.054  1.00  0.00     0.116 C 
BRANCH  27  28
ATOM     28  N   UNL A   1      32.573  34.229  27.641  1.00  0.00    -0.352 N 
ATOM     29  C   UNL A   1      33.150  34.805  28.743  1.00  0.00     0.251 C 
ATOM     30  H   UNL A   1      31.912  34.791  27.176  1.00  0.00     0.163 HD
ATOM     31  O   UNL A   1      32.680  35.841  29.203  1.00  0.00    -0.269 OA
BRANCH  29  32
ATOM     32  C   UNL A   1      34.327  34.183  29.391  1.00  0.00     0.039 A 
ATOM     33  C   UNL A   1      34.117  33.291  30.448  1.00  0.00     0.014 A 
ATOM     34  C   UNL A   1      35.629  34.498  28.994  1.00  0.00     0.014 A 
ATOM     35  C   UNL A   1      35.209  32.684  31.073  1.00  0.00     0.010 A 
ATOM     36  C   UNL A   1      36.712  33.832  29.563  1.00  0.00     0.010 A 
ATOM     37  C   UNL A   1      36.513  32.927  30.616  1.00  0.00    -0.014 A 
BRANCH  37  38
ATOM     38  C   UNL A   1      37.684  32.258  31.237  1.00  0.00     0.031 A 
ATOM     39  C   UNL A   1      38.411  31.166  30.499  1.00  0.00     0.074 A 
ATOM     40  C   UNL A   1      38.055  32.590  32.488  1.00  0.00     0.049 A 
ATOM     41  N   UNL A   1      39.402  30.413  30.903  1.00  0.00    -0.248 NA
ATOM     42  C   UNL A   1      37.942  30.860  29.138  1.00  0.00     0.031 C 
ATOM     43  C   UNL A   1      37.399  33.592  33.329  1.00  0.00     0.029 A 
ATOM     44  N   UNL A   1      39.069  32.108  33.277  1.00  0.00    -0.354 N 
ATOM     45  C   UNL A   1      39.657  29.532  29.859  1.00  0.00     0.074 A 
ATOM     46  C   UNL A   1      38.687  29.812  28.823  1.00  0.00     0.031 C 
ATOM     47  C   UNL A   1      38.040  33.667  34.507  1.00  0.00     0.029 A 
ATOM     48  C   UNL A   1      39.129  32.696  34.518  1.00  0.00     0.049 A 
ATOM     49  H   UNL A   1      39.695  31.408  32.983  1.00  0.00     0.167 HD
ATOM     50  C   UNL A   1      40.625  28.589  29.765  1.00  0.00     0.037 A 
ATOM     51  C   UNL A   1      39.965  32.473  35.548  1.00  0.00     0.037 A 
ATOM     52  C   UNL A   1      41.615  28.342  30.779  1.00  0.00     0.049 A 
ATOM     53  C   UNL A   1      41.046  31.439  35.407  1.00  0.00     0.074 A 
ATOM     54  C   UNL A   1      42.681  27.460  30.746  1.00  0.00     0.029 A 
ATOM     55  N   UNL A   1      41.662  28.982  32.008  1.00  0.00    -0.354 N 
ATOM     56  N   UNL A   1      41.315  30.659  34.390  1.00  0.00    -0.248 NA
ATOM     57  C   UNL A   1      41.945  31.260  36.557  1.00  0.00     0.031 C 
ATOM     58  C   UNL A   1      43.356  27.543  31.969  1.00  0.00     0.029 A 
ATOM     59  C   UNL A   1      42.731  28.504  32.748  1.00  0.00     0.049 A 
ATOM     60  H   UNL A   1      41.030  29.674  32.309  1.00  0.00     0.167 HD
ATOM     61  C   UNL A   1      42.425  29.913  34.765  1.00  0.00     0.074 A 
ATOM     62  C   UNL A   1      42.789  30.347  36.098  1.00  0.00     0.031 C 
ATOM     63  C   UNL A   1      43.081  28.953  34.071  1.00  0.00     0.037 A 
BRANCH  50  64
ATOM     64  C   UNL A   1      40.667  27.762  28.514  1.00  0.00     0.057 A 
ATOM     65  C   UNL A   1      39.964  26.555  28.404  1.00  0.00     0.134 A 
ATOM     66  C   UNL A   1      41.385  28.196  27.391  1.00  0.00     0.134 A 
ATOM     67  F   UNL A   1      39.267  26.077  29.446  1.00  0.00    -0.206 F 
ATOM     68  C   UNL A   1      39.994  25.797  27.232  1.00  0.00     0.040 A 
ATOM     69  C   UNL A   1      41.401  27.459  26.206  1.00  0.00     0.040 A 
ATOM     70  F   UNL A   1      42.074  29.346  27.428  1.00  0.00    -0.206 F 
ATOM     71  C   UNL A   1      40.707  26.253  26.126  1.00  0.00     0.006 A 
ENDBRANCH  50  64
BRANCH  51  72
ATOM     72  C   UNL A   1      39.828  33.259  36.799  1.00  0.00     0.057 A 
ATOM     73  C   UNL A   1      38.937  32.865  37.805  1.00  0.00     0.134 A 
ATOM     74  C   UNL A   1      40.574  34.424  37.018  1.00  0.00     0.134 A 
ATOM     75  F   UNL A   1      38.183  31.768  37.644  1.00  0.00    -0.206 F 
ATOM     76  C   UNL A   1      38.779  33.608  38.974  1.00  0.00     0.040 A 
ATOM     77  C   UNL A   1      40.443  35.165  38.193  1.00  0.00     0.040 A 
ATOM     78  F   UNL A   1      41.449  34.850  36.095  1.00  0.00    -0.206 F 
ATOM     79  C   UNL A   1      39.537  34.761  39.172  1.00  0.00     0.006 A 
ENDBRANCH  51  72
BRANCH  63  80
ATOM     80  C   UNL A   1      44.274  28.329  34.730  1.00  0.00     0.057 A 
ATOM     81  C   UNL A   1      45.549  28.900  34.638  1.00  0.00     0.134 A 
ATOM     82  C   UNL A   1      44.139  27.160  35.489  1.00  0.00     0.134 A 
ATOM     83  F   UNL A   1      45.745  30.011  33.913  1.00  0.00    -0.206 F 
ATOM     84  C   UNL A   1      46.653  28.317  35.262  1.00  0.00     0.040 A 
ATOM     85  C   UNL A   1      45.230  26.582  36.138  1.00  0.00     0.040 A 
ATOM     86  F   UNL A   1      42.941  26.568  35.623  1.00  0.00    -0.206 F 
ATOM     87  C   UNL A   1      46.494  27.158  36.020  1.00  0.00     0.006 A 
ENDBRANCH  63  80
ENDBRANCH  37  38
ENDBRANCH  29  32
ENDBRANCH  27  28
ENDBRANCH  26  27
ENDBRANCH  25  26
ENDBRANCH   1  25
TORSDOF 16
ENDMDL
MODEL 2
REMARK VINA RESULT:     -11.2      0.480      6.238
REMARK SMILES CCN1C(=O)CC[C@H](C(=O)NCCCCCCNC(=O)c2ccc(-c3c4nc(c(-c5c(F)cccc5F)c5ccc([nH]5)c(-c5c(F)cccc5F)c5nc(c(-c6c(F)cccc6F)c6ccc3[nH]6)C=C5)C=C4)cc2)[C@@H]1c1ccc(OC)cc1
REMARK SMILES IDX 14 1 13 2 12 3 11 4 9 5 10 6 8 8 3 9 4 10 75 11 5 12 6 13
REMARK SMILES IDX 7 14 2 15 1 16 76 17 77 18 83 19 78 20 82 21 79 22 80 23
REMARK SMILES IDX 81 24 15 25 16 26 17 27 18 28 19 29 20 31 21 32 22 33 74 34
REMARK SMILES IDX 23 35 73 36 24 37 25 38 26 39 67 40 27 41 72 42 66 43 68 44
REMARK SMILES IDX 28 45 71 46 65 47 64 48 29 50 55 51 38 52 54 53 39 54 42 55
REMARK SMILES IDX 53 56 69 57 40 58 41 59 52 61 70 62 43 63 30 64 31 65 36 66
REMARK SMILES IDX 32 67 33 68 35 69 37 70 34 71 56 72 57 73 62 74 58 75 59 76
REMARK SMILES IDX 61 77 63 78 60 79 44 80 45 81 50 82 46 83 47 84 49 85 51 86
REMARK SMILES IDX 48 87
REMARK H PARENT 11 7 18 30 68 49 42 60
REMARK Flexibility Score: inf
ROOT
ATOM      1  C   UNL A   1      32.771  30.154  27.093  1.00  0.00     0.002 C 
ENDROOT
BRANCH   1   2
ATOM      2  C   UNL A   1      32.988  28.768  26.479  1.00  0.00     0.021 C 
BRANCH   2   3
ATOM      3  C   UNL A   1      32.611  27.616  27.397  1.00  0.00     0.116 C 
BRANCH   3   4
ATOM      4  N   UNL A   1      31.290  27.081  27.137  1.00  0.00    -0.356 N 
ATOM      5  C   UNL A   1      30.875  26.166  26.221  1.00  0.00     0.225 C 
ATOM      6  O   UNL A   1      29.785  25.623  26.426  1.00  0.00    -0.275 OA
ATOM      7  H   UNL A   1      30.578  27.438  27.717  1.00  0.00     0.163 HD
BRANCH   5   8
ATOM      8  C   UNL A   1      31.683  25.786  24.984  1.00  0.00     0.106 C 
ATOM      9  N   UNL A   1      32.611  26.458  22.717  1.00  0.00    -0.335 N 
ATOM     10  C   UNL A   1      32.645  25.128  22.310  1.00  0.00     0.223 C 
ATOM     11  C   UNL A   1      31.948  26.920  23.969  1.00  0.00     0.128 C 
ATOM     12  O   UNL A   1      33.021  24.757  21.199  1.00  0.00    -0.275 OA
ATOM     13  C   UNL A   1      32.326  24.062  23.335  1.00  0.00     0.101 C 
ATOM     14  C   UNL A   1      31.281  24.469  24.342  1.00  0.00     0.026 C 
BRANCH   9  15
ATOM     15  C   UNL A   1      33.343  27.497  21.967  1.00  0.00     0.117 C 
ATOM     16  C   UNL A   1      34.240  28.459  22.734  1.00  0.00     0.027 C 
ENDBRANCH   9  15
BRANCH  11  17
ATOM     17  C   UNL A   1      30.764  27.847  23.684  1.00  0.00    -0.024 A 
ATOM     18  C   UNL A   1      30.863  29.246  23.738  1.00  0.00     0.010 A 
ATOM     19  C   UNL A   1      29.515  27.288  23.350  1.00  0.00     0.010 A 
ATOM     20  C   UNL A   1      29.763  30.050  23.415  1.00  0.00     0.047 A 
ATOM     21  C   UNL A   1      28.421  28.095  23.012  1.00  0.00     0.047 A 
ATOM     22  C   UNL A   1      28.550  29.482  23.017  1.00  0.00     0.118 A 
BRANCH  22  23
ATOM     23  O   UNL A   1      27.581  30.375  22.652  1.00  0.00    -0.497 OA
ATOM     24  C   UNL A   1      27.471  31.555  23.443  1.00  0.00     0.278 C 
ENDBRANCH  22  23
ENDBRANCH  11  17
ENDBRANCH   5   8
ENDBRANCH   3   4
ENDBRANCH   2   3
ENDBRANCH   1   2
BRANCH   1  25
ATOM     25  C   UNL A   1      31.402  30.795  26.825  1.00  0.00     0.002 C 
BRANCH  25  26
ATOM     26  C   UNL A   1      31.391  32.322  26.715  1.00  0.00     0.021 C 
BRANCH  26  27
ATOM     27  C   UNL A   1      32.725  32.999  26.993  1.00  0.00     0.116 C 
BRANCH  27  28
ATOM     28  N   UNL A   1      32.556  34.272  27.673  1.00  0.00    -0.352 N 
ATOM     29  C   UNL A   1      33.173  34.760  28.796  1.00  0.00     0.251 C 
ATOM     30  H   UNL A   1      31.897  34.878  27.263  1.00  0.00     0.163 HD
ATOM     31  O   UNL A   1      32.737  35.771  29.336  1.00  0.00    -0.269 OA
BRANCH  29  32
ATOM     32  C   UNL A   1      34.350  34.070  29.370  1.00  0.00     0.039 A 
ATOM     33  C   UNL A   1      34.139  33.026  30.277  1.00  0.00     0.014 A 
ATOM     34  C   UNL A   1      35.652  34.466  29.056  1.00  0.00     0.014 A 
ATOM     35  C   UNL A   1      35.232  32.352  30.828  1.00  0.00     0.010 A 
ATOM     36  C   UNL A   1      36.738  33.743  29.543  1.00  0.00     0.010 A 
ATOM     37  C   UNL A   1      36.539  32.687  30.444  1.00  0.00    -0.014 A 
BRANCH  37  38
ATOM     38  C   UNL A   1      37.713  31.955  30.984  1.00  0.00     0.031 A 
ATOM     39  C   UNL A   1      38.276  32.319  32.331  1.00  0.00     0.074 A 
ATOM     40  C   UNL A   1      38.308  31.006  30.237  1.00  0.00     0.049 A 
ATOM     41  N   UNL A   1      39.337  31.851  32.938  1.00  0.00    -0.248 NA
ATOM     42  C   UNL A   1      37.571  33.369  33.083  1.00  0.00     0.031 C 
ATOM     43  C   UNL A   1      37.891  30.600  28.894  1.00  0.00     0.029 A 
ATOM     44  N   UNL A   1      39.402  30.220  30.498  1.00  0.00    -0.354 N 
ATOM     45  C   UNL A   1      39.440  32.565  34.126  1.00  0.00     0.074 A 
ATOM     46  C   UNL A   1      38.361  33.528  34.135  1.00  0.00     0.031 C 
ATOM     47  C   UNL A   1      38.705  29.624  28.457  1.00  0.00     0.029 A 
ATOM     48  C   UNL A   1      39.718  29.361  29.473  1.00  0.00     0.049 A 
ATOM     49  H   UNL A   1      39.911  30.265  31.339  1.00  0.00     0.167 HD
ATOM     50  C   UNL A   1      40.338  32.415  35.128  1.00  0.00     0.037 A 
ATOM     51  C   UNL A   1      40.718  28.466  29.364  1.00  0.00     0.037 A 
ATOM     52  C   UNL A   1      41.384  31.427  35.136  1.00  0.00     0.049 A 
ATOM     53  C   UNL A   1      41.686  28.302  30.501  1.00  0.00     0.074 A 
ATOM     54  C   UNL A   1      42.299  31.149  36.137  1.00  0.00     0.029 A 
ATOM     55  N   UNL A   1      41.652  30.553  34.093  1.00  0.00    -0.354 N 
ATOM     56  N   UNL A   1      41.730  28.939  31.645  1.00  0.00    -0.248 NA
ATOM     57  C   UNL A   1      42.739  27.290  30.334  1.00  0.00     0.031 C 
ATOM     58  C   UNL A   1      43.141  30.126  35.687  1.00  0.00     0.029 A 
ATOM     59  C   UNL A   1      42.727  29.744  34.421  1.00  0.00     0.049 A 
ATOM     60  H   UNL A   1      41.152  30.514  33.247  1.00  0.00     0.167 HD
ATOM     61  C   UNL A   1      42.798  28.392  32.344  1.00  0.00     0.074 A 
ATOM     62  C   UNL A   1      43.365  27.359  31.501  1.00  0.00     0.031 C 
ATOM     63  C   UNL A   1      43.271  28.717  33.571  1.00  0.00     0.037 A 
BRANCH  50  64
ATOM     64  C   UNL A   1      40.221  33.337  36.306  1.00  0.00     0.057 A 
ATOM     65  C   UNL A   1      40.953  34.529  36.386  1.00  0.00     0.134 A 
ATOM     66  C   UNL A   1      39.338  33.049  37.355  1.00  0.00     0.134 A 
ATOM     67  F   UNL A   1      41.825  34.857  35.421  1.00  0.00    -0.206 F 
ATOM     68  C   UNL A   1      40.828  35.390  37.477  1.00  0.00     0.040 A 
ATOM     69  C   UNL A   1      39.186  33.916  38.440  1.00  0.00     0.040 A 
ATOM     70  F   UNL A   1      38.603  31.927  37.339  1.00  0.00    -0.206 F 
ATOM     71  C   UNL A   1      39.937  35.088  38.505  1.00  0.00     0.006 A 
ENDBRANCH  50  64
BRANCH  51  72
ATOM     72  C   UNL A   1      40.842  27.637  28.139  1.00  0.00     0.057 A 
ATOM     73  C   UNL A   1      41.566  28.093  27.031  1.00  0.00     0.134 A 
ATOM     74  C   UNL A   1      40.237  26.378  28.042  1.00  0.00     0.134 A 
ATOM     75  F   UNL A   1      42.153  29.298  27.058  1.00  0.00    -0.206 F 
ATOM     76  C   UNL A   1      41.669  27.336  25.864  1.00  0.00     0.040 A 
ATOM     77  C   UNL A   1      40.351  25.600  26.889  1.00  0.00     0.040 A 
ATOM     78  F   UNL A   1      39.536  25.883  29.073  1.00  0.00    -0.206 F 
ATOM     79  C   UNL A   1      41.063  26.082  25.792  1.00  0.00     0.006 A 
ENDBRANCH  51  72
BRANCH  63  80
ATOM     80  C   UNL A   1      44.439  27.929  34.083  1.00  0.00     0.057 A 
ATOM     81  C   UNL A   1      44.269  26.718  34.764  1.00  0.00     0.134 A 
ATOM     82  C   UNL A   1      45.750  28.374  33.867  1.00  0.00     0.134 A 
ATOM     83  F   UNL A   1      43.039  26.246  35.015  1.00  0.00    -0.206 F 
ATOM     84  C   UNL A   1      45.362  25.986  35.229  1.00  0.00     0.040 A 
ATOM     85  C   UNL A   1      46.851  27.639  34.307  1.00  0.00     0.040 A 
ATOM     86  F   UNL A   1      45.981  29.524  33.214  1.00  0.00    -0.206 F 
ATOM     87  C   UNL A   1      46.658  26.443  34.996  1.00  0.00     0.006 A 
ENDBRANCH  63  80
ENDBRANCH  37  38
ENDBRANCH  29  32
ENDBRANCH  27  28
ENDBRANCH  26  27
ENDBRANCH  25  26
ENDBRANCH   1  25
TORSDOF 16
ENDMDL
MODEL 3
REMARK VINA RESULT:     -11.2      4.456      8.957
REMARK SMILES CCN1C(=O)CC[C@H](C(=O)NCCCCCCNC(=O)c2ccc(-c3c4nc(c(-c5c(F)cccc5F)c5ccc([nH]5)c(-c5c(F)cccc5F)c5nc(c(-c6c(F)cccc6F)c6ccc3[nH]6)C=C5)C=C4)cc2)[C@@H]1c1ccc(OC)cc1
REMARK SMILES IDX 14 1 13 2 12 3 11 4 9 5 10 6 8 8 3 9 4 10 75 11 5 12 6 13
REMARK SMILES IDX 7 14 2 15 1 16 76 17 77 18 83 19 78 20 82 21 79 22 80 23
REMARK SMILES IDX 81 24 15 25 16 26 17 27 18 28 19 29 20 31 21 32 22 33 74 34
REMARK SMILES IDX 23 35 73 36 24 37 25 38 26 39 67 40 27 41 72 42 66 43 68 44
REMARK SMILES IDX 28 45 71 46 65 47 64 48 29 50 55 51 38 52 54 53 39 54 42 55
REMARK SMILES IDX 53 56 69 57 40 58 41 59 52 61 70 62 43 63 30 64 31 65 36 66
REMARK SMILES IDX 32 67 33 68 35 69 37 70 34 71 56 72 57 73 62 74 58 75 59 76
REMARK SMILES IDX 61 77 63 78 60 79 44 80 45 81 50 82 46 83 47 84 49 85 51 86
REMARK SMILES IDX 48 87
REMARK H PARENT 11 7 18 30 68 49 42 60
REMARK Flexibility Score: inf
ROOT
ATOM      1  C   UNL A   1      38.826  22.248  26.151  1.00  0.00     0.002 C 
ENDROOT
BRANCH   1   2
ATOM      2  C   UNL A   1      38.136  23.601  26.352  1.00  0.00     0.021 C 
BRANCH   2   3
ATOM      3  C   UNL A   1      36.708  23.652  25.834  1.00  0.00     0.116 C 
BRANCH   3   4
ATOM      4  N   UNL A   1      35.731  23.170  26.789  1.00  0.00    -0.356 N 
ATOM      5  C   UNL A   1      34.703  22.294  26.631  1.00  0.00     0.225 C 
ATOM      6  O   UNL A   1      34.241  21.783  27.657  1.00  0.00    -0.275 OA
ATOM      7  H   UNL A   1      35.827  23.535  27.699  1.00  0.00     0.163 HD
BRANCH   5   8
ATOM      8  C   UNL A   1      34.116  21.918  25.274  1.00  0.00     0.106 C 
ATOM      9  N   UNL A   1      33.001  22.668  23.119  1.00  0.00    -0.335 N 
ATOM     10  C   UNL A   1      32.427  21.412  22.952  1.00  0.00     0.223 C 
ATOM     11  C   UNL A   1      33.701  23.095  24.364  1.00  0.00     0.128 C 
ATOM     12  O   UNL A   1      31.691  21.111  22.012  1.00  0.00    -0.275 OA
ATOM     13  C   UNL A   1      32.832  20.311  23.906  1.00  0.00     0.101 C 
ATOM     14  C   UNL A   1      33.107  20.784  25.311  1.00  0.00     0.026 C 
BRANCH   9  15
ATOM     15  C   UNL A   1      33.046  23.634  22.004  1.00  0.00     0.117 C 
ATOM     16  C   UNL A   1      32.060  24.794  22.001  1.00  0.00     0.027 C 
ENDBRANCH   9  15
BRANCH  11  17
ATOM     17  C   UNL A   1      32.982  24.252  25.060  1.00  0.00    -0.024 A 
ATOM     18  C   UNL A   1      31.681  24.142  25.574  1.00  0.00     0.010 A 
ATOM     19  C   UNL A   1      33.642  25.489  25.201  1.00  0.00     0.010 A 
ATOM     20  C   UNL A   1      31.089  25.216  26.251  1.00  0.00     0.047 A 
ATOM     21  C   UNL A   1      33.054  26.556  25.893  1.00  0.00     0.047 A 
ATOM     22  C   UNL A   1      31.784  26.413  26.445  1.00  0.00     0.118 A 
BRANCH  22  23
ATOM     23  O   UNL A   1      31.127  27.353  27.190  1.00  0.00    -0.497 OA
ATOM     24  C   UNL A   1      31.865  28.520  27.537  1.00  0.00     0.278 C 
ENDBRANCH  22  23
ENDBRANCH  11  17
ENDBRANCH   5   8
ENDBRANCH   3   4
ENDBRANCH   2   3
ENDBRANCH   1   2
BRANCH   1  25
ATOM     25  C   UNL A   1      38.144  21.292  25.163  1.00  0.00     0.002 C 
BRANCH  25  26
ATOM     26  C   UNL A   1      38.722  19.876  25.098  1.00  0.00     0.021 C 
BRANCH  26  27
ATOM     27  C   UNL A   1      39.611  19.488  26.271  1.00  0.00     0.116 C 
BRANCH  27  28
ATOM     28  N   UNL A   1      40.898  18.978  25.831  1.00  0.00    -0.352 N 
ATOM     29  C   UNL A   1      42.104  19.617  25.711  1.00  0.00     0.251 C 
ATOM     30  H   UNL A   1      40.905  18.026  25.581  1.00  0.00     0.163 HD
ATOM     31  O   UNL A   1      43.027  19.067  25.118  1.00  0.00    -0.269 OA
BRANCH  29  32
ATOM     32  C   UNL A   1      42.301  20.971  26.278  1.00  0.00     0.039 A 
ATOM     33  C   UNL A   1      42.205  21.138  27.664  1.00  0.00     0.014 A 
ATOM     34  C   UNL A   1      42.537  22.077  25.458  1.00  0.00     0.014 A 
ATOM     35  C   UNL A   1      42.394  22.403  28.226  1.00  0.00     0.010 A 
ATOM     36  C   UNL A   1      42.804  23.321  26.025  1.00  0.00     0.010 A 
ATOM     37  C   UNL A   1      42.723  23.499  27.414  1.00  0.00    -0.014 A 
BRANCH  37  38
ATOM     38  C   UNL A   1      42.970  24.842  27.995  1.00  0.00     0.031 A 
ATOM     39  C   UNL A   1      44.353  25.229  28.446  1.00  0.00     0.074 A 
ATOM     40  C   UNL A   1      41.939  25.690  28.175  1.00  0.00     0.049 A 
ATOM     41  N   UNL A   1      44.752  26.321  29.046  1.00  0.00    -0.248 NA
ATOM     42  C   UNL A   1      45.423  24.245  28.219  1.00  0.00     0.031 C 
ATOM     43  C   UNL A   1      40.544  25.413  27.831  1.00  0.00     0.029 A 
ATOM     44  N   UNL A   1      41.906  26.956  28.705  1.00  0.00    -0.354 N 
ATOM     45  C   UNL A   1      46.109  26.145  29.290  1.00  0.00     0.074 A 
ATOM     46  C   UNL A   1      46.455  24.823  28.814  1.00  0.00     0.031 C 
ATOM     47  C   UNL A   1      39.794  26.485  28.137  1.00  0.00     0.029 A 
ATOM     48  C   UNL A   1      40.648  27.508  28.730  1.00  0.00     0.049 A 
ATOM     49  H   UNL A   1      42.706  27.423  29.036  1.00  0.00     0.167 HD
ATOM     50  C   UNL A   1      46.990  27.014  29.839  1.00  0.00     0.037 A 
ATOM     51  C   UNL A   1      40.231  28.705  29.185  1.00  0.00     0.037 A 
ATOM     52  C   UNL A   1      46.652  28.344  30.271  1.00  0.00     0.049 A 
ATOM     53  C   UNL A   1      41.234  29.660  29.766  1.00  0.00     0.074 A 
ATOM     54  C   UNL A   1      47.488  29.326  30.773  1.00  0.00     0.029 A 
ATOM     55  N   UNL A   1      45.372  28.880  30.249  1.00  0.00    -0.354 N 
ATOM     56  N   UNL A   1      42.524  29.505  29.930  1.00  0.00    -0.248 NA
ATOM     57  C   UNL A   1      40.722  30.962  30.220  1.00  0.00     0.031 C 
ATOM     58  C   UNL A   1      46.709  30.446  31.084  1.00  0.00     0.029 A 
ATOM     59  C   UNL A   1      45.395  30.174  30.742  1.00  0.00     0.049 A 
ATOM     60  H   UNL A   1      44.569  28.409  29.930  1.00  0.00     0.167 HD
ATOM     61  C   UNL A   1      42.984  30.692  30.483  1.00  0.00     0.074 A 
ATOM     62  C   UNL A   1      41.835  31.566  30.612  1.00  0.00     0.031 C 
ATOM     63  C   UNL A   1      44.242  31.029  30.856  1.00  0.00     0.037 A 
BRANCH  50  64
ATOM     64  C   UNL A   1      48.410  26.556  29.993  1.00  0.00     0.057 A 
ATOM     65  C   UNL A   1      49.377  26.806  29.010  1.00  0.00     0.134 A 
ATOM     66  C   UNL A   1      48.827  25.893  31.155  1.00  0.00     0.134 A 
ATOM     67  F   UNL A   1      49.041  27.426  27.868  1.00  0.00    -0.206 F 
ATOM     68  C   UNL A   1      50.700  26.392  29.165  1.00  0.00     0.040 A 
ATOM     69  C   UNL A   1      50.154  25.496  31.332  1.00  0.00     0.040 A 
ATOM     70  F   UNL A   1      47.953  25.627  32.138  1.00  0.00    -0.206 F 
ATOM     71  C   UNL A   1      51.094  25.741  30.333  1.00  0.00     0.006 A 
ENDBRANCH  50  64
BRANCH  51  72
ATOM     72  C   UNL A   1      38.798  29.078  29.088  1.00  0.00     0.057 A 
ATOM     73  C   UNL A   1      37.956  28.999  30.204  1.00  0.00     0.134 A 
ATOM     74  C   UNL A   1      38.233  29.512  27.883  1.00  0.00     0.134 A 
ATOM     75  F   UNL A   1      38.436  28.573  31.381  1.00  0.00    -0.206 F 
ATOM     76  C   UNL A   1      36.601  29.321  30.122  1.00  0.00     0.040 A 
ATOM     77  C   UNL A   1      36.885  29.859  27.791  1.00  0.00     0.040 A 
ATOM     78  F   UNL A   1      38.989  29.615  26.780  1.00  0.00    -0.206 F 
ATOM     79  C   UNL A   1      36.063  29.757  28.912  1.00  0.00     0.006 A 
ENDBRANCH  51  72
BRANCH  63  80
ATOM     80  C   UNL A   1      44.444  32.407  31.410  1.00  0.00     0.057 A 
ATOM     81  C   UNL A   1      44.366  32.667  32.784  1.00  0.00     0.134 A 
ATOM     82  C   UNL A   1      44.749  33.480  30.563  1.00  0.00     0.134 A 
ATOM     83  F   UNL A   1      44.063  31.684  33.645  1.00  0.00    -0.206 F 
ATOM     84  C   UNL A   1      44.564  33.950  33.293  1.00  0.00     0.040 A 
ATOM     85  C   UNL A   1      44.973  34.763  31.063  1.00  0.00     0.040 A 
ATOM     86  F   UNL A   1      44.846  33.295  29.237  1.00  0.00    -0.206 F 
ATOM     87  C   UNL A   1      44.875  35.002  32.432  1.00  0.00     0.006 A 
ENDBRANCH  63  80
ENDBRANCH  37  38
ENDBRANCH  29  32
ENDBRANCH  27  28
ENDBRANCH  26  27
ENDBRANCH  25  26
ENDBRANCH   1  25
TORSDOF 16
ENDMDL
