MODEL 1
REMARK VINA RESULT:     -12.5      0.000      0.000
REMARK SMILES C[C@H]1Oc2ccccc2C=C1/C=C/C(=O)N[C@H](C(=O)NCCCCCCNC(=O)c1ccc(-c2c3nc(c(-c4c(F)cccc4F)c4ccc([nH]4)c(-c4c(F)cccc4F)c4nc(c(-c5c(F)cccc5F)c5ccc2[nH]5)C=C4)C=C3)cc1)c1ccccc1
REMARK SMILES IDX 23 1 22 2 21 3 20 4 18 5 19 6 17 8 16 9 14 10 15 11 13 13
REMARK SMILES IDX 12 14 11 15 1 16 2 17 3 18 4 19 10 20 5 21 9 22 6 23 8 24
REMARK SMILES IDX 7 25 84 26 85 27 89 28 86 29 88 30 87 31 24 32 25 33 26 34
REMARK SMILES IDX 27 35 28 36 29 38 30 39 31 40 83 41 32 42 82 43 33 44 34 45
REMARK SMILES IDX 35 46 76 47 36 48 81 49 75 50 77 51 37 52 80 53 74 54 73 55
REMARK SMILES IDX 38 57 64 58 47 59 63 60 48 61 51 62 62 63 78 64 49 65 50 66
REMARK SMILES IDX 61 68 79 69 52 70 39 71 40 72 45 73 41 74 42 75 44 76 46 77
REMARK SMILES IDX 43 78 65 79 66 80 71 81 67 82 68 83 70 84 72 85 69 86 53 87
REMARK SMILES IDX 54 88 59 89 55 90 56 91 58 92 60 93 57 94
REMARK H PARENT 20 7 16 12 27 37 77 56 51 67
REMARK Flexibility Score: inf
ROOT
ATOM      1  C   UNL A   1      35.896  21.567  25.409  1.00  0.00     0.002 C 
ENDROOT
BRANCH   1   2
ATOM      2  C   UNL A   1      36.050  22.659  24.341  1.00  0.00     0.021 C 
BRANCH   2   3
ATOM      3  C   UNL A   1      35.929  24.100  24.819  1.00  0.00     0.116 C 
BRANCH   3   4
ATOM      4  N   UNL A   1      34.825  24.450  25.684  1.00  0.00    -0.354 N 
ATOM      5  C   UNL A   1      33.771  25.299  25.423  1.00  0.00     0.247 C 
ATOM      6  O   UNL A   1      32.756  25.080  26.100  1.00  0.00    -0.272 OA
ATOM      7  H   UNL A   1      34.826  24.027  26.572  1.00  0.00     0.163 HD
BRANCH   5   8
ATOM      8  C   UNL A   1      33.844  26.565  24.450  1.00  0.00     0.202 C 
BRANCH   8   9
ATOM      9  N   UNL A   1      33.662  26.410  23.001  1.00  0.00    -0.337 N 
ATOM     10  C   UNL A   1      33.332  25.392  22.172  1.00  0.00     0.244 C 
ATOM     11  O   UNL A   1      33.168  25.657  20.978  1.00  0.00    -0.270 OA
ATOM     12  H   UNL A   1      33.819  27.251  22.515  1.00  0.00     0.164 HD
BRANCH  10  13
ATOM     13  C   UNL A   1      33.261  23.959  22.575  1.00  0.00     0.071 C 
ATOM     14  C   UNL A   1      32.219  23.274  23.069  1.00  0.00     0.013 C 
BRANCH  14  15
ATOM     15  C   UNL A   1      32.227  21.940  23.657  1.00  0.00    -0.007 C 
ATOM     16  C   UNL A   1      30.807  22.209  25.752  1.00  0.00     0.058 C 
ATOM     17  C   UNL A   1      32.195  21.898  25.184  1.00  0.00     0.200 C 
ATOM     18  O   UNL A   1      32.663  20.683  25.799  1.00  0.00    -0.485 OA
ATOM     19  C   UNL A   1      32.629  19.548  25.041  1.00  0.00     0.127 A 
ATOM     20  C   UNL A   1      32.393  20.820  22.941  1.00  0.00     0.019 C 
ATOM     21  C   UNL A   1      32.754  18.343  25.730  1.00  0.00     0.047 A 
ATOM     22  C   UNL A   1      32.522  19.557  23.650  1.00  0.00     0.017 A 
ATOM     23  C   UNL A   1      32.776  17.138  25.029  1.00  0.00     0.004 A 
ATOM     24  C   UNL A   1      32.580  18.348  22.948  1.00  0.00     0.012 A 
ATOM     25  C   UNL A   1      32.701  17.141  23.637  1.00  0.00     0.001 A 
ENDBRANCH  14  15
ENDBRANCH  10  13
ENDBRANCH   8   9
BRANCH   8  26
ATOM     26  C   UNL A   1      33.208  27.875  24.986  1.00  0.00    -0.016 A 
ATOM     27  C   UNL A   1      32.017  28.413  24.455  1.00  0.00     0.006 A 
ATOM     28  C   UNL A   1      33.832  28.620  26.001  1.00  0.00     0.006 A 
ATOM     29  C   UNL A   1      31.421  29.565  24.972  1.00  0.00     0.000 A 
ATOM     30  C   UNL A   1      33.255  29.797  26.500  1.00  0.00     0.000 A 
ATOM     31  C   UNL A   1      32.039  30.256  26.001  1.00  0.00     0.000 A 
ENDBRANCH   8  26
ENDBRANCH   5   8
ENDBRANCH   3   4
ENDBRANCH   2   3
ENDBRANCH   1   2
BRANCH   1  32
ATOM     32  C   UNL A   1      36.233  20.119  25.021  1.00  0.00     0.002 C 
BRANCH  32  33
ATOM     33  C   UNL A   1      37.681  19.817  24.634  1.00  0.00     0.021 C 
BRANCH  33  34
ATOM     34  C   UNL A   1      38.748  20.261  25.627  1.00  0.00     0.116 C 
BRANCH  34  35
ATOM     35  N   UNL A   1      39.871  19.337  25.706  1.00  0.00    -0.352 N 
ATOM     36  C   UNL A   1      41.179  19.538  26.070  1.00  0.00     0.251 C 
ATOM     37  H   UNL A   1      39.654  18.409  25.458  1.00  0.00     0.163 HD
ATOM     38  O   UNL A   1      41.995  18.627  25.920  1.00  0.00    -0.269 OA
BRANCH  36  39
ATOM     39  C   UNL A   1      41.631  20.836  26.618  1.00  0.00     0.039 A 
ATOM     40  C   UNL A   1      41.666  21.067  27.992  1.00  0.00     0.014 A 
ATOM     41  C   UNL A   1      42.060  21.838  25.739  1.00  0.00     0.014 A 
ATOM     42  C   UNL A   1      41.952  22.339  28.475  1.00  0.00     0.010 A 
ATOM     43  C   UNL A   1      42.453  23.087  26.235  1.00  0.00     0.010 A 
ATOM     44  C   UNL A   1      42.360  23.364  27.606  1.00  0.00    -0.014 A 
BRANCH  44  45
ATOM     45  C   UNL A   1      42.700  24.695  28.176  1.00  0.00     0.031 A 
ATOM     46  C   UNL A   1      44.129  25.078  28.462  1.00  0.00     0.074 A 
ATOM     47  C   UNL A   1      41.711  25.591  28.371  1.00  0.00     0.049 A 
ATOM     48  N   UNL A   1      44.606  26.222  28.887  1.00  0.00    -0.248 NA
ATOM     49  C   UNL A   1      45.157  24.047  28.250  1.00  0.00     0.031 C 
ATOM     50  C   UNL A   1      40.285  25.338  28.143  1.00  0.00     0.029 A 
ATOM     51  N   UNL A   1      41.752  26.903  28.770  1.00  0.00    -0.354 N 
ATOM     52  C   UNL A   1      45.980  26.044  29.007  1.00  0.00     0.074 A 
ATOM     53  C   UNL A   1      46.258  24.673  28.642  1.00  0.00     0.031 C 
ATOM     54  C   UNL A   1      39.598  26.472  28.345  1.00  0.00     0.029 A 
ATOM     55  C   UNL A   1      40.520  27.513  28.780  1.00  0.00     0.049 A 
ATOM     56  H   UNL A   1      42.584  27.364  29.025  1.00  0.00     0.167 HD
ATOM     57  C   UNL A   1      46.923  26.945  29.374  1.00  0.00     0.037 A 
ATOM     58  C   UNL A   1      40.169  28.767  29.116  1.00  0.00     0.037 A 
ATOM     59  C   UNL A   1      46.646  28.318  29.720  1.00  0.00     0.049 A 
ATOM     60  C   UNL A   1      41.238  29.727  29.557  1.00  0.00     0.074 A 
ATOM     61  C   UNL A   1      47.540  29.317  30.069  1.00  0.00     0.029 A 
ATOM     62  N   UNL A   1      45.381  28.882  29.770  1.00  0.00    -0.354 N 
ATOM     63  N   UNL A   1      42.536  29.556  29.616  1.00  0.00    -0.248 NA
ATOM     64  C   UNL A   1      40.787  31.059  29.982  1.00  0.00     0.031 C 
ATOM     65  C   UNL A   1      46.811  30.469  30.383  1.00  0.00     0.029 A 
ATOM     66  C   UNL A   1      45.468  30.206  30.171  1.00  0.00     0.049 A 
ATOM     67  H   UNL A   1      44.544  28.412  29.551  1.00  0.00     0.167 HD
ATOM     68  C   UNL A   1      43.057  30.763  30.061  1.00  0.00     0.074 A 
ATOM     69  C   UNL A   1      41.938  31.667  30.219  1.00  0.00     0.031 C 
ATOM     70  C   UNL A   1      44.345  31.094  30.323  1.00  0.00     0.037 A 
BRANCH  57  71
ATOM     71  C   UNL A   1      48.350  26.480  29.439  1.00  0.00     0.057 A 
ATOM     72  C   UNL A   1      48.868  25.935  30.622  1.00  0.00     0.134 A 
ATOM     73  C   UNL A   1      49.231  26.629  28.361  1.00  0.00     0.134 A 
ATOM     74  F   UNL A   1      48.082  25.771  31.698  1.00  0.00    -0.206 F 
ATOM     75  C   UNL A   1      50.209  25.566  30.732  1.00  0.00     0.040 A 
ATOM     76  C   UNL A   1      50.570  26.239  28.449  1.00  0.00     0.040 A 
ATOM     77  F   UNL A   1      48.799  27.134  27.194  1.00  0.00    -0.206 F 
ATOM     78  C   UNL A   1      51.064  25.714  29.642  1.00  0.00     0.006 A 
ENDBRANCH  57  71
BRANCH  58  79
ATOM     79  C   UNL A   1      38.746  29.195  29.083  1.00  0.00     0.057 A 
ATOM     80  C   UNL A   1      38.146  29.638  27.897  1.00  0.00     0.134 A 
ATOM     81  C   UNL A   1      37.931  29.098  30.217  1.00  0.00     0.134 A 
ATOM     82  F   UNL A   1      38.871  29.760  26.776  1.00  0.00    -0.206 F 
ATOM     83  C   UNL A   1      36.790  29.958  27.837  1.00  0.00     0.040 A 
ATOM     84  C   UNL A   1      36.564  29.381  30.164  1.00  0.00     0.040 A 
ATOM     85  F   UNL A   1      38.439  28.663  31.380  1.00  0.00    -0.206 F 
ATOM     86  C   UNL A   1      35.991  29.813  28.970  1.00  0.00     0.006 A 
ENDBRANCH  58  79
BRANCH  70  87
ATOM     87  C   UNL A   1      44.599  32.505  30.769  1.00  0.00     0.057 A 
ATOM     88  C   UNL A   1      44.633  32.827  32.132  1.00  0.00     0.134 A 
ATOM     89  C   UNL A   1      44.838  33.541  29.856  1.00  0.00     0.134 A 
ATOM     90  F   UNL A   1      44.401  31.887  33.061  1.00  0.00    -0.206 F 
ATOM     91  C   UNL A   1      44.908  34.123  32.569  1.00  0.00     0.040 A 
ATOM     92  C   UNL A   1      45.151  34.833  30.282  1.00  0.00     0.040 A 
ATOM     93  F   UNL A   1      44.837  33.299  28.536  1.00  0.00    -0.206 F 
ATOM     94  C   UNL A   1      45.185  35.126  31.644  1.00  0.00     0.006 A 
ENDBRANCH  70  87
ENDBRANCH  44  45
ENDBRANCH  36  39
ENDBRANCH  34  35
ENDBRANCH  33  34
ENDBRANCH  32  33
ENDBRANCH   1  32
TORSDOF 17
ENDMDL
MODEL 2
REMARK VINA RESULT:     -12.3      1.621      4.757
REMARK SMILES C[C@H]1Oc2ccccc2C=C1/C=C/C(=O)N[C@H](C(=O)NCCCCCCNC(=O)c1ccc(-c2c3nc(c(-c4c(F)cccc4F)c4ccc([nH]4)c(-c4c(F)cccc4F)c4nc(c(-c5c(F)cccc5F)c5ccc2[nH]5)C=C4)C=C3)cc1)c1ccccc1
REMARK SMILES IDX 23 1 22 2 21 3 20 4 18 5 19 6 17 8 16 9 14 10 15 11 13 13
REMARK SMILES IDX 12 14 11 15 1 16 2 17 3 18 4 19 10 20 5 21 9 22 6 23 8 24
REMARK SMILES IDX 7 25 84 26 85 27 89 28 86 29 88 30 87 31 24 32 25 33 26 34
REMARK SMILES IDX 27 35 28 36 29 38 30 39 31 40 83 41 32 42 82 43 33 44 34 45
REMARK SMILES IDX 35 46 76 47 36 48 81 49 75 50 77 51 37 52 80 53 74 54 73 55
REMARK SMILES IDX 38 57 64 58 47 59 63 60 48 61 51 62 62 63 78 64 49 65 50 66
REMARK SMILES IDX 61 68 79 69 52 70 39 71 40 72 45 73 41 74 42 75 44 76 46 77
REMARK SMILES IDX 43 78 65 79 66 80 71 81 67 82 68 83 70 84 72 85 69 86 53 87
REMARK SMILES IDX 54 88 59 89 55 90 56 91 58 92 60 93 57 94
REMARK H PARENT 20 7 16 12 27 37 77 56 51 67
REMARK Flexibility Score: inf
ROOT
ATOM      1  C   UNL A   1      36.428  22.116  25.179  1.00  0.00     0.002 C 
ENDROOT
BRANCH   1   2
ATOM      2  C   UNL A   1      35.509  22.866  26.153  1.00  0.00     0.021 C 
BRANCH   2   3
ATOM      3  C   UNL A   1      34.393  22.052  26.797  1.00  0.00     0.116 C 
BRANCH   3   4
ATOM      4  N   UNL A   1      33.028  22.487  26.613  1.00  0.00    -0.354 N 
ATOM      5  C   UNL A   1      32.085  21.999  25.734  1.00  0.00     0.247 C 
ATOM      6  O   UNL A   1      30.911  22.201  26.076  1.00  0.00    -0.272 OA
ATOM      7  H   UNL A   1      32.733  23.228  27.190  1.00  0.00     0.163 HD
BRANCH   5   8
ATOM      8  C   UNL A   1      32.419  21.349  24.312  1.00  0.00     0.202 C 
BRANCH   8   9
ATOM      9  N   UNL A   1      33.355  22.004  23.389  1.00  0.00    -0.337 N 
ATOM     10  C   UNL A   1      33.417  23.204  22.765  1.00  0.00     0.244 C 
ATOM     11  O   UNL A   1      34.436  23.461  22.119  1.00  0.00    -0.270 OA
ATOM     12  H   UNL A   1      34.124  21.430  23.171  1.00  0.00     0.164 HD
BRANCH  10  13
ATOM     13  C   UNL A   1      32.301  24.190  22.711  1.00  0.00     0.071 C 
ATOM     14  C   UNL A   1      32.302  25.483  23.067  1.00  0.00     0.013 C 
BRANCH  14  15
ATOM     15  C   UNL A   1      31.153  26.370  23.212  1.00  0.00    -0.007 C 
ATOM     16  C   UNL A   1      30.230  25.774  25.507  1.00  0.00     0.058 C 
ATOM     17  C   UNL A   1      29.976  25.794  23.997  1.00  0.00     0.200 C 
ATOM     18  O   UNL A   1      28.695  26.410  23.771  1.00  0.00    -0.485 OA
ATOM     19  C   UNL A   1      28.696  27.692  23.300  1.00  0.00     0.127 A 
ATOM     20  C   UNL A   1      31.053  27.553  22.591  1.00  0.00     0.019 C 
ATOM     21  C   UNL A   1      27.493  28.388  23.407  1.00  0.00     0.047 A 
ATOM     22  C   UNL A   1      29.804  28.288  22.699  1.00  0.00     0.017 A 
ATOM     23  C   UNL A   1      27.392  29.686  22.910  1.00  0.00     0.004 A 
ATOM     24  C   UNL A   1      29.688  29.578  22.168  1.00  0.00     0.012 A 
ATOM     25  C   UNL A   1      28.486  30.277  22.279  1.00  0.00     0.001 A 
ENDBRANCH  14  15
ENDBRANCH  10  13
ENDBRANCH   8   9
BRANCH   8  26
ATOM     26  C   UNL A   1      32.547  19.804  24.282  1.00  0.00    -0.016 A 
ATOM     27  C   UNL A   1      32.787  19.038  25.443  1.00  0.00     0.006 A 
ATOM     28  C   UNL A   1      32.485  19.096  23.070  1.00  0.00     0.006 A 
ATOM     29  C   UNL A   1      32.853  17.644  25.420  1.00  0.00     0.000 A 
ATOM     30  C   UNL A   1      32.585  17.698  23.037  1.00  0.00     0.000 A 
ATOM     31  C   UNL A   1      32.747  16.971  24.214  1.00  0.00     0.000 A 
ENDBRANCH   8  26
ENDBRANCH   5   8
ENDBRANCH   3   4
ENDBRANCH   2   3
ENDBRANCH   1   2
BRANCH   1  32
ATOM     32  C   UNL A   1      36.224  20.602  25.008  1.00  0.00     0.002 C 
BRANCH  32  33
ATOM     33  C   UNL A   1      37.478  19.728  24.954  1.00  0.00     0.021 C 
BRANCH  33  34
ATOM     34  C   UNL A   1      38.719  20.292  25.635  1.00  0.00     0.116 C 
BRANCH  34  35
ATOM     35  N   UNL A   1      39.803  19.325  25.732  1.00  0.00    -0.352 N 
ATOM     36  C   UNL A   1      41.129  19.486  26.048  1.00  0.00     0.251 C 
ATOM     37  H   UNL A   1      39.540  18.396  25.538  1.00  0.00     0.163 HD
ATOM     38  O   UNL A   1      41.901  18.534  25.923  1.00  0.00    -0.269 OA
BRANCH  36  39
ATOM     39  C   UNL A   1      41.652  20.790  26.514  1.00  0.00     0.039 A 
ATOM     40  C   UNL A   1      41.808  21.061  27.872  1.00  0.00     0.014 A 
ATOM     41  C   UNL A   1      42.024  21.755  25.571  1.00  0.00     0.014 A 
ATOM     42  C   UNL A   1      42.160  22.340  28.289  1.00  0.00     0.010 A 
ATOM     43  C   UNL A   1      42.483  23.009  25.991  1.00  0.00     0.010 A 
ATOM     44  C   UNL A   1      42.512  23.329  27.357  1.00  0.00    -0.014 A 
BRANCH  44  45
ATOM     45  C   UNL A   1      42.926  24.669  27.853  1.00  0.00     0.031 A 
ATOM     46  C   UNL A   1      44.378  25.074  27.884  1.00  0.00     0.074 A 
ATOM     47  C   UNL A   1      41.973  25.552  28.213  1.00  0.00     0.049 A 
ATOM     48  N   UNL A   1      44.904  26.227  28.216  1.00  0.00    -0.248 NA
ATOM     49  C   UNL A   1      45.368  24.056  27.502  1.00  0.00     0.031 C 
ATOM     50  C   UNL A   1      40.533  25.278  28.237  1.00  0.00     0.029 A 
ATOM     51  N   UNL A   1      42.063  26.867  28.593  1.00  0.00    -0.354 N 
ATOM     52  C   UNL A   1      46.280  26.069  28.096  1.00  0.00     0.074 A 
ATOM     53  C   UNL A   1      46.511  24.700  27.694  1.00  0.00     0.031 C 
ATOM     54  C   UNL A   1      39.874  26.403  28.550  1.00  0.00     0.029 A 
ATOM     55  C   UNL A   1      40.843  27.460  28.814  1.00  0.00     0.049 A 
ATOM     56  H   UNL A   1      42.919  27.342  28.698  1.00  0.00     0.167 HD
ATOM     57  C   UNL A   1      47.259  26.986  28.290  1.00  0.00     0.037 A 
ATOM     58  C   UNL A   1      40.537  28.712  29.201  1.00  0.00     0.037 A 
ATOM     59  C   UNL A   1      47.026  28.357  28.673  1.00  0.00     0.049 A 
ATOM     60  C   UNL A   1      41.651  29.689  29.446  1.00  0.00     0.074 A 
ATOM     61  C   UNL A   1      47.951  29.371  28.857  1.00  0.00     0.029 A 
ATOM     62  N   UNL A   1      45.780  28.903  28.939  1.00  0.00    -0.354 N 
ATOM     63  N   UNL A   1      42.942  29.536  29.279  1.00  0.00    -0.248 NA
ATOM     64  C   UNL A   1      41.261  31.017  29.936  1.00  0.00     0.031 C 
ATOM     65  C   UNL A   1      47.271  30.515  29.288  1.00  0.00     0.029 A 
ATOM     66  C   UNL A   1      45.916  30.231  29.313  1.00  0.00     0.049 A 
ATOM     67  H   UNL A   1      44.925  28.420  28.871  1.00  0.00     0.167 HD
ATOM     68  C   UNL A   1      43.514  30.754  29.621  1.00  0.00     0.074 A 
ATOM     69  C   UNL A   1      42.426  31.643  29.967  1.00  0.00     0.031 C 
ATOM     70  C   UNL A   1      44.823  31.105  29.655  1.00  0.00     0.037 A 
BRANCH  57  71
ATOM     71  C   UNL A   1      48.683  26.542  28.108  1.00  0.00     0.057 A 
ATOM     72  C   UNL A   1      49.251  26.482  26.828  1.00  0.00     0.134 A 
ATOM     73  C   UNL A   1      49.471  26.111  29.182  1.00  0.00     0.134 A 
ATOM     74  F   UNL A   1      48.549  26.871  25.752  1.00  0.00    -0.206 F 
ATOM     75  C   UNL A   1      50.545  26.000  26.623  1.00  0.00     0.040 A 
ATOM     76  C   UNL A   1      50.777  25.652  28.994  1.00  0.00     0.040 A 
ATOM     77  F   UNL A   1      48.993  26.152  30.436  1.00  0.00    -0.206 F 
ATOM     78  C   UNL A   1      51.314  25.587  27.709  1.00  0.00     0.006 A 
ENDBRANCH  57  71
BRANCH  58  79
ATOM     79  C   UNL A   1      39.122  29.119  29.413  1.00  0.00     0.057 A 
ATOM     80  C   UNL A   1      38.331  29.582  28.354  1.00  0.00     0.134 A 
ATOM     81  C   UNL A   1      38.506  28.983  30.663  1.00  0.00     0.134 A 
ATOM     82  F   UNL A   1      38.860  29.742  27.133  1.00  0.00    -0.206 F 
ATOM     83  C   UNL A   1      36.981  29.884  28.527  1.00  0.00     0.040 A 
ATOM     84  C   UNL A   1      37.147  29.247  30.843  1.00  0.00     0.040 A 
ATOM     85  F   UNL A   1      39.204  28.527  31.715  1.00  0.00    -0.206 F 
ATOM     86  C   UNL A   1      36.381  29.699  29.771  1.00  0.00     0.006 A 
ENDBRANCH  58  79
BRANCH  70  87
ATOM     87  C   UNL A   1      45.130  32.523  30.044  1.00  0.00     0.057 A 
ATOM     88  C   UNL A   1      45.154  33.537  29.079  1.00  0.00     0.134 A 
ATOM     89  C   UNL A   1      45.373  32.891  31.374  1.00  0.00     0.134 A 
ATOM     90  F   UNL A   1      44.941  33.254  27.785  1.00  0.00    -0.206 F 
ATOM     91  C   UNL A   1      45.396  34.867  29.424  1.00  0.00     0.040 A 
ATOM     92  C   UNL A   1      45.579  34.223  31.737  1.00  0.00     0.040 A 
ATOM     93  F   UNL A   1      45.348  31.971  32.351  1.00  0.00    -0.206 F 
ATOM     94  C   UNL A   1      45.593  35.215  30.758  1.00  0.00     0.006 A 
ENDBRANCH  70  87
ENDBRANCH  44  45
ENDBRANCH  36  39
ENDBRANCH  34  35
ENDBRANCH  33  34
ENDBRANCH  32  33
ENDBRANCH   1  32
TORSDOF 17
ENDMDL
MODEL 3
REMARK VINA RESULT:     -12.3      1.015      4.722
REMARK SMILES C[C@H]1Oc2ccccc2C=C1/C=C/C(=O)N[C@H](C(=O)NCCCCCCNC(=O)c1ccc(-c2c3nc(c(-c4c(F)cccc4F)c4ccc([nH]4)c(-c4c(F)cccc4F)c4nc(c(-c5c(F)cccc5F)c5ccc2[nH]5)C=C4)C=C3)cc1)c1ccccc1
REMARK SMILES IDX 23 1 22 2 21 3 20 4 18 5 19 6 17 8 16 9 14 10 15 11 13 13
REMARK SMILES IDX 12 14 11 15 1 16 2 17 3 18 4 19 10 20 5 21 9 22 6 23 8 24
REMARK SMILES IDX 7 25 84 26 85 27 89 28 86 29 88 30 87 31 24 32 25 33 26 34
REMARK SMILES IDX 27 35 28 36 29 38 30 39 31 40 83 41 32 42 82 43 33 44 34 45
REMARK SMILES IDX 35 46 76 47 36 48 81 49 75 50 77 51 37 52 80 53 74 54 73 55
REMARK SMILES IDX 38 57 64 58 47 59 63 60 48 61 51 62 62 63 78 64 49 65 50 66
REMARK SMILES IDX 61 68 79 69 52 70 39 71 40 72 45 73 41 74 42 75 44 76 46 77
REMARK SMILES IDX 43 78 65 79 66 80 71 81 67 82 68 83 70 84 72 85 69 86 53 87
REMARK SMILES IDX 54 88 59 89 55 90 56 91 58 92 60 93 57 94
REMARK H PARENT 20 7 16 12 27 37 77 56 51 67
REMARK Flexibility Score: inf
ROOT
ATOM      1  C   UNL A   1      36.304  21.745  24.784  1.00  0.00     0.002 C 
ENDROOT
BRANCH   1   2
ATOM      2  C   UNL A   1      35.580  22.568  25.858  1.00  0.00     0.021 C 
BRANCH   2   3
ATOM      3  C   UNL A   1      34.454  21.867  26.607  1.00  0.00     0.116 C 
BRANCH   3   4
ATOM      4  N   UNL A   1      33.111  22.384  26.476  1.00  0.00    -0.354 N 
ATOM      5  C   UNL A   1      32.106  21.952  25.638  1.00  0.00     0.247 C 
ATOM      6  O   UNL A   1      30.961  22.226  26.025  1.00  0.00    -0.272 OA
ATOM      7  H   UNL A   1      32.885  23.142  27.061  1.00  0.00     0.163 HD
BRANCH   5   8
ATOM      8  C   UNL A   1      32.343  21.280  24.207  1.00  0.00     0.202 C 
BRANCH   8   9
ATOM      9  N   UNL A   1      33.134  21.966  23.177  1.00  0.00    -0.337 N 
ATOM     10  C   UNL A   1      33.475  23.250  22.916  1.00  0.00     0.244 C 
ATOM     11  O   UNL A   1      34.264  23.456  21.990  1.00  0.00    -0.270 OA
ATOM     12  H   UNL A   1      33.506  21.339  22.516  1.00  0.00     0.164 HD
BRANCH  10  13
ATOM     13  C   UNL A   1      32.883  24.439  23.593  1.00  0.00     0.071 C 
ATOM     14  C   UNL A   1      32.949  25.730  23.236  1.00  0.00     0.013 C 
BRANCH  14  15
ATOM     15  C   UNL A   1      32.553  26.893  24.020  1.00  0.00    -0.007 C 
ATOM     16  C   UNL A   1      30.011  26.771  24.018  1.00  0.00     0.058 C 
ATOM     17  C   UNL A   1      31.249  27.562  23.586  1.00  0.00     0.200 C 
ATOM     18  O   UNL A   1      31.066  28.929  23.996  1.00  0.00    -0.485 OA
ATOM     19  C   UNL A   1      31.770  29.352  25.087  1.00  0.00     0.127 A 
ATOM     20  C   UNL A   1      33.327  27.443  24.965  1.00  0.00     0.019 C 
ATOM     21  C   UNL A   1      31.342  30.542  25.673  1.00  0.00     0.047 A 
ATOM     22  C   UNL A   1      32.887  28.683  25.585  1.00  0.00     0.017 A 
ATOM     23  C   UNL A   1      32.032  31.070  26.763  1.00  0.00     0.004 A 
ATOM     24  C   UNL A   1      33.599  29.235  26.656  1.00  0.00     0.012 A 
ATOM     25  C   UNL A   1      33.168  30.423  27.247  1.00  0.00     0.001 A 
ENDBRANCH  14  15
ENDBRANCH  10  13
ENDBRANCH   8   9
BRANCH   8  26
ATOM     26  C   UNL A   1      32.577  19.746  24.204  1.00  0.00    -0.016 A 
ATOM     27  C   UNL A   1      32.573  18.980  23.019  1.00  0.00     0.006 A 
ATOM     28  C   UNL A   1      32.749  19.038  25.405  1.00  0.00     0.006 A 
ATOM     29  C   UNL A   1      32.832  17.608  23.015  1.00  0.00     0.000 A 
ATOM     30  C   UNL A   1      32.974  17.654  25.408  1.00  0.00     0.000 A 
ATOM     31  C   UNL A   1      33.038  16.944  24.213  1.00  0.00     0.000 A 
ENDBRANCH   8  26
ENDBRANCH   5   8
ENDBRANCH   3   4
ENDBRANCH   2   3
ENDBRANCH   1   2
BRANCH   1  32
ATOM     32  C   UNL A   1      36.379  20.220  24.966  1.00  0.00     0.002 C 
BRANCH  32  33
ATOM     33  C   UNL A   1      37.745  19.559  24.772  1.00  0.00     0.021 C 
BRANCH  33  34
ATOM     34  C   UNL A   1      38.879  20.096  25.635  1.00  0.00     0.116 C 
BRANCH  34  35
ATOM     35  N   UNL A   1      40.008  19.181  25.724  1.00  0.00    -0.352 N 
ATOM     36  C   UNL A   1      41.318  19.397  26.072  1.00  0.00     0.251 C 
ATOM     37  H   UNL A   1      39.795  18.246  25.497  1.00  0.00     0.163 HD
ATOM     38  O   UNL A   1      42.138  18.488  25.934  1.00  0.00    -0.269 OA
BRANCH  36  39
ATOM     39  C   UNL A   1      41.767  20.708  26.589  1.00  0.00     0.039 A 
ATOM     40  C   UNL A   1      41.888  20.943  27.958  1.00  0.00     0.014 A 
ATOM     41  C   UNL A   1      42.105  21.722  25.683  1.00  0.00     0.014 A 
ATOM     42  C   UNL A   1      42.168  22.223  28.421  1.00  0.00     0.010 A 
ATOM     43  C   UNL A   1      42.493  22.983  26.152  1.00  0.00     0.010 A 
ATOM     44  C   UNL A   1      42.484  23.259  27.527  1.00  0.00    -0.014 A 
BRANCH  44  45
ATOM     45  C   UNL A   1      42.822  24.601  28.073  1.00  0.00     0.031 A 
ATOM     46  C   UNL A   1      44.255  25.021  28.276  1.00  0.00     0.074 A 
ATOM     47  C   UNL A   1      41.823  25.472  28.323  1.00  0.00     0.049 A 
ATOM     48  N   UNL A   1      44.726  26.179  28.671  1.00  0.00    -0.248 NA
ATOM     49  C   UNL A   1      45.295  24.016  28.008  1.00  0.00     0.031 C 
ATOM     50  C   UNL A   1      40.394  25.181  28.178  1.00  0.00     0.029 A 
ATOM     51  N   UNL A   1      41.853  26.785  28.715  1.00  0.00    -0.354 N 
ATOM     52  C   UNL A   1      46.108  26.037  28.711  1.00  0.00     0.074 A 
ATOM     53  C   UNL A   1      46.401  24.672  28.334  1.00  0.00     0.031 C 
ATOM     54  C   UNL A   1      39.690  26.298  28.416  1.00  0.00     0.029 A 
ATOM     55  C   UNL A   1      40.609  27.364  28.795  1.00  0.00     0.049 A 
ATOM     56  H   UNL A   1      42.686  27.269  28.922  1.00  0.00     0.167 HD
ATOM     57  C   UNL A   1      47.047  26.963  29.022  1.00  0.00     0.037 A 
ATOM     58  C   UNL A   1      40.245  28.610  29.148  1.00  0.00     0.037 A 
ATOM     59  C   UNL A   1      46.755  28.329  29.380  1.00  0.00     0.049 A 
ATOM     60  C   UNL A   1      41.312  29.598  29.525  1.00  0.00     0.074 A 
ATOM     61  C   UNL A   1      47.641  29.352  29.675  1.00  0.00     0.029 A 
ATOM     62  N   UNL A   1      45.481  28.861  29.501  1.00  0.00    -0.354 N 
ATOM     63  N   UNL A   1      42.615  29.460  29.509  1.00  0.00    -0.248 NA
ATOM     64  C   UNL A   1      40.852  30.920  29.972  1.00  0.00     0.031 C 
ATOM     65  C   UNL A   1      46.902  30.486  30.027  1.00  0.00     0.029 A 
ATOM     66  C   UNL A   1      45.557  30.188  29.893  1.00  0.00     0.049 A 
ATOM     67  H   UNL A   1      44.645  28.368  29.331  1.00  0.00     0.167 HD
ATOM     68  C   UNL A   1      43.129  30.683  29.920  1.00  0.00     0.074 A 
ATOM     69  C   UNL A   1      41.998  31.558  30.140  1.00  0.00     0.031 C 
ATOM     70  C   UNL A   1      44.421  31.048  30.108  1.00  0.00     0.037 A 
BRANCH  57  71
ATOM     71  C   UNL A   1      48.488  26.535  29.006  1.00  0.00     0.057 A 
ATOM     72  C   UNL A   1      49.079  25.982  30.150  1.00  0.00     0.134 A 
ATOM     73  C   UNL A   1      49.308  26.728  27.888  1.00  0.00     0.134 A 
ATOM     74  F   UNL A   1      48.353  25.778  31.260  1.00  0.00    -0.206 F 
ATOM     75  C   UNL A   1      50.433  25.647  30.186  1.00  0.00     0.040 A 
ATOM     76  C   UNL A   1      50.659  26.372  27.901  1.00  0.00     0.040 A 
ATOM     77  F   UNL A   1      48.805  27.242  26.754  1.00  0.00    -0.206 F 
ATOM     78  C   UNL A   1      51.227  25.838  29.057  1.00  0.00     0.006 A 
ENDBRANCH  57  71
BRANCH  58  79
ATOM     79  C   UNL A   1      38.811  29.000  29.196  1.00  0.00     0.057 A 
ATOM     80  C   UNL A   1      38.067  28.891  30.377  1.00  0.00     0.134 A 
ATOM     81  C   UNL A   1      38.173  29.562  28.083  1.00  0.00     0.134 A 
ATOM     82  F   UNL A   1      38.615  28.356  31.477  1.00  0.00    -0.206 F 
ATOM     83  C   UNL A   1      36.747  29.336  30.453  1.00  0.00     0.040 A 
ATOM     84  C   UNL A   1      36.864  30.043  28.155  1.00  0.00     0.040 A 
ATOM     85  F   UNL A   1      38.836  29.710  26.927  1.00  0.00    -0.206 F 
ATOM     86  C   UNL A   1      36.147  29.929  29.345  1.00  0.00     0.006 A 
ENDBRANCH  58  79
BRANCH  70  87
ATOM     87  C   UNL A   1      44.664  32.467  30.535  1.00  0.00     0.057 A 
ATOM     88  C   UNL A   1      44.771  32.794  31.893  1.00  0.00     0.134 A 
ATOM     89  C   UNL A   1      44.820  33.506  29.607  1.00  0.00     0.134 A 
ATOM     90  F   UNL A   1      44.621  31.851  32.836  1.00  0.00    -0.206 F 
ATOM     91  C   UNL A   1      45.038  34.098  32.311  1.00  0.00     0.040 A 
ATOM     92  C   UNL A   1      45.124  34.806  30.012  1.00  0.00     0.040 A 
ATOM     93  F   UNL A   1      44.746  33.259  28.290  1.00  0.00    -0.206 F 
ATOM     94  C   UNL A   1      45.231  35.105  31.369  1.00  0.00     0.006 A 
ENDBRANCH  70  87
ENDBRANCH  44  45
ENDBRANCH  36  39
ENDBRANCH  34  35
ENDBRANCH  33  34
ENDBRANCH  32  33
ENDBRANCH   1  32
TORSDOF 17
ENDMDL
