MODEL 1
REMARK VINA RESULT:     -11.5      0.000      0.000
REMARK SMILES CC1(C)[C@H](C(=O)Nc2ccccc2C(N)=O)[C@@H]1C(=O)NCCCCCCNC(=O)c1ccc(-c2c3nc(c(-c4c(F)cccc4F)c4ccc([nH]4)c(-c4c(F)cccc4F)c4nc(c(-c5c(F)cccc5F)c5ccc2[nH]5)C=C4)C=C3)cc1
REMARK SMILES IDX 23 1 22 2 21 3 20 4 18 5 19 6 17 8 1 9 2 10 3 11 4 12 5 13
REMARK SMILES IDX 6 14 7 15 8 17 9 18 13 19 10 20 12 21 11 22 14 23 15 24
REMARK SMILES IDX 16 25 24 28 25 29 26 30 27 31 28 32 29 34 30 35 31 36 83 37
REMARK SMILES IDX 32 38 82 39 33 40 34 41 35 42 76 43 36 44 81 45 75 46 77 47
REMARK SMILES IDX 37 48 80 49 74 50 73 51 38 53 64 54 47 55 63 56 48 57 51 58
REMARK SMILES IDX 62 59 78 60 49 61 50 62 61 64 79 65 52 66 39 67 40 68 45 69
REMARK SMILES IDX 41 70 42 71 44 72 46 73 43 74 65 75 66 76 71 77 67 78 68 79
REMARK SMILES IDX 70 80 72 81 69 82 53 83 54 84 59 85 55 86 56 87 58 88 60 89
REMARK SMILES IDX 57 90
REMARK H PARENT 20 7 7 16 15 26 15 27 27 33 77 52 51 63
REMARK Flexibility Score: inf
ROOT
ATOM      1  C   UNL A   1      35.343  19.042  24.660  1.00  0.00     0.002 C 
ENDROOT
BRANCH   1   2
ATOM      2  C   UNL A   1      33.841  19.346  24.564  1.00  0.00     0.021 C 
BRANCH   2   3
ATOM      3  C   UNL A   1      33.357  20.455  25.487  1.00  0.00     0.116 C 
BRANCH   3   4
ATOM      4  N   UNL A   1      32.432  21.329  24.811  1.00  0.00    -0.356 N 
ATOM      5  C   UNL A   1      32.657  22.570  24.300  1.00  0.00     0.224 C 
ATOM      6  O   UNL A   1      31.687  23.269  24.023  1.00  0.00    -0.275 OA
ATOM      7  H   UNL A   1      31.517  20.982  24.704  1.00  0.00     0.163 HD
BRANCH   5   8
ATOM      8  C   UNL A   1      34.047  23.091  24.131  1.00  0.00     0.098 C 
ATOM      9  C   UNL A   1      36.126  23.677  25.632  1.00  0.00     0.013 C 
ATOM     10  C   UNL A   1      34.653  23.889  25.300  1.00  0.00    -0.011 C 
ATOM     11  C   UNL A   1      33.827  23.964  26.553  1.00  0.00     0.013 C 
ATOM     12  C   UNL A   1      34.444  24.553  23.955  1.00  0.00     0.098 C 
BRANCH  12  13
ATOM     13  C   UNL A   1      33.550  25.471  23.209  1.00  0.00     0.228 C 
ATOM     14  O   UNL A   1      33.481  25.279  21.989  1.00  0.00    -0.274 OA
ATOM     15  N   UNL A   1      32.680  26.394  23.706  1.00  0.00    -0.325 N 
ATOM     16  H   UNL A   1      32.050  26.748  23.037  1.00  0.00     0.169 HD
BRANCH  15  17
ATOM     17  C   UNL A   1      32.510  26.932  24.974  1.00  0.00     0.053 A 
ATOM     18  C   UNL A   1      33.633  27.603  25.481  1.00  0.00     0.027 A 
ATOM     19  C   UNL A   1      31.344  26.825  25.744  1.00  0.00     0.063 A 
ATOM     20  C   UNL A   1      33.554  28.306  26.676  1.00  0.00     0.002 A 
ATOM     21  C   UNL A   1      31.281  27.524  26.962  1.00  0.00     0.016 A 
ATOM     22  C   UNL A   1      32.367  28.291  27.403  1.00  0.00     0.001 A 
BRANCH  19  23
ATOM     23  C   UNL A   1      30.234  25.914  25.337  1.00  0.00     0.250 C 
ATOM     24  N   UNL A   1      29.913  24.882  26.174  1.00  0.00    -0.366 N 
ATOM     25  O   UNL A   1      29.614  26.061  24.292  1.00  0.00    -0.269 OA
ATOM     26  H   UNL A   1      30.408  24.759  27.016  1.00  0.00     0.159 HD
ATOM     27  H   UNL A   1      29.187  24.262  25.934  1.00  0.00     0.159 HD
ENDBRANCH  19  23
ENDBRANCH  15  17
ENDBRANCH  12  13
ENDBRANCH   5   8
ENDBRANCH   3   4
ENDBRANCH   2   3
ENDBRANCH   1   2
BRANCH   1  28
ATOM     28  C   UNL A   1      36.246  20.220  25.041  1.00  0.00     0.002 C 
BRANCH  28  29
ATOM     29  C   UNL A   1      37.712  20.092  24.628  1.00  0.00     0.021 C 
BRANCH  29  30
ATOM     30  C   UNL A   1      38.717  20.314  25.750  1.00  0.00     0.116 C 
BRANCH  30  31
ATOM     31  N   UNL A   1      39.773  19.317  25.765  1.00  0.00    -0.352 N 
ATOM     32  C   UNL A   1      41.097  19.472  26.088  1.00  0.00     0.251 C 
ATOM     33  H   UNL A   1      39.502  18.407  25.507  1.00  0.00     0.163 HD
ATOM     34  O   UNL A   1      41.891  18.552  25.915  1.00  0.00    -0.269 OA
BRANCH  32  35
ATOM     35  C   UNL A   1      41.568  20.768  26.617  1.00  0.00     0.039 A 
ATOM     36  C   UNL A   1      42.202  21.657  25.748  1.00  0.00     0.014 A 
ATOM     37  C   UNL A   1      41.358  21.115  27.955  1.00  0.00     0.014 A 
ATOM     38  C   UNL A   1      42.573  22.921  26.207  1.00  0.00     0.010 A 
ATOM     39  C   UNL A   1      41.654  22.402  28.389  1.00  0.00     0.010 A 
ATOM     40  C   UNL A   1      42.268  23.317  27.520  1.00  0.00    -0.014 A 
BRANCH  40  41
ATOM     41  C   UNL A   1      42.584  24.685  28.002  1.00  0.00     0.031 A 
ATOM     42  C   UNL A   1      43.995  25.049  28.370  1.00  0.00     0.074 A 
ATOM     43  C   UNL A   1      41.589  25.579  28.165  1.00  0.00     0.049 A 
ATOM     44  N   UNL A   1      44.458  26.169  28.866  1.00  0.00    -0.248 NA
ATOM     45  C   UNL A   1      45.018  24.008  28.178  1.00  0.00     0.031 C 
ATOM     46  C   UNL A   1      40.173  25.330  27.887  1.00  0.00     0.029 A 
ATOM     47  N   UNL A   1      41.616  26.875  28.615  1.00  0.00    -0.354 N 
ATOM     48  C   UNL A   1      45.819  25.962  29.056  1.00  0.00     0.074 A 
ATOM     49  C   UNL A   1      46.096  24.594  28.678  1.00  0.00     0.031 C 
ATOM     50  C   UNL A   1      39.473  26.445  28.148  1.00  0.00     0.029 A 
ATOM     51  C   UNL A   1      40.379  27.471  28.652  1.00  0.00     0.049 A 
ATOM     52  H   UNL A   1      42.444  27.334  28.886  1.00  0.00     0.167 HD
ATOM     53  C   UNL A   1      46.755  26.842  29.484  1.00  0.00     0.037 A 
ATOM     54  C   UNL A   1      40.016  28.703  29.057  1.00  0.00     0.037 A 
ATOM     55  C   UNL A   1      46.476  28.207  29.845  1.00  0.00     0.049 A 
ATOM     56  C   UNL A   1      41.072  29.653  29.552  1.00  0.00     0.074 A 
ATOM     57  C   UNL A   1      47.363  29.193  30.238  1.00  0.00     0.029 A 
ATOM     58  N   UNL A   1      45.211  28.775  29.864  1.00  0.00    -0.354 N 
ATOM     59  N   UNL A   1      42.366  29.469  29.659  1.00  0.00    -0.248 NA
ATOM     60  C   UNL A   1      40.618  30.983  29.978  1.00  0.00     0.031 C 
ATOM     61  C   UNL A   1      46.629  30.342  30.547  1.00  0.00     0.029 A 
ATOM     62  C   UNL A   1      45.291  30.092  30.289  1.00  0.00     0.049 A 
ATOM     63  H   UNL A   1      44.379  28.312  29.612  1.00  0.00     0.167 HD
ATOM     64  C   UNL A   1      42.883  30.666  30.135  1.00  0.00     0.074 A 
ATOM     65  C   UNL A   1      41.764  31.575  30.282  1.00  0.00     0.031 C 
ATOM     66  C   UNL A   1      44.169  30.986  30.424  1.00  0.00     0.037 A 
BRANCH  53  67
ATOM     67  C   UNL A   1      48.170  26.350  29.584  1.00  0.00     0.057 A 
ATOM     68  C   UNL A   1      48.668  25.757  30.754  1.00  0.00     0.134 A 
ATOM     69  C   UNL A   1      49.041  26.443  28.490  1.00  0.00     0.134 A 
ATOM     70  F   UNL A   1      47.892  25.647  31.843  1.00  0.00    -0.206 F 
ATOM     71  C   UNL A   1      49.986  25.304  30.841  1.00  0.00     0.040 A 
ATOM     72  C   UNL A   1      50.351  25.965  28.556  1.00  0.00     0.040 A 
ATOM     73  F   UNL A   1      48.630  26.991  27.338  1.00  0.00    -0.206 F 
ATOM     74  C   UNL A   1      50.829  25.401  29.737  1.00  0.00     0.006 A 
ENDBRANCH  53  67
BRANCH  54  75
ATOM     75  C   UNL A   1      38.591  29.117  28.995  1.00  0.00     0.057 A 
ATOM     76  C   UNL A   1      37.755  28.999  30.111  1.00  0.00     0.134 A 
ATOM     77  C   UNL A   1      38.029  29.633  27.820  1.00  0.00     0.134 A 
ATOM     78  F   UNL A   1      38.231  28.495  31.260  1.00  0.00    -0.206 F 
ATOM     79  C   UNL A   1      36.407  29.359  30.058  1.00  0.00     0.040 A 
ATOM     80  C   UNL A   1      36.691  30.023  27.761  1.00  0.00     0.040 A 
ATOM     81  F   UNL A   1      38.778  29.779  26.718  1.00  0.00    -0.206 F 
ATOM     82  C   UNL A   1      35.873  29.878  28.880  1.00  0.00     0.006 A 
ENDBRANCH  54  75
BRANCH  66  83
ATOM     83  C   UNL A   1      44.442  32.387  30.891  1.00  0.00     0.057 A 
ATOM     84  C   UNL A   1      44.478  32.723  32.250  1.00  0.00     0.134 A 
ATOM     85  C   UNL A   1      44.715  33.403  29.966  1.00  0.00     0.134 A 
ATOM     86  F   UNL A   1      44.212  31.800  33.186  1.00  0.00    -0.206 F 
ATOM     87  C   UNL A   1      44.752  34.025  32.671  1.00  0.00     0.040 A 
ATOM     88  C   UNL A   1      45.021  34.701  30.376  1.00  0.00     0.040 A 
ATOM     89  F   UNL A   1      44.707  33.147  28.649  1.00  0.00    -0.206 F 
ATOM     90  C   UNL A   1      45.033  35.016  31.733  1.00  0.00     0.006 A 
ENDBRANCH  66  83
ENDBRANCH  40  41
ENDBRANCH  32  35
ENDBRANCH  30  31
ENDBRANCH  29  30
ENDBRANCH  28  29
ENDBRANCH   1  28
TORSDOF 16
ENDMDL
MODEL 2
REMARK VINA RESULT:     -11.2      0.946      1.660
REMARK SMILES CC1(C)[C@H](C(=O)Nc2ccccc2C(N)=O)[C@@H]1C(=O)NCCCCCCNC(=O)c1ccc(-c2c3nc(c(-c4c(F)cccc4F)c4ccc([nH]4)c(-c4c(F)cccc4F)c4nc(c(-c5c(F)cccc5F)c5ccc2[nH]5)C=C4)C=C3)cc1
REMARK SMILES IDX 23 1 22 2 21 3 20 4 18 5 19 6 17 8 1 9 2 10 3 11 4 12 5 13
REMARK SMILES IDX 6 14 7 15 8 17 9 18 13 19 10 20 12 21 11 22 14 23 15 24
REMARK SMILES IDX 16 25 24 28 25 29 26 30 27 31 28 32 29 34 30 35 31 36 83 37
REMARK SMILES IDX 32 38 82 39 33 40 34 41 35 42 76 43 36 44 81 45 75 46 77 47
REMARK SMILES IDX 37 48 80 49 74 50 73 51 38 53 64 54 47 55 63 56 48 57 51 58
REMARK SMILES IDX 62 59 78 60 49 61 50 62 61 64 79 65 52 66 39 67 40 68 45 69
REMARK SMILES IDX 41 70 42 71 44 72 46 73 43 74 65 75 66 76 71 77 67 78 68 79
REMARK SMILES IDX 70 80 72 81 69 82 53 83 54 84 59 85 55 86 56 87 58 88 60 89
REMARK SMILES IDX 57 90
REMARK H PARENT 20 7 7 16 15 26 15 27 27 33 77 52 51 63
REMARK Flexibility Score: inf
ROOT
ATOM      1  C   UNL A   1      36.555  22.194  24.747  1.00  0.00     0.002 C 
ENDROOT
BRANCH   1   2
ATOM      2  C   UNL A   1      35.693  22.682  23.573  1.00  0.00     0.021 C 
BRANCH   2   3
ATOM      3  C   UNL A   1      35.357  24.167  23.605  1.00  0.00     0.116 C 
BRANCH   3   4
ATOM      4  N   UNL A   1      33.954  24.390  23.365  1.00  0.00    -0.356 N 
ATOM      5  C   UNL A   1      32.926  24.353  24.255  1.00  0.00     0.224 C 
ATOM      6  O   UNL A   1      31.781  24.282  23.817  1.00  0.00    -0.275 OA
ATOM      7  H   UNL A   1      33.708  24.596  22.435  1.00  0.00     0.163 HD
BRANCH   5   8
ATOM      8  C   UNL A   1      33.182  24.343  25.727  1.00  0.00     0.098 C 
ATOM      9  C   UNL A   1      34.049  22.673  27.563  1.00  0.00     0.013 C 
ATOM     10  C   UNL A   1      33.046  22.999  26.463  1.00  0.00    -0.011 C 
ATOM     11  C   UNL A   1      32.783  21.794  25.604  1.00  0.00     0.013 C 
ATOM     12  C   UNL A   1      32.137  24.156  26.821  1.00  0.00     0.098 C 
BRANCH  12  13
ATOM     13  C   UNL A   1      30.770  24.697  26.629  1.00  0.00     0.228 C 
ATOM     14  O   UNL A   1      29.846  23.892  26.793  1.00  0.00    -0.274 OA
ATOM     15  N   UNL A   1      30.390  25.994  26.450  1.00  0.00    -0.325 N 
ATOM     16  H   UNL A   1      29.422  26.141  26.541  1.00  0.00     0.169 HD
BRANCH  15  17
ATOM     17  C   UNL A   1      31.106  27.147  26.162  1.00  0.00     0.053 A 
ATOM     18  C   UNL A   1      31.716  27.751  27.271  1.00  0.00     0.027 A 
ATOM     19  C   UNL A   1      31.227  27.723  24.889  1.00  0.00     0.063 A 
ATOM     20  C   UNL A   1      32.576  28.829  27.104  1.00  0.00     0.002 A 
ATOM     21  C   UNL A   1      32.084  28.827  24.734  1.00  0.00     0.016 A 
ATOM     22  C   UNL A   1      32.783  29.349  25.830  1.00  0.00     0.001 A 
BRANCH  19  23
ATOM     23  C   UNL A   1      30.393  27.247  23.747  1.00  0.00     0.250 C 
ATOM     24  N   UNL A   1      30.984  27.155  22.517  1.00  0.00    -0.366 N 
ATOM     25  O   UNL A   1      29.214  26.944  23.876  1.00  0.00    -0.269 OA
ATOM     26  H   UNL A   1      31.932  27.398  22.408  1.00  0.00     0.159 HD
ATOM     27  H   UNL A   1      30.461  26.846  21.743  1.00  0.00     0.159 HD
ENDBRANCH  19  23
ENDBRANCH  15  17
ENDBRANCH  12  13
ENDBRANCH   5   8
ENDBRANCH   3   4
ENDBRANCH   2   3
ENDBRANCH   1   2
BRANCH   1  28
ATOM     28  C   UNL A   1      36.469  20.699  25.070  1.00  0.00     0.002 C 
BRANCH  28  29
ATOM     29  C   UNL A   1      37.755  19.900  24.859  1.00  0.00     0.021 C 
BRANCH  29  30
ATOM     30  C   UNL A   1      38.923  20.318  25.742  1.00  0.00     0.116 C 
BRANCH  30  31
ATOM     31  N   UNL A   1      39.997  19.341  25.753  1.00  0.00    -0.352 N 
ATOM     32  C   UNL A   1      41.317  19.519  26.080  1.00  0.00     0.251 C 
ATOM     33  H   UNL A   1      39.743  18.428  25.489  1.00  0.00     0.163 HD
ATOM     34  O   UNL A   1      42.129  18.616  25.903  1.00  0.00    -0.269 OA
BRANCH  32  35
ATOM     35  C   UNL A   1      41.762  20.821  26.618  1.00  0.00     0.039 A 
ATOM     36  C   UNL A   1      42.306  21.759  25.739  1.00  0.00     0.014 A 
ATOM     37  C   UNL A   1      41.616  21.123  27.975  1.00  0.00     0.014 A 
ATOM     38  C   UNL A   1      42.649  23.026  26.212  1.00  0.00     0.010 A 
ATOM     39  C   UNL A   1      41.882  22.411  28.427  1.00  0.00     0.010 A 
ATOM     40  C   UNL A   1      42.405  23.375  27.551  1.00  0.00    -0.014 A 
BRANCH  40  41
ATOM     41  C   UNL A   1      42.690  24.741  28.052  1.00  0.00     0.031 A 
ATOM     42  C   UNL A   1      44.084  25.119  28.467  1.00  0.00     0.074 A 
ATOM     43  C   UNL A   1      41.680  25.623  28.192  1.00  0.00     0.049 A 
ATOM     44  N   UNL A   1      44.518  26.240  28.986  1.00  0.00    -0.248 NA
ATOM     45  C   UNL A   1      45.124  24.091  28.300  1.00  0.00     0.031 C 
ATOM     46  C   UNL A   1      40.276  25.361  27.868  1.00  0.00     0.029 A 
ATOM     47  N   UNL A   1      41.678  26.915  28.652  1.00  0.00    -0.354 N 
ATOM     48  C   UNL A   1      45.875  26.047  29.216  1.00  0.00     0.074 A 
ATOM     49  C   UNL A   1      46.179  24.685  28.837  1.00  0.00     0.031 C 
ATOM     50  C   UNL A   1      39.555  26.465  28.114  1.00  0.00     0.029 A 
ATOM     51  C   UNL A   1      40.433  27.497  28.654  1.00  0.00     0.049 A 
ATOM     52  H   UNL A   1      42.492  27.382  28.952  1.00  0.00     0.167 HD
ATOM     53  C   UNL A   1      46.787  26.934  29.680  1.00  0.00     0.037 A 
ATOM     54  C   UNL A   1      40.043  28.722  29.057  1.00  0.00     0.037 A 
ATOM     55  C   UNL A   1      46.481  28.293  30.042  1.00  0.00     0.049 A 
ATOM     56  C   UNL A   1      41.072  29.680  29.592  1.00  0.00     0.074 A 
ATOM     57  C   UNL A   1      47.344  29.286  30.470  1.00  0.00     0.029 A 
ATOM     58  N   UNL A   1      45.209  28.847  30.027  1.00  0.00    -0.354 N 
ATOM     59  N   UNL A   1      42.365  29.510  29.738  1.00  0.00    -0.248 NA
ATOM     60  C   UNL A   1      40.590  31.002  30.013  1.00  0.00     0.031 C 
ATOM     61  C   UNL A   1      46.587  30.424  30.765  1.00  0.00     0.029 A 
ATOM     62  C   UNL A   1      45.261  30.161  30.463  1.00  0.00     0.049 A 
ATOM     63  H   UNL A   1      44.391  28.376  29.745  1.00  0.00     0.167 HD
ATOM     64  C   UNL A   1      42.852  30.709  30.239  1.00  0.00     0.074 A 
ATOM     65  C   UNL A   1      41.719  31.604  30.357  1.00  0.00     0.031 C 
ATOM     66  C   UNL A   1      44.125  31.041  30.570  1.00  0.00     0.037 A 
BRANCH  53  67
ATOM     67  C   UNL A   1      48.204  26.458  29.821  1.00  0.00     0.057 A 
ATOM     68  C   UNL A   1      48.660  25.819  30.984  1.00  0.00     0.134 A 
ATOM     69  C   UNL A   1      49.120  26.612  28.772  1.00  0.00     0.134 A 
ATOM     70  F   UNL A   1      47.839  25.650  32.032  1.00  0.00    -0.206 F 
ATOM     71  C   UNL A   1      49.980  25.381  31.109  1.00  0.00     0.040 A 
ATOM     72  C   UNL A   1      50.433  26.149  28.874  1.00  0.00     0.040 A 
ATOM     73  F   UNL A   1      48.751  27.207  27.628  1.00  0.00    -0.206 F 
ATOM     74  C   UNL A   1      50.868  25.540  30.049  1.00  0.00     0.006 A 
ENDBRANCH  53  67
BRANCH  54  75
ATOM     75  C   UNL A   1      38.617  29.120  28.953  1.00  0.00     0.057 A 
ATOM     76  C   UNL A   1      37.761  29.037  30.058  1.00  0.00     0.134 A 
ATOM     77  C   UNL A   1      38.072  29.587  27.750  1.00  0.00     0.134 A 
ATOM     78  F   UNL A   1      38.219  28.580  31.233  1.00  0.00    -0.206 F 
ATOM     79  C   UNL A   1      36.411  29.382  29.967  1.00  0.00     0.040 A 
ATOM     80  C   UNL A   1      36.732  29.962  27.652  1.00  0.00     0.040 A 
ATOM     81  F   UNL A   1      38.840  29.699  26.657  1.00  0.00    -0.206 F 
ATOM     82  C   UNL A   1      35.894  29.851  28.761  1.00  0.00     0.006 A 
ENDBRANCH  54  75
BRANCH  66  83
ATOM     83  C   UNL A   1      44.367  32.441  31.055  1.00  0.00     0.057 A 
ATOM     84  C   UNL A   1      44.351  32.769  32.418  1.00  0.00     0.134 A 
ATOM     85  C   UNL A   1      44.663  33.467  30.148  1.00  0.00     0.134 A 
ATOM     86  F   UNL A   1      44.061  31.836  33.337  1.00  0.00    -0.206 F 
ATOM     87  C   UNL A   1      44.597  34.070  32.857  1.00  0.00     0.040 A 
ATOM     88  C   UNL A   1      44.941  34.765  30.577  1.00  0.00     0.040 A 
ATOM     89  F   UNL A   1      44.704  33.220  28.829  1.00  0.00    -0.206 F 
ATOM     90  C   UNL A   1      44.901  35.071  31.936  1.00  0.00     0.006 A 
ENDBRANCH  66  83
ENDBRANCH  40  41
ENDBRANCH  32  35
ENDBRANCH  30  31
ENDBRANCH  29  30
ENDBRANCH  28  29
ENDBRANCH   1  28
TORSDOF 16
ENDMDL
MODEL 3
REMARK VINA RESULT:     -11.2      0.978      6.333
REMARK SMILES CC1(C)[C@H](C(=O)Nc2ccccc2C(N)=O)[C@@H]1C(=O)NCCCCCCNC(=O)c1ccc(-c2c3nc(c(-c4c(F)cccc4F)c4ccc([nH]4)c(-c4c(F)cccc4F)c4nc(c(-c5c(F)cccc5F)c5ccc2[nH]5)C=C4)C=C3)cc1
REMARK SMILES IDX 23 1 22 2 21 3 20 4 18 5 19 6 17 8 1 9 2 10 3 11 4 12 5 13
REMARK SMILES IDX 6 14 7 15 8 17 9 18 13 19 10 20 12 21 11 22 14 23 15 24
REMARK SMILES IDX 16 25 24 28 25 29 26 30 27 31 28 32 29 34 30 35 31 36 83 37
REMARK SMILES IDX 32 38 82 39 33 40 34 41 35 42 76 43 36 44 81 45 75 46 77 47
REMARK SMILES IDX 37 48 80 49 74 50 73 51 38 53 64 54 47 55 63 56 48 57 51 58
REMARK SMILES IDX 62 59 78 60 49 61 50 62 61 64 79 65 52 66 39 67 40 68 45 69
REMARK SMILES IDX 41 70 42 71 44 72 46 73 43 74 65 75 66 76 71 77 67 78 68 79
REMARK SMILES IDX 70 80 72 81 69 82 53 83 54 84 59 85 55 86 56 87 58 88 60 89
REMARK SMILES IDX 57 90
REMARK H PARENT 20 7 7 16 15 26 15 27 27 33 77 52 51 63
REMARK Flexibility Score: inf
ROOT
ATOM      1  C   UNL A   1      34.726  20.338  25.015  1.00  0.00     0.002 C 
ENDROOT
BRANCH   1   2
ATOM      2  C   UNL A   1      33.583  20.528  26.022  1.00  0.00     0.021 C 
BRANCH   2   3
ATOM      3  C   UNL A   1      33.785  21.673  27.005  1.00  0.00     0.116 C 
BRANCH   3   4
ATOM      4  N   UNL A   1      32.580  22.449  27.156  1.00  0.00    -0.356 N 
ATOM      5  C   UNL A   1      32.036  23.346  26.289  1.00  0.00     0.224 C 
ATOM      6  O   UNL A   1      31.175  24.112  26.712  1.00  0.00    -0.275 OA
ATOM      7  H   UNL A   1      32.086  22.312  27.996  1.00  0.00     0.163 HD
BRANCH   5   8
ATOM      8  C   UNL A   1      32.510  23.434  24.875  1.00  0.00     0.098 C 
ATOM      9  C   UNL A   1      34.709  24.049  23.571  1.00  0.00     0.013 C 
ATOM     10  C   UNL A   1      33.622  24.450  24.562  1.00  0.00    -0.011 C 
ATOM     11  C   UNL A   1      34.212  25.176  25.738  1.00  0.00     0.013 C 
ATOM     12  C   UNL A   1      32.261  24.591  23.913  1.00  0.00     0.098 C 
BRANCH  12  13
ATOM     13  C   UNL A   1      30.983  25.340  23.983  1.00  0.00     0.228 C 
ATOM     14  O   UNL A   1      29.995  24.761  23.516  1.00  0.00    -0.274 OA
ATOM     15  N   UNL A   1      30.723  26.512  24.630  1.00  0.00    -0.325 N 
ATOM     16  H   UNL A   1      29.764  26.720  24.705  1.00  0.00     0.169 HD
BRANCH  15  17
ATOM     17  C   UNL A   1      31.550  27.468  25.202  1.00  0.00     0.053 A 
ATOM     18  C   UNL A   1      31.424  27.595  26.593  1.00  0.00     0.027 A 
ATOM     19  C   UNL A   1      32.441  28.288  24.496  1.00  0.00     0.063 A 
ATOM     20  C   UNL A   1      32.289  28.414  27.308  1.00  0.00     0.002 A 
ATOM     21  C   UNL A   1      33.300  29.127  25.227  1.00  0.00     0.016 A 
ATOM     22  C   UNL A   1      33.247  29.158  26.627  1.00  0.00     0.001 A 
BRANCH  19  23
ATOM     23  C   UNL A   1      32.416  28.347  23.005  1.00  0.00     0.250 C 
ATOM     24  N   UNL A   1      31.665  29.325  22.415  1.00  0.00    -0.366 N 
ATOM     25  O   UNL A   1      33.037  27.556  22.305  1.00  0.00    -0.269 OA
ATOM     26  H   UNL A   1      31.163  29.963  22.972  1.00  0.00     0.159 HD
ATOM     27  H   UNL A   1      31.625  29.391  21.434  1.00  0.00     0.159 HD
ENDBRANCH  19  23
ENDBRANCH  15  17
ENDBRANCH  12  13
ENDBRANCH   5   8
ENDBRANCH   3   4
ENDBRANCH   2   3
ENDBRANCH   1   2
BRANCH   1  28
ATOM     28  C   UNL A   1      36.027  21.088  25.324  1.00  0.00     0.002 C 
BRANCH  28  29
ATOM     29  C   UNL A   1      37.311  20.412  24.843  1.00  0.00     0.021 C 
BRANCH  29  30
ATOM     30  C   UNL A   1      38.556  20.746  25.654  1.00  0.00     0.116 C 
BRANCH  30  31
ATOM     31  N   UNL A   1      39.535  19.674  25.649  1.00  0.00    -0.352 N 
ATOM     32  C   UNL A   1      40.861  19.719  25.996  1.00  0.00     0.251 C 
ATOM     33  H   UNL A   1      39.201  18.796  25.357  1.00  0.00     0.163 HD
ATOM     34  O   UNL A   1      41.587  18.750  25.804  1.00  0.00    -0.269 OA
BRANCH  32  35
ATOM     35  C   UNL A   1      41.417  20.959  26.575  1.00  0.00     0.039 A 
ATOM     36  C   UNL A   1      41.955  21.918  25.716  1.00  0.00     0.014 A 
ATOM     37  C   UNL A   1      41.381  21.186  27.954  1.00  0.00     0.014 A 
ATOM     38  C   UNL A   1      42.403  23.134  26.235  1.00  0.00     0.010 A 
ATOM     39  C   UNL A   1      41.752  22.427  28.460  1.00  0.00     0.010 A 
ATOM     40  C   UNL A   1      42.271  23.412  27.606  1.00  0.00    -0.014 A 
BRANCH  40  41
ATOM     41  C   UNL A   1      42.668  24.728  28.163  1.00  0.00     0.031 A 
ATOM     42  C   UNL A   1      41.638  25.803  28.371  1.00  0.00     0.074 A 
ATOM     43  C   UNL A   1      43.967  24.975  28.424  1.00  0.00     0.049 A 
ATOM     44  N   UNL A   1      41.799  27.033  28.788  1.00  0.00    -0.248 NA
ATOM     45  C   UNL A   1      40.246  25.456  28.043  1.00  0.00     0.031 C 
ATOM     46  C   UNL A   1      45.066  24.030  28.221  1.00  0.00     0.029 A 
ATOM     47  N   UNL A   1      44.583  26.102  28.909  1.00  0.00    -0.354 N 
ATOM     48  C   UNL A   1      40.534  27.608  28.761  1.00  0.00     0.074 A 
ATOM     49  C   UNL A   1      39.628  26.612  28.231  1.00  0.00     0.031 C 
ATOM     50  C   UNL A   1      46.217  24.607  28.602  1.00  0.00     0.029 A 
ATOM     51  C   UNL A   1      45.945  25.974  29.033  1.00  0.00     0.049 A 
ATOM     52  H   UNL A   1      44.095  26.924  29.144  1.00  0.00     0.167 HD
ATOM     53  C   UNL A   1      40.159  28.845  29.163  1.00  0.00     0.037 A 
ATOM     54  C   UNL A   1      46.872  26.862  29.441  1.00  0.00     0.037 A 
ATOM     55  C   UNL A   1      41.063  29.827  29.702  1.00  0.00     0.049 A 
ATOM     56  C   UNL A   1      46.433  28.239  29.858  1.00  0.00     0.074 A 
ATOM     57  C   UNL A   1      40.774  31.089  30.189  1.00  0.00     0.029 A 
ATOM     58  N   UNL A   1      42.435  29.658  29.817  1.00  0.00    -0.354 N 
ATOM     59  N   UNL A   1      45.224  28.747  29.895  1.00  0.00    -0.248 NA
ATOM     60  C   UNL A   1      47.486  29.165  30.295  1.00  0.00     0.031 C 
ATOM     61  C   UNL A   1      41.977  31.705  30.549  1.00  0.00     0.029 A 
ATOM     62  C   UNL A   1      43.010  30.805  30.343  1.00  0.00     0.049 A 
ATOM     63  H   UNL A   1      42.928  28.844  29.564  1.00  0.00     0.167 HD
ATOM     64  C   UNL A   1      45.368  30.037  30.386  1.00  0.00     0.074 A 
ATOM     65  C   UNL A   1      46.780  30.230  30.647  1.00  0.00     0.031 C 
ATOM     66  C   UNL A   1      44.416  30.979  30.603  1.00  0.00     0.037 A 
BRANCH  53  67
ATOM     67  C   UNL A   1      38.707  29.205  29.032  1.00  0.00     0.057 A 
ATOM     68  C   UNL A   1      38.155  29.631  27.816  1.00  0.00     0.134 A 
ATOM     69  C   UNL A   1      37.841  29.096  30.128  1.00  0.00     0.134 A 
ATOM     70  F   UNL A   1      38.930  29.769  26.729  1.00  0.00    -0.206 F 
ATOM     71  C   UNL A   1      36.804  29.966  27.703  1.00  0.00     0.040 A 
ATOM     72  C   UNL A   1      36.482  29.398  30.019  1.00  0.00     0.040 A 
ATOM     73  F   UNL A   1      38.299  28.687  31.321  1.00  0.00    -0.206 F 
ATOM     74  C   UNL A   1      35.963  29.842  28.805  1.00  0.00     0.006 A 
ENDBRANCH  53  67
BRANCH  54  75
ATOM     75  C   UNL A   1      48.304  26.474  29.491  1.00  0.00     0.057 A 
ATOM     76  C   UNL A   1      48.856  25.893  30.638  1.00  0.00     0.134 A 
ATOM     77  C   UNL A   1      49.158  26.681  28.400  1.00  0.00     0.134 A 
ATOM     78  F   UNL A   1      48.093  25.686  31.723  1.00  0.00    -0.206 F 
ATOM     79  C   UNL A   1      50.207  25.549  30.709  1.00  0.00     0.040 A 
ATOM     80  C   UNL A   1      50.504  26.318  28.446  1.00  0.00     0.040 A 
ATOM     81  F   UNL A   1      48.690  27.227  27.269  1.00  0.00    -0.206 F 
ATOM     82  C   UNL A   1      51.034  25.757  29.607  1.00  0.00     0.006 A 
ENDBRANCH  54  75
BRANCH  66  83
ATOM     83  C   UNL A   1      44.864  32.289  31.185  1.00  0.00     0.057 A 
ATOM     84  C   UNL A   1      45.273  33.359  30.379  1.00  0.00     0.134 A 
ATOM     85  C   UNL A   1      44.843  32.495  32.571  1.00  0.00     0.134 A 
ATOM     86  F   UNL A   1      45.329  33.223  29.046  1.00  0.00    -0.206 F 
ATOM     87  C   UNL A   1      45.668  34.578  30.932  1.00  0.00     0.040 A 
ATOM     88  C   UNL A   1      45.206  33.719  33.134  1.00  0.00     0.040 A 
ATOM     89  F   UNL A   1      44.452  31.514  33.400  1.00  0.00    -0.206 F 
ATOM     90  C   UNL A   1      45.627  34.763  32.313  1.00  0.00     0.006 A 
ENDBRANCH  66  83
ENDBRANCH  40  41
ENDBRANCH  32  35
ENDBRANCH  30  31
ENDBRANCH  29  30
ENDBRANCH  28  29
ENDBRANCH   1  28
TORSDOF 16
ENDMDL
