MODEL 1
REMARK VINA RESULT:     -11.8      0.000      0.000
REMARK SMILES C[C@@]1(CN2C(=O)c3ccc(C(=O)NCCCCCCNC(=O)c4ccc(-c5c6nc(c(-c7c(F)cccc7F)c7ccc([nH]7)c(-c7c(F)cccc7F)c7nc(c(-c8c(F)cccc8F)c8ccc5[nH]8)C=C7)C=C6)cc4)cc3C2=O)CCCO1
REMARK SMILES IDX 16 1 15 2 14 3 13 4 11 5 12 6 10 8 4 9 5 10 79 11 6 12 7 13
REMARK SMILES IDX 78 14 80 15 8 16 77 17 9 18 3 19 2 20 1 21 81 22 84 23 82 24
REMARK SMILES IDX 83 25 17 26 18 27 19 28 20 29 21 30 22 32 23 33 24 34 76 35
REMARK SMILES IDX 25 36 75 37 26 38 27 39 28 40 69 41 29 42 74 43 68 44 70 45
REMARK SMILES IDX 30 46 73 47 67 48 66 49 31 51 57 52 40 53 56 54 41 55 44 56
REMARK SMILES IDX 55 57 71 58 42 59 43 60 54 62 72 63 45 64 32 65 33 66 38 67
REMARK SMILES IDX 34 68 35 69 37 70 39 71 36 72 58 73 59 74 64 75 60 76 61 77
REMARK SMILES IDX 63 78 65 79 62 80 46 81 47 82 52 83 48 84 49 85 51 86 53 87
REMARK SMILES IDX 50 88
REMARK H PARENT 13 7 20 31 70 50 44 61
REMARK Flexibility Score: inf
ROOT
ATOM      1  C   UNL A   1      34.602  32.554  28.949  1.00  0.00     0.002 C 
ENDROOT
BRANCH   1   2
ATOM      2  C   UNL A   1      35.599  31.855  28.017  1.00  0.00     0.021 C 
BRANCH   2   3
ATOM      3  C   UNL A   1      35.135  30.467  27.568  1.00  0.00     0.116 C 
BRANCH   3   4
ATOM      4  N   UNL A   1      33.695  30.362  27.689  1.00  0.00    -0.352 N 
ATOM      5  C   UNL A   1      32.758  29.625  27.016  1.00  0.00     0.251 C 
ATOM      6  O   UNL A   1      31.582  29.757  27.355  1.00  0.00    -0.269 OA
ATOM      7  H   UNL A   1      33.315  30.932  28.396  1.00  0.00     0.163 HD
BRANCH   5   8
ATOM      8  C   UNL A   1      33.085  28.655  25.931  1.00  0.00     0.040 A 
ATOM      9  N   UNL A   1      33.689  24.475  24.091  1.00  0.00    -0.271 N 
ATOM     10  C   UNL A   1      33.797  25.520  23.221  1.00  0.00     0.261 C 
ATOM     11  C   UNL A   1      33.426  24.902  25.369  1.00  0.00     0.261 C 
ATOM     12  O   UNL A   1      33.934  25.518  22.011  1.00  0.00    -0.269 OA
ATOM     13  C   UNL A   1      33.634  26.736  24.009  1.00  0.00     0.053 A 
ATOM     14  C   UNL A   1      33.406  26.364  25.318  1.00  0.00     0.054 A 
ATOM     15  O   UNL A   1      33.173  24.255  26.364  1.00  0.00    -0.269 OA
ATOM     16  C   UNL A   1      33.583  28.050  23.602  1.00  0.00     0.015 A 
ATOM     17  C   UNL A   1      33.136  27.296  26.302  1.00  0.00     0.028 A 
ATOM     18  C   UNL A   1      33.273  29.009  24.575  1.00  0.00     0.015 A 
BRANCH   9  19
ATOM     19  C   UNL A   1      33.692  23.077  23.694  1.00  0.00     0.164 C 
BRANCH  19  20
ATOM     20  C   UNL A   1      32.285  22.442  23.539  1.00  0.00     0.084 C 
ATOM     21  C   UNL A   1      31.179  23.491  23.420  1.00  0.00     0.044 C 
ATOM     22  C   UNL A   1      32.010  21.490  24.711  1.00  0.00     0.039 C 
ATOM     23  O   UNL A   1      32.258  21.618  22.353  1.00  0.00    -0.373 OA
ATOM     24  C   UNL A   1      32.559  20.177  24.209  1.00  0.00     0.031 C 
ATOM     25  C   UNL A   1      32.221  20.237  22.736  1.00  0.00     0.161 C 
ENDBRANCH  19  20
ENDBRANCH   9  19
ENDBRANCH   5   8
ENDBRANCH   3   4
ENDBRANCH   2   3
ENDBRANCH   1   2
BRANCH   1  26
ATOM     26  C   UNL A   1      34.602  34.085  28.852  1.00  0.00     0.002 C 
BRANCH  26  27
ATOM     27  C   UNL A   1      33.245  34.745  29.105  1.00  0.00     0.021 C 
BRANCH  27  28
ATOM     28  C   UNL A   1      33.336  36.170  29.641  1.00  0.00     0.116 C 
BRANCH  28  29
ATOM     29  N   UNL A   1      32.489  36.354  30.809  1.00  0.00    -0.352 N 
ATOM     30  C   UNL A   1      32.565  35.750  32.037  1.00  0.00     0.251 C 
ATOM     31  H   UNL A   1      31.758  37.005  30.702  1.00  0.00     0.163 HD
ATOM     32  O   UNL A   1      31.626  35.827  32.823  1.00  0.00    -0.269 OA
BRANCH  30  33
ATOM     33  C   UNL A   1      33.782  35.002  32.411  1.00  0.00     0.039 A 
ATOM     34  C   UNL A   1      33.657  33.691  32.877  1.00  0.00     0.014 A 
ATOM     35  C   UNL A   1      35.040  35.606  32.331  1.00  0.00     0.014 A 
ATOM     36  C   UNL A   1      34.800  32.970  33.225  1.00  0.00     0.010 A 
ATOM     37  C   UNL A   1      36.183  34.864  32.609  1.00  0.00     0.010 A 
ATOM     38  C   UNL A   1      36.074  33.543  33.072  1.00  0.00    -0.014 A 
BRANCH  38  39
ATOM     39  C   UNL A   1      37.303  32.788  33.417  1.00  0.00     0.031 A 
ATOM     40  C   UNL A   1      38.042  33.098  34.691  1.00  0.00     0.074 A 
ATOM     41  C   UNL A   1      37.785  31.869  32.558  1.00  0.00     0.049 A 
ATOM     42  N   UNL A   1      39.172  32.606  35.131  1.00  0.00    -0.248 NA
ATOM     43  C   UNL A   1      37.447  34.115  35.572  1.00  0.00     0.031 C 
ATOM     44  C   UNL A   1      37.182  31.511  31.272  1.00  0.00     0.029 A 
ATOM     45  N   UNL A   1      38.902  31.075  32.632  1.00  0.00    -0.354 N 
ATOM     46  C   UNL A   1      39.429  33.265  36.326  1.00  0.00     0.074 A 
ATOM     47  C   UNL A   1      38.366  34.226  36.519  1.00  0.00     0.031 C 
ATOM     48  C   UNL A   1      37.926  30.557  30.689  1.00  0.00     0.029 A 
ATOM     49  C   UNL A   1      39.074  30.262  31.538  1.00  0.00     0.049 A 
ATOM     50  H   UNL A   1      39.520  31.088  33.398  1.00  0.00     0.167 HD
ATOM     51  C   UNL A   1      40.447  33.069  37.198  1.00  0.00     0.037 A 
ATOM     52  C   UNL A   1      40.055  29.385  31.252  1.00  0.00     0.037 A 
ATOM     53  C   UNL A   1      41.484  32.088  37.020  1.00  0.00     0.049 A 
ATOM     54  C   UNL A   1      41.171  29.186  32.239  1.00  0.00     0.074 A 
ATOM     55  C   UNL A   1      42.525  31.770  37.874  1.00  0.00     0.029 A 
ATOM     56  N   UNL A   1      41.607  31.264  35.912  1.00  0.00    -0.354 N 
ATOM     57  N   UNL A   1      41.366  29.768  33.397  1.00  0.00    -0.248 NA
ATOM     58  C   UNL A   1      42.203  28.201  31.883  1.00  0.00     0.031 C 
ATOM     59  C   UNL A   1      43.304  30.782  37.264  1.00  0.00     0.029 A 
ATOM     60  C   UNL A   1      42.719  30.449  36.053  1.00  0.00     0.049 A 
ATOM     61  H   UNL A   1      40.996  31.258  35.140  1.00  0.00     0.167 HD
ATOM     62  C   UNL A   1      42.517  29.197  33.923  1.00  0.00     0.074 A 
ATOM     63  C   UNL A   1      42.972  28.213  32.962  1.00  0.00     0.031 C 
ATOM     64  C   UNL A   1      43.144  29.461  35.095  1.00  0.00     0.037 A 
BRANCH  51  65
ATOM     65  C   UNL A   1      40.488  33.928  38.428  1.00  0.00     0.057 A 
ATOM     66  C   UNL A   1      41.196  35.136  38.463  1.00  0.00     0.134 A 
ATOM     67  C   UNL A   1      39.768  33.567  39.575  1.00  0.00     0.134 A 
ATOM     68  F   UNL A   1      41.916  35.533  37.403  1.00  0.00    -0.206 F 
ATOM     69  C   UNL A   1      41.201  35.947  39.600  1.00  0.00     0.040 A 
ATOM     70  C   UNL A   1      39.744  34.383  40.708  1.00  0.00     0.040 A 
ATOM     71  F   UNL A   1      39.065  32.426  39.608  1.00  0.00    -0.206 F 
ATOM     72  C   UNL A   1      40.466  35.574  40.723  1.00  0.00     0.006 A 
ENDBRANCH  51  65
BRANCH  52  73
ATOM     73  C   UNL A   1      40.021  28.612  29.984  1.00  0.00     0.057 A 
ATOM     74  C   UNL A   1      39.320  27.404  29.893  1.00  0.00     0.134 A 
ATOM     75  C   UNL A   1      40.708  29.045  28.844  1.00  0.00     0.134 A 
ATOM     76  F   UNL A   1      38.656  26.927  30.957  1.00  0.00    -0.206 F 
ATOM     77  C   UNL A   1      39.328  26.639  28.726  1.00  0.00     0.040 A 
ATOM     78  C   UNL A   1      40.702  28.304  27.661  1.00  0.00     0.040 A 
ATOM     79  F   UNL A   1      41.391  30.199  28.862  1.00  0.00    -0.206 F 
ATOM     80  C   UNL A   1      40.019  27.091  27.603  1.00  0.00     0.006 A 
ENDBRANCH  52  73
BRANCH  64  81
ATOM     81  C   UNL A   1      44.356  28.643  35.427  1.00  0.00     0.057 A 
ATOM     82  C   UNL A   1      45.644  29.034  35.042  1.00  0.00     0.134 A 
ATOM     83  C   UNL A   1      44.234  27.466  36.178  1.00  0.00     0.134 A 
ATOM     84  F   UNL A   1      45.828  30.144  34.310  1.00  0.00    -0.206 F 
ATOM     85  C   UNL A   1      46.766  28.273  35.372  1.00  0.00     0.040 A 
ATOM     86  C   UNL A   1      45.350  26.712  36.538  1.00  0.00     0.040 A 
ATOM     87  F   UNL A   1      43.029  27.041  36.587  1.00  0.00    -0.206 F 
ATOM     88  C   UNL A   1      46.621  27.110  36.129  1.00  0.00     0.006 A 
ENDBRANCH  64  81
ENDBRANCH  38  39
ENDBRANCH  30  33
ENDBRANCH  28  29
ENDBRANCH  27  28
ENDBRANCH  26  27
ENDBRANCH   1  26
TORSDOF 15
ENDMDL
MODEL 2
REMARK VINA RESULT:     -11.6      4.460      9.486
REMARK SMILES C[C@@]1(CN2C(=O)c3ccc(C(=O)NCCCCCCNC(=O)c4ccc(-c5c6nc(c(-c7c(F)cccc7F)c7ccc([nH]7)c(-c7c(F)cccc7F)c7nc(c(-c8c(F)cccc8F)c8ccc5[nH]8)C=C7)C=C6)cc4)cc3C2=O)CCCO1
REMARK SMILES IDX 16 1 15 2 14 3 13 4 11 5 12 6 10 8 4 9 5 10 79 11 6 12 7 13
REMARK SMILES IDX 78 14 80 15 8 16 77 17 9 18 3 19 2 20 1 21 81 22 84 23 82 24
REMARK SMILES IDX 83 25 17 26 18 27 19 28 20 29 21 30 22 32 23 33 24 34 76 35
REMARK SMILES IDX 25 36 75 37 26 38 27 39 28 40 69 41 29 42 74 43 68 44 70 45
REMARK SMILES IDX 30 46 73 47 67 48 66 49 31 51 57 52 40 53 56 54 41 55 44 56
REMARK SMILES IDX 55 57 71 58 42 59 43 60 54 62 72 63 45 64 32 65 33 66 38 67
REMARK SMILES IDX 34 68 35 69 37 70 39 71 36 72 58 73 59 74 64 75 60 76 61 77
REMARK SMILES IDX 63 78 65 79 62 80 46 81 47 82 52 83 48 84 49 85 51 86 53 87
REMARK SMILES IDX 50 88
REMARK H PARENT 13 7 20 31 70 50 44 61
REMARK Flexibility Score: inf
ROOT
ATOM      1  C   UNL A   1      34.219  36.048  33.208  1.00  0.00     0.002 C 
ENDROOT
BRANCH   1   2
ATOM      2  C   UNL A   1      35.321  35.147  32.635  1.00  0.00     0.021 C 
BRANCH   2   3
ATOM      3  C   UNL A   1      35.579  33.898  33.481  1.00  0.00     0.116 C 
BRANCH   3   4
ATOM      4  N   UNL A   1      36.543  34.192  34.522  1.00  0.00    -0.352 N 
ATOM      5  C   UNL A   1      37.632  33.513  34.999  1.00  0.00     0.251 C 
ATOM      6  O   UNL A   1      38.269  34.033  35.915  1.00  0.00    -0.269 OA
ATOM      7  H   UNL A   1      36.385  35.052  34.975  1.00  0.00     0.163 HD
BRANCH   5   8
ATOM      8  C   UNL A   1      38.105  32.210  34.449  1.00  0.00     0.040 A 
ATOM      9  N   UNL A   1      41.021  28.675  33.968  1.00  0.00    -0.271 N 
ATOM     10  C   UNL A   1      39.834  28.551  33.308  1.00  0.00     0.261 C 
ATOM     11  C   UNL A   1      41.102  29.865  34.647  1.00  0.00     0.261 C 
ATOM     12  O   UNL A   1      39.382  27.606  32.685  1.00  0.00    -0.269 OA
ATOM     13  C   UNL A   1      39.096  29.786  33.541  1.00  0.00     0.053 A 
ATOM     14  C   UNL A   1      39.864  30.590  34.358  1.00  0.00     0.054 A 
ATOM     15  O   UNL A   1      41.957  30.263  35.411  1.00  0.00    -0.269 OA
ATOM     16  C   UNL A   1      37.820  30.136  33.160  1.00  0.00     0.015 A 
ATOM     17  C   UNL A   1      39.402  31.806  34.823  1.00  0.00     0.028 A 
ATOM     18  C   UNL A   1      37.317  31.348  33.650  1.00  0.00     0.015 A 
BRANCH   9  19
ATOM     19  C   UNL A   1      42.012  27.618  34.075  1.00  0.00     0.164 C 
BRANCH  19  20
ATOM     20  C   UNL A   1      41.935  26.784  35.381  1.00  0.00     0.084 C 
ATOM     21  C   UNL A   1      41.365  27.583  36.553  1.00  0.00     0.044 C 
ATOM     22  C   UNL A   1      43.323  26.226  35.725  1.00  0.00     0.039 C 
ATOM     23  O   UNL A   1      41.093  25.630  35.165  1.00  0.00    -0.373 OA
ATOM     24  C   UNL A   1      43.342  24.907  34.991  1.00  0.00     0.031 C 
ATOM     25  C   UNL A   1      41.907  24.451  35.126  1.00  0.00     0.161 C 
ENDBRANCH  19  20
ENDBRANCH   9  19
ENDBRANCH   5   8
ENDBRANCH   3   4
ENDBRANCH   2   3
ENDBRANCH   1   2
BRANCH   1  26
ATOM     26  C   UNL A   1      33.633  37.053  32.208  1.00  0.00     0.002 C 
BRANCH  26  27
ATOM     27  C   UNL A   1      32.683  36.448  31.171  1.00  0.00     0.021 C 
BRANCH  27  28
ATOM     28  C   UNL A   1      33.296  36.290  29.784  1.00  0.00     0.116 C 
BRANCH  28  29
ATOM     29  N   UNL A   1      32.608  35.267  29.012  1.00  0.00    -0.352 N 
ATOM     30  C   UNL A   1      33.108  34.120  28.454  1.00  0.00     0.251 C 
ATOM     31  H   UNL A   1      31.646  35.422  28.870  1.00  0.00     0.163 HD
ATOM     32  O   UNL A   1      32.453  33.499  27.623  1.00  0.00    -0.269 OA
BRANCH  30  33
ATOM     33  C   UNL A   1      34.443  33.632  28.856  1.00  0.00     0.039 A 
ATOM     34  C   UNL A   1      34.545  32.730  29.918  1.00  0.00     0.014 A 
ATOM     35  C   UNL A   1      35.592  34.089  28.205  1.00  0.00     0.014 A 
ATOM     36  C   UNL A   1      35.800  32.254  30.301  1.00  0.00     0.010 A 
ATOM     37  C   UNL A   1      36.835  33.561  28.541  1.00  0.00     0.010 A 
ATOM     38  C   UNL A   1      36.952  32.648  29.601  1.00  0.00    -0.014 A 
BRANCH  38  39
ATOM     39  C   UNL A   1      38.293  32.140  29.979  1.00  0.00     0.031 A 
ATOM     40  C   UNL A   1      38.755  30.797  29.481  1.00  0.00     0.074 A 
ATOM     41  C   UNL A   1      39.068  32.857  30.816  1.00  0.00     0.049 A 
ATOM     42  N   UNL A   1      39.854  30.145  29.760  1.00  0.00    -0.248 NA
ATOM     43  C   UNL A   1      37.847  30.080  28.571  1.00  0.00     0.031 C 
ATOM     44  C   UNL A   1      38.713  34.152  31.400  1.00  0.00     0.029 A 
ATOM     45  N   UNL A   1      40.312  32.591  31.330  1.00  0.00    -0.354 N 
ATOM     46  C   UNL A   1      39.762  28.939  29.077  1.00  0.00     0.074 A 
ATOM     47  C   UNL A   1      38.479  28.926  28.411  1.00  0.00     0.031 C 
ATOM     48  C   UNL A   1      39.723  34.575  32.176  1.00  0.00     0.029 A 
ATOM     49  C   UNL A   1      40.779  33.569  32.175  1.00  0.00     0.049 A 
ATOM     50  H   UNL A   1      40.822  31.777  31.113  1.00  0.00     0.167 HD
ATOM     51  C   UNL A   1      40.675  27.943  28.993  1.00  0.00     0.037 A 
ATOM     52  C   UNL A   1      41.927  33.638  32.876  1.00  0.00     0.037 A 
ATOM     53  C   UNL A   1      41.965  27.975  29.629  1.00  0.00     0.049 A 
ATOM     54  C   UNL A   1      42.924  32.518  32.762  1.00  0.00     0.074 A 
ATOM     55  C   UNL A   1      42.986  27.043  29.556  1.00  0.00     0.029 A 
ATOM     56  N   UNL A   1      42.412  28.996  30.453  1.00  0.00    -0.354 N 
ATOM     57  N   UNL A   1      42.851  31.414  32.058  1.00  0.00    -0.248 NA
ATOM     58  C   UNL A   1      44.167  32.657  33.533  1.00  0.00     0.031 C 
ATOM     59  C   UNL A   1      44.035  27.479  30.370  1.00  0.00     0.029 A 
ATOM     60  C   UNL A   1      43.688  28.707  30.910  1.00  0.00     0.049 A 
ATOM     61  H   UNL A   1      41.900  29.805  30.681  1.00  0.00     0.167 HD
ATOM     62  C   UNL A   1      44.050  30.746  32.274  1.00  0.00     0.074 A 
ATOM     63  C   UNL A   1      44.836  31.574  33.164  1.00  0.00     0.031 C 
ATOM     64  C   UNL A   1      44.464  29.553  31.780  1.00  0.00     0.037 A 
BRANCH  51  65
ATOM     65  C   UNL A   1      40.317  26.734  28.178  1.00  0.00     0.057 A 
ATOM     66  C   UNL A   1      39.421  25.766  28.647  1.00  0.00     0.134 A 
ATOM     67  C   UNL A   1      40.834  26.565  26.887  1.00  0.00     0.134 A 
ATOM     68  F   UNL A   1      38.900  25.862  29.879  1.00  0.00    -0.206 F 
ATOM     69  C   UNL A   1      39.065  24.661  27.870  1.00  0.00     0.040 A 
ATOM     70  C   UNL A   1      40.465  25.479  26.090  1.00  0.00     0.040 A 
ATOM     71  F   UNL A   1      41.693  27.457  26.374  1.00  0.00    -0.206 F 
ATOM     72  C   UNL A   1      39.582  24.522  26.584  1.00  0.00     0.006 A 
ENDBRANCH  51  65
BRANCH  52  73
ATOM     73  C   UNL A   1      42.209  34.815  33.736  1.00  0.00     0.057 A 
ATOM     74  C   UNL A   1      41.929  34.791  35.108  1.00  0.00     0.134 A 
ATOM     75  C   UNL A   1      42.737  35.999  33.207  1.00  0.00     0.134 A 
ATOM     76  F   UNL A   1      41.406  33.692  35.671  1.00  0.00    -0.206 F 
ATOM     77  C   UNL A   1      42.136  35.910  35.917  1.00  0.00     0.040 A 
ATOM     78  C   UNL A   1      42.974  37.116  34.009  1.00  0.00     0.040 A 
ATOM     79  F   UNL A   1      43.036  36.084  31.903  1.00  0.00    -0.206 F 
ATOM     80  C   UNL A   1      42.663  37.077  35.367  1.00  0.00     0.006 A 
ENDBRANCH  52  73
BRANCH  64  81
ATOM     81  C   UNL A   1      45.844  29.098  32.148  1.00  0.00     0.057 A 
ATOM     82  C   UNL A   1      46.089  28.315  33.283  1.00  0.00     0.134 A 
ATOM     83  C   UNL A   1      46.938  29.415  31.331  1.00  0.00     0.134 A 
ATOM     84  F   UNL A   1      45.087  27.988  34.113  1.00  0.00    -0.206 F 
ATOM     85  C   UNL A   1      47.376  27.884  33.605  1.00  0.00     0.040 A 
ATOM     86  C   UNL A   1      48.224  28.966  31.628  1.00  0.00     0.040 A 
ATOM     87  F   UNL A   1      46.769  30.153  30.224  1.00  0.00    -0.206 F 
ATOM     88  C   UNL A   1      48.448  28.203  32.772  1.00  0.00     0.006 A 
ENDBRANCH  64  81
ENDBRANCH  38  39
ENDBRANCH  30  33
ENDBRANCH  28  29
ENDBRANCH  27  28
ENDBRANCH  26  27
ENDBRANCH   1  26
TORSDOF 15
ENDMDL
MODEL 3
REMARK VINA RESULT:     -11.4      4.540      7.603
REMARK SMILES C[C@@]1(CN2C(=O)c3ccc(C(=O)NCCCCCCNC(=O)c4ccc(-c5c6nc(c(-c7c(F)cccc7F)c7ccc([nH]7)c(-c7c(F)cccc7F)c7nc(c(-c8c(F)cccc8F)c8ccc5[nH]8)C=C7)C=C6)cc4)cc3C2=O)CCCO1
REMARK SMILES IDX 16 1 15 2 14 3 13 4 11 5 12 6 10 8 4 9 5 10 79 11 6 12 7 13
REMARK SMILES IDX 78 14 80 15 8 16 77 17 9 18 3 19 2 20 1 21 81 22 84 23 82 24
REMARK SMILES IDX 83 25 17 26 18 27 19 28 20 29 21 30 22 32 23 33 24 34 76 35
REMARK SMILES IDX 25 36 75 37 26 38 27 39 28 40 69 41 29 42 74 43 68 44 70 45
REMARK SMILES IDX 30 46 73 47 67 48 66 49 31 51 57 52 40 53 56 54 41 55 44 56
REMARK SMILES IDX 55 57 71 58 42 59 43 60 54 62 72 63 45 64 32 65 33 66 38 67
REMARK SMILES IDX 34 68 35 69 37 70 39 71 36 72 58 73 59 74 64 75 60 76 61 77
REMARK SMILES IDX 63 78 65 79 62 80 46 81 47 82 52 83 48 84 49 85 51 86 53 87
REMARK SMILES IDX 50 88
REMARK H PARENT 13 7 20 31 70 50 44 61
REMARK Flexibility Score: inf
ROOT
ATOM      1  C   UNL A   1      34.402  35.792  34.000  1.00  0.00     0.002 C 
ENDROOT
BRANCH   1   2
ATOM      2  C   UNL A   1      35.410  34.974  33.182  1.00  0.00     0.021 C 
BRANCH   2   3
ATOM      3  C   UNL A   1      35.863  33.693  33.888  1.00  0.00     0.116 C 
BRANCH   3   4
ATOM      4  N   UNL A   1      36.890  34.000  34.863  1.00  0.00    -0.352 N 
ATOM      5  C   UNL A   1      38.016  33.333  35.267  1.00  0.00     0.251 C 
ATOM      6  O   UNL A   1      38.705  33.861  36.139  1.00  0.00    -0.269 OA
ATOM      7  H   UNL A   1      36.752  34.858  35.326  1.00  0.00     0.163 HD
BRANCH   5   8
ATOM      8  C   UNL A   1      38.466  32.035  34.686  1.00  0.00     0.040 A 
ATOM      9  N   UNL A   1      41.311  28.453  34.138  1.00  0.00    -0.271 N 
ATOM     10  C   UNL A   1      40.128  28.372  33.465  1.00  0.00     0.261 C 
ATOM     11  C   UNL A   1      41.411  29.622  34.850  1.00  0.00     0.261 C 
ATOM     12  O   UNL A   1      39.663  27.454  32.812  1.00  0.00    -0.269 OA
ATOM     13  C   UNL A   1      39.415  29.616  33.723  1.00  0.00     0.053 A 
ATOM     14  C   UNL A   1      40.191  30.381  34.569  1.00  0.00     0.054 A 
ATOM     15  O   UNL A   1      42.266  29.981  35.633  1.00  0.00    -0.269 OA
ATOM     16  C   UNL A   1      38.150  30.003  33.340  1.00  0.00     0.015 A 
ATOM     17  C   UNL A   1      39.751  31.594  35.062  1.00  0.00     0.028 A 
ATOM     18  C   UNL A   1      37.668  31.212  33.858  1.00  0.00     0.015 A 
BRANCH   9  19
ATOM     19  C   UNL A   1      42.278  27.373  34.227  1.00  0.00     0.164 C 
BRANCH  19  20
ATOM     20  C   UNL A   1      42.131  26.468  35.479  1.00  0.00     0.084 C 
ATOM     21  C   UNL A   1      41.402  27.169  36.625  1.00  0.00     0.044 C 
ATOM     22  C   UNL A   1      43.513  25.976  35.932  1.00  0.00     0.039 C 
ATOM     23  O   UNL A   1      41.390  25.279  35.129  1.00  0.00    -0.373 OA
ATOM     24  C   UNL A   1      43.687  24.701  35.143  1.00  0.00     0.031 C 
ATOM     25  C   UNL A   1      42.278  24.154  35.114  1.00  0.00     0.161 C 
ENDBRANCH  19  20
ENDBRANCH   9  19
ENDBRANCH   5   8
ENDBRANCH   3   4
ENDBRANCH   2   3
ENDBRANCH   1   2
BRANCH   1  26
ATOM     26  C   UNL A   1      33.694  36.903  33.215  1.00  0.00     0.002 C 
BRANCH  26  27
ATOM     27  C   UNL A   1      32.805  36.412  32.069  1.00  0.00     0.021 C 
BRANCH  27  28
ATOM     28  C   UNL A   1      33.486  36.422  30.705  1.00  0.00     0.116 C 
BRANCH  28  29
ATOM     29  N   UNL A   1      32.756  35.615  29.740  1.00  0.00    -0.352 N 
ATOM     30  C   UNL A   1      33.198  34.563  28.981  1.00  0.00     0.251 C 
ATOM     31  H   UNL A   1      31.811  35.859  29.615  1.00  0.00     0.163 HD
ATOM     32  O   UNL A   1      32.529  34.158  28.036  1.00  0.00    -0.269 OA
BRANCH  30  33
ATOM     33  C   UNL A   1      34.487  33.918  29.303  1.00  0.00     0.039 A 
ATOM     34  C   UNL A   1      35.629  34.290  28.589  1.00  0.00     0.014 A 
ATOM     35  C   UNL A   1      34.561  32.929  30.287  1.00  0.00     0.014 A 
ATOM     36  C   UNL A   1      36.855  33.695  28.890  1.00  0.00     0.010 A 
ATOM     37  C   UNL A   1      35.795  32.389  30.636  1.00  0.00     0.010 A 
ATOM     38  C   UNL A   1      36.952  32.757  29.931  1.00  0.00    -0.014 A 
BRANCH  38  39
ATOM     39  C   UNL A   1      38.249  32.128  30.281  1.00  0.00     0.031 A 
ATOM     40  C   UNL A   1      39.223  32.859  31.165  1.00  0.00     0.074 A 
ATOM     41  C   UNL A   1      38.573  30.930  29.757  1.00  0.00     0.049 A 
ATOM     42  N   UNL A   1      40.434  32.514  31.521  1.00  0.00    -0.248 NA
ATOM     43  C   UNL A   1      38.790  34.161  31.694  1.00  0.00     0.031 C 
ATOM     44  C   UNL A   1      37.730  30.144  28.854  1.00  0.00     0.029 A 
ATOM     45  N   UNL A   1      39.705  30.169  29.901  1.00  0.00    -0.354 N 
ATOM     46  C   UNL A   1      40.911  33.562  32.299  1.00  0.00     0.074 A 
ATOM     47  C   UNL A   1      39.881  34.576  32.322  1.00  0.00     0.031 C 
ATOM     48  C   UNL A   1      38.367  29.004  28.540  1.00  0.00     0.029 A 
ATOM     49  C   UNL A   1      39.674  28.995  29.187  1.00  0.00     0.049 A 
ATOM     50  H   UNL A   1      40.467  30.438  30.463  1.00  0.00     0.167 HD
ATOM     51  C   UNL A   1      42.092  33.659  32.954  1.00  0.00     0.037 A 
ATOM     52  C   UNL A   1      40.602  28.027  29.063  1.00  0.00     0.037 A 
ATOM     53  C   UNL A   1      43.100  32.633  32.958  1.00  0.00     0.049 A 
ATOM     54  C   UNL A   1      41.903  28.160  29.806  1.00  0.00     0.074 A 
ATOM     55  C   UNL A   1      44.304  32.609  33.639  1.00  0.00     0.029 A 
ATOM     56  N   UNL A   1      43.019  31.446  32.245  1.00  0.00    -0.354 N 
ATOM     57  N   UNL A   1      42.313  29.126  30.591  1.00  0.00    -0.248 NA
ATOM     58  C   UNL A   1      42.869  27.063  29.650  1.00  0.00     0.031 C 
ATOM     59  C   UNL A   1      44.971  31.427  33.307  1.00  0.00     0.029 A 
ATOM     60  C   UNL A   1      44.161  30.690  32.458  1.00  0.00     0.049 A 
ATOM     61  H   UNL A   1      42.263  31.179  31.674  1.00  0.00     0.167 HD
ATOM     62  C   UNL A   1      43.565  28.739  31.050  1.00  0.00     0.074 A 
ATOM     63  C   UNL A   1      43.843  27.444  30.465  1.00  0.00     0.031 C 
ATOM     64  C   UNL A   1      44.411  29.395  31.882  1.00  0.00     0.037 A 
BRANCH  51  65
ATOM     65  C   UNL A   1      42.358  34.915  33.732  1.00  0.00     0.057 A 
ATOM     66  C   UNL A   1      42.837  36.078  33.115  1.00  0.00     0.134 A 
ATOM     67  C   UNL A   1      42.082  34.979  35.103  1.00  0.00     0.134 A 
ATOM     68  F   UNL A   1      43.133  36.081  31.806  1.00  0.00    -0.206 F 
ATOM     69  C   UNL A   1      43.049  37.254  33.837  1.00  0.00     0.040 A 
ATOM     70  C   UNL A   1      42.264  36.156  35.831  1.00  0.00     0.040 A 
ATOM     71  F   UNL A   1      41.616  33.903  35.756  1.00  0.00    -0.206 F 
ATOM     72  C   UNL A   1      42.754  37.297  35.198  1.00  0.00     0.006 A 
ENDBRANCH  51  65
BRANCH  52  73
ATOM     73  C   UNL A   1      40.333  26.835  28.219  1.00  0.00     0.057 A 
ATOM     74  C   UNL A   1      40.906  26.706  26.949  1.00  0.00     0.134 A 
ATOM     75  C   UNL A   1      39.477  25.813  28.647  1.00  0.00     0.134 A 
ATOM     76  F   UNL A   1      41.722  27.660  26.476  1.00  0.00    -0.206 F 
ATOM     77  C   UNL A   1      40.616  25.619  26.122  1.00  0.00     0.040 A 
ATOM     78  C   UNL A   1      39.199  24.708  27.841  1.00  0.00     0.040 A 
ATOM     79  F   UNL A   1      38.902  25.872  29.857  1.00  0.00    -0.206 F 
ATOM     80  C   UNL A   1      39.761  24.614  26.569  1.00  0.00     0.006 A 
ENDBRANCH  52  73
BRANCH  64  81
ATOM     81  C   UNL A   1      45.690  28.703  32.248  1.00  0.00     0.057 A 
ATOM     82  C   UNL A   1      46.764  28.607  31.355  1.00  0.00     0.134 A 
ATOM     83  C   UNL A   1      45.862  28.160  33.529  1.00  0.00     0.134 A 
ATOM     84  F   UNL A   1      46.659  29.095  30.109  1.00  0.00    -0.206 F 
ATOM     85  C   UNL A   1      47.955  27.976  31.714  1.00  0.00     0.040 A 
ATOM     86  C   UNL A   1      47.058  27.551  33.908  1.00  0.00     0.040 A 
ATOM     87  F   UNL A   1      44.875  28.228  34.435  1.00  0.00    -0.206 F 
ATOM     88  C   UNL A   1      48.107  27.452  32.998  1.00  0.00     0.006 A 
ENDBRANCH  64  81
ENDBRANCH  38  39
ENDBRANCH  30  33
ENDBRANCH  28  29
ENDBRANCH  27  28
ENDBRANCH  26  27
ENDBRANCH   1  26
TORSDOF 15
ENDMDL
