MODEL 1
REMARK VINA RESULT:     -10.5      0.000      0.000
REMARK SMILES CCC(CC)C[N@H+]1[C@@H]2CC[C@H]1C[C@H](CC(=O)NCCCCCCNC(=O)c1ccc(-c3c4nc(c(-c5c(F)cccc5F)c5ccc([nH]5)c(-c5c(F)cccc5F)c5nc(c(-c6c(F)cccc6F)c6ccc3[nH]6)C=C5)C=C4)cc1)C2
REMARK SMILES IDX 19 1 18 2 17 3 15 4 16 5 14 7 13 8 7 9 8 10 11 11 9 13 81 14
REMARK SMILES IDX 10 15 12 16 6 17 3 18 2 19 1 20 4 21 5 22 20 23 21 24 22 25
REMARK SMILES IDX 23 26 24 27 25 28 26 30 27 31 28 32 80 33 29 34 79 35 30 36
REMARK SMILES IDX 31 37 32 38 73 39 33 40 78 41 72 42 74 43 34 44 77 45 71 46
REMARK SMILES IDX 70 47 35 49 61 50 44 51 60 52 45 53 48 54 59 55 75 56 46 57
REMARK SMILES IDX 47 58 58 60 76 61 49 62 36 63 37 64 42 65 38 66 39 67 41 68
REMARK SMILES IDX 43 69 40 70 62 71 63 72 68 73 64 74 65 75 67 76 69 77 66 78
REMARK SMILES IDX 50 79 51 80 56 81 52 82 53 83 55 84 57 85 54 86
REMARK H PARENT 17 6 7 12 24 29 74 48 48 59
REMARK Flexibility Score: inf
ROOT
ATOM      1  C   UNL A   1      34.643  32.560  29.219  1.00  0.00     0.021 C 
ENDROOT
BRANCH   1   2
ATOM      2  C   UNL A   1      34.105  31.998  27.892  1.00  0.00     0.116 C 
BRANCH   2   3
ATOM      3  N   UNL A   1      34.032  30.542  27.929  1.00  0.00    -0.356 N 
ATOM      4  C   UNL A   1      33.432  29.609  27.135  1.00  0.00     0.220 C 
ATOM      5  O   UNL A   1      33.497  28.434  27.510  1.00  0.00    -0.275 OA
ATOM      6  H   UNL A   1      34.519  30.149  28.689  1.00  0.00     0.163 HD
BRANCH   4   7
ATOM      7  C   UNL A   1      32.778  29.942  25.797  1.00  0.00     0.104 C 
BRANCH   7   8
ATOM      8  C   UNL A   1      32.455  28.783  24.818  1.00  0.00     0.010 C 
ATOM      9  N   UNL A   1      30.748  28.651  22.410  1.00  0.00    -0.330 N 
ATOM     10  C   UNL A   1      32.176  28.450  22.244  1.00  0.00     0.184 C 
ATOM     11  C   UNL A   1      30.367  27.848  23.549  1.00  0.00     0.184 C 
ATOM     12  H   UNL A   1      30.250  28.389  21.560  1.00  0.00     0.348 HD
ATOM     13  C   UNL A   1      32.235  26.912  22.335  1.00  0.00     0.071 C 
ATOM     14  C   UNL A   1      33.002  29.071  23.387  1.00  0.00     0.069 C 
ATOM     15  C   UNL A   1      31.049  26.520  23.220  1.00  0.00     0.071 C 
ATOM     16  C   UNL A   1      30.959  28.446  24.819  1.00  0.00     0.069 C 
BRANCH   9  17
ATOM     17  C   UNL A   1      30.016  29.830  21.968  1.00  0.00     0.266 C 
BRANCH  17  18
ATOM     18  C   UNL A   1      28.470  29.834  21.715  1.00  0.00     0.044 C 
BRANCH  18  19
ATOM     19  C   UNL A   1      27.676  29.852  23.029  1.00  0.00     0.006 C 
ATOM     20  C   UNL A   1      26.883  28.595  23.369  1.00  0.00     0.004 C 
ENDBRANCH  18  19
BRANCH  18  21
ATOM     21  C   UNL A   1      28.050  31.011  20.793  1.00  0.00     0.006 C 
ATOM     22  C   UNL A   1      28.113  32.398  21.421  1.00  0.00     0.004 C 
ENDBRANCH  18  21
ENDBRANCH  17  18
ENDBRANCH   9  17
ENDBRANCH   7   8
ENDBRANCH   4   7
ENDBRANCH   2   3
ENDBRANCH   1   2
BRANCH   1  23
ATOM     23  C   UNL A   1      35.458  33.843  29.078  1.00  0.00     0.002 C 
BRANCH  23  24
ATOM     24  C   UNL A   1      34.727  34.986  28.369  1.00  0.00     0.002 C 
BRANCH  24  25
ATOM     25  C   UNL A   1      33.346  35.353  28.931  1.00  0.00     0.021 C 
BRANCH  25  26
ATOM     26  C   UNL A   1      33.305  36.559  29.869  1.00  0.00     0.116 C 
BRANCH  26  27
ATOM     27  N   UNL A   1      32.409  36.360  30.995  1.00  0.00    -0.352 N 
ATOM     28  C   UNL A   1      32.527  35.556  32.099  1.00  0.00     0.251 C 
ATOM     29  H   UNL A   1      31.579  36.890  30.958  1.00  0.00     0.163 HD
ATOM     30  O   UNL A   1      31.562  35.400  32.842  1.00  0.00    -0.269 OA
BRANCH  28  31
ATOM     31  C   UNL A   1      33.800  34.869  32.404  1.00  0.00     0.039 A 
ATOM     32  C   UNL A   1      33.754  33.535  32.820  1.00  0.00     0.014 A 
ATOM     33  C   UNL A   1      35.025  35.539  32.348  1.00  0.00     0.014 A 
ATOM     34  C   UNL A   1      34.936  32.864  33.143  1.00  0.00     0.010 A 
ATOM     35  C   UNL A   1      36.209  34.851  32.604  1.00  0.00     0.010 A 
ATOM     36  C   UNL A   1      36.176  33.511  33.019  1.00  0.00    -0.014 A 
BRANCH  36  37
ATOM     37  C   UNL A   1      37.437  32.801  33.348  1.00  0.00     0.031 A 
ATOM     38  C   UNL A   1      38.170  33.109  34.625  1.00  0.00     0.074 A 
ATOM     39  C   UNL A   1      37.940  31.901  32.482  1.00  0.00     0.049 A 
ATOM     40  N   UNL A   1      39.289  32.605  35.080  1.00  0.00    -0.248 NA
ATOM     41  C   UNL A   1      37.580  34.139  35.497  1.00  0.00     0.031 C 
ATOM     42  C   UNL A   1      37.347  31.549  31.190  1.00  0.00     0.029 A 
ATOM     43  N   UNL A   1      39.063  31.116  32.557  1.00  0.00    -0.354 N 
ATOM     44  C   UNL A   1      39.540  33.259  36.280  1.00  0.00     0.074 A 
ATOM     45  C   UNL A   1      38.490  34.237  36.455  1.00  0.00     0.031 C 
ATOM     46  C   UNL A   1      38.096  30.597  30.609  1.00  0.00     0.029 A 
ATOM     47  C   UNL A   1      39.235  30.296  31.470  1.00  0.00     0.049 A 
ATOM     48  H   UNL A   1      39.687  31.141  33.319  1.00  0.00     0.167 HD
ATOM     49  C   UNL A   1      40.539  33.045  37.169  1.00  0.00     0.037 A 
ATOM     50  C   UNL A   1      40.200  29.397  31.201  1.00  0.00     0.037 A 
ATOM     51  C   UNL A   1      41.570  32.054  37.004  1.00  0.00     0.049 A 
ATOM     52  C   UNL A   1      41.300  29.180  32.203  1.00  0.00     0.074 A 
ATOM     53  C   UNL A   1      42.596  31.722  37.871  1.00  0.00     0.029 A 
ATOM     54  N   UNL A   1      41.705  31.235  35.892  1.00  0.00    -0.354 N 
ATOM     55  N   UNL A   1      41.485  29.756  33.366  1.00  0.00    -0.248 NA
ATOM     56  C   UNL A   1      42.320  28.179  31.859  1.00  0.00     0.031 C 
ATOM     57  C   UNL A   1      43.375  30.730  37.267  1.00  0.00     0.029 A 
ATOM     58  C   UNL A   1      42.809  30.412  36.044  1.00  0.00     0.049 A 
ATOM     59  H   UNL A   1      41.105  31.239  35.111  1.00  0.00     0.167 HD
ATOM     60  C   UNL A   1      42.624  29.172  33.903  1.00  0.00     0.074 A 
ATOM     61  C   UNL A   1      43.077  28.183  32.947  1.00  0.00     0.031 C 
ATOM     62  C   UNL A   1      43.243  29.431  35.081  1.00  0.00     0.037 A 
BRANCH  49  63
ATOM     63  C   UNL A   1      40.559  33.897  38.405  1.00  0.00     0.057 A 
ATOM     64  C   UNL A   1      41.317  35.074  38.478  1.00  0.00     0.134 A 
ATOM     65  C   UNL A   1      39.792  33.555  39.526  1.00  0.00     0.134 A 
ATOM     66  F   UNL A   1      42.083  35.454  37.444  1.00  0.00    -0.206 F 
ATOM     67  C   UNL A   1      41.333  35.863  39.629  1.00  0.00     0.040 A 
ATOM     68  C   UNL A   1      39.779  34.350  40.673  1.00  0.00     0.040 A 
ATOM     69  F   UNL A   1      39.038  32.445  39.523  1.00  0.00    -0.206 F 
ATOM     70  C   UNL A   1      40.557  35.506  40.729  1.00  0.00     0.006 A 
ENDBRANCH  49  63
BRANCH  50  71
ATOM     71  C   UNL A   1      40.156  28.610  29.941  1.00  0.00     0.057 A 
ATOM     72  C   UNL A   1      40.846  29.038  28.801  1.00  0.00     0.134 A 
ATOM     73  C   UNL A   1      39.420  27.425  29.845  1.00  0.00     0.134 A 
ATOM     74  F   UNL A   1      41.554  30.177  28.828  1.00  0.00    -0.206 F 
ATOM     75  C   UNL A   1      40.790  28.326  27.603  1.00  0.00     0.040 A 
ATOM     76  C   UNL A   1      39.374  26.689  28.659  1.00  0.00     0.040 A 
ATOM     77  F   UNL A   1      38.743  26.958  30.904  1.00  0.00    -0.206 F 
ATOM     78  C   UNL A   1      40.054  27.144  27.531  1.00  0.00     0.006 A 
ENDBRANCH  50  71
BRANCH  62  79
ATOM     79  C   UNL A   1      44.456  28.612  35.411  1.00  0.00     0.057 A 
ATOM     80  C   UNL A   1      45.745  29.027  35.056  1.00  0.00     0.134 A 
ATOM     81  C   UNL A   1      44.334  27.409  36.118  1.00  0.00     0.134 A 
ATOM     82  F   UNL A   1      45.928  30.163  34.367  1.00  0.00    -0.206 F 
ATOM     83  C   UNL A   1      46.869  28.262  35.371  1.00  0.00     0.040 A 
ATOM     84  C   UNL A   1      45.452  26.649  36.462  1.00  0.00     0.040 A 
ATOM     85  F   UNL A   1      43.127  26.960  36.496  1.00  0.00    -0.206 F 
ATOM     86  C   UNL A   1      46.724  27.071  36.081  1.00  0.00     0.006 A 
ENDBRANCH  62  79
ENDBRANCH  36  37
ENDBRANCH  28  31
ENDBRANCH  26  27
ENDBRANCH  25  26
ENDBRANCH  24  25
ENDBRANCH  23  24
ENDBRANCH   1  23
TORSDOF 18
ENDMDL
MODEL 2
REMARK VINA RESULT:     -10.4      1.879      3.222
REMARK SMILES CCC(CC)C[N@H+]1[C@@H]2CC[C@H]1C[C@H](CC(=O)NCCCCCCNC(=O)c1ccc(-c3c4nc(c(-c5c(F)cccc5F)c5ccc([nH]5)c(-c5c(F)cccc5F)c5nc(c(-c6c(F)cccc6F)c6ccc3[nH]6)C=C5)C=C4)cc1)C2
REMARK SMILES IDX 19 1 18 2 17 3 15 4 16 5 14 7 13 8 7 9 8 10 11 11 9 13 81 14
REMARK SMILES IDX 10 15 12 16 6 17 3 18 2 19 1 20 4 21 5 22 20 23 21 24 22 25
REMARK SMILES IDX 23 26 24 27 25 28 26 30 27 31 28 32 80 33 29 34 79 35 30 36
REMARK SMILES IDX 31 37 32 38 73 39 33 40 78 41 72 42 74 43 34 44 77 45 71 46
REMARK SMILES IDX 70 47 35 49 61 50 44 51 60 52 45 53 48 54 59 55 75 56 46 57
REMARK SMILES IDX 47 58 58 60 76 61 49 62 36 63 37 64 42 65 38 66 39 67 41 68
REMARK SMILES IDX 43 69 40 70 62 71 63 72 68 73 64 74 65 75 67 76 69 77 66 78
REMARK SMILES IDX 50 79 51 80 56 81 52 82 53 83 55 84 57 85 54 86
REMARK H PARENT 17 6 7 12 24 29 74 48 48 59
REMARK Flexibility Score: inf
ROOT
ATOM      1  C   UNL A   1      33.725  31.732  27.622  1.00  0.00     0.021 C 
ENDROOT
BRANCH   1   2
ATOM      2  C   UNL A   1      34.011  30.252  27.321  1.00  0.00     0.116 C 
BRANCH   2   3
ATOM      3  N   UNL A   1      32.863  29.416  27.652  1.00  0.00    -0.356 N 
ATOM      4  C   UNL A   1      32.426  28.200  27.216  1.00  0.00     0.220 C 
ATOM      5  O   UNL A   1      31.340  27.808  27.653  1.00  0.00    -0.275 OA
ATOM      6  H   UNL A   1      32.279  29.815  28.337  1.00  0.00     0.163 HD
BRANCH   4   7
ATOM      7  C   UNL A   1      33.245  27.294  26.302  1.00  0.00     0.104 C 
BRANCH   7   8
ATOM      8  C   UNL A   1      32.606  26.798  24.978  1.00  0.00     0.010 C 
ATOM      9  N   UNL A   1      33.076  24.383  23.342  1.00  0.00    -0.330 N 
ATOM     10  C   UNL A   1      31.773  24.542  23.961  1.00  0.00     0.184 C 
ATOM     11  C   UNL A   1      33.393  25.665  22.754  1.00  0.00     0.184 C 
ATOM     12  H   UNL A   1      33.055  23.631  22.654  1.00  0.00     0.348 HD
ATOM     13  C   UNL A   1      31.016  25.227  22.806  1.00  0.00     0.071 C 
ATOM     14  C   UNL A   1      31.806  25.476  25.187  1.00  0.00     0.069 C 
ATOM     15  C   UNL A   1      32.090  25.989  22.023  1.00  0.00     0.071 C 
ATOM     16  C   UNL A   1      33.647  26.685  23.858  1.00  0.00     0.069 C 
BRANCH   9  17
ATOM     17  C   UNL A   1      34.078  23.408  23.748  1.00  0.00     0.266 C 
BRANCH  17  18
ATOM     18  C   UNL A   1      35.554  23.793  24.105  1.00  0.00     0.044 C 
BRANCH  18  19
ATOM     19  C   UNL A   1      35.752  23.956  25.620  1.00  0.00     0.006 C 
ATOM     20  C   UNL A   1      34.631  23.443  26.517  1.00  0.00     0.004 C 
ENDBRANCH  18  19
BRANCH  18  21
ATOM     21  C   UNL A   1      36.565  22.771  23.517  1.00  0.00     0.006 C 
ATOM     22  C   UNL A   1      37.022  21.671  24.468  1.00  0.00     0.004 C 
ENDBRANCH  18  21
ENDBRANCH  17  18
ENDBRANCH   9  17
ENDBRANCH   7   8
ENDBRANCH   4   7
ENDBRANCH   2   3
ENDBRANCH   1   2
BRANCH   1  23
ATOM     23  C   UNL A   1      34.589  32.330  28.730  1.00  0.00     0.002 C 
BRANCH  23  24
ATOM     24  C   UNL A   1      34.623  33.860  28.754  1.00  0.00     0.002 C 
BRANCH  24  25
ATOM     25  C   UNL A   1      33.259  34.564  28.807  1.00  0.00     0.021 C 
BRANCH  25  26
ATOM     26  C   UNL A   1      33.276  36.019  29.273  1.00  0.00     0.116 C 
BRANCH  26  27
ATOM     27  N   UNL A   1      32.523  36.220  30.499  1.00  0.00    -0.352 N 
ATOM     28  C   UNL A   1      32.718  35.717  31.760  1.00  0.00     0.251 C 
ATOM     29  H   UNL A   1      31.743  36.816  30.410  1.00  0.00     0.163 HD
ATOM     30  O   UNL A   1      31.851  35.870  32.614  1.00  0.00    -0.269 OA
BRANCH  28  31
ATOM     31  C   UNL A   1      33.957  34.987  32.101  1.00  0.00     0.039 A 
ATOM     32  C   UNL A   1      33.858  33.644  32.478  1.00  0.00     0.014 A 
ATOM     33  C   UNL A   1      35.201  35.624  32.118  1.00  0.00     0.014 A 
ATOM     34  C   UNL A   1      35.006  32.933  32.834  1.00  0.00     0.010 A 
ATOM     35  C   UNL A   1      36.354  34.897  32.407  1.00  0.00     0.010 A 
ATOM     36  C   UNL A   1      36.267  33.548  32.782  1.00  0.00    -0.014 A 
BRANCH  36  37
ATOM     37  C   UNL A   1      37.493  32.796  33.147  1.00  0.00     0.031 A 
ATOM     38  C   UNL A   1      38.209  33.091  34.437  1.00  0.00     0.074 A 
ATOM     39  C   UNL A   1      37.980  31.866  32.303  1.00  0.00     0.049 A 
ATOM     40  N   UNL A   1      39.298  32.550  34.922  1.00  0.00    -0.248 NA
ATOM     41  C   UNL A   1      37.640  34.152  35.284  1.00  0.00     0.031 C 
ATOM     42  C   UNL A   1      37.402  31.522  31.002  1.00  0.00     0.029 A 
ATOM     43  N   UNL A   1      39.070  31.041  32.411  1.00  0.00    -0.354 N 
ATOM     44  C   UNL A   1      39.547  33.208  36.120  1.00  0.00     0.074 A 
ATOM     45  C   UNL A   1      38.531  34.227  36.260  1.00  0.00     0.031 C 
ATOM     46  C   UNL A   1      38.127  30.536  30.448  1.00  0.00     0.029 A 
ATOM     47  C   UNL A   1      39.234  30.202  31.337  1.00  0.00     0.049 A 
ATOM     48  H   UNL A   1      39.678  31.052  33.186  1.00  0.00     0.167 HD
ATOM     49  C   UNL A   1      40.518  32.967  37.033  1.00  0.00     0.037 A 
ATOM     50  C   UNL A   1      40.171  29.264  31.099  1.00  0.00     0.037 A 
ATOM     51  C   UNL A   1      41.514  31.936  36.901  1.00  0.00     0.049 A 
ATOM     52  C   UNL A   1      41.239  29.017  32.128  1.00  0.00     0.074 A 
ATOM     53  C   UNL A   1      42.507  31.576  37.795  1.00  0.00     0.029 A 
ATOM     54  N   UNL A   1      41.642  31.100  35.802  1.00  0.00    -0.354 N 
ATOM     55  N   UNL A   1      41.421  29.600  33.288  1.00  0.00    -0.248 NA
ATOM     56  C   UNL A   1      42.227  27.975  31.818  1.00  0.00     0.031 C 
ATOM     57  C   UNL A   1      43.262  30.548  37.219  1.00  0.00     0.029 A 
ATOM     58  C   UNL A   1      42.710  30.237  35.987  1.00  0.00     0.049 A 
ATOM     59  H   UNL A   1      41.060  31.117  35.008  1.00  0.00     0.167 HD
ATOM     60  C   UNL A   1      42.525  28.980  33.856  1.00  0.00     0.074 A 
ATOM     61  C   UNL A   1      42.961  27.963  32.922  1.00  0.00     0.031 C 
ATOM     62  C   UNL A   1      43.127  29.229  35.046  1.00  0.00     0.037 A 
BRANCH  49  63
ATOM     63  C   UNL A   1      40.543  33.832  38.260  1.00  0.00     0.057 A 
ATOM     64  C   UNL A   1      41.340  34.984  38.335  1.00  0.00     0.134 A 
ATOM     65  C   UNL A   1      39.744  33.530  39.370  1.00  0.00     0.134 A 
ATOM     66  F   UNL A   1      42.138  35.325  37.312  1.00  0.00    -0.206 F 
ATOM     67  C   UNL A   1      41.361  35.785  39.476  1.00  0.00     0.040 A 
ATOM     68  C   UNL A   1      39.736  34.338  40.507  1.00  0.00     0.040 A 
ATOM     69  F   UNL A   1      38.952  32.446  39.364  1.00  0.00    -0.206 F 
ATOM     70  C   UNL A   1      40.552  35.467  40.566  1.00  0.00     0.006 A 
ENDBRANCH  49  63
BRANCH  50  71
ATOM     71  C   UNL A   1      40.124  28.465  29.848  1.00  0.00     0.057 A 
ATOM     72  C   UNL A   1      40.848  28.856  28.716  1.00  0.00     0.134 A 
ATOM     73  C   UNL A   1      39.351  27.303  29.750  1.00  0.00     0.134 A 
ATOM     74  F   UNL A   1      41.593  29.972  28.744  1.00  0.00    -0.206 F 
ATOM     75  C   UNL A   1      40.791  28.133  27.525  1.00  0.00     0.040 A 
ATOM     76  C   UNL A   1      39.303  26.556  28.572  1.00  0.00     0.040 A 
ATOM     77  F   UNL A   1      38.640  26.871  30.802  1.00  0.00    -0.206 F 
ATOM     78  C   UNL A   1      40.019  26.975  27.453  1.00  0.00     0.006 A 
ENDBRANCH  50  71
BRANCH  62  79
ATOM     79  C   UNL A   1      44.301  28.369  35.411  1.00  0.00     0.057 A 
ATOM     80  C   UNL A   1      45.613  28.733  35.084  1.00  0.00     0.134 A 
ATOM     81  C   UNL A   1      44.118  27.178  36.125  1.00  0.00     0.134 A 
ATOM     82  F   UNL A   1      45.854  29.855  34.389  1.00  0.00    -0.206 F 
ATOM     83  C   UNL A   1      46.700  27.930  35.431  1.00  0.00     0.040 A 
ATOM     84  C   UNL A   1      45.199  26.380  36.501  1.00  0.00     0.040 A 
ATOM     85  F   UNL A   1      42.887  26.777  36.478  1.00  0.00    -0.206 F 
ATOM     86  C   UNL A   1      46.494  26.752  36.147  1.00  0.00     0.006 A 
ENDBRANCH  62  79
ENDBRANCH  36  37
ENDBRANCH  28  31
ENDBRANCH  26  27
ENDBRANCH  25  26
ENDBRANCH  24  25
ENDBRANCH  23  24
ENDBRANCH   1  23
TORSDOF 18
ENDMDL
MODEL 3
REMARK VINA RESULT:     -10.4      5.280     10.357
REMARK SMILES CCC(CC)C[N@H+]1[C@@H]2CC[C@H]1C[C@H](CC(=O)NCCCCCCNC(=O)c1ccc(-c3c4nc(c(-c5c(F)cccc5F)c5ccc([nH]5)c(-c5c(F)cccc5F)c5nc(c(-c6c(F)cccc6F)c6ccc3[nH]6)C=C5)C=C4)cc1)C2
REMARK SMILES IDX 19 1 18 2 17 3 15 4 16 5 14 7 13 8 7 9 8 10 11 11 9 13 81 14
REMARK SMILES IDX 10 15 12 16 6 17 3 18 2 19 1 20 4 21 5 22 20 23 21 24 22 25
REMARK SMILES IDX 23 26 24 27 25 28 26 30 27 31 28 32 80 33 29 34 79 35 30 36
REMARK SMILES IDX 31 37 32 38 73 39 33 40 78 41 72 42 74 43 34 44 77 45 71 46
REMARK SMILES IDX 70 47 35 49 61 50 44 51 60 52 45 53 48 54 59 55 75 56 46 57
REMARK SMILES IDX 47 58 58 60 76 61 49 62 36 63 37 64 42 65 38 66 39 67 41 68
REMARK SMILES IDX 43 69 40 70 62 71 63 72 68 73 64 74 65 75 67 76 69 77 66 78
REMARK SMILES IDX 50 79 51 80 56 81 52 82 53 83 55 84 57 85 54 86
REMARK H PARENT 17 6 7 12 24 29 74 48 48 59
REMARK Flexibility Score: inf
ROOT
ATOM      1  C   UNL A   1      35.025  21.393  25.028  1.00  0.00     0.021 C 
ENDROOT
BRANCH   1   2
ATOM      2  C   UNL A   1      34.159  22.663  25.085  1.00  0.00     0.116 C 
BRANCH   2   3
ATOM      3  N   UNL A   1      33.177  22.582  26.160  1.00  0.00    -0.356 N 
ATOM      4  C   UNL A   1      32.195  23.419  26.604  1.00  0.00     0.220 C 
ATOM      5  O   UNL A   1      31.585  23.072  27.619  1.00  0.00    -0.275 OA
ATOM      6  H   UNL A   1      33.235  21.745  26.675  1.00  0.00     0.163 HD
BRANCH   4   7
ATOM      7  C   UNL A   1      31.777  24.687  25.865  1.00  0.00     0.104 C 
BRANCH   7   8
ATOM      8  C   UNL A   1      32.441  26.032  26.262  1.00  0.00     0.010 C 
ATOM      9  N   UNL A   1      32.342  28.719  25.037  1.00  0.00    -0.330 N 
ATOM     10  C   UNL A   1      31.780  28.555  26.365  1.00  0.00     0.184 C 
ATOM     11  C   UNL A   1      33.617  28.038  25.063  1.00  0.00     0.184 C 
ATOM     12  H   UNL A   1      32.431  29.708  24.806  1.00  0.00     0.348 HD
ATOM     13  C   UNL A   1      33.003  28.945  27.218  1.00  0.00     0.071 C 
ATOM     14  C   UNL A   1      31.378  27.098  26.667  1.00  0.00     0.069 C 
ATOM     15  C   UNL A   1      34.219  28.578  26.361  1.00  0.00     0.071 C 
ATOM     16  C   UNL A   1      33.392  26.534  25.170  1.00  0.00     0.069 C 
BRANCH   9  17
ATOM     17  C   UNL A   1      31.567  28.942  23.825  1.00  0.00     0.266 C 
BRANCH  17  18
ATOM     18  C   UNL A   1      30.001  28.896  23.787  1.00  0.00     0.044 C 
BRANCH  18  19
ATOM     19  C   UNL A   1      29.407  30.174  23.176  1.00  0.00     0.006 C 
ATOM     20  C   UNL A   1      28.465  29.994  21.991  1.00  0.00     0.004 C 
ENDBRANCH  18  19
BRANCH  18  21
ATOM     21  C   UNL A   1      29.489  27.632  23.045  1.00  0.00     0.006 C 
ATOM     22  C   UNL A   1      29.105  26.454  23.933  1.00  0.00     0.004 C 
ENDBRANCH  18  21
ENDBRANCH  17  18
ENDBRANCH   9  17
ENDBRANCH   7   8
ENDBRANCH   4   7
ENDBRANCH   2   3
ENDBRANCH   1   2
BRANCH   1  23
ATOM     23  C   UNL A   1      36.432  21.562  25.595  1.00  0.00     0.002 C 
BRANCH  23  24
ATOM     24  C   UNL A   1      37.555  21.150  24.642  1.00  0.00     0.002 C 
BRANCH  24  25
ATOM     25  C   UNL A   1      38.228  19.802  24.935  1.00  0.00     0.021 C 
BRANCH  25  26
ATOM     26  C   UNL A   1      39.126  19.758  26.171  1.00  0.00     0.116 C 
BRANCH  26  27
ATOM     27  N   UNL A   1      40.391  19.090  25.917  1.00  0.00    -0.352 N 
ATOM     28  C   UNL A   1      41.676  19.569  25.949  1.00  0.00     0.251 C 
ATOM     29  H   UNL A   1      40.313  18.137  25.683  1.00  0.00     0.163 HD
ATOM     30  O   UNL A   1      42.592  18.875  25.519  1.00  0.00    -0.269 OA
BRANCH  28  31
ATOM     31  C   UNL A   1      41.971  20.913  26.489  1.00  0.00     0.039 A 
ATOM     32  C   UNL A   1      42.276  21.940  25.591  1.00  0.00     0.014 A 
ATOM     33  C   UNL A   1      42.015  21.155  27.865  1.00  0.00     0.014 A 
ATOM     34  C   UNL A   1      42.587  23.215  26.069  1.00  0.00     0.010 A 
ATOM     35  C   UNL A   1      42.258  22.443  28.339  1.00  0.00     0.010 A 
ATOM     36  C   UNL A   1      42.561  23.482  27.448  1.00  0.00    -0.014 A 
BRANCH  36  37
ATOM     37  C   UNL A   1      42.879  24.837  27.962  1.00  0.00     0.031 A 
ATOM     38  C   UNL A   1      44.308  25.246  28.194  1.00  0.00     0.074 A 
ATOM     39  C   UNL A   1      41.878  25.691  28.252  1.00  0.00     0.049 A 
ATOM     40  N   UNL A   1      44.782  26.378  28.649  1.00  0.00    -0.248 NA
ATOM     41  C   UNL A   1      45.342  24.240  27.897  1.00  0.00     0.031 C 
ATOM     42  C   UNL A   1      40.450  25.396  28.114  1.00  0.00     0.029 A 
ATOM     43  N   UNL A   1      41.907  26.980  28.720  1.00  0.00    -0.354 N 
ATOM     44  C   UNL A   1      46.162  26.218  28.701  1.00  0.00     0.074 A 
ATOM     45  C   UNL A   1      46.444  24.861  28.288  1.00  0.00     0.031 C 
ATOM     46  C   UNL A   1      39.743  26.484  28.461  1.00  0.00     0.029 A 
ATOM     47  C   UNL A   1      40.662  27.538  28.874  1.00  0.00     0.049 A 
ATOM     48  H   UNL A   1      42.743  27.458  28.927  1.00  0.00     0.167 HD
ATOM     49  C   UNL A   1      47.108  27.126  29.037  1.00  0.00     0.037 A 
ATOM     50  C   UNL A   1      40.304  28.766  29.296  1.00  0.00     0.037 A 
ATOM     51  C   UNL A   1      46.825  28.483  29.425  1.00  0.00     0.049 A 
ATOM     52  C   UNL A   1      41.374  29.755  29.665  1.00  0.00     0.074 A 
ATOM     53  C   UNL A   1      47.715  29.497  29.732  1.00  0.00     0.029 A 
ATOM     54  N   UNL A   1      45.550  29.015  29.561  1.00  0.00    -0.354 N 
ATOM     55  N   UNL A   1      42.678  29.612  29.642  1.00  0.00    -0.248 NA
ATOM     56  C   UNL A   1      40.924  31.082  30.109  1.00  0.00     0.031 C 
ATOM     57  C   UNL A   1      46.978  30.631  30.093  1.00  0.00     0.029 A 
ATOM     58  C   UNL A   1      45.631  30.337  29.966  1.00  0.00     0.049 A 
ATOM     59  H   UNL A   1      44.713  28.524  29.394  1.00  0.00     0.167 HD
ATOM     60  C   UNL A   1      43.201  30.834  30.043  1.00  0.00     0.074 A 
ATOM     61  C   UNL A   1      42.076  31.712  30.284  1.00  0.00     0.031 C 
ATOM     62  C   UNL A   1      44.498  31.197  30.198  1.00  0.00     0.037 A 
BRANCH  49  63
ATOM     63  C   UNL A   1      48.541  26.681  28.990  1.00  0.00     0.057 A 
ATOM     64  C   UNL A   1      49.319  26.817  27.831  1.00  0.00     0.134 A 
ATOM     65  C   UNL A   1      49.162  26.136  30.121  1.00  0.00     0.134 A 
ATOM     66  F   UNL A   1      48.782  27.321  26.709  1.00  0.00    -0.206 F 
ATOM     67  C   UNL A   1      50.650  26.402  27.791  1.00  0.00     0.040 A 
ATOM     68  C   UNL A   1      50.501  25.743  30.101  1.00  0.00     0.040 A 
ATOM     69  F   UNL A   1      48.479  25.984  31.266  1.00  0.00    -0.206 F 
ATOM     70  C   UNL A   1      51.248  25.869  28.931  1.00  0.00     0.006 A 
ENDBRANCH  49  63
BRANCH  50  71
ATOM     71  C   UNL A   1      38.869  29.141  29.364  1.00  0.00     0.057 A 
ATOM     72  C   UNL A   1      38.149  29.023  30.559  1.00  0.00     0.134 A 
ATOM     73  C   UNL A   1      38.182  29.613  28.241  1.00  0.00     0.134 A 
ATOM     74  F   UNL A   1      38.750  28.558  31.665  1.00  0.00    -0.206 F 
ATOM     75  C   UNL A   1      36.794  29.343  30.631  1.00  0.00     0.040 A 
ATOM     76  C   UNL A   1      36.832  29.961  28.304  1.00  0.00     0.040 A 
ATOM     77  F   UNL A   1      38.816  29.756  27.068  1.00  0.00    -0.206 F 
ATOM     78  C   UNL A   1      36.132  29.818  29.500  1.00  0.00     0.006 A 
ENDBRANCH  50  71
BRANCH  62  79
ATOM     79  C   UNL A   1      44.766  32.611  30.622  1.00  0.00     0.057 A 
ATOM     80  C   UNL A   1      44.894  33.650  29.691  1.00  0.00     0.134 A 
ATOM     81  C   UNL A   1      44.869  32.942  31.980  1.00  0.00     0.134 A 
ATOM     82  F   UNL A   1      44.819  33.396  28.376  1.00  0.00    -0.206 F 
ATOM     83  C   UNL A   1      45.138  34.963  30.094  1.00  0.00     0.040 A 
ATOM     84  C   UNL A   1      45.086  34.256  32.395  1.00  0.00     0.040 A 
ATOM     85  F   UNL A   1      44.746  31.995  32.923  1.00  0.00    -0.206 F 
ATOM     86  C   UNL A   1      45.230  35.270  31.451  1.00  0.00     0.006 A 
ENDBRANCH  62  79
ENDBRANCH  36  37
ENDBRANCH  28  31
ENDBRANCH  26  27
ENDBRANCH  25  26
ENDBRANCH  24  25
ENDBRANCH  23  24
ENDBRANCH   1  23
TORSDOF 18
ENDMDL
