MODEL 1
REMARK VINA RESULT:     -10.9      0.000      0.000
REMARK SMILES [NH3+][C@H]1C=C[C@@H](C(=O)NC2(CC(=O)NCCCCCCNC(=O)c3ccc(-c4c5nc(c(-c6c(F)cccc6F)c6ccc([nH]6)c(-c6c(F)cccc6F)c6nc(c(-c7c(F)cccc7F)c7ccc4[nH]7)C=C6)C=C5)cc3)CCC2)C1
REMARK SMILES IDX 15 1 14 2 13 3 11 4 12 5 10 7 9 8 77 9 79 10 78 11 8 12 6 13
REMARK SMILES IDX 7 14 5 16 2 17 3 18 80 19 4 20 1 21 16 25 17 26 18 27 19 28
REMARK SMILES IDX 20 29 21 30 22 32 23 33 24 34 76 35 25 36 75 37 26 38 27 39
REMARK SMILES IDX 28 40 69 41 29 42 74 43 68 44 70 45 30 46 73 47 67 48 66 49
REMARK SMILES IDX 31 51 57 52 40 53 56 54 41 55 44 56 55 57 71 58 42 59 43 60
REMARK SMILES IDX 54 62 72 63 45 64 32 65 33 66 38 67 34 68 35 69 37 70 39 71
REMARK SMILES IDX 36 72 58 73 59 74 64 75 60 76 61 77 63 78 65 79 62 80 46 81
REMARK SMILES IDX 47 82 52 83 48 84 49 85 51 86 53 87 50 88
REMARK H PARENT 13 6 8 15 1 22 1 23 1 24 20 31 70 50 44 61
REMARK Flexibility Score: inf
ROOT
ATOM      1  C   UNL A   1      33.313  29.107  26.095  1.00  0.00     0.021 C 
ENDROOT
BRANCH   1   2
ATOM      2  C   UNL A   1      33.403  27.629  26.485  1.00  0.00     0.116 C 
BRANCH   2   3
ATOM      3  N   UNL A   1      33.938  26.853  25.388  1.00  0.00    -0.356 N 
ATOM      4  C   UNL A   1      33.864  25.513  25.177  1.00  0.00     0.222 C 
ATOM      5  O   UNL A   1      34.591  25.011  24.316  1.00  0.00    -0.275 OA
ATOM      6  H   UNL A   1      34.420  27.366  24.700  1.00  0.00     0.163 HD
BRANCH   4   7
ATOM      7  C   UNL A   1      32.908  24.647  25.968  1.00  0.00     0.128 C 
BRANCH   7   8
ATOM      8  C   UNL A   1      31.614  24.190  25.250  1.00  0.00     0.049 C 
ATOM      9  C   UNL A   1      30.346  24.674  26.022  1.00  0.00     0.029 C 
ATOM     10  C   UNL A   1      31.194  22.753  25.621  1.00  0.00     0.029 C 
ATOM     11  C   UNL A   1      30.320  23.320  26.749  1.00  0.00     0.005 C 
BRANCH   8  12
ATOM     12  N   UNL A   1      31.632  24.630  23.834  1.00  0.00    -0.350 N 
ATOM     13  C   UNL A   1      31.363  25.742  23.102  1.00  0.00     0.227 C 
ATOM     14  O   UNL A   1      31.566  25.614  21.883  1.00  0.00    -0.274 OA
ATOM     15  H   UNL A   1      31.926  23.896  23.249  1.00  0.00     0.164 HD
BRANCH  13  16
ATOM     16  C   UNL A   1      30.810  27.089  23.582  1.00  0.00     0.107 C 
ATOM     17  C   UNL A   1      30.447  29.403  22.852  1.00  0.00     0.205 C 
ATOM     18  C   UNL A   1      29.165  28.649  22.999  1.00  0.00     0.033 C 
ATOM     19  C   UNL A   1      31.528  28.318  23.010  1.00  0.00     0.087 C 
ATOM     20  C   UNL A   1      29.360  27.384  23.392  1.00  0.00    -0.012 C 
BRANCH  17  21
ATOM     21  N   UNL A   1      30.539  30.064  21.559  1.00  0.00    -0.352 N 
ATOM     22  H   UNL A   1      30.196  29.437  20.831  1.00  0.00     0.345 HD
ATOM     23  H   UNL A   1      31.511  30.306  21.370  1.00  0.00     0.345 HD
ATOM     24  H   UNL A   1      29.974  30.913  21.571  1.00  0.00     0.345 HD
ENDBRANCH  17  21
ENDBRANCH  13  16
ENDBRANCH   8  12
ENDBRANCH   7   8
ENDBRANCH   4   7
ENDBRANCH   2   3
ENDBRANCH   1   2
BRANCH   1  25
ATOM     25  C   UNL A   1      32.279  29.891  26.912  1.00  0.00     0.002 C 
BRANCH  25  26
ATOM     26  C   UNL A   1      31.380  30.816  26.083  1.00  0.00     0.002 C 
BRANCH  26  27
ATOM     27  C   UNL A   1      31.355  32.279  26.537  1.00  0.00     0.021 C 
BRANCH  27  28
ATOM     28  C   UNL A   1      32.699  32.816  27.024  1.00  0.00     0.116 C 
BRANCH  28  29
ATOM     29  N   UNL A   1      32.560  34.111  27.672  1.00  0.00    -0.352 N 
ATOM     30  C   UNL A   1      33.190  34.610  28.778  1.00  0.00     0.251 C 
ATOM     31  H   UNL A   1      31.913  34.722  27.248  1.00  0.00     0.163 HD
ATOM     32  O   UNL A   1      32.763  35.633  29.320  1.00  0.00    -0.269 OA
BRANCH  30  33
ATOM     33  C   UNL A   1      34.378  33.933  29.338  1.00  0.00     0.039 A 
ATOM     34  C   UNL A   1      34.196  32.883  30.242  1.00  0.00     0.014 A 
ATOM     35  C   UNL A   1      35.669  34.361  29.014  1.00  0.00     0.014 A 
ATOM     36  C   UNL A   1      35.306  32.232  30.783  1.00  0.00     0.010 A 
ATOM     37  C   UNL A   1      36.775  33.668  29.499  1.00  0.00     0.010 A 
ATOM     38  C   UNL A   1      36.605  32.603  30.396  1.00  0.00    -0.014 A 
BRANCH  38  39
ATOM     39  C   UNL A   1      37.790  31.887  30.930  1.00  0.00     0.031 A 
ATOM     40  C   UNL A   1      38.323  32.206  32.299  1.00  0.00     0.074 A 
ATOM     41  C   UNL A   1      38.416  30.977  30.159  1.00  0.00     0.049 A 
ATOM     42  N   UNL A   1      39.351  31.692  32.926  1.00  0.00    -0.248 NA
ATOM     43  C   UNL A   1      37.626  33.260  33.053  1.00  0.00     0.031 C 
ATOM     44  C   UNL A   1      38.030  30.618  28.794  1.00  0.00     0.029 A 
ATOM     45  N   UNL A   1      39.511  30.189  30.413  1.00  0.00    -0.354 N 
ATOM     46  C   UNL A   1      39.430  32.367  34.139  1.00  0.00     0.074 A 
ATOM     47  C   UNL A   1      38.382  33.364  34.134  1.00  0.00     0.031 C 
ATOM     48  C   UNL A   1      38.852  29.657  28.344  1.00  0.00     0.029 A 
ATOM     49  C   UNL A   1      39.840  29.354  29.375  1.00  0.00     0.049 A 
ATOM     50  H   UNL A   1      40.012  30.221  31.261  1.00  0.00     0.167 HD
ATOM     51  C   UNL A   1      40.283  32.158  35.170  1.00  0.00     0.037 A 
ATOM     52  C   UNL A   1      40.822  28.441  29.269  1.00  0.00     0.037 A 
ATOM     53  C   UNL A   1      41.309  31.148  35.181  1.00  0.00     0.049 A 
ATOM     54  C   UNL A   1      41.749  28.219  30.430  1.00  0.00     0.074 A 
ATOM     55  C   UNL A   1      42.179  30.812  36.203  1.00  0.00     0.029 A 
ATOM     56  N   UNL A   1      41.603  30.311  34.114  1.00  0.00    -0.354 N 
ATOM     57  N   UNL A   1      41.766  28.811  31.600  1.00  0.00    -0.248 NA
ATOM     58  C   UNL A   1      42.790  27.195  30.259  1.00  0.00     0.031 C 
ATOM     59  C   UNL A   1      43.029  29.801  35.740  1.00  0.00     0.029 A 
ATOM     60  C   UNL A   1      42.656  29.475  34.445  1.00  0.00     0.049 A 
ATOM     61  H   UNL A   1      41.133  30.312  33.250  1.00  0.00     0.167 HD
ATOM     62  C   UNL A   1      42.795  28.213  32.314  1.00  0.00     0.074 A 
ATOM     63  C   UNL A   1      43.374  27.206  31.449  1.00  0.00     0.031 C 
ATOM     64  C   UNL A   1      43.220  28.474  33.574  1.00  0.00     0.037 A 
BRANCH  51  65
ATOM     65  C   UNL A   1      40.136  33.043  36.375  1.00  0.00     0.057 A 
ATOM     66  C   UNL A   1      40.916  34.194  36.547  1.00  0.00     0.134 A 
ATOM     67  C   UNL A   1      39.192  32.750  37.368  1.00  0.00     0.134 A 
ATOM     68  F   UNL A   1      41.847  34.526  35.639  1.00  0.00    -0.206 F 
ATOM     69  C   UNL A   1      40.787  35.003  37.677  1.00  0.00     0.040 A 
ATOM     70  C   UNL A   1      39.034  33.568  38.488  1.00  0.00     0.040 A 
ATOM     71  F   UNL A   1      38.407  31.668  37.264  1.00  0.00    -0.206 F 
ATOM     72  C   UNL A   1      39.839  34.693  38.650  1.00  0.00     0.006 A 
ENDBRANCH  51  65
BRANCH  52  73
ATOM     73  C   UNL A   1      40.945  27.632  28.030  1.00  0.00     0.057 A 
ATOM     74  C   UNL A   1      41.743  28.067  26.966  1.00  0.00     0.134 A 
ATOM     75  C   UNL A   1      40.287  26.405  27.887  1.00  0.00     0.134 A 
ATOM     76  F   UNL A   1      42.385  29.241  27.041  1.00  0.00    -0.206 F 
ATOM     77  C   UNL A   1      41.875  27.316  25.797  1.00  0.00     0.040 A 
ATOM     78  C   UNL A   1      40.428  25.633  26.733  1.00  0.00     0.040 A 
ATOM     79  F   UNL A   1      39.515  25.930  28.876  1.00  0.00    -0.206 F 
ATOM     80  C   UNL A   1      41.220  26.091  25.682  1.00  0.00     0.006 A 
ENDBRANCH  52  73
BRANCH  64  81
ATOM     81  C   UNL A   1      44.346  27.637  34.105  1.00  0.00     0.057 A 
ATOM     82  C   UNL A   1      45.681  28.048  34.015  1.00  0.00     0.134 A 
ATOM     83  C   UNL A   1      44.085  26.419  34.746  1.00  0.00     0.134 A 
ATOM     84  F   UNL A   1      45.999  29.198  33.400  1.00  0.00    -0.206 F 
ATOM     85  C   UNL A   1      46.720  27.267  34.525  1.00  0.00     0.040 A 
ATOM     86  C   UNL A   1      45.112  25.642  35.283  1.00  0.00     0.040 A 
ATOM     87  F   UNL A   1      42.826  25.971  34.874  1.00  0.00    -0.206 F 
ATOM     88  C   UNL A   1      46.436  26.063  35.167  1.00  0.00     0.006 A 
ENDBRANCH  64  81
ENDBRANCH  38  39
ENDBRANCH  30  33
ENDBRANCH  28  29
ENDBRANCH  27  28
ENDBRANCH  26  27
ENDBRANCH  25  26
ENDBRANCH   1  25
TORSDOF 17
ENDMDL
MODEL 2
REMARK VINA RESULT:     -10.9      4.452      9.273
REMARK SMILES [NH3+][C@H]1C=C[C@@H](C(=O)NC2(CC(=O)NCCCCCCNC(=O)c3ccc(-c4c5nc(c(-c6c(F)cccc6F)c6ccc([nH]6)c(-c6c(F)cccc6F)c6nc(c(-c7c(F)cccc7F)c7ccc4[nH]7)C=C6)C=C5)cc3)CCC2)C1
REMARK SMILES IDX 15 1 14 2 13 3 11 4 12 5 10 7 9 8 77 9 79 10 78 11 8 12 6 13
REMARK SMILES IDX 7 14 5 16 2 17 3 18 80 19 4 20 1 21 16 25 17 26 18 27 19 28
REMARK SMILES IDX 20 29 21 30 22 32 23 33 24 34 76 35 25 36 75 37 26 38 27 39
REMARK SMILES IDX 28 40 69 41 29 42 74 43 68 44 70 45 30 46 73 47 67 48 66 49
REMARK SMILES IDX 31 51 57 52 40 53 56 54 41 55 44 56 55 57 71 58 42 59 43 60
REMARK SMILES IDX 54 62 72 63 45 64 32 65 33 66 38 67 34 68 35 69 37 70 39 71
REMARK SMILES IDX 36 72 58 73 59 74 64 75 60 76 61 77 63 78 65 79 62 80 46 81
REMARK SMILES IDX 47 82 52 83 48 84 49 85 51 86 53 87 50 88
REMARK H PARENT 13 6 8 15 1 22 1 23 1 24 20 31 70 50 44 61
REMARK Flexibility Score: inf
ROOT
ATOM      1  C   UNL A   1      37.428  23.653  25.821  1.00  0.00     0.021 C 
ENDROOT
BRANCH   1   2
ATOM      2  C   UNL A   1      35.926  23.472  25.583  1.00  0.00     0.116 C 
BRANCH   2   3
ATOM      3  N   UNL A   1      35.597  23.775  24.207  1.00  0.00    -0.356 N 
ATOM      4  C   UNL A   1      34.393  24.107  23.673  1.00  0.00     0.222 C 
ATOM      5  O   UNL A   1      34.267  24.087  22.446  1.00  0.00    -0.275 OA
ATOM      6  H   UNL A   1      36.349  23.736  23.572  1.00  0.00     0.163 HD
BRANCH   4   7
ATOM      7  C   UNL A   1      33.228  24.504  24.552  1.00  0.00     0.128 C 
BRANCH   7   8
ATOM      8  C   UNL A   1      32.125  23.441  24.781  1.00  0.00     0.049 C 
ATOM      9  C   UNL A   1      30.767  24.116  25.152  1.00  0.00     0.029 C 
ATOM     10  C   UNL A   1      32.135  22.859  26.209  1.00  0.00     0.029 C 
ATOM     11  C   UNL A   1      31.128  23.937  26.635  1.00  0.00     0.005 C 
BRANCH   8  12
ATOM     12  N   UNL A   1      32.024  22.547  23.602  1.00  0.00    -0.350 N 
ATOM     13  C   UNL A   1      32.183  21.233  23.294  1.00  0.00     0.227 C 
ATOM     14  O   UNL A   1      31.945  20.953  22.108  1.00  0.00    -0.274 OA
ATOM     15  H   UNL A   1      31.763  23.058  22.803  1.00  0.00     0.164 HD
BRANCH  13  16
ATOM     16  C   UNL A   1      32.652  20.091  24.203  1.00  0.00     0.107 C 
ATOM     17  C   UNL A   1      33.599  17.829  24.136  1.00  0.00     0.205 C 
ATOM     18  C   UNL A   1      34.580  18.839  24.638  1.00  0.00     0.033 C 
ATOM     19  C   UNL A   1      32.420  18.685  23.638  1.00  0.00     0.087 C 
ATOM     20  C   UNL A   1      34.068  20.075  24.670  1.00  0.00    -0.012 C 
BRANCH  17  21
ATOM     21  N   UNL A   1      34.159  17.017  23.068  1.00  0.00    -0.352 N 
ATOM     22  H   UNL A   1      34.954  17.503  22.652  1.00  0.00     0.345 HD
ATOM     23  H   UNL A   1      33.448  16.855  22.355  1.00  0.00     0.345 HD
ATOM     24  H   UNL A   1      34.469  16.122  23.448  1.00  0.00     0.345 HD
ENDBRANCH  17  21
ENDBRANCH  13  16
ENDBRANCH   8  12
ENDBRANCH   7   8
ENDBRANCH   4   7
ENDBRANCH   2   3
ENDBRANCH   1   2
BRANCH   1  25
ATOM     25  C   UNL A   1      38.214  22.338  25.778  1.00  0.00     0.002 C 
BRANCH  25  26
ATOM     26  C   UNL A   1      37.659  21.295  24.801  1.00  0.00     0.002 C 
BRANCH  26  27
ATOM     27  C   UNL A   1      38.275  19.898  24.918  1.00  0.00     0.021 C 
BRANCH  27  28
ATOM     28  C   UNL A   1      39.121  19.680  26.170  1.00  0.00     0.116 C 
BRANCH  28  29
ATOM     29  N   UNL A   1      40.407  19.077  25.854  1.00  0.00    -0.352 N 
ATOM     30  C   UNL A   1      41.652  19.643  25.810  1.00  0.00     0.251 C 
ATOM     31  H   UNL A   1      40.377  18.117  25.639  1.00  0.00     0.163 HD
ATOM     32  O   UNL A   1      42.585  19.032  25.284  1.00  0.00    -0.269 OA
BRANCH  30  33
ATOM     33  C   UNL A   1      41.891  20.983  26.382  1.00  0.00     0.039 A 
ATOM     34  C   UNL A   1      41.662  21.188  27.746  1.00  0.00     0.014 A 
ATOM     35  C   UNL A   1      42.291  22.051  25.573  1.00  0.00     0.014 A 
ATOM     36  C   UNL A   1      41.880  22.448  28.305  1.00  0.00     0.010 A 
ATOM     37  C   UNL A   1      42.576  23.289  26.142  1.00  0.00     0.010 A 
ATOM     38  C   UNL A   1      42.363  23.503  27.512  1.00  0.00    -0.014 A 
BRANCH  38  39
ATOM     39  C   UNL A   1      42.643  24.834  28.107  1.00  0.00     0.031 A 
ATOM     40  C   UNL A   1      44.032  25.191  28.559  1.00  0.00     0.074 A 
ATOM     41  C   UNL A   1      41.633  25.707  28.283  1.00  0.00     0.049 A 
ATOM     42  N   UNL A   1      44.462  26.298  29.109  1.00  0.00    -0.248 NA
ATOM     43  C   UNL A   1      45.068  24.159  28.397  1.00  0.00     0.031 C 
ATOM     44  C   UNL A   1      40.233  25.458  27.935  1.00  0.00     0.029 A 
ATOM     45  N   UNL A   1      41.628  26.979  28.797  1.00  0.00    -0.354 N 
ATOM     46  C   UNL A   1      45.812  26.091  29.369  1.00  0.00     0.074 A 
ATOM     47  C   UNL A   1      46.114  24.734  28.968  1.00  0.00     0.031 C 
ATOM     48  C   UNL A   1      39.511  26.555  28.214  1.00  0.00     0.029 A 
ATOM     49  C   UNL A   1      40.389  27.570  28.787  1.00  0.00     0.049 A 
ATOM     50  H   UNL A   1      42.436  27.424  29.141  1.00  0.00     0.167 HD
ATOM     51  C   UNL A   1      46.721  26.960  29.872  1.00  0.00     0.037 A 
ATOM     52  C   UNL A   1      40.006  28.797  29.186  1.00  0.00     0.037 A 
ATOM     53  C   UNL A   1      46.422  28.318  30.246  1.00  0.00     0.049 A 
ATOM     54  C   UNL A   1      41.034  29.748  29.732  1.00  0.00     0.074 A 
ATOM     55  C   UNL A   1      47.286  29.298  30.703  1.00  0.00     0.029 A 
ATOM     56  N   UNL A   1      45.157  28.886  30.209  1.00  0.00    -0.354 N 
ATOM     57  N   UNL A   1      42.321  29.566  29.901  1.00  0.00    -0.248 NA
ATOM     58  C   UNL A   1      40.556  31.078  30.133  1.00  0.00     0.031 C 
ATOM     59  C   UNL A   1      46.537  30.446  30.982  1.00  0.00     0.029 A 
ATOM     60  C   UNL A   1      45.213  30.195  30.655  1.00  0.00     0.049 A 
ATOM     61  H   UNL A   1      44.340  28.425  29.910  1.00  0.00     0.167 HD
ATOM     62  C   UNL A   1      42.812  30.765  30.400  1.00  0.00     0.074 A 
ATOM     63  C   UNL A   1      41.686  31.670  30.497  1.00  0.00     0.031 C 
ATOM     64  C   UNL A   1      44.083  31.086  30.744  1.00  0.00     0.037 A 
BRANCH  51  65
ATOM     65  C   UNL A   1      48.128  26.462  30.043  1.00  0.00     0.057 A 
ATOM     66  C   UNL A   1      49.082  26.573  29.023  1.00  0.00     0.134 A 
ATOM     67  C   UNL A   1      48.539  25.880  31.250  1.00  0.00     0.134 A 
ATOM     68  F   UNL A   1      48.750  27.109  27.838  1.00  0.00    -0.206 F 
ATOM     69  C   UNL A   1      50.382  26.092  29.182  1.00  0.00     0.040 A 
ATOM     70  C   UNL A   1      49.845  25.423  31.431  1.00  0.00     0.040 A 
ATOM     71  F   UNL A   1      47.681  25.749  32.271  1.00  0.00    -0.206 F 
ATOM     72  C   UNL A   1      50.769  25.520  30.392  1.00  0.00     0.006 A 
ENDBRANCH  51  65
BRANCH  52  73
ATOM     73  C   UNL A   1      38.589  29.211  29.036  1.00  0.00     0.057 A 
ATOM     74  C   UNL A   1      38.094  29.644  27.801  1.00  0.00     0.134 A 
ATOM     75  C   UNL A   1      37.694  29.166  30.112  1.00  0.00     0.134 A 
ATOM     76  F   UNL A   1      38.909  29.722  26.739  1.00  0.00    -0.206 F 
ATOM     77  C   UNL A   1      36.763  30.030  27.641  1.00  0.00     0.040 A 
ATOM     78  C   UNL A   1      36.355  29.528  29.961  1.00  0.00     0.040 A 
ATOM     79  F   UNL A   1      38.105  28.751  31.319  1.00  0.00    -0.206 F 
ATOM     80  C   UNL A   1      35.887  29.966  28.724  1.00  0.00     0.006 A 
ENDBRANCH  52  73
BRANCH  64  81
ATOM     81  C   UNL A   1      44.329  32.485  31.227  1.00  0.00     0.057 A 
ATOM     82  C   UNL A   1      44.619  33.533  30.346  1.00  0.00     0.134 A 
ATOM     83  C   UNL A   1      44.240  32.792  32.591  1.00  0.00     0.134 A 
ATOM     84  F   UNL A   1      44.732  33.303  29.029  1.00  0.00    -0.206 F 
ATOM     85  C   UNL A   1      44.831  34.834  30.805  1.00  0.00     0.040 A 
ATOM     86  C   UNL A   1      44.425  34.092  33.061  1.00  0.00     0.040 A 
ATOM     87  F   UNL A   1      43.957  31.834  33.489  1.00  0.00    -0.206 F 
ATOM     88  C   UNL A   1      44.729  35.117  32.167  1.00  0.00     0.006 A 
ENDBRANCH  64  81
ENDBRANCH  38  39
ENDBRANCH  30  33
ENDBRANCH  28  29
ENDBRANCH  27  28
ENDBRANCH  26  27
ENDBRANCH  25  26
ENDBRANCH   1  25
TORSDOF 17
ENDMDL
MODEL 3
REMARK VINA RESULT:     -10.8      1.035      6.407
REMARK SMILES [NH3+][C@H]1C=C[C@@H](C(=O)NC2(CC(=O)NCCCCCCNC(=O)c3ccc(-c4c5nc(c(-c6c(F)cccc6F)c6ccc([nH]6)c(-c6c(F)cccc6F)c6nc(c(-c7c(F)cccc7F)c7ccc4[nH]7)C=C6)C=C5)cc3)CCC2)C1
REMARK SMILES IDX 15 1 14 2 13 3 11 4 12 5 10 7 9 8 77 9 79 10 78 11 8 12 6 13
REMARK SMILES IDX 7 14 5 16 2 17 3 18 80 19 4 20 1 21 16 25 17 26 18 27 19 28
REMARK SMILES IDX 20 29 21 30 22 32 23 33 24 34 76 35 25 36 75 37 26 38 27 39
REMARK SMILES IDX 28 40 69 41 29 42 74 43 68 44 70 45 30 46 73 47 67 48 66 49
REMARK SMILES IDX 31 51 57 52 40 53 56 54 41 55 44 56 55 57 71 58 42 59 43 60
REMARK SMILES IDX 54 62 72 63 45 64 32 65 33 66 38 67 34 68 35 69 37 70 39 71
REMARK SMILES IDX 36 72 58 73 59 74 64 75 60 76 61 77 63 78 65 79 62 80 46 81
REMARK SMILES IDX 47 82 52 83 48 84 49 85 51 86 53 87 50 88
REMARK H PARENT 13 6 8 15 1 22 1 23 1 24 20 31 70 50 44 61
REMARK Flexibility Score: inf
ROOT
ATOM      1  C   UNL A   1      33.350  29.107  26.248  1.00  0.00     0.021 C 
ENDROOT
BRANCH   1   2
ATOM      2  C   UNL A   1      33.288  27.611  26.574  1.00  0.00     0.116 C 
BRANCH   2   3
ATOM      3  N   UNL A   1      33.895  26.842  25.510  1.00  0.00    -0.356 N 
ATOM      4  C   UNL A   1      33.865  25.499  25.307  1.00  0.00     0.222 C 
ATOM      5  O   UNL A   1      34.646  25.010  24.486  1.00  0.00    -0.275 OA
ATOM      6  H   UNL A   1      34.399  27.362  24.843  1.00  0.00     0.163 HD
BRANCH   4   7
ATOM      7  C   UNL A   1      32.893  24.614  26.056  1.00  0.00     0.128 C 
BRANCH   7   8
ATOM      8  C   UNL A   1      31.608  24.187  25.305  1.00  0.00     0.049 C 
ATOM      9  C   UNL A   1      30.331  24.688  26.050  1.00  0.00     0.029 C 
ATOM     10  C   UNL A   1      31.153  22.755  25.654  1.00  0.00     0.029 C 
ATOM     11  C   UNL A   1      30.263  23.330  26.766  1.00  0.00     0.005 C 
BRANCH   8  12
ATOM     12  N   UNL A   1      31.667  24.636  23.892  1.00  0.00    -0.350 N 
ATOM     13  C   UNL A   1      31.400  25.747  23.158  1.00  0.00     0.227 C 
ATOM     14  O   UNL A   1      31.650  25.632  21.946  1.00  0.00    -0.274 OA
ATOM     15  H   UNL A   1      31.998  23.912  23.314  1.00  0.00     0.164 HD
BRANCH  13  16
ATOM     16  C   UNL A   1      30.801  27.079  23.626  1.00  0.00     0.107 C 
ATOM     17  C   UNL A   1      30.412  29.388  22.896  1.00  0.00     0.205 C 
ATOM     18  C   UNL A   1      29.143  28.605  22.994  1.00  0.00     0.033 C 
ATOM     19  C   UNL A   1      31.510  28.326  23.085  1.00  0.00     0.087 C 
ATOM     20  C   UNL A   1      29.352  27.342  23.387  1.00  0.00    -0.012 C 
BRANCH  17  21
ATOM     21  N   UNL A   1      30.534  30.059  21.611  1.00  0.00    -0.352 N 
ATOM     22  H   UNL A   1      31.512  30.063  21.320  1.00  0.00     0.345 HD
ATOM     23  H   UNL A   1      30.200  31.019  21.695  1.00  0.00     0.345 HD
ATOM     24  H   UNL A   1      29.975  29.565  20.915  1.00  0.00     0.345 HD
ENDBRANCH  17  21
ENDBRANCH  13  16
ENDBRANCH   8  12
ENDBRANCH   7   8
ENDBRANCH   4   7
ENDBRANCH   2   3
ENDBRANCH   1   2
BRANCH   1  25
ATOM     25  C   UNL A   1      32.309  29.938  27.008  1.00  0.00     0.002 C 
BRANCH  25  26
ATOM     26  C   UNL A   1      31.428  30.823  26.118  1.00  0.00     0.002 C 
BRANCH  26  27
ATOM     27  C   UNL A   1      31.339  32.291  26.542  1.00  0.00     0.021 C 
BRANCH  27  28
ATOM     28  C   UNL A   1      32.623  32.860  27.139  1.00  0.00     0.116 C 
BRANCH  28  29
ATOM     29  N   UNL A   1      32.452  34.236  27.579  1.00  0.00    -0.352 N 
ATOM     30  C   UNL A   1      33.029  34.900  28.627  1.00  0.00     0.251 C 
ATOM     31  H   UNL A   1      31.826  34.772  27.039  1.00  0.00     0.163 HD
ATOM     32  O   UNL A   1      32.575  35.988  28.988  1.00  0.00    -0.269 OA
BRANCH  30  33
ATOM     33  C   UNL A   1      34.189  34.324  29.336  1.00  0.00     0.039 A 
ATOM     34  C   UNL A   1      33.972  33.592  30.507  1.00  0.00     0.014 A 
ATOM     35  C   UNL A   1      35.493  34.543  28.880  1.00  0.00     0.014 A 
ATOM     36  C   UNL A   1      35.056  33.042  31.193  1.00  0.00     0.010 A 
ATOM     37  C   UNL A   1      36.568  33.936  29.525  1.00  0.00     0.010 A 
ATOM     38  C   UNL A   1      36.361  33.188  30.693  1.00  0.00    -0.014 A 
BRANCH  38  39
ATOM     39  C   UNL A   1      37.516  32.567  31.389  1.00  0.00     0.031 A 
ATOM     40  C   UNL A   1      38.212  31.373  30.796  1.00  0.00     0.074 A 
ATOM     41  C   UNL A   1      37.908  33.051  32.583  1.00  0.00     0.049 A 
ATOM     42  N   UNL A   1      39.228  30.693  31.264  1.00  0.00    -0.248 NA
ATOM     43  C   UNL A   1      37.681  30.861  29.524  1.00  0.00     0.031 C 
ATOM     44  C   UNL A   1      37.280  34.169  33.289  1.00  0.00     0.029 A 
ATOM     45  N   UNL A   1      38.929  32.664  33.414  1.00  0.00    -0.354 N 
ATOM     46  C   UNL A   1      39.448  29.668  30.352  1.00  0.00     0.074 A 
ATOM     47  C   UNL A   1      38.426  29.783  29.335  1.00  0.00     0.031 C 
ATOM     48  C   UNL A   1      37.950  34.400  34.428  1.00  0.00     0.029 A 
ATOM     49  C   UNL A   1      39.034  33.430  34.549  1.00  0.00     0.049 A 
ATOM     50  H   UNL A   1      39.530  31.909  33.215  1.00  0.00     0.167 HD
ATOM     51  C   UNL A   1      40.428  28.733  30.349  1.00  0.00     0.037 A 
ATOM     52  C   UNL A   1      39.910  33.363  35.567  1.00  0.00     0.037 A 
ATOM     53  C   UNL A   1      41.459  28.637  31.350  1.00  0.00     0.049 A 
ATOM     54  C   UNL A   1      40.995  32.323  35.538  1.00  0.00     0.074 A 
ATOM     55  C   UNL A   1      42.534  27.767  31.402  1.00  0.00     0.029 A 
ATOM     56  N   UNL A   1      41.539  29.439  32.479  1.00  0.00    -0.354 N 
ATOM     57  N   UNL A   1      41.238  31.408  34.632  1.00  0.00    -0.248 NA
ATOM     58  C   UNL A   1      41.931  32.313  36.671  1.00  0.00     0.031 C 
ATOM     59  C   UNL A   1      43.241  28.015  32.584  1.00  0.00     0.029 A 
ATOM     60  C   UNL A   1      42.633  29.071  33.245  1.00  0.00     0.049 A 
ATOM     61  H   UNL A   1      40.911  30.163  32.702  1.00  0.00     0.167 HD
ATOM     62  C   UNL A   1      42.371  30.733  35.067  1.00  0.00     0.074 A 
ATOM     63  C   UNL A   1      42.771  31.350  36.315  1.00  0.00     0.031 C 
ATOM     64  C   UNL A   1      43.021  29.697  34.483  1.00  0.00     0.037 A 
BRANCH  51  65
ATOM     65  C   UNL A   1      40.428  27.738  29.223  1.00  0.00     0.057 A 
ATOM     66  C   UNL A   1      39.578  26.624  29.220  1.00  0.00     0.134 A 
ATOM     67  C   UNL A   1      41.276  27.905  28.120  1.00  0.00     0.134 A 
ATOM     68  F   UNL A   1      38.750  26.398  30.252  1.00  0.00    -0.206 F 
ATOM     69  C   UNL A   1      39.596  25.694  28.180  1.00  0.00     0.040 A 
ATOM     70  C   UNL A   1      41.281  26.998  27.060  1.00  0.00     0.040 A 
ATOM     71  F   UNL A   1      42.110  28.953  28.054  1.00  0.00    -0.206 F 
ATOM     72  C   UNL A   1      40.446  25.883  27.092  1.00  0.00     0.006 A 
ENDBRANCH  51  65
BRANCH  52  73
ATOM     73  C   UNL A   1      39.826  34.344  36.677  1.00  0.00     0.057 A 
ATOM     74  C   UNL A   1      39.147  34.033  37.861  1.00  0.00     0.134 A 
ATOM     75  C   UNL A   1      40.432  35.603  36.591  1.00  0.00     0.134 A 
ATOM     76  F   UNL A   1      38.534  32.848  37.994  1.00  0.00    -0.206 F 
ATOM     77  C   UNL A   1      39.064  34.941  38.917  1.00  0.00     0.040 A 
ATOM     78  C   UNL A   1      40.376  36.513  37.648  1.00  0.00     0.040 A 
ATOM     79  F   UNL A   1      41.106  35.957  35.487  1.00  0.00    -0.206 F 
ATOM     80  C   UNL A   1      39.686  36.184  38.813  1.00  0.00     0.006 A 
ENDBRANCH  52  73
BRANCH  64  81
ATOM     81  C   UNL A   1      44.252  29.186  35.172  1.00  0.00     0.057 A 
ATOM     82  C   UNL A   1      44.194  28.173  36.137  1.00  0.00     0.134 A 
ATOM     83  C   UNL A   1      45.515  29.691  34.838  1.00  0.00     0.134 A 
ATOM     84  F   UNL A   1      43.014  27.656  36.511  1.00  0.00    -0.206 F 
ATOM     85  C   UNL A   1      45.348  27.694  36.761  1.00  0.00     0.040 A 
ATOM     86  C   UNL A   1      46.678  29.204  35.436  1.00  0.00     0.040 A 
ATOM     87  F   UNL A   1      45.641  30.657  33.915  1.00  0.00    -0.206 F 
ATOM     88  C   UNL A   1      46.595  28.206  36.406  1.00  0.00     0.006 A 
ENDBRANCH  64  81
ENDBRANCH  38  39
ENDBRANCH  30  33
ENDBRANCH  28  29
ENDBRANCH  27  28
ENDBRANCH  26  27
ENDBRANCH  25  26
ENDBRANCH   1  25
TORSDOF 17
ENDMDL
