MODEL 1
REMARK VINA RESULT:     -10.5      0.000      0.000
REMARK SMILES C[NH2+]C[C@@H](C)C(=O)Nc1ccc(Cl)cc1C(=O)NCCCCCCNC(=O)c1ccc(-c2c3nc(c(-c4c(F)cccc4F)c4ccc([nH]4)c(-c4c(F)cccc4F)c4nc(c(-c5c(F)cccc5F)c5ccc2[nH]5)C=C4)C=C3)cc1
REMARK SMILES IDX 20 1 19 2 18 3 16 4 17 5 15 7 9 8 10 9 11 10 14 11 12 12
REMARK SMILES IDX 13 13 8 14 6 15 7 16 4 18 5 19 3 20 2 21 1 22 21 25 22 26
REMARK SMILES IDX 23 27 24 28 25 29 26 30 27 32 28 33 29 34 81 35 30 36 80 37
REMARK SMILES IDX 31 38 32 39 33 40 74 41 34 42 79 43 73 44 75 45 35 46 78 47
REMARK SMILES IDX 72 48 71 49 36 51 62 52 45 53 61 54 46 55 49 56 60 57 76 58
REMARK SMILES IDX 47 59 48 60 59 62 77 63 50 64 37 65 38 66 43 67 39 68 40 69
REMARK SMILES IDX 42 70 44 71 41 72 63 73 64 74 69 75 65 76 66 77 68 78 70 79
REMARK SMILES IDX 67 80 51 81 52 82 57 83 53 84 54 85 56 86 58 87 55 88
REMARK H PARENT 18 6 8 17 2 23 2 24 25 31 75 50 49 61
REMARK Flexibility Score: inf
ROOT
ATOM      1  C   UNL A   1      35.431  22.306  26.391  1.00  0.00     0.021 C 
ENDROOT
BRANCH   1   2
ATOM      2  C   UNL A   1      34.426  21.695  27.355  1.00  0.00     0.116 C 
BRANCH   2   3
ATOM      3  N   UNL A   1      33.261  22.483  27.643  1.00  0.00    -0.352 N 
ATOM      4  C   UNL A   1      32.172  22.807  26.875  1.00  0.00     0.253 C 
ATOM      5  O   UNL A   1      31.322  23.509  27.434  1.00  0.00    -0.269 OA
ATOM      6  H   UNL A   1      33.240  22.858  28.554  1.00  0.00     0.163 HD
BRANCH   4   7
ATOM      7  C   UNL A   1      31.918  22.425  25.441  1.00  0.00     0.064 A 
ATOM      8  C   UNL A   1      31.461  23.200  24.357  1.00  0.00     0.054 A 
ATOM      9  C   UNL A   1      31.562  22.697  23.048  1.00  0.00     0.028 A 
ATOM     10  C   UNL A   1      31.924  21.379  22.798  1.00  0.00     0.023 A 
ATOM     11  C   UNL A   1      32.261  21.078  25.163  1.00  0.00     0.036 A 
ATOM     12  C   UNL A   1      32.233  20.558  23.867  1.00  0.00     0.041 A 
ATOM     13  Cl  UNL A   1      32.615  18.907  23.587  1.00  0.00    -0.084 Cl
BRANCH   8  14
ATOM     14  N   UNL A   1      30.977  24.506  24.452  1.00  0.00    -0.325 N 
ATOM     15  C   UNL A   1      31.679  25.687  24.393  1.00  0.00     0.232 C 
ATOM     16  O   UNL A   1      31.015  26.727  24.501  1.00  0.00    -0.274 OA
ATOM     17  H   UNL A   1      30.004  24.593  24.577  1.00  0.00     0.169 HD
BRANCH  15  18
ATOM     18  C   UNL A   1      33.194  25.794  24.085  1.00  0.00     0.130 C 
ATOM     19  C   UNL A   1      34.106  25.760  25.314  1.00  0.00     0.024 C 
BRANCH  18  20
ATOM     20  C   UNL A   1      33.525  26.931  23.109  1.00  0.00     0.273 C 
BRANCH  20  21
ATOM     21  N   UNL A   1      32.785  26.968  21.845  1.00  0.00    -0.348 N 
ATOM     22  C   UNL A   1      32.768  25.697  21.142  1.00  0.00     0.330 C 
ATOM     23  H   UNL A   1      31.822  27.240  22.044  1.00  0.00     0.346 HD
ATOM     24  H   UNL A   1      33.262  27.637  21.240  1.00  0.00     0.346 HD
ENDBRANCH  20  21
ENDBRANCH  18  20
ENDBRANCH  15  18
ENDBRANCH   8  14
ENDBRANCH   4   7
ENDBRANCH   2   3
ENDBRANCH   1   2
BRANCH   1  25
ATOM     25  C   UNL A   1      35.881  21.427  25.225  1.00  0.00     0.002 C 
BRANCH  25  26
ATOM     26  C   UNL A   1      37.328  21.579  24.750  1.00  0.00     0.002 C 
BRANCH  26  27
ATOM     27  C   UNL A   1      38.177  20.308  24.661  1.00  0.00     0.021 C 
BRANCH  27  28
ATOM     28  C   UNL A   1      38.738  19.773  25.972  1.00  0.00     0.116 C 
BRANCH  28  29
ATOM     29  N   UNL A   1      39.987  19.051  25.804  1.00  0.00    -0.352 N 
ATOM     30  C   UNL A   1      41.276  19.476  25.985  1.00  0.00     0.251 C 
ATOM     31  H   UNL A   1      39.892  18.115  25.517  1.00  0.00     0.163 HD
ATOM     32  O   UNL A   1      42.210  18.734  25.668  1.00  0.00    -0.269 OA
BRANCH  30  33
ATOM     33  C   UNL A   1      41.569  20.816  26.538  1.00  0.00     0.039 A 
ATOM     34  C   UNL A   1      42.043  21.808  25.673  1.00  0.00     0.014 A 
ATOM     35  C   UNL A   1      41.429  21.095  27.901  1.00  0.00     0.014 A 
ATOM     36  C   UNL A   1      42.341  23.081  26.163  1.00  0.00     0.010 A 
ATOM     37  C   UNL A   1      41.653  22.386  28.376  1.00  0.00     0.010 A 
ATOM     38  C   UNL A   1      42.131  23.387  27.517  1.00  0.00    -0.014 A 
BRANCH  38  39
ATOM     39  C   UNL A   1      42.453  24.733  28.059  1.00  0.00     0.031 A 
ATOM     40  C   UNL A   1      43.865  25.063  28.462  1.00  0.00     0.074 A 
ATOM     41  C   UNL A   1      41.474  25.643  28.228  1.00  0.00     0.049 A 
ATOM     42  N   UNL A   1      44.338  26.156  29.006  1.00  0.00    -0.248 NA
ATOM     43  C   UNL A   1      44.876  24.014  28.250  1.00  0.00     0.031 C 
ATOM     44  C   UNL A   1      40.060  25.435  27.910  1.00  0.00     0.029 A 
ATOM     45  N   UNL A   1      41.519  26.924  28.715  1.00  0.00    -0.354 N 
ATOM     46  C   UNL A   1      45.691  25.919  29.215  1.00  0.00     0.074 A 
ATOM     47  C   UNL A   1      45.953  24.561  28.793  1.00  0.00     0.031 C 
ATOM     48  C   UNL A   1      39.377  26.556  28.191  1.00  0.00     0.029 A 
ATOM     49  C   UNL A   1      40.296  27.549  28.742  1.00  0.00     0.049 A 
ATOM     50  H   UNL A   1      42.351  27.357  29.018  1.00  0.00     0.167 HD
ATOM     51  C   UNL A   1      46.637  26.764  29.691  1.00  0.00     0.037 A 
ATOM     52  C   UNL A   1      39.952  28.779  29.167  1.00  0.00     0.037 A 
ATOM     53  C   UNL A   1      46.379  28.125  30.086  1.00  0.00     0.049 A 
ATOM     54  C   UNL A   1      41.020  29.697  29.699  1.00  0.00     0.074 A 
ATOM     55  C   UNL A   1      47.278  29.078  30.534  1.00  0.00     0.029 A 
ATOM     56  N   UNL A   1      45.129  28.724  30.080  1.00  0.00    -0.354 N 
ATOM     57  N   UNL A   1      42.306  29.480  29.835  1.00  0.00    -0.248 NA
ATOM     58  C   UNL A   1      40.589  31.035  30.128  1.00  0.00     0.031 C 
ATOM     59  C   UNL A   1      46.564  30.240  30.842  1.00  0.00     0.029 A 
ATOM     60  C   UNL A   1      45.230  30.029  30.533  1.00  0.00     0.049 A 
ATOM     61  H   UNL A   1      44.294  28.288  29.796  1.00  0.00     0.167 HD
ATOM     62  C   UNL A   1      42.842  30.664  30.328  1.00  0.00     0.074 A 
ATOM     63  C   UNL A   1      41.742  31.597  30.458  1.00  0.00     0.031 C 
ATOM     64  C   UNL A   1      44.128  30.952  30.642  1.00  0.00     0.037 A 
BRANCH  51  65
ATOM     65  C   UNL A   1      48.040  26.240  29.809  1.00  0.00     0.057 A 
ATOM     66  C   UNL A   1      48.931  26.258  28.726  1.00  0.00     0.134 A 
ATOM     67  C   UNL A   1      48.517  25.738  31.026  1.00  0.00     0.134 A 
ATOM     68  F   UNL A   1      48.535  26.714  27.529  1.00  0.00    -0.206 F 
ATOM     69  C   UNL A   1      50.232  25.769  28.843  1.00  0.00     0.040 A 
ATOM     70  C   UNL A   1      49.827  25.274  31.163  1.00  0.00     0.040 A 
ATOM     71  F   UNL A   1      47.722  25.697  32.106  1.00  0.00    -0.206 F 
ATOM     72  C   UNL A   1      50.686  25.282  30.066  1.00  0.00     0.006 A 
ENDBRANCH  51  65
BRANCH  52  73
ATOM     73  C   UNL A   1      38.539  29.229  29.088  1.00  0.00     0.057 A 
ATOM     74  C   UNL A   1      38.003  29.718  27.891  1.00  0.00     0.134 A 
ATOM     75  C   UNL A   1      37.697  29.196  30.205  1.00  0.00     0.134 A 
ATOM     76  F   UNL A   1      38.766  29.792  26.790  1.00  0.00    -0.206 F 
ATOM     77  C   UNL A   1      36.689  30.182  27.812  1.00  0.00     0.040 A 
ATOM     78  C   UNL A   1      36.372  29.631  30.134  1.00  0.00     0.040 A 
ATOM     79  F   UNL A   1      38.146  28.732  31.380  1.00  0.00    -0.206 F 
ATOM     80  C   UNL A   1      35.868  30.135  28.937  1.00  0.00     0.006 A 
ENDBRANCH  52  73
BRANCH  64  81
ATOM     81  C   UNL A   1      44.428  32.348  31.108  1.00  0.00     0.057 A 
ATOM     82  C   UNL A   1      44.715  33.386  30.213  1.00  0.00     0.134 A 
ATOM     83  C   UNL A   1      44.388  32.663  32.473  1.00  0.00     0.134 A 
ATOM     84  F   UNL A   1      44.780  33.148  28.894  1.00  0.00    -0.206 F 
ATOM     85  C   UNL A   1      44.980  34.682  30.661  1.00  0.00     0.040 A 
ATOM     86  C   UNL A   1      44.622  33.961  32.930  1.00  0.00     0.040 A 
ATOM     87  F   UNL A   1      44.107  31.719  33.383  1.00  0.00    -0.206 F 
ATOM     88  C   UNL A   1      44.926  34.973  32.023  1.00  0.00     0.006 A 
ENDBRANCH  64  81
ENDBRANCH  38  39
ENDBRANCH  30  33
ENDBRANCH  28  29
ENDBRANCH  27  28
ENDBRANCH  26  27
ENDBRANCH  25  26
ENDBRANCH   1  25
TORSDOF 17
ENDMDL
MODEL 2
REMARK VINA RESULT:     -10.4      4.352      9.271
REMARK SMILES C[NH2+]C[C@@H](C)C(=O)Nc1ccc(Cl)cc1C(=O)NCCCCCCNC(=O)c1ccc(-c2c3nc(c(-c4c(F)cccc4F)c4ccc([nH]4)c(-c4c(F)cccc4F)c4nc(c(-c5c(F)cccc5F)c5ccc2[nH]5)C=C4)C=C3)cc1
REMARK SMILES IDX 20 1 19 2 18 3 16 4 17 5 15 7 9 8 10 9 11 10 14 11 12 12
REMARK SMILES IDX 13 13 8 14 6 15 7 16 4 18 5 19 3 20 2 21 1 22 21 25 22 26
REMARK SMILES IDX 23 27 24 28 25 29 26 30 27 32 28 33 29 34 81 35 30 36 80 37
REMARK SMILES IDX 31 38 32 39 33 40 74 41 34 42 79 43 73 44 75 45 35 46 78 47
REMARK SMILES IDX 72 48 71 49 36 51 62 52 45 53 61 54 46 55 49 56 60 57 76 58
REMARK SMILES IDX 47 59 48 60 59 62 77 63 50 64 37 65 38 66 43 67 39 68 40 69
REMARK SMILES IDX 42 70 44 71 41 72 63 73 64 74 69 75 65 76 66 77 68 78 70 79
REMARK SMILES IDX 67 80 51 81 52 82 57 83 53 84 54 85 56 86 58 87 55 88
REMARK H PARENT 18 6 8 17 2 23 2 24 25 31 75 50 49 61
REMARK Flexibility Score: inf
ROOT
ATOM      1  C   UNL A   1      33.623  29.412  26.953  1.00  0.00     0.021 C 
ENDROOT
BRANCH   1   2
ATOM      2  C   UNL A   1      33.907  28.249  26.014  1.00  0.00     0.116 C 
BRANCH   2   3
ATOM      3  N   UNL A   1      34.446  28.587  24.728  1.00  0.00    -0.352 N 
ATOM      4  C   UNL A   1      33.887  28.562  23.476  1.00  0.00     0.253 C 
ATOM      5  O   UNL A   1      34.629  28.930  22.558  1.00  0.00    -0.269 OA
ATOM      6  H   UNL A   1      35.382  28.890  24.747  1.00  0.00     0.163 HD
BRANCH   4   7
ATOM      7  C   UNL A   1      32.497  28.118  23.102  1.00  0.00     0.064 A 
ATOM      8  C   UNL A   1      32.035  26.882  22.609  1.00  0.00     0.054 A 
ATOM      9  C   UNL A   1      30.656  26.609  22.593  1.00  0.00     0.028 A 
ATOM     10  C   UNL A   1      29.714  27.591  22.870  1.00  0.00     0.023 A 
ATOM     11  C   UNL A   1      31.517  29.110  23.357  1.00  0.00     0.036 A 
ATOM     12  C   UNL A   1      30.152  28.858  23.213  1.00  0.00     0.041 A 
ATOM     13  Cl  UNL A   1      29.005  30.107  23.491  1.00  0.00    -0.084 Cl
BRANCH   8  14
ATOM     14  N   UNL A   1      32.851  25.826  22.198  1.00  0.00    -0.325 N 
ATOM     15  C   UNL A   1      33.533  24.918  22.974  1.00  0.00     0.232 C 
ATOM     16  O   UNL A   1      34.194  24.065  22.367  1.00  0.00    -0.274 OA
ATOM     17  H   UNL A   1      32.950  25.717  21.225  1.00  0.00     0.169 HD
BRANCH  15  18
ATOM     18  C   UNL A   1      33.429  24.826  24.517  1.00  0.00     0.130 C 
ATOM     19  C   UNL A   1      34.769  24.718  25.249  1.00  0.00     0.024 C 
BRANCH  18  20
ATOM     20  C   UNL A   1      32.392  23.797  24.985  1.00  0.00     0.273 C 
BRANCH  20  21
ATOM     21  N   UNL A   1      32.657  22.389  24.675  1.00  0.00    -0.348 N 
ATOM     22  C   UNL A   1      32.250  21.473  25.725  1.00  0.00     0.330 C 
ATOM     23  H   UNL A   1      32.151  22.148  23.822  1.00  0.00     0.346 HD
ATOM     24  H   UNL A   1      33.667  22.293  24.569  1.00  0.00     0.346 HD
ENDBRANCH  20  21
ENDBRANCH  18  20
ENDBRANCH  15  18
ENDBRANCH   8  14
ENDBRANCH   4   7
ENDBRANCH   2   3
ENDBRANCH   1   2
BRANCH   1  25
ATOM     25  C   UNL A   1      32.153  29.758  27.187  1.00  0.00     0.002 C 
BRANCH  25  26
ATOM     26  C   UNL A   1      31.525  30.809  26.269  1.00  0.00     0.002 C 
BRANCH  26  27
ATOM     27  C   UNL A   1      31.388  32.231  26.818  1.00  0.00     0.021 C 
BRANCH  27  28
ATOM     28  C   UNL A   1      32.674  33.039  26.939  1.00  0.00     0.116 C 
BRANCH  28  29
ATOM     29  N   UNL A   1      32.504  34.272  27.688  1.00  0.00    -0.352 N 
ATOM     30  C   UNL A   1      33.163  34.720  28.801  1.00  0.00     0.251 C 
ATOM     31  H   UNL A   1      31.809  34.877  27.342  1.00  0.00     0.163 HD
ATOM     32  O   UNL A   1      32.780  35.750  29.361  1.00  0.00    -0.269 OA
BRANCH  30  33
ATOM     33  C   UNL A   1      34.317  33.978  29.355  1.00  0.00     0.039 A 
ATOM     34  C   UNL A   1      35.607  34.380  28.991  1.00  0.00     0.014 A 
ATOM     35  C   UNL A   1      34.146  32.868  30.187  1.00  0.00     0.014 A 
ATOM     36  C   UNL A   1      36.719  33.695  29.486  1.00  0.00     0.010 A 
ATOM     37  C   UNL A   1      35.256  32.232  30.741  1.00  0.00     0.010 A 
ATOM     38  C   UNL A   1      36.554  32.626  30.380  1.00  0.00    -0.014 A 
BRANCH  38  39
ATOM     39  C   UNL A   1      37.725  31.879  30.909  1.00  0.00     0.031 A 
ATOM     40  C   UNL A   1      38.243  32.173  32.291  1.00  0.00     0.074 A 
ATOM     41  C   UNL A   1      38.348  30.968  30.136  1.00  0.00     0.049 A 
ATOM     42  N   UNL A   1      39.283  31.673  32.910  1.00  0.00    -0.248 NA
ATOM     43  C   UNL A   1      37.511  33.185  33.071  1.00  0.00     0.031 C 
ATOM     44  C   UNL A   1      37.967  30.617  28.766  1.00  0.00     0.029 A 
ATOM     45  N   UNL A   1      39.438  30.176  30.390  1.00  0.00    -0.354 N 
ATOM     46  C   UNL A   1      39.336  32.320  34.140  1.00  0.00     0.074 A 
ATOM     47  C   UNL A   1      38.261  33.286  34.157  1.00  0.00     0.031 C 
ATOM     48  C   UNL A   1      38.796  29.665  28.310  1.00  0.00     0.029 A 
ATOM     49  C   UNL A   1      39.789  29.365  29.338  1.00  0.00     0.049 A 
ATOM     50  H   UNL A   1      39.925  30.187  31.247  1.00  0.00     0.167 HD
ATOM     51  C   UNL A   1      40.188  32.109  35.172  1.00  0.00     0.037 A 
ATOM     52  C   UNL A   1      40.800  28.483  29.214  1.00  0.00     0.037 A 
ATOM     53  C   UNL A   1      41.241  31.127  35.164  1.00  0.00     0.049 A 
ATOM     54  C   UNL A   1      41.737  28.273  30.373  1.00  0.00     0.074 A 
ATOM     55  C   UNL A   1      42.125  30.801  36.177  1.00  0.00     0.029 A 
ATOM     56  N   UNL A   1      41.551  30.312  34.084  1.00  0.00    -0.354 N 
ATOM     57  N   UNL A   1      41.739  28.847  31.551  1.00  0.00    -0.248 NA
ATOM     58  C   UNL A   1      42.807  27.282  30.187  1.00  0.00     0.031 C 
ATOM     59  C   UNL A   1      43.000  29.822  35.696  1.00  0.00     0.029 A 
ATOM     60  C   UNL A   1      42.624  29.497  34.403  1.00  0.00     0.049 A 
ATOM     61  H   UNL A   1      41.078  30.313  33.222  1.00  0.00     0.167 HD
ATOM     62  C   UNL A   1      42.783  28.263  32.258  1.00  0.00     0.074 A 
ATOM     63  C   UNL A   1      43.385  27.283  31.379  1.00  0.00     0.031 C 
ATOM     64  C   UNL A   1      43.203  28.514  33.522  1.00  0.00     0.037 A 
BRANCH  51  65
ATOM     65  C   UNL A   1      40.012  32.957  36.400  1.00  0.00     0.057 A 
ATOM     66  C   UNL A   1      40.768  34.119  36.611  1.00  0.00     0.134 A 
ATOM     67  C   UNL A   1      39.058  32.625  37.369  1.00  0.00     0.134 A 
ATOM     68  F   UNL A   1      41.708  34.488  35.729  1.00  0.00    -0.206 F 
ATOM     69  C   UNL A   1      40.600  34.902  37.755  1.00  0.00     0.040 A 
ATOM     70  C   UNL A   1      38.860  33.417  38.502  1.00  0.00     0.040 A 
ATOM     71  F   UNL A   1      38.295  31.530  37.228  1.00  0.00    -0.206 F 
ATOM     72  C   UNL A   1      39.638  34.555  38.700  1.00  0.00     0.006 A 
ENDBRANCH  51  65
BRANCH  52  73
ATOM     73  C   UNL A   1      40.968  27.713  27.956  1.00  0.00     0.057 A 
ATOM     74  C   UNL A   1      40.368  26.459  27.790  1.00  0.00     0.134 A 
ATOM     75  C   UNL A   1      41.742  28.201  26.897  1.00  0.00     0.134 A 
ATOM     76  F   UNL A   1      39.629  25.929  28.776  1.00  0.00    -0.206 F 
ATOM     77  C   UNL A   1      40.551  25.707  26.629  1.00  0.00     0.040 A 
ATOM     78  C   UNL A   1      41.913  27.472  25.719  1.00  0.00     0.040 A 
ATOM     79  F   UNL A   1      42.338  29.399  26.989  1.00  0.00    -0.206 F 
ATOM     80  C   UNL A   1      41.323  26.217  25.586  1.00  0.00     0.006 A 
ENDBRANCH  52  73
BRANCH  64  81
ATOM     81  C   UNL A   1      44.336  27.681  34.050  1.00  0.00     0.057 A 
ATOM     82  C   UNL A   1      44.127  26.426  34.633  1.00  0.00     0.134 A 
ATOM     83  C   UNL A   1      45.658  28.130  33.935  1.00  0.00     0.134 A 
ATOM     84  F   UNL A   1      42.885  25.943  34.784  1.00  0.00    -0.206 F 
ATOM     85  C   UNL A   1      45.192  25.658  35.109  1.00  0.00     0.040 A 
ATOM     86  C   UNL A   1      46.733  27.358  34.380  1.00  0.00     0.040 A 
ATOM     87  F   UNL A   1      45.929  29.318  33.376  1.00  0.00    -0.206 F 
ATOM     88  C   UNL A   1      46.500  26.121  34.976  1.00  0.00     0.006 A 
ENDBRANCH  64  81
ENDBRANCH  38  39
ENDBRANCH  30  33
ENDBRANCH  28  29
ENDBRANCH  27  28
ENDBRANCH  26  27
ENDBRANCH  25  26
ENDBRANCH   1  25
TORSDOF 17
ENDMDL
MODEL 3
REMARK VINA RESULT:     -10.4      3.008      7.987
REMARK SMILES C[NH2+]C[C@@H](C)C(=O)Nc1ccc(Cl)cc1C(=O)NCCCCCCNC(=O)c1ccc(-c2c3nc(c(-c4c(F)cccc4F)c4ccc([nH]4)c(-c4c(F)cccc4F)c4nc(c(-c5c(F)cccc5F)c5ccc2[nH]5)C=C4)C=C3)cc1
REMARK SMILES IDX 20 1 19 2 18 3 16 4 17 5 15 7 9 8 10 9 11 10 14 11 12 12
REMARK SMILES IDX 13 13 8 14 6 15 7 16 4 18 5 19 3 20 2 21 1 22 21 25 22 26
REMARK SMILES IDX 23 27 24 28 25 29 26 30 27 32 28 33 29 34 81 35 30 36 80 37
REMARK SMILES IDX 31 38 32 39 33 40 74 41 34 42 79 43 73 44 75 45 35 46 78 47
REMARK SMILES IDX 72 48 71 49 36 51 62 52 45 53 61 54 46 55 49 56 60 57 76 58
REMARK SMILES IDX 47 59 48 60 59 62 77 63 50 64 37 65 38 66 43 67 39 68 40 69
REMARK SMILES IDX 42 70 44 71 41 72 63 73 64 74 69 75 65 76 66 77 68 78 70 79
REMARK SMILES IDX 67 80 51 81 52 82 57 83 53 84 54 85 56 86 58 87 55 88
REMARK H PARENT 18 6 8 17 2 23 2 24 25 31 75 50 49 61
REMARK Flexibility Score: inf
ROOT
ATOM      1  C   UNL A   1      31.907  25.737  24.077  1.00  0.00     0.021 C 
ENDROOT
BRANCH   1   2
ATOM      2  C   UNL A   1      32.002  24.231  24.269  1.00  0.00     0.116 C 
BRANCH   2   3
ATOM      3  N   UNL A   1      31.726  23.740  25.589  1.00  0.00    -0.352 N 
ATOM      4  C   UNL A   1      32.443  22.919  26.420  1.00  0.00     0.253 C 
ATOM      5  O   UNL A   1      31.922  22.690  27.517  1.00  0.00    -0.269 OA
ATOM      6  H   UNL A   1      30.869  24.047  25.965  1.00  0.00     0.163 HD
BRANCH   4   7
ATOM      7  C   UNL A   1      33.766  22.257  26.133  1.00  0.00     0.064 A 
ATOM      8  C   UNL A   1      34.087  20.896  25.964  1.00  0.00     0.054 A 
ATOM      9  C   UNL A   1      35.338  20.536  25.431  1.00  0.00     0.028 A 
ATOM     10  C   UNL A   1      36.347  21.472  25.241  1.00  0.00     0.023 A 
ATOM     11  C   UNL A   1      34.818  23.189  25.954  1.00  0.00     0.036 A 
ATOM     12  C   UNL A   1      36.094  22.797  25.546  1.00  0.00     0.041 A 
ATOM     13  Cl  UNL A   1      37.349  23.960  25.386  1.00  0.00    -0.084 Cl
BRANCH   8  14
ATOM     14  N   UNL A   1      33.219  19.829  26.202  1.00  0.00    -0.325 N 
ATOM     15  C   UNL A   1      32.844  18.821  25.345  1.00  0.00     0.232 C 
ATOM     16  O   UNL A   1      32.054  17.982  25.797  1.00  0.00    -0.274 OA
ATOM     17  H   UNL A   1      32.822  19.795  27.103  1.00  0.00     0.169 HD
BRANCH  15  18
ATOM     18  C   UNL A   1      33.430  18.610  23.926  1.00  0.00     0.130 C 
ATOM     19  C   UNL A   1      32.390  18.495  22.809  1.00  0.00     0.024 C 
BRANCH  18  20
ATOM     20  C   UNL A   1      34.501  17.512  23.880  1.00  0.00     0.273 C 
BRANCH  20  21
ATOM     21  N   UNL A   1      34.229  16.279  24.623  1.00  0.00    -0.348 N 
ATOM     22  C   UNL A   1      35.379  15.771  25.351  1.00  0.00     0.330 C 
ATOM     23  H   UNL A   1      33.480  16.464  25.291  1.00  0.00     0.346 HD
ATOM     24  H   UNL A   1      33.973  15.568  23.937  1.00  0.00     0.346 HD
ENDBRANCH  20  21
ENDBRANCH  18  20
ENDBRANCH  15  18
ENDBRANCH   8  14
ENDBRANCH   4   7
ENDBRANCH   2   3
ENDBRANCH   1   2
BRANCH   1  25
ATOM     25  C   UNL A   1      33.072  26.569  24.610  1.00  0.00     0.002 C 
BRANCH  25  26
ATOM     26  C   UNL A   1      33.309  26.556  26.123  1.00  0.00     0.002 C 
BRANCH  26  27
ATOM     27  C   UNL A   1      33.395  27.909  26.834  1.00  0.00     0.021 C 
BRANCH  27  28
ATOM     28  C   UNL A   1      34.050  29.044  26.057  1.00  0.00     0.116 C 
BRANCH  28  29
ATOM     29  N   UNL A   1      33.817  30.349  26.650  1.00  0.00    -0.352 N 
ATOM     30  C   UNL A   1      34.504  30.996  27.643  1.00  0.00     0.251 C 
ATOM     31  H   UNL A   1      33.050  30.843  26.283  1.00  0.00     0.163 HD
ATOM     32  O   UNL A   1      34.065  32.058  28.092  1.00  0.00    -0.269 OA
BRANCH  30  33
ATOM     33  C   UNL A   1      35.754  30.433  28.199  1.00  0.00     0.039 A 
ATOM     34  C   UNL A   1      36.944  30.616  27.488  1.00  0.00     0.014 A 
ATOM     35  C   UNL A   1      35.761  29.689  29.383  1.00  0.00     0.014 A 
ATOM     36  C   UNL A   1      38.141  30.088  27.977  1.00  0.00     0.010 A 
ATOM     37  C   UNL A   1      36.967  29.228  29.910  1.00  0.00     0.010 A 
ATOM     38  C   UNL A   1      38.166  29.404  29.203  1.00  0.00    -0.014 A 
BRANCH  38  39
ATOM     39  C   UNL A   1      39.428  28.826  29.734  1.00  0.00     0.031 A 
ATOM     40  C   UNL A   1      40.071  29.422  30.958  1.00  0.00     0.074 A 
ATOM     41  C   UNL A   1      40.016  27.795  29.098  1.00  0.00     0.049 A 
ATOM     42  N   UNL A   1      41.197  29.101  31.542  1.00  0.00    -0.248 NA
ATOM     43  C   UNL A   1      39.368  30.550  31.592  1.00  0.00     0.031 C 
ATOM     44  C   UNL A   1      39.514  27.150  27.884  1.00  0.00     0.029 A 
ATOM     45  N   UNL A   1      41.172  27.112  29.383  1.00  0.00    -0.354 N 
ATOM     46  C   UNL A   1      41.343  29.993  32.598  1.00  0.00     0.074 A 
ATOM     47  C   UNL A   1      40.222  30.904  32.540  1.00  0.00     0.031 C 
ATOM     48  C   UNL A   1      40.344  26.153  27.540  1.00  0.00     0.029 A 
ATOM     49  C   UNL A   1      41.456  26.110  28.486  1.00  0.00     0.049 A 
ATOM     50  H   UNL A   1      41.745  27.320  30.156  1.00  0.00     0.167 HD
ATOM     51  C   UNL A   1      42.310  30.034  33.546  1.00  0.00     0.037 A 
ATOM     52  C   UNL A   1      42.497  25.258  28.430  1.00  0.00     0.037 A 
ATOM     53  C   UNL A   1      43.412  29.109  33.617  1.00  0.00     0.049 A 
ATOM     54  C   UNL A   1      43.562  25.328  29.491  1.00  0.00     0.074 A 
ATOM     55  C   UNL A   1      44.415  29.035  34.567  1.00  0.00     0.029 A 
ATOM     56  N   UNL A   1      43.652  28.097  32.700  1.00  0.00    -0.354 N 
ATOM     57  N   UNL A   1      43.655  26.138  30.518  1.00  0.00    -0.248 NA
ATOM     58  C   UNL A   1      44.662  24.359  29.390  1.00  0.00     0.031 C 
ATOM     59  C   UNL A   1      45.290  28.007  34.200  1.00  0.00     0.029 A 
ATOM     60  C   UNL A   1      44.799  27.405  33.053  1.00  0.00     0.049 A 
ATOM     61  H   UNL A   1      43.092  27.899  31.916  1.00  0.00     0.167 HD
ATOM     62  C   UNL A   1      44.800  25.752  31.204  1.00  0.00     0.074 A 
ATOM     63  C   UNL A   1      45.362  24.630  30.482  1.00  0.00     0.031 C 
ATOM     64  C   UNL A   1      45.337  26.278  32.332  1.00  0.00     0.037 A 
BRANCH  51  65
ATOM     65  C   UNL A   1      42.217  31.115  34.585  1.00  0.00     0.057 A 
ATOM     66  C   UNL A   1      42.843  32.358  34.418  1.00  0.00     0.134 A 
ATOM     67  C   UNL A   1      41.469  30.923  35.753  1.00  0.00     0.134 A 
ATOM     68  F   UNL A   1      43.586  32.604  33.328  1.00  0.00    -0.206 F 
ATOM     69  C   UNL A   1      42.753  33.358  35.388  1.00  0.00     0.040 A 
ATOM     70  C   UNL A   1      41.347  31.926  36.716  1.00  0.00     0.040 A 
ATOM     71  F   UNL A   1      40.838  29.760  35.975  1.00  0.00    -0.206 F 
ATOM     72  C   UNL A   1      41.997  33.145  36.538  1.00  0.00     0.006 A 
ENDBRANCH  51  65
BRANCH  52  73
ATOM     73  C   UNL A   1      42.575  24.246  27.346  1.00  0.00     0.057 A 
ATOM     74  C   UNL A   1      42.072  22.952  27.527  1.00  0.00     0.134 A 
ATOM     75  C   UNL A   1      43.166  24.540  26.112  1.00  0.00     0.134 A 
ATOM     76  F   UNL A   1      41.510  22.604  28.694  1.00  0.00    -0.206 F 
ATOM     77  C   UNL A   1      42.175  21.980  26.531  1.00  0.00     0.040 A 
ATOM     78  C   UNL A   1      43.253  23.585  25.096  1.00  0.00     0.040 A 
ATOM     79  F   UNL A   1      43.661  25.763  25.871  1.00  0.00    -0.206 F 
ATOM     80  C   UNL A   1      42.764  22.298  25.309  1.00  0.00     0.006 A 
ENDBRANCH  52  73
BRANCH  64  81
ATOM     81  C   UNL A   1      46.565  25.615  32.885  1.00  0.00     0.057 A 
ATOM     82  C   UNL A   1      47.856  26.006  32.510  1.00  0.00     0.134 A 
ATOM     83  C   UNL A   1      46.450  24.594  33.838  1.00  0.00     0.134 A 
ATOM     84  F   UNL A   1      48.035  26.969  31.594  1.00  0.00    -0.206 F 
ATOM     85  C   UNL A   1      48.989  25.386  33.043  1.00  0.00     0.040 A 
ATOM     86  C   UNL A   1      47.575  23.988  34.400  1.00  0.00     0.040 A 
ATOM     87  F   UNL A   1      45.242  24.178  34.250  1.00  0.00    -0.206 F 
ATOM     88  C   UNL A   1      48.849  24.380  33.996  1.00  0.00     0.006 A 
ENDBRANCH  64  81
ENDBRANCH  38  39
ENDBRANCH  30  33
ENDBRANCH  28  29
ENDBRANCH  27  28
ENDBRANCH  26  27
ENDBRANCH  25  26
ENDBRANCH   1  25
TORSDOF 17
ENDMDL
