MODEL 1
REMARK VINA RESULT:     -11.5      0.000      0.000
REMARK SMILES O=C(NCCCCCCNC(=O)c1ccc(S(=O)(=O)Cc2cccs2)c(F)c1)c1ccc(-c2c3nc(c(-c4c(F)cccc4F)c4ccc([nH]4)c(-c4c(F)cccc4F)c4nc(c(-c5c(F)cccc5F)c5ccc2[nH]5)C=C4)C=C3)cc1
REMARK SMILES IDX 7 1 6 2 5 3 4 4 3 5 1 6 2 7 29 9 30 10 82 11 31 12 81 13
REMARK SMILES IDX 32 14 33 15 34 16 75 17 35 18 80 19 74 20 76 21 36 22 79 23
REMARK SMILES IDX 73 24 72 25 37 27 63 28 46 29 62 30 47 31 50 32 61 33 77 34
REMARK SMILES IDX 48 35 49 36 60 38 78 39 51 40 38 41 39 42 44 43 40 44 41 45
REMARK SMILES IDX 43 46 45 47 42 48 64 49 65 50 70 51 66 52 67 53 69 54 71 55
REMARK SMILES IDX 68 56 52 57 53 58 58 59 54 60 55 61 57 62 59 63 56 64 8 65
REMARK SMILES IDX 9 66 10 67 11 68 12 70 13 71 14 72 28 73 15 74 26 75 16 76
REMARK SMILES IDX 27 77 17 78 18 79 19 80 20 81 21 82 22 83 25 84 23 85 24 86
REMARK H PARENT 3 8 76 26 50 37 10 69
REMARK Flexibility Score: inf
ROOT
ATOM      1  C   UNL A   1      31.916  29.653  25.062  1.00  0.00     0.002 C 
ENDROOT
BRANCH   1   2
ATOM      2  C   UNL A   1      31.584  30.211  26.448  1.00  0.00     0.002 C 
BRANCH   2   3
ATOM      3  C   UNL A   1      31.431  31.729  26.535  1.00  0.00     0.021 C 
BRANCH   3   4
ATOM      4  C   UNL A   1      32.701  32.489  26.891  1.00  0.00     0.116 C 
BRANCH   4   5
ATOM      5  N   UNL A   1      32.438  33.807  27.445  1.00  0.00    -0.352 N 
ATOM      6  O   UNL A   1      32.633  35.520  28.902  1.00  0.00    -0.269 OA
ATOM      7  C   UNL A   1      33.076  34.458  28.473  1.00  0.00     0.251 C 
ATOM      8  H   UNL A   1      31.700  34.302  27.023  1.00  0.00     0.163 HD
BRANCH   7   9
ATOM      9  C   UNL A   1      34.286  33.863  29.085  1.00  0.00     0.039 A 
ATOM     10  C   UNL A   1      35.560  34.239  28.657  1.00  0.00     0.014 A 
ATOM     11  C   UNL A   1      34.142  32.919  30.107  1.00  0.00     0.014 A 
ATOM     12  C   UNL A   1      36.678  33.571  29.144  1.00  0.00     0.010 A 
ATOM     13  C   UNL A   1      35.274  32.309  30.659  1.00  0.00     0.010 A 
ATOM     14  C   UNL A   1      36.550  32.609  30.162  1.00  0.00    -0.014 A 
BRANCH  14  15
ATOM     15  C   UNL A   1      37.779  31.995  30.726  1.00  0.00     0.031 A 
ATOM     16  C   UNL A   1      38.260  32.331  32.110  1.00  0.00     0.074 A 
ATOM     17  C   UNL A   1      38.428  31.071  29.990  1.00  0.00     0.049 A 
ATOM     18  N   UNL A   1      39.275  31.827  32.769  1.00  0.00    -0.248 NA
ATOM     19  C   UNL A   1      37.516  33.359  32.853  1.00  0.00     0.031 C 
ATOM     20  C   UNL A   1      38.056  30.669  28.630  1.00  0.00     0.029 A 
ATOM     21  N   UNL A   1      39.504  30.275  30.288  1.00  0.00    -0.354 N 
ATOM     22  C   UNL A   1      39.298  32.481  33.994  1.00  0.00     0.074 A 
ATOM     23  C   UNL A   1      38.211  33.436  33.981  1.00  0.00     0.031 C 
ATOM     24  C   UNL A   1      38.842  29.654  28.241  1.00  0.00     0.029 A 
ATOM     25  C   UNL A   1      39.811  29.376  29.295  1.00  0.00     0.049 A 
ATOM     26  H   UNL A   1      40.008  30.342  31.131  1.00  0.00     0.167 HD
ATOM     27  C   UNL A   1      40.144  32.291  35.035  1.00  0.00     0.037 A 
ATOM     28  C   UNL A   1      40.766  28.430  29.234  1.00  0.00     0.037 A 
ATOM     29  C   UNL A   1      41.214  31.327  35.050  1.00  0.00     0.049 A 
ATOM     30  C   UNL A   1      41.699  28.260  30.396  1.00  0.00     0.074 A 
ATOM     31  C   UNL A   1      42.113  31.055  36.069  1.00  0.00     0.029 A 
ATOM     32  N   UNL A   1      41.526  30.472  34.004  1.00  0.00    -0.354 N 
ATOM     33  N   UNL A   1      41.701  28.883  31.549  1.00  0.00    -0.248 NA
ATOM     34  C   UNL A   1      42.769  27.265  30.245  1.00  0.00     0.031 C 
ATOM     35  C   UNL A   1      42.990  30.062  35.626  1.00  0.00     0.029 A 
ATOM     36  C   UNL A   1      42.612  29.684  34.348  1.00  0.00     0.049 A 
ATOM     37  H   UNL A   1      41.047  30.432  33.145  1.00  0.00     0.167 HD
ATOM     38  C   UNL A   1      42.764  28.350  32.265  1.00  0.00     0.074 A 
ATOM     39  C   UNL A   1      43.369  27.337  31.426  1.00  0.00     0.031 C 
ATOM     40  C   UNL A   1      43.204  28.681  33.502  1.00  0.00     0.037 A 
BRANCH  27  41
ATOM     41  C   UNL A   1      39.958  33.138  36.259  1.00  0.00     0.057 A 
ATOM     42  C   UNL A   1      39.052  32.760  37.259  1.00  0.00     0.134 A 
ATOM     43  C   UNL A   1      40.593  34.377  36.398  1.00  0.00     0.134 A 
ATOM     44  F   UNL A   1      38.404  31.588  37.183  1.00  0.00    -0.206 F 
ATOM     45  C   UNL A   1      38.770  33.594  38.342  1.00  0.00     0.040 A 
ATOM     46  C   UNL A   1      40.334  35.213  37.486  1.00  0.00     0.040 A 
ATOM     47  F   UNL A   1      41.479  34.793  35.480  1.00  0.00    -0.206 F 
ATOM     48  C   UNL A   1      39.411  34.826  38.456  1.00  0.00     0.006 A 
ENDBRANCH  27  41
BRANCH  28  49
ATOM     49  C   UNL A   1      40.877  27.570  28.031  1.00  0.00     0.057 A 
ATOM     50  C   UNL A   1      40.227  26.332  27.956  1.00  0.00     0.134 A 
ATOM     51  C   UNL A   1      41.654  27.960  26.935  1.00  0.00     0.134 A 
ATOM     52  F   UNL A   1      39.474  25.899  28.977  1.00  0.00    -0.206 F 
ATOM     53  C   UNL A   1      40.362  25.504  26.841  1.00  0.00     0.040 A 
ATOM     54  C   UNL A   1      41.776  27.153  25.804  1.00  0.00     0.040 A 
ATOM     55  F   UNL A   1      42.287  29.143  26.943  1.00  0.00    -0.206 F 
ATOM     56  C   UNL A   1      41.134  25.917  25.758  1.00  0.00     0.006 A 
ENDBRANCH  28  49
BRANCH  40  57
ATOM     57  C   UNL A   1      44.389  27.930  34.029  1.00  0.00     0.057 A 
ATOM     58  C   UNL A   1      45.690  28.398  33.807  1.00  0.00     0.134 A 
ATOM     59  C   UNL A   1      44.242  26.717  34.714  1.00  0.00     0.134 A 
ATOM     60  F   UNL A   1      45.897  29.549  33.150  1.00  0.00    -0.206 F 
ATOM     61  C   UNL A   1      46.805  27.683  34.245  1.00  0.00     0.040 A 
ATOM     62  C   UNL A   1      45.349  26.005  35.177  1.00  0.00     0.040 A 
ATOM     63  F   UNL A   1      43.021  26.224  34.968  1.00  0.00    -0.206 F 
ATOM     64  C   UNL A   1      46.635  26.484  34.935  1.00  0.00     0.006 A 
ENDBRANCH  40  57
ENDBRANCH  14  15
ENDBRANCH   7   9
ENDBRANCH   4   5
ENDBRANCH   3   4
ENDBRANCH   2   3
ENDBRANCH   1   2
BRANCH   1  65
ATOM     65  C   UNL A   1      30.717  29.333  24.161  1.00  0.00     0.021 C 
BRANCH  65  66
ATOM     66  C   UNL A   1      30.974  28.289  23.076  1.00  0.00     0.116 C 
BRANCH  66  67
ATOM     67  N   UNL A   1      32.202  28.554  22.346  1.00  0.00    -0.352 N 
ATOM     68  C   UNL A   1      33.348  27.805  22.290  1.00  0.00     0.251 C 
ATOM     69  H   UNL A   1      32.213  29.385  21.819  1.00  0.00     0.163 HD
ATOM     70  O   UNL A   1      34.359  28.225  21.741  1.00  0.00    -0.269 OA
BRANCH  68  71
ATOM     71  C   UNL A   1      33.362  26.472  22.916  1.00  0.00     0.042 A 
ATOM     72  C   UNL A   1      33.636  26.339  24.282  1.00  0.00     0.015 A 
ATOM     73  C   UNL A   1      33.111  25.352  22.122  1.00  0.00     0.054 A 
ATOM     74  C   UNL A   1      33.693  25.067  24.849  1.00  0.00     0.024 A 
ATOM     75  C   UNL A   1      33.193  24.086  22.692  1.00  0.00     0.142 A 
ATOM     76  C   UNL A   1      33.477  23.940  24.044  1.00  0.00     0.103 A 
ATOM     77  F   UNL A   1      33.036  23.022  21.896  1.00  0.00    -0.206 F 
BRANCH  76  78
ATOM     78  S   UNL A   1      33.629  22.342  24.781  1.00  0.00     0.186 S 
ATOM     79  O   UNL A   1      34.745  21.715  24.094  1.00  0.00    -0.223 OA
ATOM     80  O   UNL A   1      33.711  22.564  26.216  1.00  0.00    -0.223 OA
BRANCH  78  81
ATOM     81  C   UNL A   1      32.174  21.374  24.461  1.00  0.00     0.188 C 
BRANCH  81  82
ATOM     82  C   UNL A   1      32.453  19.946  24.097  1.00  0.00     0.020 A 
ATOM     83  C   UNL A   1      32.376  19.285  22.885  1.00  0.00     0.016 A 
ATOM     84  S   UNL A   1      32.876  18.858  25.364  1.00  0.00    -0.148 S 
ATOM     85  C   UNL A   1      32.712  17.902  22.994  1.00  0.00     0.012 A 
ATOM     86  C   UNL A   1      33.001  17.541  24.288  1.00  0.00     0.065 A 
ENDBRANCH  81  82
ENDBRANCH  78  81
ENDBRANCH  76  78
ENDBRANCH  68  71
ENDBRANCH  66  67
ENDBRANCH  65  66
ENDBRANCH   1  65
TORSDOF 16
ENDMDL
MODEL 2
REMARK VINA RESULT:     -11.5      4.456      9.516
REMARK SMILES O=C(NCCCCCCNC(=O)c1ccc(S(=O)(=O)Cc2cccs2)c(F)c1)c1ccc(-c2c3nc(c(-c4c(F)cccc4F)c4ccc([nH]4)c(-c4c(F)cccc4F)c4nc(c(-c5c(F)cccc5F)c5ccc2[nH]5)C=C4)C=C3)cc1
REMARK SMILES IDX 7 1 6 2 5 3 4 4 3 5 1 6 2 7 29 9 30 10 82 11 31 12 81 13
REMARK SMILES IDX 32 14 33 15 34 16 75 17 35 18 80 19 74 20 76 21 36 22 79 23
REMARK SMILES IDX 73 24 72 25 37 27 63 28 46 29 62 30 47 31 50 32 61 33 77 34
REMARK SMILES IDX 48 35 49 36 60 38 78 39 51 40 38 41 39 42 44 43 40 44 41 45
REMARK SMILES IDX 43 46 45 47 42 48 64 49 65 50 70 51 66 52 67 53 69 54 71 55
REMARK SMILES IDX 68 56 52 57 53 58 58 59 54 60 55 61 57 62 59 63 56 64 8 65
REMARK SMILES IDX 9 66 10 67 11 68 12 70 13 71 14 72 28 73 15 74 26 75 16 76
REMARK SMILES IDX 27 77 17 78 18 79 19 80 20 81 21 82 22 83 25 84 23 85 24 86
REMARK H PARENT 3 8 76 26 50 37 10 69
REMARK Flexibility Score: inf
ROOT
ATOM      1  C   UNL A   1      35.786  21.655  24.563  1.00  0.00     0.002 C 
ENDROOT
BRANCH   1   2
ATOM      2  C   UNL A   1      36.287  20.285  25.028  1.00  0.00     0.002 C 
BRANCH   2   3
ATOM      3  C   UNL A   1      37.724  19.937  24.644  1.00  0.00     0.021 C 
BRANCH   3   4
ATOM      4  C   UNL A   1      38.769  20.226  25.713  1.00  0.00     0.116 C 
BRANCH   4   5
ATOM      5  N   UNL A   1      39.874  19.281  25.698  1.00  0.00    -0.352 N 
ATOM      6  O   UNL A   1      42.025  18.605  25.806  1.00  0.00    -0.269 OA
ATOM      7  C   UNL A   1      41.197  19.490  26.003  1.00  0.00     0.251 C 
ATOM      8  H   UNL A   1      39.640  18.363  25.431  1.00  0.00     0.163 HD
BRANCH   7   9
ATOM      9  C   UNL A   1      41.631  20.797  26.548  1.00  0.00     0.039 A 
ATOM     10  C   UNL A   1      41.650  21.024  27.925  1.00  0.00     0.014 A 
ATOM     11  C   UNL A   1      42.030  21.807  25.667  1.00  0.00     0.014 A 
ATOM     12  C   UNL A   1      41.925  22.298  28.411  1.00  0.00     0.010 A 
ATOM     13  C   UNL A   1      42.392  23.064  26.163  1.00  0.00     0.010 A 
ATOM     14  C   UNL A   1      42.315  23.328  27.538  1.00  0.00    -0.014 A 
BRANCH  14  15
ATOM     15  C   UNL A   1      42.702  24.644  28.109  1.00  0.00     0.031 A 
ATOM     16  C   UNL A   1      44.143  25.016  28.319  1.00  0.00     0.074 A 
ATOM     17  C   UNL A   1      41.727  25.535  28.379  1.00  0.00     0.049 A 
ATOM     18  N   UNL A   1      44.643  26.150  28.742  1.00  0.00    -0.248 NA
ATOM     19  C   UNL A   1      45.155  23.992  28.019  1.00  0.00     0.031 C 
ATOM     20  C   UNL A   1      40.292  25.282  28.222  1.00  0.00     0.029 A 
ATOM     21  N   UNL A   1      41.789  26.837  28.802  1.00  0.00    -0.354 N 
ATOM     22  C   UNL A   1      46.020  25.976  28.771  1.00  0.00     0.074 A 
ATOM     23  C   UNL A   1      46.280  24.617  28.344  1.00  0.00     0.031 C 
ATOM     24  C   UNL A   1      39.616  26.413  28.471  1.00  0.00     0.029 A 
ATOM     25  C   UNL A   1      40.561  27.451  28.867  1.00  0.00     0.049 A 
ATOM     26  H   UNL A   1      42.632  27.290  29.037  1.00  0.00     0.167 HD
ATOM     27  C   UNL A   1      46.977  26.872  29.111  1.00  0.00     0.037 A 
ATOM     28  C   UNL A   1      40.228  28.709  29.208  1.00  0.00     0.037 A 
ATOM     29  C   UNL A   1      46.715  28.229  29.518  1.00  0.00     0.049 A 
ATOM     30  C   UNL A   1      41.310  29.671  29.598  1.00  0.00     0.074 A 
ATOM     31  C   UNL A   1      47.626  29.213  29.868  1.00  0.00     0.029 A 
ATOM     32  N   UNL A   1      45.455  28.796  29.622  1.00  0.00    -0.354 N 
ATOM     33  N   UNL A   1      42.608  29.489  29.612  1.00  0.00    -0.248 NA
ATOM     34  C   UNL A   1      40.882  31.007  30.032  1.00  0.00     0.031 C 
ATOM     35  C   UNL A   1      46.914  30.364  30.218  1.00  0.00     0.029 A 
ATOM     36  C   UNL A   1      45.563  30.110  30.046  1.00  0.00     0.049 A 
ATOM     37  H   UNL A   1      44.609  28.333  29.426  1.00  0.00     0.167 HD
ATOM     38  C   UNL A   1      43.153  30.689  30.047  1.00  0.00     0.074 A 
ATOM     39  C   UNL A   1      42.047  31.599  30.263  1.00  0.00     0.031 C 
ATOM     40  C   UNL A   1      44.453  31.003  30.258  1.00  0.00     0.037 A 
BRANCH  27  41
ATOM     41  C   UNL A   1      48.410  26.430  29.062  1.00  0.00     0.057 A 
ATOM     42  C   UNL A   1      49.031  25.889  30.195  1.00  0.00     0.134 A 
ATOM     43  C   UNL A   1      49.203  26.638  27.927  1.00  0.00     0.134 A 
ATOM     44  F   UNL A   1      48.329  25.672  31.318  1.00  0.00    -0.206 F 
ATOM     45  C   UNL A   1      50.394  25.591  30.208  1.00  0.00     0.040 A 
ATOM     46  C   UNL A   1      50.564  26.327  27.921  1.00  0.00     0.040 A 
ATOM     47  F   UNL A   1      48.666  27.144  26.806  1.00  0.00    -0.206 F 
ATOM     48  C   UNL A   1      51.166  25.812  29.069  1.00  0.00     0.006 A 
ENDBRANCH  27  41
BRANCH  28  49
ATOM     49  C   UNL A   1      38.805  29.127  29.182  1.00  0.00     0.057 A 
ATOM     50  C   UNL A   1      38.000  29.048  30.325  1.00  0.00     0.134 A 
ATOM     51  C   UNL A   1      38.212  29.597  28.005  1.00  0.00     0.134 A 
ATOM     52  F   UNL A   1      38.507  28.599  31.481  1.00  0.00    -0.206 F 
ATOM     53  C   UNL A   1      36.651  29.405  30.293  1.00  0.00     0.040 A 
ATOM     54  C   UNL A   1      36.872  29.982  27.966  1.00  0.00     0.040 A 
ATOM     55  F   UNL A   1      38.938  29.711  26.883  1.00  0.00    -0.206 F 
ATOM     56  C   UNL A   1      36.085  29.878  29.111  1.00  0.00     0.006 A 
ENDBRANCH  28  49
BRANCH  40  57
ATOM     57  C   UNL A   1      44.752  32.391  30.734  1.00  0.00     0.057 A 
ATOM     58  C   UNL A   1      44.809  32.682  32.103  1.00  0.00     0.134 A 
ATOM     59  C   UNL A   1      44.935  33.450  29.836  1.00  0.00     0.134 A 
ATOM     60  F   UNL A   1      44.633  31.714  33.013  1.00  0.00    -0.206 F 
ATOM     61  C   UNL A   1      45.033  33.981  32.562  1.00  0.00     0.040 A 
ATOM     62  C   UNL A   1      45.183  34.749  30.283  1.00  0.00     0.040 A 
ATOM     63  F   UNL A   1      44.904  33.232  28.513  1.00  0.00    -0.206 F 
ATOM     64  C   UNL A   1      45.225  35.018  31.650  1.00  0.00     0.006 A 
ENDBRANCH  40  57
ENDBRANCH  14  15
ENDBRANCH   7   9
ENDBRANCH   4   5
ENDBRANCH   3   4
ENDBRANCH   2   3
ENDBRANCH   1   2
BRANCH   1  65
ATOM     65  C   UNL A   1      34.834  22.383  25.520  1.00  0.00     0.021 C 
BRANCH  65  66
ATOM     66  C   UNL A   1      33.381  21.917  25.476  1.00  0.00     0.116 C 
BRANCH  66  67
ATOM     67  N   UNL A   1      33.070  21.215  24.242  1.00  0.00    -0.352 N 
ATOM     68  C   UNL A   1      32.461  21.693  23.112  1.00  0.00     0.251 C 
ATOM     69  H   UNL A   1      33.332  20.267  24.215  1.00  0.00     0.163 HD
ATOM     70  O   UNL A   1      32.137  20.946  22.197  1.00  0.00    -0.269 OA
BRANCH  68  71
ATOM     71  C   UNL A   1      32.181  23.135  23.005  1.00  0.00     0.042 A 
ATOM     72  C   UNL A   1      33.136  23.999  22.460  1.00  0.00     0.015 A 
ATOM     73  C   UNL A   1      30.956  23.618  23.467  1.00  0.00     0.054 A 
ATOM     74  C   UNL A   1      32.874  25.367  22.410  1.00  0.00     0.024 A 
ATOM     75  C   UNL A   1      30.713  24.988  23.434  1.00  0.00     0.142 A 
ATOM     76  C   UNL A   1      31.659  25.858  22.908  1.00  0.00     0.103 A 
ATOM     77  F   UNL A   1      29.570  25.440  23.962  1.00  0.00    -0.206 F 
BRANCH  76  78
ATOM     78  S   UNL A   1      31.392  27.603  22.895  1.00  0.00     0.186 S 
ATOM     79  O   UNL A   1      32.717  28.186  22.772  1.00  0.00    -0.223 OA
ATOM     80  O   UNL A   1      30.405  27.854  21.857  1.00  0.00    -0.223 OA
BRANCH  78  81
ATOM     81  C   UNL A   1      30.702  28.134  24.444  1.00  0.00     0.188 C 
BRANCH  81  82
ATOM     82  C   UNL A   1      31.722  28.514  25.475  1.00  0.00     0.020 A 
ATOM     83  C   UNL A   1      32.548  27.737  26.267  1.00  0.00     0.016 A 
ATOM     84  S   UNL A   1      31.907  30.185  25.851  1.00  0.00    -0.148 S 
ATOM     85  C   UNL A   1      33.361  28.518  27.141  1.00  0.00     0.012 A 
ATOM     86  C   UNL A   1      33.108  29.864  27.017  1.00  0.00     0.065 A 
ENDBRANCH  81  82
ENDBRANCH  78  81
ENDBRANCH  76  78
ENDBRANCH  68  71
ENDBRANCH  66  67
ENDBRANCH  65  66
ENDBRANCH   1  65
TORSDOF 16
ENDMDL
MODEL 3
REMARK VINA RESULT:     -11.4      3.963      7.588
REMARK SMILES O=C(NCCCCCCNC(=O)c1ccc(S(=O)(=O)Cc2cccs2)c(F)c1)c1ccc(-c2c3nc(c(-c4c(F)cccc4F)c4ccc([nH]4)c(-c4c(F)cccc4F)c4nc(c(-c5c(F)cccc5F)c5ccc2[nH]5)C=C4)C=C3)cc1
REMARK SMILES IDX 7 1 6 2 5 3 4 4 3 5 1 6 2 7 29 9 30 10 82 11 31 12 81 13
REMARK SMILES IDX 32 14 33 15 34 16 75 17 35 18 80 19 74 20 76 21 36 22 79 23
REMARK SMILES IDX 73 24 72 25 37 27 63 28 46 29 62 30 47 31 50 32 61 33 77 34
REMARK SMILES IDX 48 35 49 36 60 38 78 39 51 40 38 41 39 42 44 43 40 44 41 45
REMARK SMILES IDX 43 46 45 47 42 48 64 49 65 50 70 51 66 52 67 53 69 54 71 55
REMARK SMILES IDX 68 56 52 57 53 58 58 59 54 60 55 61 57 62 59 63 56 64 8 65
REMARK SMILES IDX 9 66 10 67 11 68 12 70 13 71 14 72 28 73 15 74 26 75 16 76
REMARK SMILES IDX 27 77 17 78 18 79 19 80 20 81 21 82 22 83 25 84 23 85 24 86
REMARK H PARENT 3 8 76 26 50 37 10 69
REMARK Flexibility Score: inf
ROOT
ATOM      1  C   UNL A   1      31.462  29.124  24.843  1.00  0.00     0.002 C 
ENDROOT
BRANCH   1   2
ATOM      2  C   UNL A   1      32.930  29.547  24.950  1.00  0.00     0.002 C 
BRANCH   2   3
ATOM      3  C   UNL A   1      33.886  28.492  25.506  1.00  0.00     0.021 C 
BRANCH   3   4
ATOM      4  C   UNL A   1      34.027  28.480  27.022  1.00  0.00     0.116 C 
BRANCH   4   5
ATOM      5  N   UNL A   1      33.892  29.800  27.616  1.00  0.00    -0.352 N 
ATOM      6  O   UNL A   1      34.482  31.576  28.879  1.00  0.00    -0.269 OA
ATOM      7  C   UNL A   1      34.812  30.526  28.333  1.00  0.00     0.251 C 
ATOM      8  H   UNL A   1      33.018  30.234  27.485  1.00  0.00     0.163 HD
BRANCH   7   9
ATOM      9  C   UNL A   1      36.200  30.028  28.470  1.00  0.00     0.039 A 
ATOM     10  C   UNL A   1      36.640  29.465  29.668  1.00  0.00     0.014 A 
ATOM     11  C   UNL A   1      37.070  30.122  27.379  1.00  0.00     0.014 A 
ATOM     12  C   UNL A   1      37.981  29.132  29.823  1.00  0.00     0.010 A 
ATOM     13  C   UNL A   1      38.400  29.705  27.509  1.00  0.00     0.010 A 
ATOM     14  C   UNL A   1      38.873  29.233  28.741  1.00  0.00    -0.014 A 
BRANCH  14  15
ATOM     15  C   UNL A   1      40.273  28.767  28.920  1.00  0.00     0.031 A 
ATOM     16  C   UNL A   1      40.706  27.396  28.484  1.00  0.00     0.074 A 
ATOM     17  C   UNL A   1      41.174  29.631  29.429  1.00  0.00     0.049 A 
ATOM     18  N   UNL A   1      41.906  26.869  28.509  1.00  0.00    -0.248 NA
ATOM     19  C   UNL A   1      39.671  26.497  27.952  1.00  0.00     0.031 C 
ATOM     20  C   UNL A   1      40.866  30.987  29.894  1.00  0.00     0.029 A 
ATOM     21  N   UNL A   1      42.529  29.521  29.605  1.00  0.00    -0.354 N 
ATOM     22  C   UNL A   1      41.769  25.580  28.010  1.00  0.00     0.074 A 
ATOM     23  C   UNL A   1      40.365  25.392  27.710  1.00  0.00     0.031 C 
ATOM     24  C   UNL A   1      42.007  31.605  30.231  1.00  0.00     0.029 A 
ATOM     25  C   UNL A   1      43.116  30.673  30.067  1.00  0.00     0.049 A 
ATOM     26  H   UNL A   1      43.032  28.695  29.418  1.00  0.00     0.167 HD
ATOM     27  C   UNL A   1      42.730  24.646  27.812  1.00  0.00     0.037 A 
ATOM     28  C   UNL A   1      44.406  30.954  30.333  1.00  0.00     0.037 A 
ATOM     29  C   UNL A   1      44.129  24.844  28.095  1.00  0.00     0.049 A 
ATOM     30  C   UNL A   1      45.442  29.891  30.121  1.00  0.00     0.074 A 
ATOM     31  C   UNL A   1      45.177  23.957  27.911  1.00  0.00     0.029 A 
ATOM     32  N   UNL A   1      44.676  26.007  28.613  1.00  0.00    -0.354 N 
ATOM     33  N   UNL A   1      45.294  28.680  29.641  1.00  0.00    -0.248 NA
ATOM     34  C   UNL A   1      46.821  30.227  30.497  1.00  0.00     0.031 C 
ATOM     35  C   UNL A   1      46.353  24.571  28.351  1.00  0.00     0.029 A 
ATOM     36  C   UNL A   1      46.044  25.855  28.769  1.00  0.00     0.049 A 
ATOM     37  H   UNL A   1      44.169  26.820  28.837  1.00  0.00     0.167 HD
ATOM     38  C   UNL A   1      46.560  28.113  29.650  1.00  0.00     0.074 A 
ATOM     39  C   UNL A   1      47.469  29.120  30.159  1.00  0.00     0.031 C 
ATOM     40  C   UNL A   1      46.934  26.865  29.278  1.00  0.00     0.037 A 
BRANCH  27  41
ATOM     41  C   UNL A   1      42.318  23.315  27.257  1.00  0.00     0.057 A 
ATOM     42  C   UNL A   1      41.962  22.263  28.113  1.00  0.00     0.134 A 
ATOM     43  C   UNL A   1      42.378  23.041  25.886  1.00  0.00     0.134 A 
ATOM     44  F   UNL A   1      41.895  22.457  29.439  1.00  0.00    -0.206 F 
ATOM     45  C   UNL A   1      41.701  20.982  27.625  1.00  0.00     0.040 A 
ATOM     46  C   UNL A   1      42.100  21.768  25.383  1.00  0.00     0.040 A 
ATOM     47  F   UNL A   1      42.702  24.007  25.014  1.00  0.00    -0.206 F 
ATOM     48  C   UNL A   1      41.771  20.732  26.256  1.00  0.00     0.006 A 
ENDBRANCH  27  41
BRANCH  28  49
ATOM     49  C   UNL A   1      44.782  32.303  30.819  1.00  0.00     0.057 A 
ATOM     50  C   UNL A   1      45.174  33.316  29.935  1.00  0.00     0.134 A 
ATOM     51  C   UNL A   1      44.777  32.605  32.185  1.00  0.00     0.134 A 
ATOM     52  F   UNL A   1      45.206  33.086  28.614  1.00  0.00    -0.206 F 
ATOM     53  C   UNL A   1      45.565  34.574  30.393  1.00  0.00     0.040 A 
ATOM     54  C   UNL A   1      45.140  33.867  32.655  1.00  0.00     0.040 A 
ATOM     55  F   UNL A   1      44.394  31.680  33.079  1.00  0.00    -0.206 F 
ATOM     56  C   UNL A   1      45.544  34.854  31.758  1.00  0.00     0.006 A 
ENDBRANCH  28  49
BRANCH  40  57
ATOM     57  C   UNL A   1      48.388  26.524  29.396  1.00  0.00     0.057 A 
ATOM     58  C   UNL A   1      48.893  25.935  30.562  1.00  0.00     0.134 A 
ATOM     59  C   UNL A   1      49.296  26.823  28.373  1.00  0.00     0.134 A 
ATOM     60  F   UNL A   1      48.076  25.632  31.582  1.00  0.00    -0.206 F 
ATOM     61  C   UNL A   1      50.254  25.660  30.708  1.00  0.00     0.040 A 
ATOM     62  C   UNL A   1      50.655  26.532  28.498  1.00  0.00     0.040 A 
ATOM     63  F   UNL A   1      48.871  27.376  27.227  1.00  0.00    -0.206 F 
ATOM     64  C   UNL A   1      51.138  25.956  29.672  1.00  0.00     0.006 A 
ENDBRANCH  40  57
ENDBRANCH  14  15
ENDBRANCH   7   9
ENDBRANCH   4   5
ENDBRANCH   3   4
ENDBRANCH   2   3
ENDBRANCH   1   2
BRANCH   1  65
ATOM     65  C   UNL A   1      30.921  28.931  23.420  1.00  0.00     0.021 C 
BRANCH  65  66
ATOM     66  C   UNL A   1      30.715  27.480  22.991  1.00  0.00     0.116 C 
BRANCH  66  67
ATOM     67  N   UNL A   1      31.584  27.109  21.887  1.00  0.00    -0.352 N 
ATOM     68  C   UNL A   1      32.513  26.105  21.825  1.00  0.00     0.251 C 
ATOM     69  H   UNL A   1      31.493  27.654  21.073  1.00  0.00     0.163 HD
ATOM     70  O   UNL A   1      33.275  25.998  20.872  1.00  0.00    -0.269 OA
BRANCH  68  71
ATOM     71  C   UNL A   1      32.602  25.143  22.937  1.00  0.00     0.042 A 
ATOM     72  C   UNL A   1      32.278  23.798  22.731  1.00  0.00     0.015 A 
ATOM     73  C   UNL A   1      33.003  25.601  24.193  1.00  0.00     0.054 A 
ATOM     74  C   UNL A   1      32.322  22.911  23.805  1.00  0.00     0.024 A 
ATOM     75  C   UNL A   1      33.021  24.713  25.263  1.00  0.00     0.142 A 
ATOM     76  C   UNL A   1      32.687  23.378  25.075  1.00  0.00     0.103 A 
ATOM     77  F   UNL A   1      33.322  25.190  26.476  1.00  0.00    -0.206 F 
BRANCH  76  78
ATOM     78  S   UNL A   1      32.661  22.240  26.426  1.00  0.00     0.186 S 
ATOM     79  O   UNL A   1      31.780  22.845  27.410  1.00  0.00    -0.223 OA
ATOM     80  O   UNL A   1      32.314  20.946  25.859  1.00  0.00    -0.223 OA
BRANCH  78  81
ATOM     81  C   UNL A   1      34.278  22.102  27.148  1.00  0.00     0.188 C 
BRANCH  81  82
ATOM     82  C   UNL A   1      35.404  22.365  26.193  1.00  0.00     0.020 A 
ATOM     83  C   UNL A   1      36.207  23.477  26.018  1.00  0.00     0.016 A 
ATOM     84  S   UNL A   1      35.775  21.151  25.029  1.00  0.00    -0.148 S 
ATOM     85  C   UNL A   1      37.153  23.307  24.963  1.00  0.00     0.012 A 
ATOM     86  C   UNL A   1      37.023  22.087  24.342  1.00  0.00     0.065 A 
ENDBRANCH  81  82
ENDBRANCH  78  81
ENDBRANCH  76  78
ENDBRANCH  68  71
ENDBRANCH  66  67
ENDBRANCH  65  66
ENDBRANCH   1  65
TORSDOF 16
ENDMDL
