MODEL 1
REMARK VINA RESULT:     -10.8      0.000      0.000
REMARK SMILES COC(=O)[C@H]1CCN(S(=O)(=O)N2CCC[C@H](C(=O)NCCCCCCNC(=O)c3ccc(-c4c5nc(c(-c6c(F)cccc6F)c6ccc([nH]6)c(-c6c(F)cccc6F)c6nc(c(-c7c(F)cccc7F)c7ccc4[nH]7)C=C6)C=C5)cc3)C2)C1
REMARK SMILES IDX 21 1 20 2 19 3 17 4 18 5 16 7 12 8 13 9 83 10 14 11 15 12
REMARK SMILES IDX 9 13 10 14 11 15 8 16 5 17 6 18 84 19 7 20 3 21 4 22 2 23
REMARK SMILES IDX 1 24 22 25 23 26 24 27 25 28 26 29 27 30 28 32 29 33 30 34
REMARK SMILES IDX 82 35 31 36 81 37 32 38 33 39 34 40 75 41 35 42 80 43 74 44
REMARK SMILES IDX 76 45 36 46 79 47 73 48 72 49 37 51 63 52 46 53 62 54 47 55
REMARK SMILES IDX 50 56 61 57 77 58 48 59 49 60 60 62 78 63 51 64 38 65 39 66
REMARK SMILES IDX 44 67 40 68 41 69 43 70 45 71 42 72 64 73 65 74 70 75 66 76
REMARK SMILES IDX 67 77 69 78 71 79 68 80 52 81 53 82 58 83 54 84 55 85 57 86
REMARK SMILES IDX 59 87 56 88
REMARK H PARENT 19 6 26 31 76 50 50 61
REMARK Flexibility Score: inf
ROOT
ATOM      1  C   UNL A   1      34.840  31.684  28.259  1.00  0.00     0.021 C 
ENDROOT
BRANCH   1   2
ATOM      2  C   UNL A   1      33.679  30.959  27.588  1.00  0.00     0.116 C 
BRANCH   2   3
ATOM      3  N   UNL A   1      34.119  30.169  26.465  1.00  0.00    -0.356 N 
ATOM      4  C   UNL A   1      33.464  29.282  25.681  1.00  0.00     0.224 C 
ATOM      5  O   UNL A   1      34.123  28.771  24.767  1.00  0.00    -0.275 OA
ATOM      6  H   UNL A   1      35.066  30.297  26.227  1.00  0.00     0.163 HD
BRANCH   4   7
ATOM      7  C   UNL A   1      31.998  28.885  25.852  1.00  0.00     0.094 C 
ATOM      8  N   UNL A   1      31.569  26.485  25.330  1.00  0.00    -0.188 NA
ATOM      9  C   UNL A   1      30.504  26.785  24.357  1.00  0.00     0.103 C 
ATOM     10  C   UNL A   1      31.771  27.483  26.394  1.00  0.00     0.117 C 
ATOM     11  C   UNL A   1      30.708  28.166  23.732  1.00  0.00     0.018 C 
ATOM     12  C   UNL A   1      31.033  29.270  24.732  1.00  0.00     0.016 C 
BRANCH   8  13
ATOM     13  S   UNL A   1      31.960  24.881  25.621  1.00  0.00     0.282 S 
ATOM     14  O   UNL A   1      30.847  24.234  26.268  1.00  0.00    -0.195 OA
ATOM     15  O   UNL A   1      33.278  24.858  26.218  1.00  0.00    -0.195 OA
BRANCH  13  16
ATOM     16  N   UNL A   1      32.112  24.232  24.062  1.00  0.00    -0.188 NA
ATOM     17  C   UNL A   1      34.060  23.165  23.069  1.00  0.00     0.116 C 
ATOM     18  C   UNL A   1      33.251  22.153  23.858  1.00  0.00     0.033 C 
ATOM     19  C   UNL A   1      33.460  24.515  23.447  1.00  0.00     0.118 C 
ATOM     20  C   UNL A   1      31.879  22.781  23.886  1.00  0.00     0.104 C 
BRANCH  17  21
ATOM     21  C   UNL A   1      35.524  23.108  23.421  1.00  0.00     0.310 C 
ATOM     22  O   UNL A   1      36.442  23.092  22.614  1.00  0.00    -0.252 OA
BRANCH  21  23
ATOM     23  O   UNL A   1      35.677  23.076  24.773  1.00  0.00    -0.469 OA
ATOM     24  C   UNL A   1      36.954  23.549  25.209  1.00  0.00     0.282 C 
ENDBRANCH  21  23
ENDBRANCH  17  21
ENDBRANCH  13  16
ENDBRANCH   8  13
ENDBRANCH   4   7
ENDBRANCH   2   3
ENDBRANCH   1   2
BRANCH   1  25
ATOM     25  C   UNL A   1      34.394  32.747  29.261  1.00  0.00     0.002 C 
BRANCH  25  26
ATOM     26  C   UNL A   1      34.490  34.189  28.746  1.00  0.00     0.002 C 
BRANCH  26  27
ATOM     27  C   UNL A   1      33.212  35.021  28.898  1.00  0.00     0.021 C 
BRANCH  27  28
ATOM     28  C   UNL A   1      33.392  36.308  29.698  1.00  0.00     0.116 C 
BRANCH  28  29
ATOM     29  N   UNL A   1      32.456  36.384  30.810  1.00  0.00    -0.352 N 
ATOM     30  C   UNL A   1      32.471  35.721  32.008  1.00  0.00     0.251 C 
ATOM     31  H   UNL A   1      31.702  37.004  30.682  1.00  0.00     0.163 HD
ATOM     32  O   UNL A   1      31.474  35.711  32.723  1.00  0.00    -0.269 OA
BRANCH  30  33
ATOM     33  C   UNL A   1      33.694  35.015  32.436  1.00  0.00     0.039 A 
ATOM     34  C   UNL A   1      33.585  33.726  32.960  1.00  0.00     0.014 A 
ATOM     35  C   UNL A   1      34.943  35.638  32.338  1.00  0.00     0.014 A 
ATOM     36  C   UNL A   1      34.739  33.039  33.338  1.00  0.00     0.010 A 
ATOM     37  C   UNL A   1      36.096  34.923  32.644  1.00  0.00     0.010 A 
ATOM     38  C   UNL A   1      36.005  33.620  33.154  1.00  0.00    -0.014 A 
BRANCH  38  39
ATOM     39  C   UNL A   1      37.246  32.882  33.499  1.00  0.00     0.031 A 
ATOM     40  C   UNL A   1      37.975  33.190  34.778  1.00  0.00     0.074 A 
ATOM     41  C   UNL A   1      37.736  31.969  32.637  1.00  0.00     0.049 A 
ATOM     42  N   UNL A   1      39.108  32.706  35.219  1.00  0.00    -0.248 NA
ATOM     43  C   UNL A   1      37.363  34.190  35.669  1.00  0.00     0.031 C 
ATOM     44  C   UNL A   1      37.138  31.609  31.350  1.00  0.00     0.029 A 
ATOM     45  N   UNL A   1      38.857  31.180  32.713  1.00  0.00    -0.354 N 
ATOM     46  C   UNL A   1      39.339  33.336  36.435  1.00  0.00     0.074 A 
ATOM     47  C   UNL A   1      38.268  34.286  36.631  1.00  0.00     0.031 C 
ATOM     48  C   UNL A   1      37.884  30.655  30.769  1.00  0.00     0.029 A 
ATOM     49  C   UNL A   1      39.035  30.369  31.617  1.00  0.00     0.049 A 
ATOM     50  H   UNL A   1      39.475  31.194  33.479  1.00  0.00     0.167 HD
ATOM     51  C   UNL A   1      40.337  33.119  37.323  1.00  0.00     0.037 A 
ATOM     52  C   UNL A   1      40.024  29.503  31.327  1.00  0.00     0.037 A 
ATOM     53  C   UNL A   1      41.398  32.164  37.130  1.00  0.00     0.049 A 
ATOM     54  C   UNL A   1      41.148  29.321  32.313  1.00  0.00     0.074 A 
ATOM     55  C   UNL A   1      42.446  31.857  37.980  1.00  0.00     0.029 A 
ATOM     56  N   UNL A   1      41.540  31.359  36.011  1.00  0.00    -0.354 N 
ATOM     57  N   UNL A   1      41.325  29.887  33.482  1.00  0.00    -0.248 NA
ATOM     58  C   UNL A   1      42.208  28.375  31.939  1.00  0.00     0.031 C 
ATOM     59  C   UNL A   1      43.247  30.898  37.356  1.00  0.00     0.029 A 
ATOM     60  C   UNL A   1      42.668  30.566  36.142  1.00  0.00     0.049 A 
ATOM     61  H   UNL A   1      40.931  31.352  35.238  1.00  0.00     0.167 HD
ATOM     62  C   UNL A   1      42.490  29.335  33.999  1.00  0.00     0.074 A 
ATOM     63  C   UNL A   1      42.968  28.378  33.024  1.00  0.00     0.031 C 
ATOM     64  C   UNL A   1      43.113  29.598  35.174  1.00  0.00     0.037 A 
BRANCH  51  65
ATOM     65  C   UNL A   1      40.322  33.910  38.599  1.00  0.00     0.057 A 
ATOM     66  C   UNL A   1      41.008  35.127  38.713  1.00  0.00     0.134 A 
ATOM     67  C   UNL A   1      39.565  33.490  39.699  1.00  0.00     0.134 A 
ATOM     68  F   UNL A   1      41.762  35.581  37.700  1.00  0.00    -0.206 F 
ATOM     69  C   UNL A   1      40.952  35.890  39.880  1.00  0.00     0.040 A 
ATOM     70  C   UNL A   1      39.478  34.259  40.862  1.00  0.00     0.040 A 
ATOM     71  F   UNL A   1      38.879  32.338  39.655  1.00  0.00    -0.206 F 
ATOM     72  C   UNL A   1      40.175  35.462  40.955  1.00  0.00     0.006 A 
ENDBRANCH  51  65
BRANCH  52  73
ATOM     73  C   UNL A   1      40.013  28.736  30.053  1.00  0.00     0.057 A 
ATOM     74  C   UNL A   1      40.649  29.228  28.906  1.00  0.00     0.134 A 
ATOM     75  C   UNL A   1      39.318  27.528  29.933  1.00  0.00     0.134 A 
ATOM     76  F   UNL A   1      41.320  30.390  28.952  1.00  0.00    -0.206 F 
ATOM     77  C   UNL A   1      40.556  28.572  27.677  1.00  0.00     0.040 A 
ATOM     78  C   UNL A   1      39.244  26.843  28.717  1.00  0.00     0.040 A 
ATOM     79  F   UNL A   1      38.693  26.995  30.993  1.00  0.00    -0.206 F 
ATOM     80  C   UNL A   1      39.851  27.375  27.582  1.00  0.00     0.006 A 
ENDBRANCH  52  73
BRANCH  64  81
ATOM     81  C   UNL A   1      44.341  28.798  35.497  1.00  0.00     0.057 A 
ATOM     82  C   UNL A   1      44.278  27.589  36.201  1.00  0.00     0.134 A 
ATOM     83  C   UNL A   1      45.602  29.229  35.064  1.00  0.00     0.134 A 
ATOM     84  F   UNL A   1      43.103  27.126  36.655  1.00  0.00    -0.206 F 
ATOM     85  C   UNL A   1      45.428  26.853  36.491  1.00  0.00     0.040 A 
ATOM     86  C   UNL A   1      46.755  28.487  35.319  1.00  0.00     0.040 A 
ATOM     87  F   UNL A   1      45.733  30.373  34.375  1.00  0.00    -0.206 F 
ATOM     88  C   UNL A   1      46.671  27.298  36.042  1.00  0.00     0.006 A 
ENDBRANCH  64  81
ENDBRANCH  38  39
ENDBRANCH  30  33
ENDBRANCH  28  29
ENDBRANCH  27  28
ENDBRANCH  26  27
ENDBRANCH  25  26
ENDBRANCH   1  25
TORSDOF 17
ENDMDL
MODEL 2
REMARK VINA RESULT:     -10.8      5.310     10.632
REMARK SMILES COC(=O)[C@H]1CCN(S(=O)(=O)N2CCC[C@H](C(=O)NCCCCCCNC(=O)c3ccc(-c4c5nc(c(-c6c(F)cccc6F)c6ccc([nH]6)c(-c6c(F)cccc6F)c6nc(c(-c7c(F)cccc7F)c7ccc4[nH]7)C=C6)C=C5)cc3)C2)C1
REMARK SMILES IDX 21 1 20 2 19 3 17 4 18 5 16 7 12 8 13 9 83 10 14 11 15 12
REMARK SMILES IDX 9 13 10 14 11 15 8 16 5 17 6 18 84 19 7 20 3 21 4 22 2 23
REMARK SMILES IDX 1 24 22 25 23 26 24 27 25 28 26 29 27 30 28 32 29 33 30 34
REMARK SMILES IDX 82 35 31 36 81 37 32 38 33 39 34 40 75 41 35 42 80 43 74 44
REMARK SMILES IDX 76 45 36 46 79 47 73 48 72 49 37 51 63 52 46 53 62 54 47 55
REMARK SMILES IDX 50 56 61 57 77 58 48 59 49 60 60 62 78 63 51 64 38 65 39 66
REMARK SMILES IDX 44 67 40 68 41 69 43 70 45 71 42 72 64 73 65 74 70 75 66 76
REMARK SMILES IDX 67 77 69 78 71 79 68 80 52 81 53 82 58 83 54 84 55 85 57 86
REMARK SMILES IDX 59 87 56 88
REMARK H PARENT 19 6 26 31 76 50 50 61
REMARK Flexibility Score: inf
ROOT
ATOM      1  C   UNL A   1      34.525  19.868  24.711  1.00  0.00     0.021 C 
ENDROOT
BRANCH   1   2
ATOM      2  C   UNL A   1      33.199  20.052  25.440  1.00  0.00     0.116 C 
BRANCH   2   3
ATOM      3  N   UNL A   1      32.346  20.999  24.766  1.00  0.00    -0.356 N 
ATOM      4  C   UNL A   1      32.132  22.318  24.972  1.00  0.00     0.224 C 
ATOM      5  O   UNL A   1      31.339  22.871  24.200  1.00  0.00    -0.275 OA
ATOM      6  H   UNL A   1      31.825  20.617  24.023  1.00  0.00     0.163 HD
BRANCH   4   7
ATOM      7  C   UNL A   1      32.795  23.146  26.074  1.00  0.00     0.094 C 
ATOM      8  N   UNL A   1      32.273  25.579  25.915  1.00  0.00    -0.188 NA
ATOM      9  C   UNL A   1      33.689  25.984  25.917  1.00  0.00     0.103 C 
ATOM     10  C   UNL A   1      31.964  24.308  26.593  1.00  0.00     0.117 C 
ATOM     11  C   UNL A   1      34.576  24.873  25.351  1.00  0.00     0.018 C 
ATOM     12  C   UNL A   1      34.275  23.483  25.902  1.00  0.00     0.016 C 
BRANCH   8  13
ATOM     13  S   UNL A   1      31.099  26.772  25.828  1.00  0.00     0.282 S 
ATOM     14  O   UNL A   1      30.937  27.372  27.128  1.00  0.00    -0.195 OA
ATOM     15  O   UNL A   1      29.964  26.213  25.125  1.00  0.00    -0.195 OA
BRANCH  13  16
ATOM     16  N   UNL A   1      31.796  27.926  24.800  1.00  0.00    -0.188 NA
ATOM     17  C   UNL A   1      30.713  29.216  23.045  1.00  0.00     0.116 C 
ATOM     18  C   UNL A   1      30.546  29.907  24.384  1.00  0.00     0.033 C 
ATOM     19  C   UNL A   1      31.269  27.838  23.390  1.00  0.00     0.118 C 
ATOM     20  C   UNL A   1      31.699  29.352  25.185  1.00  0.00     0.104 C 
BRANCH  17  21
ATOM     21  C   UNL A   1      29.405  29.101  22.307  1.00  0.00     0.310 C 
ATOM     22  O   UNL A   1      29.123  29.693  21.276  1.00  0.00    -0.252 OA
BRANCH  21  23
ATOM     23  O   UNL A   1      28.577  28.239  22.959  1.00  0.00    -0.469 OA
ATOM     24  C   UNL A   1      27.252  28.747  23.132  1.00  0.00     0.282 C 
ENDBRANCH  21  23
ENDBRANCH  17  21
ENDBRANCH  13  16
ENDBRANCH   8  13
ENDBRANCH   4   7
ENDBRANCH   2   3
ENDBRANCH   1   2
BRANCH   1  25
ATOM     25  C   UNL A   1      35.693  20.585  25.386  1.00  0.00     0.002 C 
BRANCH  25  26
ATOM     26  C   UNL A   1      36.978  20.639  24.549  1.00  0.00     0.002 C 
BRANCH  26  27
ATOM     27  C   UNL A   1      38.044  19.604  24.926  1.00  0.00     0.021 C 
BRANCH  27  28
ATOM     28  C   UNL A   1      39.126  20.131  25.864  1.00  0.00     0.116 C 
BRANCH  28  29
ATOM     29  N   UNL A   1      40.269  19.233  25.922  1.00  0.00    -0.352 N 
ATOM     30  C   UNL A   1      41.596  19.521  26.097  1.00  0.00     0.251 C 
ATOM     31  H   UNL A   1      40.057  18.276  25.821  1.00  0.00     0.163 HD
ATOM     32  O   UNL A   1      42.451  18.672  25.867  1.00  0.00    -0.269 OA
BRANCH  30  33
ATOM     33  C   UNL A   1      41.996  20.863  26.564  1.00  0.00     0.039 A 
ATOM     34  C   UNL A   1      42.386  21.819  25.625  1.00  0.00     0.014 A 
ATOM     35  C   UNL A   1      42.002  21.165  27.929  1.00  0.00     0.014 A 
ATOM     36  C   UNL A   1      42.735  23.099  26.054  1.00  0.00     0.010 A 
ATOM     37  C   UNL A   1      42.276  22.463  28.347  1.00  0.00     0.010 A 
ATOM     38  C   UNL A   1      42.653  23.441  27.415  1.00  0.00    -0.014 A 
BRANCH  38  39
ATOM     39  C   UNL A   1      42.967  24.814  27.882  1.00  0.00     0.031 A 
ATOM     40  C   UNL A   1      44.392  25.210  28.155  1.00  0.00     0.074 A 
ATOM     41  C   UNL A   1      41.963  25.686  28.103  1.00  0.00     0.049 A 
ATOM     42  N   UNL A   1      44.859  26.334  28.634  1.00  0.00    -0.248 NA
ATOM     43  C   UNL A   1      45.429  24.202  27.873  1.00  0.00     0.031 C 
ATOM     44  C   UNL A   1      40.539  25.407  27.909  1.00  0.00     0.029 A 
ATOM     45  N   UNL A   1      41.989  26.985  28.547  1.00  0.00    -0.354 N 
ATOM     46  C   UNL A   1      46.237  26.171  28.706  1.00  0.00     0.074 A 
ATOM     47  C   UNL A   1      46.526  24.817  28.287  1.00  0.00     0.031 C 
ATOM     48  C   UNL A   1      39.830  26.508  28.209  1.00  0.00     0.029 A 
ATOM     49  C   UNL A   1      40.742  27.553  28.659  1.00  0.00     0.049 A 
ATOM     50  H   UNL A   1      42.820  27.463  28.764  1.00  0.00     0.167 HD
ATOM     51  C   UNL A   1      47.178  27.076  29.058  1.00  0.00     0.037 A 
ATOM     52  C   UNL A   1      40.379  28.775  29.090  1.00  0.00     0.037 A 
ATOM     53  C   UNL A   1      46.889  28.427  29.465  1.00  0.00     0.049 A 
ATOM     54  C   UNL A   1      41.447  29.744  29.524  1.00  0.00     0.074 A 
ATOM     55  C   UNL A   1      47.775  29.428  29.824  1.00  0.00     0.029 A 
ATOM     56  N   UNL A   1      45.616  28.966  29.561  1.00  0.00    -0.354 N 
ATOM     57  N   UNL A   1      42.749  29.591  29.537  1.00  0.00    -0.248 NA
ATOM     58  C   UNL A   1      40.994  31.059  30.000  1.00  0.00     0.031 C 
ATOM     59  C   UNL A   1      47.036  30.558  30.180  1.00  0.00     0.029 A 
ATOM     60  C   UNL A   1      45.692  30.281  29.988  1.00  0.00     0.049 A 
ATOM     61  H   UNL A   1      44.781  28.485  29.357  1.00  0.00     0.167 HD
ATOM     62  C   UNL A   1      43.269  30.800  29.980  1.00  0.00     0.074 A 
ATOM     63  C   UNL A   1      42.144  31.681  30.209  1.00  0.00     0.031 C 
ATOM     64  C   UNL A   1      44.562  31.152  30.183  1.00  0.00     0.037 A 
BRANCH  51  65
ATOM     65  C   UNL A   1      48.616  26.649  28.999  1.00  0.00     0.057 A 
ATOM     66  C   UNL A   1      49.245  26.041  30.094  1.00  0.00     0.134 A 
ATOM     67  C   UNL A   1      49.361  26.784  27.821  1.00  0.00     0.134 A 
ATOM     68  F   UNL A   1      48.591  25.893  31.257  1.00  0.00    -0.206 F 
ATOM     69  C   UNL A   1      50.566  25.595  30.023  1.00  0.00     0.040 A 
ATOM     70  C   UNL A   1      50.673  26.316  27.729  1.00  0.00     0.040 A 
ATOM     71  F   UNL A   1      48.819  27.352  26.733  1.00  0.00    -0.206 F 
ATOM     72  C   UNL A   1      51.279  25.722  28.833  1.00  0.00     0.006 A 
ENDBRANCH  51  65
BRANCH  52  73
ATOM     73  C   UNL A   1      38.945  29.168  29.142  1.00  0.00     0.057 A 
ATOM     74  C   UNL A   1      38.204  29.049  30.324  1.00  0.00     0.134 A 
ATOM     75  C   UNL A   1      38.267  29.611  28.001  1.00  0.00     0.134 A 
ATOM     76  F   UNL A   1      38.792  28.615  31.449  1.00  0.00    -0.206 F 
ATOM     77  C   UNL A   1      36.833  29.312  30.359  1.00  0.00     0.040 A 
ATOM     78  C   UNL A   1      36.903  29.909  28.029  1.00  0.00     0.040 A 
ATOM     79  F   UNL A   1      38.918  29.755  26.836  1.00  0.00    -0.206 F 
ATOM     80  C   UNL A   1      36.179  29.744  29.208  1.00  0.00     0.006 A 
ENDBRANCH  52  73
BRANCH  64  81
ATOM     81  C   UNL A   1      44.833  32.563  30.617  1.00  0.00     0.057 A 
ATOM     82  C   UNL A   1      44.986  32.911  31.965  1.00  0.00     0.134 A 
ATOM     83  C   UNL A   1      44.977  33.582  29.666  1.00  0.00     0.134 A 
ATOM     84  F   UNL A   1      44.847  31.986  32.927  1.00  0.00    -0.206 F 
ATOM     85  C   UNL A   1      45.242  34.227  32.354  1.00  0.00     0.040 A 
ATOM     86  C   UNL A   1      45.265  34.894  30.040  1.00  0.00     0.040 A 
ATOM     87  F   UNL A   1      44.854  33.316  28.357  1.00  0.00    -0.206 F 
ATOM     88  C   UNL A   1      45.390  35.222  31.389  1.00  0.00     0.006 A 
ENDBRANCH  64  81
ENDBRANCH  38  39
ENDBRANCH  30  33
ENDBRANCH  28  29
ENDBRANCH  27  28
ENDBRANCH  26  27
ENDBRANCH  25  26
ENDBRANCH   1  25
TORSDOF 17
ENDMDL
MODEL 3
REMARK VINA RESULT:     -10.7      5.946     10.843
REMARK SMILES COC(=O)[C@H]1CCN(S(=O)(=O)N2CCC[C@H](C(=O)NCCCCCCNC(=O)c3ccc(-c4c5nc(c(-c6c(F)cccc6F)c6ccc([nH]6)c(-c6c(F)cccc6F)c6nc(c(-c7c(F)cccc7F)c7ccc4[nH]7)C=C6)C=C5)cc3)C2)C1
REMARK SMILES IDX 21 1 20 2 19 3 17 4 18 5 16 7 12 8 13 9 83 10 14 11 15 12
REMARK SMILES IDX 9 13 10 14 11 15 8 16 5 17 6 18 84 19 7 20 3 21 4 22 2 23
REMARK SMILES IDX 1 24 22 25 23 26 24 27 25 28 26 29 27 30 28 32 29 33 30 34
REMARK SMILES IDX 82 35 31 36 81 37 32 38 33 39 34 40 75 41 35 42 80 43 74 44
REMARK SMILES IDX 76 45 36 46 79 47 73 48 72 49 37 51 63 52 46 53 62 54 47 55
REMARK SMILES IDX 50 56 61 57 77 58 48 59 49 60 60 62 78 63 51 64 38 65 39 66
REMARK SMILES IDX 44 67 40 68 41 69 43 70 45 71 42 72 64 73 65 74 70 75 66 76
REMARK SMILES IDX 67 77 69 78 71 79 68 80 52 81 53 82 58 83 54 84 55 85 57 86
REMARK SMILES IDX 59 87 56 88
REMARK H PARENT 19 6 26 31 76 50 50 61
REMARK Flexibility Score: inf
ROOT
ATOM      1  C   UNL A   1      34.434  19.785  24.657  1.00  0.00     0.021 C 
ENDROOT
BRANCH   1   2
ATOM      2  C   UNL A   1      33.049  19.990  25.260  1.00  0.00     0.116 C 
BRANCH   2   3
ATOM      3  N   UNL A   1      32.301  20.999  24.550  1.00  0.00    -0.356 N 
ATOM      4  C   UNL A   1      32.150  22.325  24.771  1.00  0.00     0.224 C 
ATOM      5  O   UNL A   1      31.447  22.938  23.958  1.00  0.00    -0.275 OA
ATOM      6  H   UNL A   1      31.813  20.662  23.764  1.00  0.00     0.163 HD
BRANCH   4   7
ATOM      7  C   UNL A   1      32.780  23.091  25.935  1.00  0.00     0.094 C 
ATOM      8  N   UNL A   1      32.289  25.534  25.875  1.00  0.00    -0.188 NA
ATOM      9  C   UNL A   1      33.707  25.922  25.948  1.00  0.00     0.103 C 
ATOM     10  C   UNL A   1      31.942  24.236  26.479  1.00  0.00     0.117 C 
ATOM     11  C   UNL A   1      34.604  24.829  25.362  1.00  0.00     0.018 C 
ATOM     12  C   UNL A   1      34.269  23.419  25.833  1.00  0.00     0.016 C 
BRANCH   8  13
ATOM     13  S   UNL A   1      31.130  26.744  25.804  1.00  0.00     0.282 S 
ATOM     14  O   UNL A   1      30.956  27.309  27.117  1.00  0.00    -0.195 OA
ATOM     15  O   UNL A   1      30.000  26.218  25.068  1.00  0.00    -0.195 OA
BRANCH  13  16
ATOM     16  N   UNL A   1      31.857  27.916  24.818  1.00  0.00    -0.188 NA
ATOM     17  C   UNL A   1      30.809  29.292  23.107  1.00  0.00     0.116 C 
ATOM     18  C   UNL A   1      30.654  29.940  24.470  1.00  0.00     0.033 C 
ATOM     19  C   UNL A   1      31.331  27.890  23.405  1.00  0.00     0.118 C 
ATOM     20  C   UNL A   1      31.791  29.330  25.253  1.00  0.00     0.104 C 
BRANCH  17  21
ATOM     21  C   UNL A   1      29.500  29.233  22.363  1.00  0.00     0.310 C 
ATOM     22  O   UNL A   1      29.300  29.702  21.252  1.00  0.00    -0.252 OA
BRANCH  21  23
ATOM     23  O   UNL A   1      28.569  28.580  23.111  1.00  0.00    -0.469 OA
ATOM     24  C   UNL A   1      27.281  29.201  23.081  1.00  0.00     0.282 C 
ENDBRANCH  21  23
ENDBRANCH  17  21
ENDBRANCH  13  16
ENDBRANCH   8  13
ENDBRANCH   4   7
ENDBRANCH   2   3
ENDBRANCH   1   2
BRANCH   1  25
ATOM     25  C   UNL A   1      35.531  20.567  25.376  1.00  0.00     0.002 C 
BRANCH  25  26
ATOM     26  C   UNL A   1      36.862  20.642  24.618  1.00  0.00     0.002 C 
BRANCH  26  27
ATOM     27  C   UNL A   1      37.891  19.573  25.003  1.00  0.00     0.021 C 
BRANCH  27  28
ATOM     28  C   UNL A   1      39.105  20.111  25.754  1.00  0.00     0.116 C 
BRANCH  28  29
ATOM     29  N   UNL A   1      40.130  19.091  25.918  1.00  0.00    -0.352 N 
ATOM     30  C   UNL A   1      41.482  19.232  26.079  1.00  0.00     0.251 C 
ATOM     31  H   UNL A   1      39.802  18.163  25.913  1.00  0.00     0.163 HD
ATOM     32  O   UNL A   1      42.226  18.266  25.948  1.00  0.00    -0.269 OA
BRANCH  30  33
ATOM     33  C   UNL A   1      42.043  20.557  26.410  1.00  0.00     0.039 A 
ATOM     34  C   UNL A   1      42.411  21.416  25.374  1.00  0.00     0.014 A 
ATOM     35  C   UNL A   1      42.223  20.937  27.744  1.00  0.00     0.014 A 
ATOM     36  C   UNL A   1      42.912  22.682  25.677  1.00  0.00     0.010 A 
ATOM     37  C   UNL A   1      42.650  22.226  28.042  1.00  0.00     0.010 A 
ATOM     38  C   UNL A   1      43.007  23.109  27.013  1.00  0.00    -0.014 A 
BRANCH  38  39
ATOM     39  C   UNL A   1      43.486  24.472  27.351  1.00  0.00     0.031 A 
ATOM     40  C   UNL A   1      42.505  25.534  27.764  1.00  0.00     0.074 A 
ATOM     41  C   UNL A   1      44.797  24.761  27.240  1.00  0.00     0.049 A 
ATOM     42  N   UNL A   1      42.719  26.798  28.028  1.00  0.00    -0.248 NA
ATOM     43  C   UNL A   1      41.093  25.130  27.874  1.00  0.00     0.031 C 
ATOM     44  C   UNL A   1      45.840  23.825  26.814  1.00  0.00     0.029 A 
ATOM     45  N   UNL A   1      45.477  25.932  27.470  1.00  0.00    -0.354 N 
ATOM     46  C   UNL A   1      41.476  27.335  28.339  1.00  0.00     0.074 A 
ATOM     47  C   UNL A   1      40.503  26.280  28.165  1.00  0.00     0.031 C 
ATOM     48  C   UNL A   1      47.029  24.450  26.837  1.00  0.00     0.029 A 
ATOM     49  C   UNL A   1      46.828  25.840  27.232  1.00  0.00     0.049 A 
ATOM     50  H   UNL A   1      45.039  26.758  27.776  1.00  0.00     0.167 HD
ATOM     51  C   UNL A   1      41.177  28.585  28.762  1.00  0.00     0.037 A 
ATOM     52  C   UNL A   1      47.791  26.776  27.313  1.00  0.00     0.037 A 
ATOM     53  C   UNL A   1      42.149  29.631  28.945  1.00  0.00     0.049 A 
ATOM     54  C   UNL A   1      47.419  28.172  27.738  1.00  0.00     0.074 A 
ATOM     55  C   UNL A   1      41.949  30.926  29.388  1.00  0.00     0.029 A 
ATOM     56  N   UNL A   1      43.507  29.497  28.699  1.00  0.00    -0.354 N 
ATOM     57  N   UNL A   1      46.247  28.650  28.078  1.00  0.00    -0.248 NA
ATOM     58  C   UNL A   1      48.507  29.159  27.795  1.00  0.00     0.031 C 
ATOM     59  C   UNL A   1      43.178  31.590  29.368  1.00  0.00     0.029 A 
ATOM     60  C   UNL A   1      44.154  30.692  28.967  1.00  0.00     0.049 A 
ATOM     61  H   UNL A   1      43.946  28.675  28.381  1.00  0.00     0.167 HD
ATOM     62  C   UNL A   1      46.464  29.976  28.428  1.00  0.00     0.074 A 
ATOM     63  C   UNL A   1      47.882  30.222  28.276  1.00  0.00     0.031 C 
ATOM     64  C   UNL A   1      45.571  30.911  28.837  1.00  0.00     0.037 A 
BRANCH  51  65
ATOM     65  C   UNL A   1      39.742  28.890  29.081  1.00  0.00     0.057 A 
ATOM     66  C   UNL A   1      38.844  29.307  28.090  1.00  0.00     0.134 A 
ATOM     67  C   UNL A   1      39.235  28.704  30.374  1.00  0.00     0.134 A 
ATOM     68  F   UNL A   1      39.268  29.516  26.833  1.00  0.00    -0.206 F 
ATOM     69  C   UNL A   1      37.498  29.540  28.374  1.00  0.00     0.040 A 
ATOM     70  C   UNL A   1      37.885  28.907  30.664  1.00  0.00     0.040 A 
ATOM     71  F   UNL A   1      40.039  28.301  31.370  1.00  0.00    -0.206 F 
ATOM     72  C   UNL A   1      37.013  29.328  29.663  1.00  0.00     0.006 A 
ENDBRANCH  51  65
BRANCH  52  73
ATOM     73  C   UNL A   1      49.204  26.444  26.986  1.00  0.00     0.057 A 
ATOM     74  C   UNL A   1      50.110  26.071  27.987  1.00  0.00     0.134 A 
ATOM     75  C   UNL A   1      49.697  26.552  25.681  1.00  0.00     0.134 A 
ATOM     76  F   UNL A   1      49.703  25.965  29.261  1.00  0.00    -0.206 F 
ATOM     77  C   UNL A   1      51.463  25.862  27.711  1.00  0.00     0.040 A 
ATOM     78  C   UNL A   1      51.041  26.313  25.385  1.00  0.00     0.040 A 
ATOM     79  F   UNL A   1      48.883  26.897  24.673  1.00  0.00    -0.206 F 
ATOM     80  C   UNL A   1      51.931  25.983  26.405  1.00  0.00     0.006 A 
ENDBRANCH  52  73
BRANCH  64  81
ATOM     81  C   UNL A   1      46.108  32.263  29.206  1.00  0.00     0.057 A 
ATOM     82  C   UNL A   1      46.188  33.310  28.279  1.00  0.00     0.134 A 
ATOM     83  C   UNL A   1      46.518  32.529  30.519  1.00  0.00     0.134 A 
ATOM     84  F   UNL A   1      45.823  33.118  27.002  1.00  0.00    -0.206 F 
ATOM     85  C   UNL A   1      46.685  34.564  28.637  1.00  0.00     0.040 A 
ATOM     86  C   UNL A   1      46.985  33.787  30.897  1.00  0.00     0.040 A 
ATOM     87  F   UNL A   1      46.457  31.574  31.459  1.00  0.00    -0.206 F 
ATOM     88  C   UNL A   1      47.078  34.808  29.952  1.00  0.00     0.006 A 
ENDBRANCH  64  81
ENDBRANCH  38  39
ENDBRANCH  30  33
ENDBRANCH  28  29
ENDBRANCH  27  28
ENDBRANCH  26  27
ENDBRANCH  25  26
ENDBRANCH   1  25
TORSDOF 17
ENDMDL
