MODEL 1
REMARK VINA RESULT:     -10.3      0.000      0.000
REMARK SMILES C[C@H]1C[C@H]1CN(C)c1cccc(F)c1C(=O)NCCCCCCNC(=O)c1ccc(-c2c3nc(c(-c4c(F)cccc4F)c4ccc([nH]4)c(-c4c(F)cccc4F)c4nc(c(-c5c(F)cccc5F)c5ccc2[nH]5)C=C4)C=C3)cc1
REMARK SMILES IDX 20 1 19 2 18 3 17 4 15 5 16 6 14 8 8 9 9 10 10 11 12 12
REMARK SMILES IDX 11 13 13 14 6 15 7 16 5 17 4 18 1 19 2 20 3 21 21 22 22 23
REMARK SMILES IDX 23 24 24 25 25 26 26 28 27 29 28 30 80 31 29 32 79 33 30 34
REMARK SMILES IDX 31 35 32 36 73 37 33 38 78 39 72 40 74 41 34 42 77 43 71 44
REMARK SMILES IDX 70 45 35 47 61 48 44 49 60 50 45 51 48 52 59 53 75 54 46 55
REMARK SMILES IDX 47 56 58 58 76 59 49 60 36 61 37 62 42 63 38 64 39 65 41 66
REMARK SMILES IDX 43 67 40 68 62 69 63 70 68 71 64 72 65 73 67 74 69 75 66 76
REMARK SMILES IDX 50 77 51 78 56 79 52 80 53 81 55 82 57 83 54 84
REMARK H PARENT 17 7 24 27 74 46 48 57
REMARK Flexibility Score: inf
ROOT
ATOM      1  C   UNL A   1      38.248  22.416  25.774  1.00  0.00     0.002 C 
ENDROOT
BRANCH   1   2
ATOM      2  C   UNL A   1      37.418  23.662  26.079  1.00  0.00     0.021 C 
BRANCH   2   3
ATOM      3  C   UNL A   1      35.923  23.597  25.777  1.00  0.00     0.116 C 
BRANCH   3   4
ATOM      4  N   UNL A   1      35.073  23.165  26.877  1.00  0.00    -0.352 N 
ATOM      5  C   UNL A   1      33.897  22.423  26.846  1.00  0.00     0.256 C 
ATOM      6  O   UNL A   1      33.459  21.981  27.906  1.00  0.00    -0.269 OA
ATOM      7  H   UNL A   1      35.372  23.439  27.773  1.00  0.00     0.163 HD
BRANCH   5   8
ATOM      8  C   UNL A   1      33.162  22.224  25.566  1.00  0.00     0.098 A 
ATOM      9  C   UNL A   1      32.061  23.023  25.183  1.00  0.00     0.052 A 
ATOM     10  C   UNL A   1      31.638  22.941  23.840  1.00  0.00     0.027 A 
ATOM     11  C   UNL A   1      32.165  22.011  22.947  1.00  0.00     0.005 A 
ATOM     12  C   UNL A   1      33.584  21.206  24.701  1.00  0.00     0.138 A 
ATOM     13  C   UNL A   1      33.106  21.103  23.398  1.00  0.00     0.040 A 
ATOM     14  F   UNL A   1      34.486  20.294  25.099  1.00  0.00    -0.206 F 
BRANCH   9  15
ATOM     15  N   UNL A   1      31.276  23.789  26.033  1.00  0.00    -0.374 N 
ATOM     16  C   UNL A   1      30.291  23.183  26.905  1.00  0.00     0.143 C 
BRANCH  15  17
ATOM     17  C   UNL A   1      31.295  25.243  25.839  1.00  0.00     0.120 C 
BRANCH  17  18
ATOM     18  C   UNL A   1      32.594  25.826  26.339  1.00  0.00     0.011 C 
ATOM     19  C   UNL A   1      33.716  26.334  23.961  1.00  0.00     0.008 C 
ATOM     20  C   UNL A   1      33.733  26.318  25.453  1.00  0.00    -0.009 C 
ATOM     21  C   UNL A   1      32.872  27.304  26.196  1.00  0.00     0.009 C 
ENDBRANCH  17  18
ENDBRANCH  15  17
ENDBRANCH   9  15
ENDBRANCH   5   8
ENDBRANCH   3   4
ENDBRANCH   2   3
ENDBRANCH   1   2
BRANCH   1  22
ATOM     22  C   UNL A   1      37.637  21.397  24.809  1.00  0.00     0.002 C 
BRANCH  22  23
ATOM     23  C   UNL A   1      38.250  19.994  24.813  1.00  0.00     0.021 C 
BRANCH  23  24
ATOM     24  C   UNL A   1      38.988  19.589  26.084  1.00  0.00     0.116 C 
BRANCH  24  25
ATOM     25  N   UNL A   1      40.267  18.954  25.821  1.00  0.00    -0.352 N 
ATOM     26  C   UNL A   1      41.539  19.472  25.900  1.00  0.00     0.251 C 
ATOM     27  H   UNL A   1      40.217  18.011  25.543  1.00  0.00     0.163 HD
ATOM     28  O   UNL A   1      42.494  18.821  25.493  1.00  0.00    -0.269 OA
BRANCH  26  29
ATOM     29  C   UNL A   1      41.758  20.827  26.454  1.00  0.00     0.039 A 
ATOM     30  C   UNL A   1      41.689  21.006  27.839  1.00  0.00     0.014 A 
ATOM     31  C   UNL A   1      42.014  21.920  25.622  1.00  0.00     0.014 A 
ATOM     32  C   UNL A   1      41.941  22.265  28.390  1.00  0.00     0.010 A 
ATOM     33  C   UNL A   1      42.338  23.156  26.177  1.00  0.00     0.010 A 
ATOM     34  C   UNL A   1      42.305  23.343  27.567  1.00  0.00    -0.014 A 
BRANCH  34  35
ATOM     35  C   UNL A   1      42.657  24.668  28.143  1.00  0.00     0.031 A 
ATOM     36  C   UNL A   1      41.600  25.723  28.320  1.00  0.00     0.074 A 
ATOM     37  C   UNL A   1      43.938  24.935  28.470  1.00  0.00     0.049 A 
ATOM     38  N   UNL A   1      41.728  26.956  28.743  1.00  0.00    -0.248 NA
ATOM     39  C   UNL A   1      40.220  25.355  27.961  1.00  0.00     0.031 C 
ATOM     40  C   UNL A   1      45.060  24.004  28.323  1.00  0.00     0.029 A 
ATOM     41  N   UNL A   1      44.515  26.066  28.991  1.00  0.00    -0.354 N 
ATOM     42  C   UNL A   1      40.452  27.505  28.700  1.00  0.00     0.074 A 
ATOM     43  C   UNL A   1      39.573  26.495  28.156  1.00  0.00     0.031 C 
ATOM     44  C   UNL A   1      46.179  24.590  28.776  1.00  0.00     0.029 A 
ATOM     45  C   UNL A   1      45.870  25.952  29.199  1.00  0.00     0.049 A 
ATOM     46  H   UNL A   1      44.006  26.885  29.196  1.00  0.00     0.167 HD
ATOM     47  C   UNL A   1      40.047  28.731  29.105  1.00  0.00     0.037 A 
ATOM     48  C   UNL A   1      46.762  26.844  29.670  1.00  0.00     0.037 A 
ATOM     49  C   UNL A   1      40.919  29.728  29.668  1.00  0.00     0.049 A 
ATOM     50  C   UNL A   1      46.288  28.216  30.069  1.00  0.00     0.074 A 
ATOM     51  C   UNL A   1      40.592  30.989  30.135  1.00  0.00     0.029 A 
ATOM     52  N   UNL A   1      42.285  29.576  29.849  1.00  0.00    -0.354 N 
ATOM     53  N   UNL A   1      45.073  28.706  30.058  1.00  0.00    -0.248 NA
ATOM     54  C   UNL A   1      47.310  29.162  30.545  1.00  0.00     0.031 C 
ATOM     55  C   UNL A   1      41.765  31.618  30.555  1.00  0.00     0.029 A 
ATOM     56  C   UNL A   1      42.816  30.728  30.403  1.00  0.00     0.049 A 
ATOM     57  H   UNL A   1      42.801  28.770  29.618  1.00  0.00     0.167 HD
ATOM     58  C   UNL A   1      45.177  29.998  30.558  1.00  0.00     0.074 A 
ATOM     59  C   UNL A   1      46.573  30.214  30.874  1.00  0.00     0.031 C 
ATOM     60  C   UNL A   1      44.203  30.922  30.737  1.00  0.00     0.037 A 
BRANCH  47  61
ATOM     61  C   UNL A   1      38.590  29.070  28.990  1.00  0.00     0.057 A 
ATOM     62  C   UNL A   1      38.066  29.599  27.804  1.00  0.00     0.134 A 
ATOM     63  C   UNL A   1      37.731  28.979  30.093  1.00  0.00     0.134 A 
ATOM     64  F   UNL A   1      38.838  29.721  26.713  1.00  0.00    -0.206 F 
ATOM     65  C   UNL A   1      36.747  30.050  27.726  1.00  0.00     0.040 A 
ATOM     66  C   UNL A   1      36.403  29.403  30.020  1.00  0.00     0.040 A 
ATOM     67  F   UNL A   1      38.168  28.472  31.255  1.00  0.00    -0.206 F 
ATOM     68  C   UNL A   1      35.912  29.954  28.838  1.00  0.00     0.006 A 
ENDBRANCH  47  61
BRANCH  48  69
ATOM     69  C   UNL A   1      48.192  26.467  29.818  1.00  0.00     0.057 A 
ATOM     70  C   UNL A   1      48.670  25.829  30.970  1.00  0.00     0.134 A 
ATOM     71  C   UNL A   1      49.115  26.725  28.798  1.00  0.00     0.134 A 
ATOM     72  F   UNL A   1      47.841  25.557  31.988  1.00  0.00    -0.206 F 
ATOM     73  C   UNL A   1      50.013  25.469  31.104  1.00  0.00     0.040 A 
ATOM     74  C   UNL A   1      50.454  26.344  28.906  1.00  0.00     0.040 A 
ATOM     75  F   UNL A   1      48.717  27.316  27.661  1.00  0.00    -0.206 F 
ATOM     76  C   UNL A   1      50.907  25.719  30.065  1.00  0.00     0.006 A 
ENDBRANCH  48  69
BRANCH  60  77
ATOM     77  C   UNL A   1      44.590  32.241  31.338  1.00  0.00     0.057 A 
ATOM     78  C   UNL A   1      44.521  32.438  32.725  1.00  0.00     0.134 A 
ATOM     79  C   UNL A   1      44.942  33.341  30.546  1.00  0.00     0.134 A 
ATOM     80  F   UNL A   1      44.177  31.429  33.540  1.00  0.00    -0.206 F 
ATOM     81  C   UNL A   1      44.769  33.686  33.298  1.00  0.00     0.040 A 
ATOM     82  C   UNL A   1      45.221  34.586  31.111  1.00  0.00     0.040 A 
ATOM     83  F   UNL A   1      45.036  33.216  29.213  1.00  0.00    -0.206 F 
ATOM     84  C   UNL A   1      45.123  34.763  32.490  1.00  0.00     0.006 A 
ENDBRANCH  60  77
ENDBRANCH  34  35
ENDBRANCH  26  29
ENDBRANCH  24  25
ENDBRANCH  23  24
ENDBRANCH  22  23
ENDBRANCH   1  22
TORSDOF 16
ENDMDL
MODEL 2
REMARK VINA RESULT:     -10.3      0.493      6.306
REMARK SMILES C[C@H]1C[C@H]1CN(C)c1cccc(F)c1C(=O)NCCCCCCNC(=O)c1ccc(-c2c3nc(c(-c4c(F)cccc4F)c4ccc([nH]4)c(-c4c(F)cccc4F)c4nc(c(-c5c(F)cccc5F)c5ccc2[nH]5)C=C4)C=C3)cc1
REMARK SMILES IDX 20 1 19 2 18 3 17 4 15 5 16 6 14 8 8 9 9 10 10 11 12 12
REMARK SMILES IDX 11 13 13 14 6 15 7 16 5 17 4 18 1 19 2 20 3 21 21 22 22 23
REMARK SMILES IDX 23 24 24 25 25 26 26 28 27 29 28 30 80 31 29 32 79 33 30 34
REMARK SMILES IDX 31 35 32 36 73 37 33 38 78 39 72 40 74 41 34 42 77 43 71 44
REMARK SMILES IDX 70 45 35 47 61 48 44 49 60 50 45 51 48 52 59 53 75 54 46 55
REMARK SMILES IDX 47 56 58 58 76 59 49 60 36 61 37 62 42 63 38 64 39 65 41 66
REMARK SMILES IDX 43 67 40 68 62 69 63 70 68 71 64 72 65 73 67 74 69 75 66 76
REMARK SMILES IDX 50 77 51 78 56 79 52 80 53 81 55 82 57 83 54 84
REMARK H PARENT 17 7 24 27 74 46 48 57
REMARK Flexibility Score: inf
ROOT
ATOM      1  C   UNL A   1      38.254  22.226  25.786  1.00  0.00     0.002 C 
ENDROOT
BRANCH   1   2
ATOM      2  C   UNL A   1      37.600  23.608  25.770  1.00  0.00     0.021 C 
BRANCH   2   3
ATOM      3  C   UNL A   1      36.076  23.659  25.702  1.00  0.00     0.116 C 
BRANCH   3   4
ATOM      4  N   UNL A   1      35.371  22.980  26.778  1.00  0.00    -0.352 N 
ATOM      5  C   UNL A   1      34.250  22.158  26.720  1.00  0.00     0.256 C 
ATOM      6  O   UNL A   1      33.950  21.510  27.721  1.00  0.00    -0.269 OA
ATOM      7  H   UNL A   1      35.739  23.124  27.680  1.00  0.00     0.163 HD
BRANCH   5   8
ATOM      8  C   UNL A   1      33.406  22.117  25.494  1.00  0.00     0.098 A 
ATOM      9  C   UNL A   1      32.410  23.080  25.216  1.00  0.00     0.052 A 
ATOM     10  C   UNL A   1      31.886  23.112  23.908  1.00  0.00     0.027 A 
ATOM     11  C   UNL A   1      32.207  22.150  22.952  1.00  0.00     0.005 A 
ATOM     12  C   UNL A   1      33.612  21.082  24.572  1.00  0.00     0.138 A 
ATOM     13  C   UNL A   1      33.035  21.099  23.306  1.00  0.00     0.040 A 
ATOM     14  F   UNL A   1      34.396  20.036  24.876  1.00  0.00    -0.206 F 
BRANCH   9  15
ATOM     15  N   UNL A   1      31.807  23.918  26.144  1.00  0.00    -0.374 N 
ATOM     16  C   UNL A   1      30.503  23.618  26.701  1.00  0.00     0.143 C 
BRANCH  15  17
ATOM     17  C   UNL A   1      32.411  25.239  26.351  1.00  0.00     0.120 C 
BRANCH  17  18
ATOM     18  C   UNL A   1      31.356  26.317  26.300  1.00  0.00     0.011 C 
ATOM     19  C   UNL A   1      32.838  28.337  27.247  1.00  0.00     0.008 C 
ATOM     20  C   UNL A   1      31.557  27.764  26.740  1.00  0.00    -0.009 C 
ATOM     21  C   UNL A   1      31.446  27.425  25.278  1.00  0.00     0.009 C 
ENDBRANCH  17  18
ENDBRANCH  15  17
ENDBRANCH   9  15
ENDBRANCH   5   8
ENDBRANCH   3   4
ENDBRANCH   2   3
ENDBRANCH   1   2
BRANCH   1  22
ATOM     22  C   UNL A   1      37.685  21.180  24.824  1.00  0.00     0.002 C 
BRANCH  22  23
ATOM     23  C   UNL A   1      38.353  19.803  24.833  1.00  0.00     0.021 C 
BRANCH  23  24
ATOM     24  C   UNL A   1      39.120  19.439  26.100  1.00  0.00     0.116 C 
BRANCH  24  25
ATOM     25  N   UNL A   1      40.421  18.854  25.828  1.00  0.00    -0.352 N 
ATOM     26  C   UNL A   1      41.671  19.424  25.881  1.00  0.00     0.251 C 
ATOM     27  H   UNL A   1      40.406  17.905  25.565  1.00  0.00     0.163 HD
ATOM     28  O   UNL A   1      42.647  18.807  25.470  1.00  0.00    -0.269 OA
BRANCH  26  29
ATOM     29  C   UNL A   1      41.842  20.796  26.412  1.00  0.00     0.039 A 
ATOM     30  C   UNL A   1      41.752  20.998  27.792  1.00  0.00     0.014 A 
ATOM     31  C   UNL A   1      42.073  21.880  25.562  1.00  0.00     0.014 A 
ATOM     32  C   UNL A   1      41.959  22.274  28.323  1.00  0.00     0.010 A 
ATOM     33  C   UNL A   1      42.351  23.136  26.097  1.00  0.00     0.010 A 
ATOM     34  C   UNL A   1      42.297  23.347  27.483  1.00  0.00    -0.014 A 
BRANCH  34  35
ATOM     35  C   UNL A   1      42.602  24.693  28.038  1.00  0.00     0.031 A 
ATOM     36  C   UNL A   1      44.005  25.042  28.452  1.00  0.00     0.074 A 
ATOM     37  C   UNL A   1      41.607  25.587  28.206  1.00  0.00     0.049 A 
ATOM     38  N   UNL A   1      44.451  26.137  29.016  1.00  0.00    -0.248 NA
ATOM     39  C   UNL A   1      45.044  24.025  28.222  1.00  0.00     0.031 C 
ATOM     40  C   UNL A   1      40.200  25.361  27.866  1.00  0.00     0.029 A 
ATOM     41  N   UNL A   1      41.623  26.866  28.707  1.00  0.00    -0.354 N 
ATOM     42  C   UNL A   1      45.813  25.940  29.204  1.00  0.00     0.074 A 
ATOM     43  C   UNL A   1      46.114  24.601  28.751  1.00  0.00     0.031 C 
ATOM     44  C   UNL A   1      39.498  26.473  28.135  1.00  0.00     0.029 A 
ATOM     45  C   UNL A   1      40.390  27.474  28.711  1.00  0.00     0.049 A 
ATOM     46  H   UNL A   1      42.442  27.306  29.033  1.00  0.00     0.167 HD
ATOM     47  C   UNL A   1      46.733  26.808  29.685  1.00  0.00     0.037 A 
ATOM     48  C   UNL A   1      40.018  28.697  29.137  1.00  0.00     0.037 A 
ATOM     49  C   UNL A   1      46.436  28.149  30.113  1.00  0.00     0.049 A 
ATOM     50  C   UNL A   1      41.057  29.623  29.710  1.00  0.00     0.074 A 
ATOM     51  C   UNL A   1      47.312  29.112  30.586  1.00  0.00     0.029 A 
ATOM     52  N   UNL A   1      45.174  28.721  30.113  1.00  0.00    -0.354 N 
ATOM     53  N   UNL A   1      42.347  29.435  29.845  1.00  0.00    -0.248 NA
ATOM     54  C   UNL A   1      40.591  30.932  30.191  1.00  0.00     0.031 C 
ATOM     55  C   UNL A   1      46.572  30.249  30.917  1.00  0.00     0.029 A 
ATOM     56  C   UNL A   1      45.245  30.016  30.596  1.00  0.00     0.049 A 
ATOM     57  H   UNL A   1      44.349  28.272  29.815  1.00  0.00     0.167 HD
ATOM     58  C   UNL A   1      42.849  30.609  30.389  1.00  0.00     0.074 A 
ATOM     59  C   UNL A   1      41.728  31.510  30.550  1.00  0.00     0.031 C 
ATOM     60  C   UNL A   1      44.126  30.912  30.728  1.00  0.00     0.037 A 
BRANCH  47  61
ATOM     61  C   UNL A   1      48.164  26.360  29.750  1.00  0.00     0.057 A 
ATOM     62  C   UNL A   1      48.687  25.793  30.918  1.00  0.00     0.134 A 
ATOM     63  C   UNL A   1      49.051  26.596  28.691  1.00  0.00     0.134 A 
ATOM     64  F   UNL A   1      47.894  25.548  31.971  1.00  0.00    -0.206 F 
ATOM     65  C   UNL A   1      50.047  25.501  31.042  1.00  0.00     0.040 A 
ATOM     66  C   UNL A   1      50.408  26.285  28.793  1.00  0.00     0.040 A 
ATOM     67  F   UNL A   1      48.610  27.127  27.541  1.00  0.00    -0.206 F 
ATOM     68  C   UNL A   1      50.912  25.750  29.977  1.00  0.00     0.006 A 
ENDBRANCH  47  61
BRANCH  48  69
ATOM     69  C   UNL A   1      38.602  29.134  29.018  1.00  0.00     0.057 A 
ATOM     70  C   UNL A   1      38.083  29.628  27.815  1.00  0.00     0.134 A 
ATOM     71  C   UNL A   1      37.728  29.051  30.109  1.00  0.00     0.134 A 
ATOM     72  F   UNL A   1      38.866  29.738  26.733  1.00  0.00    -0.206 F 
ATOM     73  C   UNL A   1      36.750  30.031  27.703  1.00  0.00     0.040 A 
ATOM     74  C   UNL A   1      36.386  29.422  30.003  1.00  0.00     0.040 A 
ATOM     75  F   UNL A   1      38.159  28.568  31.284  1.00  0.00    -0.206 F 
ATOM     76  C   UNL A   1      35.896  29.919  28.798  1.00  0.00     0.006 A 
ENDBRANCH  48  69
BRANCH  60  77
ATOM     77  C   UNL A   1      44.401  32.285  31.266  1.00  0.00     0.057 A 
ATOM     78  C   UNL A   1      44.325  32.537  32.643  1.00  0.00     0.134 A 
ATOM     79  C   UNL A   1      44.652  33.375  30.423  1.00  0.00     0.134 A 
ATOM     80  F   UNL A   1      44.075  31.540  33.506  1.00  0.00    -0.206 F 
ATOM     81  C   UNL A   1      44.468  33.826  33.159  1.00  0.00     0.040 A 
ATOM     82  C   UNL A   1      44.826  34.664  30.930  1.00  0.00     0.040 A 
ATOM     83  F   UNL A   1      44.747  33.199  29.096  1.00  0.00    -0.206 F 
ATOM     84  C   UNL A   1      44.722  34.893  32.301  1.00  0.00     0.006 A 
ENDBRANCH  60  77
ENDBRANCH  34  35
ENDBRANCH  26  29
ENDBRANCH  24  25
ENDBRANCH  23  24
ENDBRANCH  22  23
ENDBRANCH   1  22
TORSDOF 16
ENDMDL
MODEL 3
REMARK VINA RESULT:     -10.3      1.264      2.287
REMARK SMILES C[C@H]1C[C@H]1CN(C)c1cccc(F)c1C(=O)NCCCCCCNC(=O)c1ccc(-c2c3nc(c(-c4c(F)cccc4F)c4ccc([nH]4)c(-c4c(F)cccc4F)c4nc(c(-c5c(F)cccc5F)c5ccc2[nH]5)C=C4)C=C3)cc1
REMARK SMILES IDX 20 1 19 2 18 3 17 4 15 5 16 6 14 8 8 9 9 10 10 11 12 12
REMARK SMILES IDX 11 13 13 14 6 15 7 16 5 17 4 18 1 19 2 20 3 21 21 22 22 23
REMARK SMILES IDX 23 24 24 25 25 26 26 28 27 29 28 30 80 31 29 32 79 33 30 34
REMARK SMILES IDX 31 35 32 36 73 37 33 38 78 39 72 40 74 41 34 42 77 43 71 44
REMARK SMILES IDX 70 45 35 47 61 48 44 49 60 50 45 51 48 52 59 53 75 54 46 55
REMARK SMILES IDX 47 56 58 58 76 59 49 60 36 61 37 62 42 63 38 64 39 65 41 66
REMARK SMILES IDX 43 67 40 68 62 69 63 70 68 71 64 72 65 73 67 74 69 75 66 76
REMARK SMILES IDX 50 77 51 78 56 79 52 80 53 81 55 82 57 83 54 84
REMARK H PARENT 17 7 24 27 74 46 48 57
REMARK Flexibility Score: inf
ROOT
ATOM      1  C   UNL A   1      37.773  22.346  25.666  1.00  0.00     0.002 C 
ENDROOT
BRANCH   1   2
ATOM      2  C   UNL A   1      37.314  23.782  25.413  1.00  0.00     0.021 C 
BRANCH   2   3
ATOM      3  C   UNL A   1      35.810  24.035  25.355  1.00  0.00     0.116 C 
BRANCH   3   4
ATOM      4  N   UNL A   1      35.231  24.110  24.022  1.00  0.00    -0.352 N 
ATOM      5  C   UNL A   1      34.155  24.864  23.567  1.00  0.00     0.256 C 
ATOM      6  O   UNL A   1      33.972  24.946  22.354  1.00  0.00    -0.269 OA
ATOM      7  H   UNL A   1      35.663  23.543  23.343  1.00  0.00     0.163 HD
BRANCH   5   8
ATOM      8  C   UNL A   1      33.218  25.504  24.531  1.00  0.00     0.098 A 
ATOM      9  C   UNL A   1      32.119  24.822  25.099  1.00  0.00     0.052 A 
ATOM     10  C   UNL A   1      31.486  25.420  26.208  1.00  0.00     0.027 A 
ATOM     11  C   UNL A   1      31.812  26.701  26.651  1.00  0.00     0.005 A 
ATOM     12  C   UNL A   1      33.440  26.838  24.899  1.00  0.00     0.138 A 
ATOM     13  C   UNL A   1      32.759  27.433  25.956  1.00  0.00     0.040 A 
ATOM     14  F   UNL A   1      34.339  27.591  24.245  1.00  0.00    -0.206 F 
BRANCH   9  15
ATOM     15  N   UNL A   1      31.522  23.676  24.592  1.00  0.00    -0.374 N 
ATOM     16  C   UNL A   1      30.658  23.723  23.430  1.00  0.00     0.143 C 
BRANCH  15  17
ATOM     17  C   UNL A   1      31.586  22.462  25.414  1.00  0.00     0.120 C 
BRANCH  17  18
ATOM     18  C   UNL A   1      32.741  21.592  24.981  1.00  0.00     0.011 C 
ATOM     19  C   UNL A   1      34.033  21.492  27.326  1.00  0.00     0.008 C 
ATOM     20  C   UNL A   1      33.896  21.156  25.878  1.00  0.00    -0.009 C 
ATOM     21  C   UNL A   1      32.842  20.164  25.464  1.00  0.00     0.009 C 
ENDBRANCH  17  18
ENDBRANCH  15  17
ENDBRANCH   9  15
ENDBRANCH   5   8
ENDBRANCH   3   4
ENDBRANCH   2   3
ENDBRANCH   1   2
BRANCH   1  22
ATOM     22  C   UNL A   1      37.408  21.306  24.604  1.00  0.00     0.002 C 
BRANCH  22  23
ATOM     23  C   UNL A   1      38.135  19.961  24.681  1.00  0.00     0.021 C 
BRANCH  23  24
ATOM     24  C   UNL A   1      38.842  19.656  25.997  1.00  0.00     0.116 C 
BRANCH  24  25
ATOM     25  N   UNL A   1      40.110  18.972  25.816  1.00  0.00    -0.352 N 
ATOM     26  C   UNL A   1      41.393  19.447  25.955  1.00  0.00     0.251 C 
ATOM     27  H   UNL A   1      40.041  18.026  25.553  1.00  0.00     0.163 HD
ATOM     28  O   UNL A   1      42.345  18.755  25.613  1.00  0.00    -0.269 OA
BRANCH  26  29
ATOM     29  C   UNL A   1      41.631  20.805  26.495  1.00  0.00     0.039 A 
ATOM     30  C   UNL A   1      41.605  20.991  27.880  1.00  0.00     0.014 A 
ATOM     31  C   UNL A   1      41.862  21.893  25.650  1.00  0.00     0.014 A 
ATOM     32  C   UNL A   1      41.875  22.253  28.417  1.00  0.00     0.010 A 
ATOM     33  C   UNL A   1      42.203  23.132  26.188  1.00  0.00     0.010 A 
ATOM     34  C   UNL A   1      42.214  23.325  27.577  1.00  0.00    -0.014 A 
BRANCH  34  35
ATOM     35  C   UNL A   1      42.585  24.653  28.136  1.00  0.00     0.031 A 
ATOM     36  C   UNL A   1      41.539  25.719  28.316  1.00  0.00     0.074 A 
ATOM     37  C   UNL A   1      43.872  24.912  28.442  1.00  0.00     0.049 A 
ATOM     38  N   UNL A   1      41.683  26.955  28.724  1.00  0.00    -0.248 NA
ATOM     39  C   UNL A   1      40.152  25.359  27.979  1.00  0.00     0.031 C 
ATOM     40  C   UNL A   1      44.984  23.971  28.290  1.00  0.00     0.029 A 
ATOM     41  N   UNL A   1      44.466  26.044  28.944  1.00  0.00    -0.354 N 
ATOM     42  C   UNL A   1      40.412  27.515  28.693  1.00  0.00     0.074 A 
ATOM     43  C   UNL A   1      39.517  26.507  28.171  1.00  0.00     0.031 C 
ATOM     44  C   UNL A   1      46.115  24.551  28.722  1.00  0.00     0.029 A 
ATOM     45  C   UNL A   1      45.822  25.920  29.136  1.00  0.00     0.049 A 
ATOM     46  H   UNL A   1      43.967  26.869  29.148  1.00  0.00     0.167 HD
ATOM     47  C   UNL A   1      40.023  28.748  29.091  1.00  0.00     0.037 A 
ATOM     48  C   UNL A   1      46.728  26.809  29.586  1.00  0.00     0.037 A 
ATOM     49  C   UNL A   1      40.911  29.743  29.633  1.00  0.00     0.049 A 
ATOM     50  C   UNL A   1      46.271  28.189  29.977  1.00  0.00     0.074 A 
ATOM     51  C   UNL A   1      40.600  31.012  30.091  1.00  0.00     0.029 A 
ATOM     52  N   UNL A   1      42.278  29.581  29.797  1.00  0.00    -0.354 N 
ATOM     53  N   UNL A   1      45.060  28.690  29.978  1.00  0.00    -0.248 NA
ATOM     54  C   UNL A   1      47.307  29.130  30.430  1.00  0.00     0.031 C 
ATOM     55  C   UNL A   1      41.784  31.634  30.489  1.00  0.00     0.029 A 
ATOM     56  C   UNL A   1      42.826  30.734  30.332  1.00  0.00     0.049 A 
ATOM     57  H   UNL A   1      42.783  28.768  29.567  1.00  0.00     0.167 HD
ATOM     58  C   UNL A   1      45.182  29.985  30.463  1.00  0.00     0.074 A 
ATOM     59  C   UNL A   1      46.584  30.192  30.758  1.00  0.00     0.031 C 
ATOM     60  C   UNL A   1      44.218  30.919  30.646  1.00  0.00     0.037 A 
BRANCH  47  61
ATOM     61  C   UNL A   1      38.567  29.099  28.992  1.00  0.00     0.057 A 
ATOM     62  C   UNL A   1      38.029  29.608  27.803  1.00  0.00     0.134 A 
ATOM     63  C   UNL A   1      37.725  29.038  30.110  1.00  0.00     0.134 A 
ATOM     64  F   UNL A   1      38.784  29.699  26.698  1.00  0.00    -0.206 F 
ATOM     65  C   UNL A   1      36.713  30.069  27.737  1.00  0.00     0.040 A 
ATOM     66  C   UNL A   1      36.399  29.473  30.049  1.00  0.00     0.040 A 
ATOM     67  F   UNL A   1      38.176  28.552  31.275  1.00  0.00    -0.206 F 
ATOM     68  C   UNL A   1      35.895  30.004  28.863  1.00  0.00     0.006 A 
ENDBRANCH  47  61
BRANCH  48  69
ATOM     69  C   UNL A   1      48.157  26.422  29.719  1.00  0.00     0.057 A 
ATOM     70  C   UNL A   1      48.660  25.859  30.899  1.00  0.00     0.134 A 
ATOM     71  C   UNL A   1      49.052  26.593  28.656  1.00  0.00     0.134 A 
ATOM     72  F   UNL A   1      47.859  25.672  31.957  1.00  0.00    -0.206 F 
ATOM     73  C   UNL A   1      50.002  25.488  31.019  1.00  0.00     0.040 A 
ATOM     74  C   UNL A   1      50.388  26.199  28.752  1.00  0.00     0.040 A 
ATOM     75  F   UNL A   1      48.628  27.108  27.493  1.00  0.00    -0.206 F 
ATOM     76  C   UNL A   1      50.867  25.650  29.939  1.00  0.00     0.006 A 
ENDBRANCH  48  69
BRANCH  60  77
ATOM     77  C   UNL A   1      44.625  32.241  31.229  1.00  0.00     0.057 A 
ATOM     78  C   UNL A   1      44.589  32.448  32.615  1.00  0.00     0.134 A 
ATOM     79  C   UNL A   1      44.962  33.333  30.420  1.00  0.00     0.134 A 
ATOM     80  F   UNL A   1      44.260  31.446  33.445  1.00  0.00    -0.206 F 
ATOM     81  C   UNL A   1      44.855  33.698  33.174  1.00  0.00     0.040 A 
ATOM     82  C   UNL A   1      45.259  34.582  30.970  1.00  0.00     0.040 A 
ATOM     83  F   UNL A   1      45.024  33.199  29.087  1.00  0.00    -0.206 F 
ATOM     84  C   UNL A   1      45.194  34.769  32.350  1.00  0.00     0.006 A 
ENDBRANCH  60  77
ENDBRANCH  34  35
ENDBRANCH  26  29
ENDBRANCH  24  25
ENDBRANCH  23  24
ENDBRANCH  22  23
ENDBRANCH   1  22
TORSDOF 16
ENDMDL
