MODEL 1
REMARK VINA RESULT:     -11.4      0.000      0.000
REMARK SMILES Nc1cc([N+](=O)[O-])ccc1[C@H]([NH3+])C(=O)NCCCCCCNC(=O)c1ccc(-c2c3nc(c(-c4c(F)cccc4F)c4ccc([nH]4)c(-c4c(F)cccc4F)c4nc(c(-c5c(F)cccc5F)c5ccc2[nH]5)C=C4)C=C3)cc1
REMARK SMILES IDX 18 1 17 2 16 3 15 4 13 5 14 6 11 8 10 9 2 10 3 11 4 12 9 13
REMARK SMILES IDX 8 14 1 15 5 18 6 19 7 20 12 21 19 25 20 26 21 27 22 28 23 29
REMARK SMILES IDX 24 31 25 32 26 33 78 34 27 35 77 36 28 37 29 38 30 39 71 40
REMARK SMILES IDX 31 41 76 42 70 43 72 44 32 45 75 46 69 47 68 48 33 50 59 51
REMARK SMILES IDX 42 52 58 53 43 54 46 55 57 56 73 57 44 58 45 59 56 61 74 62
REMARK SMILES IDX 47 63 34 64 35 65 40 66 36 67 37 68 39 69 41 70 38 71 60 72
REMARK SMILES IDX 61 73 66 74 62 75 63 76 65 77 67 78 64 79 48 80 49 81 54 82
REMARK SMILES IDX 50 83 51 84 53 85 55 86 52 87
REMARK H PARENT 15 7 1 16 1 17 12 22 12 23 12 24 22 30 72 49 46 60
REMARK Flexibility Score: inf
ROOT
ATOM      1  C   UNL A   1      32.425  29.893  26.174  1.00  0.00     0.002 C 
ENDROOT
BRANCH   1   2
ATOM      2  C   UNL A   1      32.037  28.778  27.152  1.00  0.00     0.021 C 
BRANCH   2   3
ATOM      3  C   UNL A   1      32.232  27.370  26.593  1.00  0.00     0.116 C 
BRANCH   3   4
ATOM      4  N   UNL A   1      31.095  26.526  26.899  1.00  0.00    -0.351 N 
ATOM      5  C   UNL A   1      30.261  25.855  26.050  1.00  0.00     0.283 C 
ATOM      6  O   UNL A   1      29.339  25.201  26.550  1.00  0.00    -0.268 OA
ATOM      7  H   UNL A   1      30.895  26.421  27.858  1.00  0.00     0.163 HD
BRANCH   5   8
ATOM      8  C   UNL A   1      30.504  25.862  24.513  1.00  0.00     0.304 C 
BRANCH   8   9
ATOM      9  C   UNL A   1      29.773  27.019  23.807  1.00  0.00     0.042 A 
ATOM     10  C   UNL A   1      28.375  27.137  23.648  1.00  0.00     0.048 A 
ATOM     11  C   UNL A   1      27.841  28.305  23.074  1.00  0.00     0.111 A 
ATOM     12  C   UNL A   1      28.676  29.309  22.570  1.00  0.00     0.271 A 
ATOM     13  C   UNL A   1      30.592  28.037  23.251  1.00  0.00     0.020 A 
ATOM     14  C   UNL A   1      30.058  29.175  22.646  1.00  0.00     0.086 A 
BRANCH  10  15
ATOM     15  N   UNL A   1      27.469  26.208  24.154  1.00  0.00    -0.398 N 
ATOM     16  H   UNL A   1      26.502  26.381  24.097  1.00  0.00     0.156 HD
ATOM     17  H   UNL A   1      27.797  25.376  24.568  1.00  0.00     0.156 HD
ENDBRANCH  10  15
BRANCH  12  18
ATOM     18  N   UNL A   1      28.092  30.502  21.949  1.00  0.00     0.062 N 
ATOM     19  O   UNL A   1      27.749  31.431  22.694  1.00  0.00    -0.258 OA
ATOM     20  O   UNL A   1      27.976  30.512  20.715  1.00  0.00    -0.258 OA
ENDBRANCH  12  18
ENDBRANCH   8   9
BRANCH   8  21
ATOM     21  N   UNL A   1      30.258  24.495  24.009  1.00  0.00    -0.343 N 
ATOM     22  H   UNL A   1      29.427  24.111  24.460  1.00  0.00     0.345 HD
ATOM     23  H   UNL A   1      31.063  23.904  24.222  1.00  0.00     0.345 HD
ATOM     24  H   UNL A   1      30.114  24.524  23.000  1.00  0.00     0.345 HD
ENDBRANCH   8  21
ENDBRANCH   5   8
ENDBRANCH   3   4
ENDBRANCH   2   3
ENDBRANCH   1   2
BRANCH   1  25
ATOM     25  C   UNL A   1      31.267  30.787  25.719  1.00  0.00     0.002 C 
BRANCH  25  26
ATOM     26  C   UNL A   1      31.174  32.134  26.438  1.00  0.00     0.021 C 
BRANCH  26  27
ATOM     27  C   UNL A   1      32.503  32.652  26.976  1.00  0.00     0.116 C 
BRANCH  27  28
ATOM     28  N   UNL A   1      32.380  33.982  27.552  1.00  0.00    -0.352 N 
ATOM     29  C   UNL A   1      33.110  34.553  28.565  1.00  0.00     0.251 C 
ATOM     30  H   UNL A   1      31.677  34.550  27.162  1.00  0.00     0.163 HD
ATOM     31  O   UNL A   1      32.758  35.616  29.066  1.00  0.00    -0.269 OA
BRANCH  29  32
ATOM     32  C   UNL A   1      34.315  33.862  29.065  1.00  0.00     0.039 A 
ATOM     33  C   UNL A   1      35.575  34.351  28.715  1.00  0.00     0.014 A 
ATOM     34  C   UNL A   1      34.194  32.744  29.896  1.00  0.00     0.014 A 
ATOM     35  C   UNL A   1      36.718  33.756  29.252  1.00  0.00     0.010 A 
ATOM     36  C   UNL A   1      35.327  32.204  30.489  1.00  0.00     0.010 A 
ATOM     37  C   UNL A   1      36.600  32.701  30.171  1.00  0.00    -0.014 A 
BRANCH  37  38
ATOM     38  C   UNL A   1      37.791  32.092  30.813  1.00  0.00     0.031 A 
ATOM     39  C   UNL A   1      38.549  31.004  30.108  1.00  0.00     0.074 A 
ATOM     40  C   UNL A   1      38.127  32.444  32.069  1.00  0.00     0.049 A 
ATOM     41  N   UNL A   1      39.531  30.261  30.546  1.00  0.00    -0.248 NA
ATOM     42  C   UNL A   1      38.117  30.687  28.737  1.00  0.00     0.031 C 
ATOM     43  C   UNL A   1      37.439  33.452  32.878  1.00  0.00     0.029 A 
ATOM     44  N   UNL A   1      39.118  31.973  32.894  1.00  0.00    -0.354 N 
ATOM     45  C   UNL A   1      39.817  29.372  29.518  1.00  0.00     0.074 A 
ATOM     46  C   UNL A   1      38.869  29.634  28.456  1.00  0.00     0.031 C 
ATOM     47  C   UNL A   1      38.028  33.524  34.081  1.00  0.00     0.029 A 
ATOM     48  C   UNL A   1      39.106  32.542  34.145  1.00  0.00     0.049 A 
ATOM     49  H   UNL A   1      39.773  31.294  32.616  1.00  0.00     0.167 HD
ATOM     50  C   UNL A   1      40.789  28.431  29.458  1.00  0.00     0.037 A 
ATOM     51  C   UNL A   1      39.863  32.284  35.229  1.00  0.00     0.037 A 
ATOM     52  C   UNL A   1      41.742  28.192  30.511  1.00  0.00     0.049 A 
ATOM     53  C   UNL A   1      40.940  31.240  35.145  1.00  0.00     0.074 A 
ATOM     54  C   UNL A   1      42.817  27.322  30.517  1.00  0.00     0.029 A 
ATOM     55  N   UNL A   1      41.722  28.815  31.751  1.00  0.00    -0.354 N 
ATOM     56  N   UNL A   1      41.255  30.460  34.138  1.00  0.00    -0.248 NA
ATOM     57  C   UNL A   1      41.770  31.041  36.340  1.00  0.00     0.031 C 
ATOM     58  C   UNL A   1      43.412  27.375  31.782  1.00  0.00     0.029 A 
ATOM     59  C   UNL A   1      42.746  28.324  32.543  1.00  0.00     0.049 A 
ATOM     60  H   UNL A   1      41.077  29.505  32.026  1.00  0.00     0.167 HD
ATOM     61  C   UNL A   1      42.334  29.698  34.568  1.00  0.00     0.074 A 
ATOM     62  C   UNL A   1      42.623  30.113  35.925  1.00  0.00     0.031 C 
ATOM     63  C   UNL A   1      43.025  28.746  33.893  1.00  0.00     0.037 A 
BRANCH  50  64
ATOM     64  C   UNL A   1      40.854  27.583  28.220  1.00  0.00     0.057 A 
ATOM     65  C   UNL A   1      41.606  27.954  27.098  1.00  0.00     0.134 A 
ATOM     66  C   UNL A   1      40.151  26.373  28.151  1.00  0.00     0.134 A 
ATOM     67  F   UNL A   1      42.297  29.105  27.093  1.00  0.00    -0.206 F 
ATOM     68  C   UNL A   1      41.620  27.179  25.938  1.00  0.00     0.040 A 
ATOM     69  C   UNL A   1      40.185  25.571  27.008  1.00  0.00     0.040 A 
ATOM     70  F   UNL A   1      39.417  25.949  29.191  1.00  0.00    -0.206 F 
ATOM     71  C   UNL A   1      40.911  25.980  25.892  1.00  0.00     0.006 A 
ENDBRANCH  50  64
BRANCH  51  72
ATOM     72  C   UNL A   1      39.622  33.044  36.480  1.00  0.00     0.057 A 
ATOM     73  C   UNL A   1      38.732  32.578  37.453  1.00  0.00     0.134 A 
ATOM     74  C   UNL A   1      40.308  34.235  36.752  1.00  0.00     0.134 A 
ATOM     75  F   UNL A   1      38.033  31.452  37.244  1.00  0.00    -0.206 F 
ATOM     76  C   UNL A   1      38.527  33.269  38.649  1.00  0.00     0.040 A 
ATOM     77  C   UNL A   1      40.132  34.923  37.953  1.00  0.00     0.040 A 
ATOM     78  F   UNL A   1      41.184  34.729  35.864  1.00  0.00    -0.206 F 
ATOM     79  C   UNL A   1      39.237  34.441  38.905  1.00  0.00     0.006 A 
ENDBRANCH  51  72
BRANCH  63  80
ATOM     80  C   UNL A   1      44.188  28.104  34.594  1.00  0.00     0.057 A 
ATOM     81  C   UNL A   1      44.058  26.899  35.294  1.00  0.00     0.134 A 
ATOM     82  C   UNL A   1      45.469  28.662  34.498  1.00  0.00     0.134 A 
ATOM     83  F   UNL A   1      42.856  26.318  35.433  1.00  0.00    -0.206 F 
ATOM     84  C   UNL A   1      45.161  26.277  35.883  1.00  0.00     0.040 A 
ATOM     85  C   UNL A   1      46.582  28.036  35.057  1.00  0.00     0.040 A 
ATOM     86  F   UNL A   1      45.663  29.812  33.832  1.00  0.00    -0.206 F 
ATOM     87  C   UNL A   1      46.430  26.840  35.755  1.00  0.00     0.006 A 
ENDBRANCH  63  80
ENDBRANCH  37  38
ENDBRANCH  29  32
ENDBRANCH  27  28
ENDBRANCH  26  27
ENDBRANCH  25  26
ENDBRANCH   1  25
TORSDOF 17
ENDMDL
MODEL 2
REMARK VINA RESULT:     -11.4      0.378      1.787
REMARK SMILES Nc1cc([N+](=O)[O-])ccc1[C@H]([NH3+])C(=O)NCCCCCCNC(=O)c1ccc(-c2c3nc(c(-c4c(F)cccc4F)c4ccc([nH]4)c(-c4c(F)cccc4F)c4nc(c(-c5c(F)cccc5F)c5ccc2[nH]5)C=C4)C=C3)cc1
REMARK SMILES IDX 18 1 17 2 16 3 15 4 13 5 14 6 11 8 10 9 2 10 3 11 4 12 9 13
REMARK SMILES IDX 8 14 1 15 5 18 6 19 7 20 12 21 19 25 20 26 21 27 22 28 23 29
REMARK SMILES IDX 24 31 25 32 26 33 78 34 27 35 77 36 28 37 29 38 30 39 71 40
REMARK SMILES IDX 31 41 76 42 70 43 72 44 32 45 75 46 69 47 68 48 33 50 59 51
REMARK SMILES IDX 42 52 58 53 43 54 46 55 57 56 73 57 44 58 45 59 56 61 74 62
REMARK SMILES IDX 47 63 34 64 35 65 40 66 36 67 37 68 39 69 41 70 38 71 60 72
REMARK SMILES IDX 61 73 66 74 62 75 63 76 65 77 67 78 64 79 48 80 49 81 54 82
REMARK SMILES IDX 50 83 51 84 53 85 55 86 52 87
REMARK H PARENT 15 7 1 16 1 17 12 22 12 23 12 24 22 30 72 49 46 60
REMARK Flexibility Score: inf
ROOT
ATOM      1  C   UNL A   1      31.784  29.143  26.775  1.00  0.00     0.002 C 
ENDROOT
BRANCH   1   2
ATOM      2  C   UNL A   1      33.042  28.266  26.788  1.00  0.00     0.021 C 
BRANCH   2   3
ATOM      3  C   UNL A   1      32.830  26.872  26.202  1.00  0.00     0.116 C 
BRANCH   3   4
ATOM      4  N   UNL A   1      31.572  26.307  26.645  1.00  0.00    -0.351 N 
ATOM      5  C   UNL A   1      30.503  25.886  25.906  1.00  0.00     0.283 C 
ATOM      6  O   UNL A   1      29.521  25.447  26.515  1.00  0.00    -0.268 OA
ATOM      7  H   UNL A   1      31.474  26.212  27.620  1.00  0.00     0.163 HD
BRANCH   5   8
ATOM      8  C   UNL A   1      30.547  25.899  24.350  1.00  0.00     0.304 C 
BRANCH   8   9
ATOM      9  C   UNL A   1      29.752  27.074  23.749  1.00  0.00     0.042 A 
ATOM     10  C   UNL A   1      28.345  27.165  23.676  1.00  0.00     0.048 A 
ATOM     11  C   UNL A   1      27.754  28.349  23.195  1.00  0.00     0.111 A 
ATOM     12  C   UNL A   1      28.537  29.397  22.699  1.00  0.00     0.271 A 
ATOM     13  C   UNL A   1      30.516  28.139  23.203  1.00  0.00     0.020 A 
ATOM     14  C   UNL A   1      29.924  29.293  22.691  1.00  0.00     0.086 A 
BRANCH  10  15
ATOM     15  N   UNL A   1      27.489  26.189  24.182  1.00  0.00    -0.398 N 
ATOM     16  H   UNL A   1      27.833  25.290  24.385  1.00  0.00     0.156 HD
ATOM     17  H   UNL A   1      26.539  26.400  24.336  1.00  0.00     0.156 HD
ENDBRANCH  10  15
BRANCH  12  18
ATOM     18  N   UNL A   1      27.893  30.606  22.177  1.00  0.00     0.062 N 
ATOM     19  O   UNL A   1      28.033  30.859  20.972  1.00  0.00    -0.258 OA
ATOM     20  O   UNL A   1      27.245  31.304  22.970  1.00  0.00    -0.258 OA
ENDBRANCH  12  18
ENDBRANCH   8   9
BRANCH   8  21
ATOM     21  N   UNL A   1      30.214  24.539  23.876  1.00  0.00    -0.343 N 
ATOM     22  H   UNL A   1      29.884  23.977  24.661  1.00  0.00     0.345 HD
ATOM     23  H   UNL A   1      31.046  24.107  23.474  1.00  0.00     0.345 HD
ATOM     24  H   UNL A   1      29.483  24.596  23.167  1.00  0.00     0.345 HD
ENDBRANCH   8  21
ENDBRANCH   5   8
ENDBRANCH   3   4
ENDBRANCH   2   3
ENDBRANCH   1   2
BRANCH   1  25
ATOM     25  C   UNL A   1      31.868  30.383  25.878  1.00  0.00     0.002 C 
BRANCH  25  26
ATOM     26  C   UNL A   1      31.546  31.705  26.576  1.00  0.00     0.021 C 
BRANCH  26  27
ATOM     27  C   UNL A   1      32.739  32.360  27.261  1.00  0.00     0.116 C 
BRANCH  27  28
ATOM     28  N   UNL A   1      32.503  33.768  27.544  1.00  0.00    -0.352 N 
ATOM     29  C   UNL A   1      33.108  34.572  28.477  1.00  0.00     0.251 C 
ATOM     30  H   UNL A   1      31.816  34.202  26.990  1.00  0.00     0.163 HD
ATOM     31  O   UNL A   1      32.664  35.689  28.721  1.00  0.00    -0.269 OA
BRANCH  29  32
ATOM     32  C   UNL A   1      34.290  34.071  29.205  1.00  0.00     0.039 A 
ATOM     33  C   UNL A   1      34.108  33.213  30.292  1.00  0.00     0.014 A 
ATOM     34  C   UNL A   1      35.577  34.433  28.796  1.00  0.00     0.014 A 
ATOM     35  C   UNL A   1      35.222  32.666  30.932  1.00  0.00     0.010 A 
ATOM     36  C   UNL A   1      36.680  33.828  29.383  1.00  0.00     0.010 A 
ATOM     37  C   UNL A   1      36.515  32.942  30.459  1.00  0.00    -0.014 A 
BRANCH  37  38
ATOM     38  C   UNL A   1      37.716  32.324  31.072  1.00  0.00     0.031 A 
ATOM     39  C   UNL A   1      38.442  31.223  30.351  1.00  0.00     0.074 A 
ATOM     40  C   UNL A   1      38.091  32.679  32.315  1.00  0.00     0.049 A 
ATOM     41  N   UNL A   1      39.428  30.471  30.766  1.00  0.00    -0.248 NA
ATOM     42  C   UNL A   1      37.969  30.903  28.996  1.00  0.00     0.031 C 
ATOM     43  C   UNL A   1      37.437  33.698  33.137  1.00  0.00     0.029 A 
ATOM     44  N   UNL A   1      39.099  32.202  33.115  1.00  0.00    -0.354 N 
ATOM     45  C   UNL A   1      39.675  29.573  29.737  1.00  0.00     0.074 A 
ATOM     46  C   UNL A   1      38.701  29.841  28.700  1.00  0.00     0.031 C 
ATOM     47  C   UNL A   1      38.060  33.771  34.323  1.00  0.00     0.029 A 
ATOM     48  C   UNL A   1      39.128  32.777  34.363  1.00  0.00     0.049 A 
ATOM     49  H   UNL A   1      39.739  31.513  32.823  1.00  0.00     0.167 HD
ATOM     50  C   UNL A   1      40.635  28.622  29.656  1.00  0.00     0.037 A 
ATOM     51  C   UNL A   1      39.912  32.517  35.427  1.00  0.00     0.037 A 
ATOM     52  C   UNL A   1      41.614  28.378  30.683  1.00  0.00     0.049 A 
ATOM     53  C   UNL A   1      40.974  31.461  35.319  1.00  0.00     0.074 A 
ATOM     54  C   UNL A   1      42.680  27.497  30.665  1.00  0.00     0.029 A 
ATOM     55  N   UNL A   1      41.636  29.008  31.919  1.00  0.00    -0.354 N 
ATOM     56  N   UNL A   1      41.253  30.672  34.309  1.00  0.00    -0.248 NA
ATOM     57  C   UNL A   1      41.836  31.259  36.492  1.00  0.00     0.031 C 
ATOM     58  C   UNL A   1      43.310  27.550  31.912  1.00  0.00     0.029 A 
ATOM     59  C   UNL A   1      42.676  28.510  32.686  1.00  0.00     0.049 A 
ATOM     60  H   UNL A   1      41.006  29.707  32.208  1.00  0.00     0.167 HD
ATOM     61  C   UNL A   1      42.335  29.900  34.712  1.00  0.00     0.074 A 
ATOM     62  C   UNL A   1      42.666  30.320  36.059  1.00  0.00     0.031 C 
ATOM     63  C   UNL A   1      42.997  28.937  34.025  1.00  0.00     0.037 A 
BRANCH  50  64
ATOM     64  C   UNL A   1      40.656  27.766  28.421  1.00  0.00     0.057 A 
ATOM     65  C   UNL A   1      39.965  26.549  28.344  1.00  0.00     0.134 A 
ATOM     66  C   UNL A   1      41.380  28.167  27.291  1.00  0.00     0.134 A 
ATOM     67  F   UNL A   1      39.258  26.101  29.393  1.00  0.00    -0.206 F 
ATOM     68  C   UNL A   1      40.030  25.742  27.207  1.00  0.00     0.040 A 
ATOM     69  C   UNL A   1      41.425  27.385  26.135  1.00  0.00     0.040 A 
ATOM     70  F   UNL A   1      42.059  29.325  27.290  1.00  0.00    -0.206 F 
ATOM     71  C   UNL A   1      40.759  26.162  26.096  1.00  0.00     0.006 A 
ENDBRANCH  50  64
BRANCH  51  72
ATOM     72  C   UNL A   1      39.714  33.287  36.680  1.00  0.00     0.057 A 
ATOM     73  C   UNL A   1      40.382  34.496  36.901  1.00  0.00     0.134 A 
ATOM     74  C   UNL A   1      38.822  32.852  37.668  1.00  0.00     0.134 A 
ATOM     75  F   UNL A   1      41.262  34.956  35.999  1.00  0.00    -0.206 F 
ATOM     76  C   UNL A   1      40.175  35.244  38.062  1.00  0.00     0.040 A 
ATOM     77  C   UNL A   1      38.586  33.602  38.822  1.00  0.00     0.040 A 
ATOM     78  F   UNL A   1      38.142  31.707  37.510  1.00  0.00    -0.206 F 
ATOM     79  C   UNL A   1      39.267  34.801  39.021  1.00  0.00     0.006 A 
ENDBRANCH  51  72
BRANCH  63  80
ATOM     80  C   UNL A   1      44.172  28.286  34.697  1.00  0.00     0.057 A 
ATOM     81  C   UNL A   1      45.459  28.830  34.631  1.00  0.00     0.134 A 
ATOM     82  C   UNL A   1      43.992  27.140  35.483  1.00  0.00     0.134 A 
ATOM     83  F   UNL A   1      45.701  29.919  33.884  1.00  0.00    -0.206 F 
ATOM     84  C   UNL A   1      46.530  28.252  35.316  1.00  0.00     0.040 A 
ATOM     85  C   UNL A   1      45.047  26.570  36.194  1.00  0.00     0.040 A 
ATOM     86  F   UNL A   1      42.780  26.574  35.596  1.00  0.00    -0.206 F 
ATOM     87  C   UNL A   1      46.323  27.125  36.110  1.00  0.00     0.006 A 
ENDBRANCH  63  80
ENDBRANCH  37  38
ENDBRANCH  29  32
ENDBRANCH  27  28
ENDBRANCH  26  27
ENDBRANCH  25  26
ENDBRANCH   1  25
TORSDOF 17
ENDMDL
MODEL 3
REMARK VINA RESULT:     -11.3      5.891     10.607
REMARK SMILES Nc1cc([N+](=O)[O-])ccc1[C@H]([NH3+])C(=O)NCCCCCCNC(=O)c1ccc(-c2c3nc(c(-c4c(F)cccc4F)c4ccc([nH]4)c(-c4c(F)cccc4F)c4nc(c(-c5c(F)cccc5F)c5ccc2[nH]5)C=C4)C=C3)cc1
REMARK SMILES IDX 18 1 17 2 16 3 15 4 13 5 14 6 11 8 10 9 2 10 3 11 4 12 9 13
REMARK SMILES IDX 8 14 1 15 5 18 6 19 7 20 12 21 19 25 20 26 21 27 22 28 23 29
REMARK SMILES IDX 24 31 25 32 26 33 78 34 27 35 77 36 28 37 29 38 30 39 71 40
REMARK SMILES IDX 31 41 76 42 70 43 72 44 32 45 75 46 69 47 68 48 33 50 59 51
REMARK SMILES IDX 42 52 58 53 43 54 46 55 57 56 73 57 44 58 45 59 56 61 74 62
REMARK SMILES IDX 47 63 34 64 35 65 40 66 36 67 37 68 39 69 41 70 38 71 60 72
REMARK SMILES IDX 61 73 66 74 62 75 63 76 65 77 67 78 64 79 48 80 49 81 54 82
REMARK SMILES IDX 50 83 51 84 53 85 55 86 52 87
REMARK H PARENT 15 7 1 16 1 17 12 22 12 23 12 24 22 30 72 49 46 60
REMARK Flexibility Score: inf
ROOT
ATOM      1  C   UNL A   1      37.003  22.269  24.247  1.00  0.00     0.002 C 
ENDROOT
BRANCH   1   2
ATOM      2  C   UNL A   1      36.509  23.542  24.944  1.00  0.00     0.021 C 
BRANCH   2   3
ATOM      3  C   UNL A   1      35.017  23.807  24.760  1.00  0.00     0.116 C 
BRANCH   3   4
ATOM      4  N   UNL A   1      34.654  23.792  23.358  1.00  0.00    -0.351 N 
ATOM      5  C   UNL A   1      33.560  23.240  22.753  1.00  0.00     0.283 C 
ATOM      6  O   UNL A   1      33.471  23.342  21.524  1.00  0.00    -0.268 OA
ATOM      7  H   UNL A   1      35.287  24.244  22.755  1.00  0.00     0.163 HD
BRANCH   5   8
ATOM      8  C   UNL A   1      32.434  22.565  23.589  1.00  0.00     0.304 C 
BRANCH   8   9
ATOM      9  C   UNL A   1      32.549  21.029  23.598  1.00  0.00     0.042 A 
ATOM     10  C   UNL A   1      32.158  20.167  22.550  1.00  0.00     0.048 A 
ATOM     11  C   UNL A   1      32.421  18.788  22.655  1.00  0.00     0.111 A 
ATOM     12  C   UNL A   1      32.975  18.246  23.820  1.00  0.00     0.271 A 
ATOM     13  C   UNL A   1      33.073  20.442  24.779  1.00  0.00     0.020 A 
ATOM     14  C   UNL A   1      33.294  19.070  24.894  1.00  0.00     0.086 A 
BRANCH  10  15
ATOM     15  N   UNL A   1      31.637  20.623  21.341  1.00  0.00    -0.398 N 
ATOM     16  H   UNL A   1      32.122  21.303  20.821  1.00  0.00     0.156 HD
ATOM     17  H   UNL A   1      30.783  20.263  21.006  1.00  0.00     0.156 HD
ENDBRANCH  10  15
BRANCH  12  18
ATOM     18  N   UNL A   1      33.210  16.802  23.913  1.00  0.00     0.062 N 
ATOM     19  O   UNL A   1      32.695  16.193  24.862  1.00  0.00    -0.258 OA
ATOM     20  O   UNL A   1      33.909  16.273  23.036  1.00  0.00    -0.258 OA
ENDBRANCH  12  18
ENDBRANCH   8   9
BRANCH   8  21
ATOM     21  N   UNL A   1      31.144  23.148  23.166  1.00  0.00    -0.343 N 
ATOM     22  H   UNL A   1      30.407  22.448  23.259  1.00  0.00     0.345 HD
ATOM     23  H   UNL A   1      31.209  23.445  22.192  1.00  0.00     0.345 HD
ATOM     24  H   UNL A   1      30.925  23.952  23.753  1.00  0.00     0.345 HD
ENDBRANCH   8  21
ENDBRANCH   5   8
ENDBRANCH   3   4
ENDBRANCH   2   3
ENDBRANCH   1   2
BRANCH   1  25
ATOM     25  C   UNL A   1      36.709  20.966  24.998  1.00  0.00     0.002 C 
BRANCH  25  26
ATOM     26  C   UNL A   1      37.836  19.932  24.959  1.00  0.00     0.021 C 
BRANCH  26  27
ATOM     27  C   UNL A   1      39.078  20.327  25.749  1.00  0.00     0.116 C 
BRANCH  27  28
ATOM     28  N   UNL A   1      40.039  19.239  25.839  1.00  0.00    -0.352 N 
ATOM     29  C   UNL A   1      41.389  19.299  26.079  1.00  0.00     0.251 C 
ATOM     30  H   UNL A   1      39.671  18.335  25.709  1.00  0.00     0.163 HD
ATOM     31  O   UNL A   1      42.095  18.306  25.934  1.00  0.00    -0.269 OA
BRANCH  29  32
ATOM     32  C   UNL A   1      41.992  20.582  26.493  1.00  0.00     0.039 A 
ATOM     33  C   UNL A   1      42.441  21.471  25.515  1.00  0.00     0.014 A 
ATOM     34  C   UNL A   1      42.091  20.909  27.848  1.00  0.00     0.014 A 
ATOM     35  C   UNL A   1      42.933  22.721  25.894  1.00  0.00     0.010 A 
ATOM     36  C   UNL A   1      42.507  22.182  28.218  1.00  0.00     0.010 A 
ATOM     37  C   UNL A   1      42.936  23.099  27.246  1.00  0.00    -0.014 A 
BRANCH  37  38
ATOM     38  C   UNL A   1      43.387  24.445  27.677  1.00  0.00     0.031 A 
ATOM     39  C   UNL A   1      42.375  25.490  28.051  1.00  0.00     0.074 A 
ATOM     40  C   UNL A   1      44.696  24.757  27.634  1.00  0.00     0.049 A 
ATOM     41  N   UNL A   1      42.555  26.755  28.331  1.00  0.00    -0.248 NA
ATOM     42  C   UNL A   1      40.968  25.060  28.078  1.00  0.00     0.031 C 
ATOM     43  C   UNL A   1      45.771  23.845  27.240  1.00  0.00     0.029 A 
ATOM     44  N   UNL A   1      45.342  25.939  27.899  1.00  0.00    -0.354 N 
ATOM     45  C   UNL A   1      41.286  27.277  28.540  1.00  0.00     0.074 A 
ATOM     46  C   UNL A   1      40.343  26.205  28.302  1.00  0.00     0.031 C 
ATOM     47  C   UNL A   1      46.941  24.500  27.290  1.00  0.00     0.029 A 
ATOM     48  C   UNL A   1      46.697  25.885  27.678  1.00  0.00     0.049 A 
ATOM     49  H   UNL A   1      44.879  26.747  28.217  1.00  0.00     0.167 HD
ATOM     50  C   UNL A   1      40.938  28.533  28.909  1.00  0.00     0.037 A 
ATOM     51  C   UNL A   1      47.634  26.850  27.756  1.00  0.00     0.037 A 
ATOM     52  C   UNL A   1      41.884  29.587  29.164  1.00  0.00     0.049 A 
ATOM     53  C   UNL A   1      47.232  28.237  28.170  1.00  0.00     0.074 A 
ATOM     54  C   UNL A   1      41.642  30.869  29.625  1.00  0.00     0.029 A 
ATOM     55  N   UNL A   1      43.254  29.484  28.967  1.00  0.00    -0.354 N 
ATOM     56  N   UNL A   1      46.036  28.700  28.445  1.00  0.00    -0.248 NA
ATOM     57  C   UNL A   1      48.304  29.233  28.292  1.00  0.00     0.031 C 
ATOM     58  C   UNL A   1      42.858  31.560  29.646  1.00  0.00     0.029 A 
ATOM     59  C   UNL A   1      43.867  30.691  29.261  1.00  0.00     0.049 A 
ATOM     60  H   UNL A   1      43.722  28.673  28.662  1.00  0.00     0.167 HD
ATOM     61  C   UNL A   1      46.214  30.032  28.797  1.00  0.00     0.074 A 
ATOM     62  C   UNL A   1      47.634  30.301  28.706  1.00  0.00     0.031 C 
ATOM     63  C   UNL A   1      45.283  30.945  29.168  1.00  0.00     0.037 A 
BRANCH  50  64
ATOM     64  C   UNL A   1      39.472  28.833  29.039  1.00  0.00     0.057 A 
ATOM     65  C   UNL A   1      38.702  29.282  27.957  1.00  0.00     0.134 A 
ATOM     66  C   UNL A   1      38.819  28.669  30.268  1.00  0.00     0.134 A 
ATOM     67  F   UNL A   1      39.265  29.468  26.753  1.00  0.00    -0.206 F 
ATOM     68  C   UNL A   1      37.351  29.600  28.103  1.00  0.00     0.040 A 
ATOM     69  C   UNL A   1      37.460  28.951  30.418  1.00  0.00     0.040 A 
ATOM     70  F   UNL A   1      39.491  28.234  31.345  1.00  0.00    -0.206 F 
ATOM     71  C   UNL A   1      36.725  29.431  29.336  1.00  0.00     0.006 A 
ENDBRANCH  50  64
BRANCH  51  72
ATOM     72  C   UNL A   1      49.046  26.519  27.439  1.00  0.00     0.057 A 
ATOM     73  C   UNL A   1      49.893  25.962  28.402  1.00  0.00     0.134 A 
ATOM     74  C   UNL A   1      49.568  26.714  26.154  1.00  0.00     0.134 A 
ATOM     75  F   UNL A   1      49.456  25.766  29.655  1.00  0.00    -0.206 F 
ATOM     76  C   UNL A   1      51.212  25.614  28.102  1.00  0.00     0.040 A 
ATOM     77  C   UNL A   1      50.876  26.349  25.833  1.00  0.00     0.040 A 
ATOM     78  F   UNL A   1      48.802  27.234  25.184  1.00  0.00    -0.206 F 
ATOM     79  C   UNL A   1      51.703  25.799  26.811  1.00  0.00     0.006 A 
ENDBRANCH  51  72
BRANCH  63  80
ATOM     80  C   UNL A   1      45.765  32.319  29.540  1.00  0.00     0.057 A 
ATOM     81  C   UNL A   1      46.144  32.643  30.848  1.00  0.00     0.134 A 
ATOM     82  C   UNL A   1      45.923  33.303  28.557  1.00  0.00     0.134 A 
ATOM     83  F   UNL A   1      46.005  31.748  31.838  1.00  0.00    -0.206 F 
ATOM     84  C   UNL A   1      46.655  33.902  31.166  1.00  0.00     0.040 A 
ATOM     85  C   UNL A   1      46.458  34.556  28.857  1.00  0.00     0.040 A 
ATOM     86  F   UNL A   1      45.588  33.054  27.281  1.00  0.00    -0.206 F 
ATOM     87  C   UNL A   1      46.824  34.860  30.167  1.00  0.00     0.006 A 
ENDBRANCH  63  80
ENDBRANCH  37  38
ENDBRANCH  29  32
ENDBRANCH  27  28
ENDBRANCH  26  27
ENDBRANCH  25  26
ENDBRANCH   1  25
TORSDOF 17
ENDMDL
