MODEL 1
REMARK VINA RESULT:     -12.1      0.000      0.000
REMARK SMILES Cc1cc2c(c(C)c1Cl)C=C(C(=O)NCCCCCCNC(=O)c1ccc(-c3c4nc(c(-c5c(F)cccc5F)c5ccc([nH]5)c(-c5c(F)cccc5F)c5nc(c(-c6c(F)cccc6F)c6ccc3[nH]6)C=C5)C=C4)cc1)[C@@H](C(F)(F)F)O2
REMARK SMILES IDX 18 1 17 2 16 3 15 4 14 5 12 6 13 7 11 9 1 10 2 11 3 12 8 13
REMARK SMILES IDX 4 14 6 15 9 16 5 17 83 18 7 19 10 20 78 21 79 22 80 23 81 24
REMARK SMILES IDX 82 25 19 26 20 27 21 28 22 29 23 31 24 32 25 33 77 34 26 35
REMARK SMILES IDX 76 36 27 37 28 38 29 39 70 40 30 41 75 42 69 43 71 44 31 45
REMARK SMILES IDX 74 46 68 47 67 48 32 50 58 51 41 52 57 53 42 54 45 55 56 56
REMARK SMILES IDX 72 57 43 58 44 59 55 61 73 62 46 63 33 64 34 65 39 66 35 67
REMARK SMILES IDX 36 68 38 69 40 70 37 71 59 72 60 73 65 74 61 75 62 76 64 77
REMARK SMILES IDX 66 78 63 79 47 80 48 81 53 82 49 83 50 84 52 85 54 86 51 87
REMARK H PARENT 14 8 21 30 71 49 45 60
REMARK Flexibility Score: inf
ROOT
ATOM      1  C   UNL A   1      31.433  30.377  26.118  1.00  0.00     0.002 C 
ENDROOT
BRANCH   1   2
ATOM      2  C   UNL A   1      31.808  29.408  27.247  1.00  0.00     0.002 C 
BRANCH   2   3
ATOM      3  C   UNL A   1      32.392  28.071  26.783  1.00  0.00     0.021 C 
BRANCH   3   4
ATOM      4  C   UNL A   1      33.820  28.178  26.262  1.00  0.00     0.116 C 
BRANCH   4   5
ATOM      5  N   UNL A   1      33.874  28.067  24.815  1.00  0.00    -0.352 N 
ATOM      6  C   UNL A   1      33.679  27.102  23.887  1.00  0.00     0.251 C 
ATOM      7  O   UNL A   1      33.819  27.466  22.715  1.00  0.00    -0.270 OA
ATOM      8  H   UNL A   1      34.121  28.924  24.397  1.00  0.00     0.163 HD
BRANCH   6   9
ATOM      9  C   UNL A   1      33.318  25.683  24.184  1.00  0.00     0.067 C 
ATOM     10  C   UNL A   1      33.017  19.326  25.526  1.00  0.00     0.046 C 
ATOM     11  C   UNL A   1      33.452  20.715  25.146  1.00  0.00    -0.028 A 
ATOM     12  C   UNL A   1      32.479  21.718  25.197  1.00  0.00     0.052 A 
ATOM     13  C   UNL A   1      34.773  21.072  24.810  1.00  0.00     0.047 A 
ATOM     14  C   UNL A   1      32.799  23.033  24.887  1.00  0.00     0.128 A 
ATOM     15  C   UNL A   1      35.111  22.411  24.486  1.00  0.00    -0.021 A 
ATOM     16  Cl  UNL A   1      35.996  19.837  24.819  1.00  0.00    -0.084 Cl
ATOM     17  C   UNL A   1      34.099  23.402  24.534  1.00  0.00     0.022 A 
ATOM     18  O   UNL A   1      31.766  23.912  25.002  1.00  0.00    -0.475 OA
ATOM     19  C   UNL A   1      36.518  22.809  24.099  1.00  0.00     0.047 C 
ATOM     20  C   UNL A   1      34.351  24.823  24.274  1.00  0.00     0.026 C 
ATOM     21  C   UNL A   1      31.912  25.192  24.343  1.00  0.00     0.314 C 
BRANCH  21  22
ATOM     22  C   UNL A   1      31.129  25.166  23.019  1.00  0.00     0.429 C 
ATOM     23  F   UNL A   1      31.966  24.914  21.981  1.00  0.00    -0.167 F 
ATOM     24  F   UNL A   1      30.184  24.197  22.987  1.00  0.00    -0.167 F 
ATOM     25  F   UNL A   1      30.503  26.336  22.763  1.00  0.00    -0.167 F 
ENDBRANCH  21  22
ENDBRANCH   6   9
ENDBRANCH   4   5
ENDBRANCH   3   4
ENDBRANCH   2   3
ENDBRANCH   1   2
BRANCH   1  26
ATOM     26  C   UNL A   1      31.342  31.850  26.528  1.00  0.00     0.021 C 
BRANCH  26  27
ATOM     27  C   UNL A   1      32.676  32.475  26.913  1.00  0.00     0.116 C 
BRANCH  27  28
ATOM     28  N   UNL A   1      32.510  33.823  27.429  1.00  0.00    -0.352 N 
ATOM     29  C   UNL A   1      33.140  34.429  28.484  1.00  0.00     0.251 C 
ATOM     30  H   UNL A   1      31.854  34.381  26.951  1.00  0.00     0.163 HD
ATOM     31  O   UNL A   1      32.726  35.496  28.929  1.00  0.00    -0.269 OA
BRANCH  29  32
ATOM     32  C   UNL A   1      34.316  33.780  29.094  1.00  0.00     0.039 A 
ATOM     33  C   UNL A   1      34.120  32.746  30.011  1.00  0.00     0.014 A 
ATOM     34  C   UNL A   1      35.609  34.196  28.758  1.00  0.00     0.014 A 
ATOM     35  C   UNL A   1      35.225  32.095  30.557  1.00  0.00     0.010 A 
ATOM     36  C   UNL A   1      36.707  33.496  29.246  1.00  0.00     0.010 A 
ATOM     37  C   UNL A   1      36.526  32.449  30.160  1.00  0.00    -0.014 A 
BRANCH  37  38
ATOM     38  C   UNL A   1      37.707  31.751  30.721  1.00  0.00     0.031 A 
ATOM     39  C   UNL A   1      38.170  32.066  32.116  1.00  0.00     0.074 A 
ATOM     40  C   UNL A   1      38.372  30.854  29.968  1.00  0.00     0.049 A 
ATOM     41  N   UNL A   1      39.190  31.580  32.776  1.00  0.00    -0.248 NA
ATOM     42  C   UNL A   1      37.398  33.074  32.863  1.00  0.00     0.031 C 
ATOM     43  C   UNL A   1      38.033  30.487  28.592  1.00  0.00     0.029 A 
ATOM     44  N   UNL A   1      39.469  30.080  30.257  1.00  0.00    -0.354 N 
ATOM     45  C   UNL A   1      39.176  32.215  34.010  1.00  0.00     0.074 A 
ATOM     46  C   UNL A   1      38.092  33.172  33.986  1.00  0.00     0.031 C 
ATOM     47  C   UNL A   1      38.878  29.532  28.172  1.00  0.00     0.029 A 
ATOM     48  C   UNL A   1      39.841  29.246  29.231  1.00  0.00     0.049 A 
ATOM     49  H   UNL A   1      39.943  30.119  31.119  1.00  0.00     0.167 HD
ATOM     50  C   UNL A   1      39.971  31.994  35.082  1.00  0.00     0.037 A 
ATOM     51  C   UNL A   1      40.843  28.350  29.156  1.00  0.00     0.037 A 
ATOM     52  C   UNL A   1      41.035  31.026  35.109  1.00  0.00     0.049 A 
ATOM     53  C   UNL A   1      41.744  28.160  30.347  1.00  0.00     0.074 A 
ATOM     54  C   UNL A   1      41.879  30.707  36.158  1.00  0.00     0.029 A 
ATOM     55  N   UNL A   1      41.396  30.220  34.041  1.00  0.00    -0.354 N 
ATOM     56  N   UNL A   1      41.688  28.732  31.525  1.00  0.00    -0.248 NA
ATOM     57  C   UNL A   1      42.847  27.200  30.199  1.00  0.00     0.031 C 
ATOM     58  C   UNL A   1      42.780  29.738  35.712  1.00  0.00     0.029 A 
ATOM     59  C   UNL A   1      42.467  29.418  34.400  1.00  0.00     0.049 A 
ATOM     60  H   UNL A   1      40.958  30.218  33.160  1.00  0.00     0.167 HD
ATOM     61  C   UNL A   1      42.728  28.184  32.265  1.00  0.00     0.074 A 
ATOM     62  C   UNL A   1      43.389  27.222  31.408  1.00  0.00     0.031 C 
ATOM     63  C   UNL A   1      43.103  28.457  33.538  1.00  0.00     0.037 A 
BRANCH  50  64
ATOM     64  C   UNL A   1      39.708  32.790  36.325  1.00  0.00     0.057 A 
ATOM     65  C   UNL A   1      40.403  33.975  36.596  1.00  0.00     0.134 A 
ATOM     66  C   UNL A   1      38.701  32.412  37.223  1.00  0.00     0.134 A 
ATOM     67  F   UNL A   1      41.388  34.386  35.782  1.00  0.00    -0.206 F 
ATOM     68  C   UNL A   1      40.115  34.751  37.719  1.00  0.00     0.040 A 
ATOM     69  C   UNL A   1      38.386  33.193  38.335  1.00  0.00     0.040 A 
ATOM     70  F   UNL A   1      37.994  31.290  37.021  1.00  0.00    -0.206 F 
ATOM     71  C   UNL A   1      39.094  34.367  38.586  1.00  0.00     0.006 A 
ENDBRANCH  50  64
BRANCH  51  72
ATOM     72  C   UNL A   1      41.031  27.540  27.926  1.00  0.00     0.057 A 
ATOM     73  C   UNL A   1      40.371  26.317  27.762  1.00  0.00     0.134 A 
ATOM     74  C   UNL A   1      41.873  27.960  26.888  1.00  0.00     0.134 A 
ATOM     75  F   UNL A   1      39.565  25.850  28.729  1.00  0.00    -0.206 F 
ATOM     76  C   UNL A   1      40.552  25.532  26.623  1.00  0.00     0.040 A 
ATOM     77  C   UNL A   1      42.043  27.199  25.731  1.00  0.00     0.040 A 
ATOM     78  F   UNL A   1      42.530  29.126  26.979  1.00  0.00    -0.206 F 
ATOM     79  C   UNL A   1      41.387  25.976  25.599  1.00  0.00     0.006 A 
ENDBRANCH  51  72
BRANCH  63  80
ATOM     80  C   UNL A   1      44.270  27.696  34.098  1.00  0.00     0.057 A 
ATOM     81  C   UNL A   1      44.105  26.455  34.723  1.00  0.00     0.134 A 
ATOM     82  C   UNL A   1      45.578  28.169  33.928  1.00  0.00     0.134 A 
ATOM     83  F   UNL A   1      42.877  25.951  34.923  1.00  0.00    -0.206 F 
ATOM     84  C   UNL A   1      45.201  25.714  35.169  1.00  0.00     0.040 A 
ATOM     85  C   UNL A   1      46.682  27.426  34.345  1.00  0.00     0.040 A 
ATOM     86  F   UNL A   1      45.804  29.347  33.326  1.00  0.00    -0.206 F 
ATOM     87  C   UNL A   1      46.494  26.195  34.970  1.00  0.00     0.006 A 
ENDBRANCH  63  80
ENDBRANCH  37  38
ENDBRANCH  29  32
ENDBRANCH  27  28
ENDBRANCH  26  27
ENDBRANCH   1  26
TORSDOF 14
ENDMDL
MODEL 2
REMARK VINA RESULT:     -11.9      4.278      9.154
REMARK SMILES Cc1cc2c(c(C)c1Cl)C=C(C(=O)NCCCCCCNC(=O)c1ccc(-c3c4nc(c(-c5c(F)cccc5F)c5ccc([nH]5)c(-c5c(F)cccc5F)c5nc(c(-c6c(F)cccc6F)c6ccc3[nH]6)C=C5)C=C4)cc1)[C@@H](C(F)(F)F)O2
REMARK SMILES IDX 18 1 17 2 16 3 15 4 14 5 12 6 13 7 11 9 1 10 2 11 3 12 8 13
REMARK SMILES IDX 4 14 6 15 9 16 5 17 83 18 7 19 10 20 78 21 79 22 80 23 81 24
REMARK SMILES IDX 82 25 19 26 20 27 21 28 22 29 23 31 24 32 25 33 77 34 26 35
REMARK SMILES IDX 76 36 27 37 28 38 29 39 70 40 30 41 75 42 69 43 71 44 31 45
REMARK SMILES IDX 74 46 68 47 67 48 32 50 58 51 41 52 57 53 42 54 45 55 56 56
REMARK SMILES IDX 72 57 43 58 44 59 55 61 73 62 46 63 33 64 34 65 39 66 35 67
REMARK SMILES IDX 36 68 38 69 40 70 37 71 59 72 60 73 65 74 61 75 62 76 64 77
REMARK SMILES IDX 66 78 63 79 47 80 48 81 53 82 49 83 50 84 52 85 54 86 51 87
REMARK H PARENT 14 8 21 30 71 49 45 60
REMARK Flexibility Score: inf
ROOT
ATOM      1  C   UNL A   1      38.734  22.350  26.098  1.00  0.00     0.002 C 
ENDROOT
BRANCH   1   2
ATOM      2  C   UNL A   1      37.598  23.208  25.526  1.00  0.00     0.002 C 
BRANCH   2   3
ATOM      3  C   UNL A   1      37.043  22.732  24.181  1.00  0.00     0.021 C 
BRANCH   3   4
ATOM      4  C   UNL A   1      35.539  22.485  24.196  1.00  0.00     0.116 C 
BRANCH   4   5
ATOM      5  N   UNL A   1      34.979  22.657  25.525  1.00  0.00    -0.352 N 
ATOM      6  C   UNL A   1      34.037  23.431  26.111  1.00  0.00     0.251 C 
ATOM      7  O   UNL A   1      33.862  23.222  27.317  1.00  0.00    -0.270 OA
ATOM      8  H   UNL A   1      35.399  22.047  26.174  1.00  0.00     0.163 HD
BRANCH   6   9
ATOM      9  C   UNL A   1      33.229  24.478  25.417  1.00  0.00     0.067 C 
ATOM     10  C   UNL A   1      30.229  29.830  23.258  1.00  0.00     0.046 C 
ATOM     11  C   UNL A   1      30.999  28.814  24.056  1.00  0.00    -0.028 A 
ATOM     12  C   UNL A   1      31.171  27.554  23.477  1.00  0.00     0.052 A 
ATOM     13  C   UNL A   1      31.602  29.073  25.304  1.00  0.00     0.047 A 
ATOM     14  C   UNL A   1      31.890  26.563  24.134  1.00  0.00     0.128 A 
ATOM     15  C   UNL A   1      32.335  28.068  25.987  1.00  0.00    -0.021 A 
ATOM     16  Cl  UNL A   1      31.450  30.663  25.987  1.00  0.00    -0.084 Cl
ATOM     17  C   UNL A   1      32.480  26.796  25.379  1.00  0.00     0.022 A 
ATOM     18  O   UNL A   1      32.004  25.393  23.448  1.00  0.00    -0.475 OA
ATOM     19  C   UNL A   1      32.968  28.319  27.337  1.00  0.00     0.047 C 
ATOM     20  C   UNL A   1      33.262  25.706  25.970  1.00  0.00     0.026 C 
ATOM     21  C   UNL A   1      32.391  24.221  24.202  1.00  0.00     0.314 C 
BRANCH  21  22
ATOM     22  C   UNL A   1      31.136  23.381  24.503  1.00  0.00     0.429 C 
ATOM     23  F   UNL A   1      30.294  23.395  23.438  1.00  0.00    -0.167 F 
ATOM     24  F   UNL A   1      31.421  22.080  24.742  1.00  0.00    -0.167 F 
ATOM     25  F   UNL A   1      30.448  23.839  25.572  1.00  0.00    -0.167 F 
ENDBRANCH  21  22
ENDBRANCH   6   9
ENDBRANCH   4   5
ENDBRANCH   3   4
ENDBRANCH   2   3
ENDBRANCH   1   2
BRANCH   1  26
ATOM     26  C   UNL A   1      38.974  21.022  25.376  1.00  0.00     0.021 C 
BRANCH  26  27
ATOM     27  C   UNL A   1      39.335  19.865  26.299  1.00  0.00     0.116 C 
BRANCH  27  28
ATOM     28  N   UNL A   1      40.555  19.199  25.876  1.00  0.00    -0.352 N 
ATOM     29  C   UNL A   1      41.827  19.701  25.787  1.00  0.00     0.251 C 
ATOM     30  H   UNL A   1      40.455  18.254  25.620  1.00  0.00     0.163 HD
ATOM     31  O   UNL A   1      42.705  19.075  25.201  1.00  0.00    -0.269 OA
BRANCH  29  32
ATOM     32  C   UNL A   1      42.131  21.012  26.391  1.00  0.00     0.039 A 
ATOM     33  C   UNL A   1      42.471  22.080  25.558  1.00  0.00     0.014 A 
ATOM     34  C   UNL A   1      42.081  21.182  27.779  1.00  0.00     0.014 A 
ATOM     35  C   UNL A   1      42.715  23.334  26.116  1.00  0.00     0.010 A 
ATOM     36  C   UNL A   1      42.250  22.450  28.326  1.00  0.00     0.010 A 
ATOM     37  C   UNL A   1      42.582  23.534  27.501  1.00  0.00    -0.014 A 
BRANCH  37  38
ATOM     38  C   UNL A   1      42.821  24.867  28.102  1.00  0.00     0.031 A 
ATOM     39  C   UNL A   1      44.209  25.259  28.526  1.00  0.00     0.074 A 
ATOM     40  C   UNL A   1      41.788  25.712  28.285  1.00  0.00     0.049 A 
ATOM     41  N   UNL A   1      44.617  26.368  29.087  1.00  0.00    -0.248 NA
ATOM     42  C   UNL A   1      45.277  24.269  28.308  1.00  0.00     0.031 C 
ATOM     43  C   UNL A   1      40.393  25.431  27.939  1.00  0.00     0.029 A 
ATOM     44  N   UNL A   1      41.752  26.983  28.801  1.00  0.00    -0.354 N 
ATOM     45  C   UNL A   1      45.983  26.210  29.282  1.00  0.00     0.074 A 
ATOM     46  C   UNL A   1      46.325  24.875  28.845  1.00  0.00     0.031 C 
ATOM     47  C   UNL A   1      39.646  26.512  28.215  1.00  0.00     0.029 A 
ATOM     48  C   UNL A   1      40.498  27.547  28.791  1.00  0.00     0.049 A 
ATOM     49  H   UNL A   1      42.549  27.448  29.145  1.00  0.00     0.167 HD
ATOM     50  C   UNL A   1      46.878  27.111  29.748  1.00  0.00     0.037 A 
ATOM     51  C   UNL A   1      40.087  28.763  29.199  1.00  0.00     0.037 A 
ATOM     52  C   UNL A   1      46.538  28.446  30.161  1.00  0.00     0.049 A 
ATOM     53  C   UNL A   1      41.097  29.727  29.759  1.00  0.00     0.074 A 
ATOM     54  C   UNL A   1      47.378  29.443  30.621  1.00  0.00     0.029 A 
ATOM     55  N   UNL A   1      45.254  28.969  30.161  1.00  0.00    -0.354 N 
ATOM     56  N   UNL A   1      42.394  29.582  29.891  1.00  0.00    -0.248 NA
ATOM     57  C   UNL A   1      40.589  31.024  30.228  1.00  0.00     0.031 C 
ATOM     58  C   UNL A   1      46.599  30.557  30.940  1.00  0.00     0.029 A 
ATOM     59  C   UNL A   1      45.277  30.270  30.633  1.00  0.00     0.049 A 
ATOM     60  H   UNL A   1      44.446  28.487  29.869  1.00  0.00     0.167 HD
ATOM     61  C   UNL A   1      42.858  30.774  30.431  1.00  0.00     0.074 A 
ATOM     62  C   UNL A   1      41.707  31.639  30.587  1.00  0.00     0.031 C 
ATOM     63  C   UNL A   1      44.123  31.120  30.770  1.00  0.00     0.037 A 
BRANCH  50  64
ATOM     64  C   UNL A   1      48.319  26.698  29.810  1.00  0.00     0.057 A 
ATOM     65  C   UNL A   1      48.833  25.999  30.909  1.00  0.00     0.134 A 
ATOM     66  C   UNL A   1      49.183  26.934  28.732  1.00  0.00     0.134 A 
ATOM     67  F   UNL A   1      48.060  25.752  31.979  1.00  0.00    -0.206 F 
ATOM     68  C   UNL A   1      50.155  25.557  30.941  1.00  0.00     0.040 A 
ATOM     69  C   UNL A   1      50.500  26.474  28.742  1.00  0.00     0.040 A 
ATOM     70  F   UNL A   1      48.754  27.595  27.647  1.00  0.00    -0.206 F 
ATOM     71  C   UNL A   1      50.990  25.784  29.849  1.00  0.00     0.006 A 
ENDBRANCH  50  64
BRANCH  51  72
ATOM     72  C   UNL A   1      38.660  29.152  29.064  1.00  0.00     0.057 A 
ATOM     73  C   UNL A   1      38.151  29.605  27.842  1.00  0.00     0.134 A 
ATOM     74  C   UNL A   1      37.773  29.087  30.145  1.00  0.00     0.134 A 
ATOM     75  F   UNL A   1      38.955  29.707  26.772  1.00  0.00    -0.206 F 
ATOM     76  C   UNL A   1      36.819  29.996  27.701  1.00  0.00     0.040 A 
ATOM     77  C   UNL A   1      36.431  29.448  30.013  1.00  0.00     0.040 A 
ATOM     78  F   UNL A   1      38.194  28.655  31.343  1.00  0.00    -0.206 F 
ATOM     79  C   UNL A   1      35.952  29.912  28.789  1.00  0.00     0.006 A 
ENDBRANCH  51  72
BRANCH  63  80
ATOM     80  C   UNL A   1      44.343  32.496  31.326  1.00  0.00     0.057 A 
ATOM     81  C   UNL A   1      44.344  32.740  32.704  1.00  0.00     0.134 A 
ATOM     82  C   UNL A   1      44.647  33.569  30.477  1.00  0.00     0.134 A 
ATOM     83  F   UNL A   1      44.053  31.755  33.569  1.00  0.00    -0.206 F 
ATOM     84  C   UNL A   1      44.630  34.005  33.220  1.00  0.00     0.040 A 
ATOM     85  C   UNL A   1      44.960  34.831  30.981  1.00  0.00     0.040 A 
ATOM     86  F   UNL A   1      44.674  33.399  29.146  1.00  0.00    -0.206 F 
ATOM     87  C   UNL A   1      44.951  35.052  32.357  1.00  0.00     0.006 A 
ENDBRANCH  63  80
ENDBRANCH  37  38
ENDBRANCH  29  32
ENDBRANCH  27  28
ENDBRANCH  26  27
ENDBRANCH   1  26
TORSDOF 14
ENDMDL
MODEL 3
REMARK VINA RESULT:     -11.9      1.503      2.106
REMARK SMILES Cc1cc2c(c(C)c1Cl)C=C(C(=O)NCCCCCCNC(=O)c1ccc(-c3c4nc(c(-c5c(F)cccc5F)c5ccc([nH]5)c(-c5c(F)cccc5F)c5nc(c(-c6c(F)cccc6F)c6ccc3[nH]6)C=C5)C=C4)cc1)[C@@H](C(F)(F)F)O2
REMARK SMILES IDX 18 1 17 2 16 3 15 4 14 5 12 6 13 7 11 9 1 10 2 11 3 12 8 13
REMARK SMILES IDX 4 14 6 15 9 16 5 17 83 18 7 19 10 20 78 21 79 22 80 23 81 24
REMARK SMILES IDX 82 25 19 26 20 27 21 28 22 29 23 31 24 32 25 33 77 34 26 35
REMARK SMILES IDX 76 36 27 37 28 38 29 39 70 40 30 41 75 42 69 43 71 44 31 45
REMARK SMILES IDX 74 46 68 47 67 48 32 50 58 51 41 52 57 53 42 54 45 55 56 56
REMARK SMILES IDX 72 57 43 58 44 59 55 61 73 62 46 63 33 64 34 65 39 66 35 67
REMARK SMILES IDX 36 68 38 69 40 70 37 71 59 72 60 73 65 74 61 75 62 76 64 77
REMARK SMILES IDX 66 78 63 79 47 80 48 81 53 82 49 83 50 84 52 85 54 86 51 87
REMARK H PARENT 14 8 21 30 71 49 45 60
REMARK Flexibility Score: inf
ROOT
ATOM      1  C   UNL A   1      31.378  30.860  26.033  1.00  0.00     0.002 C 
ENDROOT
BRANCH   1   2
ATOM      2  C   UNL A   1      31.844  29.556  26.694  1.00  0.00     0.002 C 
BRANCH   2   3
ATOM      3  C   UNL A   1      33.294  29.562  27.184  1.00  0.00     0.021 C 
BRANCH   3   4
ATOM      4  C   UNL A   1      34.156  28.476  26.551  1.00  0.00     0.116 C 
BRANCH   4   5
ATOM      5  N   UNL A   1      34.031  28.466  25.105  1.00  0.00    -0.352 N 
ATOM      6  C   UNL A   1      33.712  27.570  24.143  1.00  0.00     0.251 C 
ATOM      7  O   UNL A   1      33.712  28.014  22.990  1.00  0.00    -0.270 OA
ATOM      8  H   UNL A   1      34.235  29.350  24.720  1.00  0.00     0.163 HD
BRANCH   6   9
ATOM      9  C   UNL A   1      33.374  26.134  24.383  1.00  0.00     0.067 C 
ATOM     10  C   UNL A   1      33.168  19.739  25.552  1.00  0.00     0.046 C 
ATOM     11  C   UNL A   1      33.586  21.148  25.233  1.00  0.00    -0.028 A 
ATOM     12  C   UNL A   1      32.585  22.123  25.248  1.00  0.00     0.052 A 
ATOM     13  C   UNL A   1      34.915  21.548  24.987  1.00  0.00     0.047 A 
ATOM     14  C   UNL A   1      32.886  23.454  24.989  1.00  0.00     0.128 A 
ATOM     15  C   UNL A   1      35.235  22.904  24.717  1.00  0.00    -0.021 A 
ATOM     16  Cl  UNL A   1      36.169  20.346  25.042  1.00  0.00    -0.084 Cl
ATOM     17  C   UNL A   1      34.195  23.866  24.726  1.00  0.00     0.022 A 
ATOM     18  O   UNL A   1      31.825  24.303  25.061  1.00  0.00    -0.475 OA
ATOM     19  C   UNL A   1      36.651  23.348  24.427  1.00  0.00     0.047 C 
ATOM     20  C   UNL A   1      34.422  25.299  24.516  1.00  0.00     0.026 C 
ATOM     21  C   UNL A   1      31.975  25.602  24.444  1.00  0.00     0.314 C 
BRANCH  21  22
ATOM     22  C   UNL A   1      31.275  25.590  23.073  1.00  0.00     0.429 C 
ATOM     23  F   UNL A   1      30.273  24.674  23.064  1.00  0.00    -0.167 F 
ATOM     24  F   UNL A   1      30.703  26.778  22.765  1.00  0.00    -0.167 F 
ATOM     25  F   UNL A   1      32.117  25.283  22.062  1.00  0.00    -0.167 F 
ENDBRANCH  21  22
ENDBRANCH   6   9
ENDBRANCH   4   5
ENDBRANCH   3   4
ENDBRANCH   2   3
ENDBRANCH   1   2
BRANCH   1  26
ATOM     26  C   UNL A   1      31.332  32.079  26.959  1.00  0.00     0.021 C 
BRANCH  26  27
ATOM     27  C   UNL A   1      32.570  32.964  26.890  1.00  0.00     0.116 C 
BRANCH  27  28
ATOM     28  N   UNL A   1      32.416  34.168  27.688  1.00  0.00    -0.352 N 
ATOM     29  C   UNL A   1      33.141  34.586  28.772  1.00  0.00     0.251 C 
ATOM     30  H   UNL A   1      31.688  34.770  27.409  1.00  0.00     0.163 HD
ATOM     31  O   UNL A   1      32.743  35.515  29.468  1.00  0.00    -0.269 OA
BRANCH  29  32
ATOM     32  C   UNL A   1      34.404  33.900  29.105  1.00  0.00     0.039 A 
ATOM     33  C   UNL A   1      35.574  34.276  28.443  1.00  0.00     0.014 A 
ATOM     34  C   UNL A   1      34.428  32.889  30.071  1.00  0.00     0.014 A 
ATOM     35  C   UNL A   1      36.781  33.666  28.784  1.00  0.00     0.010 A 
ATOM     36  C   UNL A   1      35.643  32.337  30.463  1.00  0.00     0.010 A 
ATOM     37  C   UNL A   1      36.828  32.710  29.813  1.00  0.00    -0.014 A 
BRANCH  37  38
ATOM     38  C   UNL A   1      38.108  32.070  30.197  1.00  0.00     0.031 A 
ATOM     39  C   UNL A   1      39.006  32.735  31.202  1.00  0.00     0.074 A 
ATOM     40  C   UNL A   1      38.470  30.905  29.625  1.00  0.00     0.049 A 
ATOM     41  N   UNL A   1      40.171  32.346  31.652  1.00  0.00    -0.248 NA
ATOM     42  C   UNL A   1      38.544  34.016  31.764  1.00  0.00     0.031 C 
ATOM     43  C   UNL A   1      37.695  30.180  28.616  1.00  0.00     0.029 A 
ATOM     44  N   UNL A   1      39.580  30.121  29.815  1.00  0.00    -0.354 N 
ATOM     45  C   UNL A   1      40.574  33.326  32.549  1.00  0.00     0.074 A 
ATOM     46  C   UNL A   1      39.567  34.362  32.530  1.00  0.00     0.031 C 
ATOM     47  C   UNL A   1      38.333  29.040  28.308  1.00  0.00     0.029 A 
ATOM     48  C   UNL A   1      39.578  28.970  29.065  1.00  0.00     0.049 A 
ATOM     49  H   UNL A   1      40.309  30.360  30.432  1.00  0.00     0.167 HD
ATOM     50  C   UNL A   1      41.668  33.343  33.345  1.00  0.00     0.037 A 
ATOM     51  C   UNL A   1      40.479  27.971  28.999  1.00  0.00     0.037 A 
ATOM     52  C   UNL A   1      42.657  32.299  33.377  1.00  0.00     0.049 A 
ATOM     53  C   UNL A   1      41.711  28.039  29.860  1.00  0.00     0.074 A 
ATOM     54  C   UNL A   1      43.786  32.210  34.171  1.00  0.00     0.029 A 
ATOM     55  N   UNL A   1      42.632  31.163  32.582  1.00  0.00    -0.354 N 
ATOM     56  N   UNL A   1      42.055  28.949  30.741  1.00  0.00    -0.248 NA
ATOM     57  C   UNL A   1      42.682  26.944  29.720  1.00  0.00     0.031 C 
ATOM     58  C   UNL A   1      44.469  31.041  33.827  1.00  0.00     0.029 A 
ATOM     59  C   UNL A   1      43.739  30.377  32.853  1.00  0.00     0.049 A 
ATOM     60  H   UNL A   1      41.932  30.948  31.924  1.00  0.00     0.167 HD
ATOM     61  C   UNL A   1      43.263  28.523  31.276  1.00  0.00     0.074 A 
ATOM     62  C   UNL A   1      43.585  27.266  30.635  1.00  0.00     0.031 C 
ATOM     63  C   UNL A   1      44.038  29.122  32.213  1.00  0.00     0.037 A 
BRANCH  50  64
ATOM     64  C   UNL A   1      41.842  34.510  34.271  1.00  0.00     0.057 A 
ATOM     65  C   UNL A   1      42.436  35.703  33.840  1.00  0.00     0.134 A 
ATOM     66  C   UNL A   1      41.347  34.470  35.580  1.00  0.00     0.134 A 
ATOM     67  F   UNL A   1      42.942  35.800  32.600  1.00  0.00    -0.206 F 
ATOM     68  C   UNL A   1      42.540  36.812  34.680  1.00  0.00     0.040 A 
ATOM     69  C   UNL A   1      41.422  35.582  36.421  1.00  0.00     0.040 A 
ATOM     70  F   UNL A   1      40.763  33.360  36.056  1.00  0.00    -0.206 F 
ATOM     71  C   UNL A   1      42.021  36.757  35.971  1.00  0.00     0.006 A 
ENDBRANCH  50  64
BRANCH  51  72
ATOM     72  C   UNL A   1      40.237  26.805  28.113  1.00  0.00     0.057 A 
ATOM     73  C   UNL A   1      39.442  25.733  28.535  1.00  0.00     0.134 A 
ATOM     74  C   UNL A   1      40.793  26.726  26.830  1.00  0.00     0.134 A 
ATOM     75  F   UNL A   1      38.896  25.740  29.761  1.00  0.00    -0.206 F 
ATOM     76  C   UNL A   1      39.222  24.619  27.724  1.00  0.00     0.040 A 
ATOM     77  C   UNL A   1      40.559  25.631  25.997  1.00  0.00     0.040 A 
ATOM     78  F   UNL A   1      41.559  27.722  26.361  1.00  0.00    -0.206 F 
ATOM     79  C   UNL A   1      39.777  24.569  26.447  1.00  0.00     0.006 A 
ENDBRANCH  51  72
BRANCH  63  80
ATOM     80  C   UNL A   1      45.302  28.424  32.621  1.00  0.00     0.057 A 
ATOM     81  C   UNL A   1      46.530  28.719  32.019  1.00  0.00     0.134 A 
ATOM     82  C   UNL A   1      45.303  27.515  33.687  1.00  0.00     0.134 A 
ATOM     83  F   UNL A   1      46.595  29.575  30.988  1.00  0.00    -0.206 F 
ATOM     84  C   UNL A   1      47.716  28.127  32.458  1.00  0.00     0.040 A 
ATOM     85  C   UNL A   1      46.484  26.938  34.152  1.00  0.00     0.040 A 
ATOM     86  F   UNL A   1      44.159  27.198  34.315  1.00  0.00    -0.206 F 
ATOM     87  C   UNL A   1      47.696  27.243  33.534  1.00  0.00     0.006 A 
ENDBRANCH  63  80
ENDBRANCH  37  38
ENDBRANCH  29  32
ENDBRANCH  27  28
ENDBRANCH  26  27
ENDBRANCH   1  26
TORSDOF 14
ENDMDL
