MODEL 1
REMARK VINA RESULT:      -8.3      0.000      0.000
REMARK SMILES CCCCCCNC(=O)Oc1cccc(-c2ccc([C@@H](C)C(=O)NCCCCCCNC(=O)c3ccc(-c4c5nc(c(-c6c(F)cccc6F)c6ccc([nH]6)c(-c6c(F)cccc6F)c6nc(c(-c7c(F)cccc7F)c7ccc4[nH]7)C=C6)C=C5)cc3)cc2N)c1
REMARK SMILES IDX 22 1 23 2 24 3 20 5 21 6 19 7 16 8 17 9 89 10 18 11 88 12
REMARK SMILES IDX 15 13 11 14 12 15 91 16 13 17 14 18 10 19 8 20 7 21 9 23
REMARK SMILES IDX 6 24 5 25 4 26 3 27 2 28 1 29 90 30 25 33 26 34 27 35 28 36
REMARK SMILES IDX 29 37 30 38 31 39 32 40 33 42 34 43 35 44 87 45 36 46 86 47
REMARK SMILES IDX 37 48 38 49 39 50 80 51 40 52 85 53 79 54 81 55 41 56 84 57
REMARK SMILES IDX 78 58 77 59 42 61 68 62 51 63 67 64 52 65 55 66 66 67 82 68
REMARK SMILES IDX 53 69 54 70 65 72 83 73 56 74 43 75 44 76 49 77 45 78 46 79
REMARK SMILES IDX 48 80 50 81 47 82 69 83 70 84 75 85 71 86 72 87 74 88 76 89
REMARK SMILES IDX 73 90 57 91 58 92 63 93 59 94 60 95 62 96 64 97 61 98
REMARK H PARENT 24 4 7 22 90 31 90 32 31 41 81 60 55 71
REMARK Flexibility Score: inf
ROOT
ATOM      1  C   UNL A   1      37.827  33.235  33.669  1.00  0.00     0.227 C 
ATOM      2  O   UNL A   1      37.947  33.146  34.898  1.00  0.00    -0.274 OA
ATOM      3  N   UNL A   1      37.864  34.492  33.151  1.00  0.00    -0.356 N 
ATOM      4  H   UNL A   1      38.057  35.195  33.812  1.00  0.00     0.163 HD
ENDROOT
BRANCH   1   5
ATOM      5  C   UNL A   1      37.680  31.962  32.823  1.00  0.00     0.105 C 
ATOM      6  C   UNL A   1      36.246  31.443  32.716  1.00  0.00     0.023 C 
BRANCH   5   7
ATOM      7  C   UNL A   1      38.742  30.907  33.094  1.00  0.00    -0.034 A 
ATOM      8  C   UNL A   1      40.712  28.863  33.417  1.00  0.00     0.005 A 
ATOM      9  C   UNL A   1      40.990  30.216  33.686  1.00  0.00     0.011 A 
ATOM     10  C   UNL A   1      39.381  28.529  33.079  1.00  0.00     0.040 A 
ATOM     11  C   UNL A   1      40.013  31.209  33.577  1.00  0.00     0.005 A 
ATOM     12  C   UNL A   1      38.448  29.556  32.847  1.00  0.00     0.030 A 
BRANCH   8  13
ATOM     13  C   UNL A   1      41.817  27.874  33.502  1.00  0.00    -0.013 A 
ATOM     14  C   UNL A   1      42.998  26.098  34.676  1.00  0.00     0.133 A 
ATOM     15  C   UNL A   1      43.937  26.001  33.654  1.00  0.00     0.047 A 
ATOM     16  C   UNL A   1      41.939  27.006  34.601  1.00  0.00     0.056 A 
ATOM     17  C   UNL A   1      43.813  26.824  32.540  1.00  0.00     0.004 A 
ATOM     18  C   UNL A   1      42.774  27.758  32.473  1.00  0.00     0.009 A 
BRANCH  14  19
ATOM     19  O   UNL A   1      43.266  25.374  35.850  1.00  0.00    -0.410 OA
BRANCH  19  20
ATOM     20  C   UNL A   1      44.554  25.341  36.361  1.00  0.00     0.412 C 
ATOM     21  N   UNL A   1      45.121  24.097  36.287  1.00  0.00    -0.321 N 
ATOM     22  H   UNL A   1      46.024  24.000  36.666  1.00  0.00     0.167 HD
ATOM     23  O   UNL A   1      45.160  26.287  36.847  1.00  0.00    -0.224 OA
BRANCH  21  24
ATOM     24  C   UNL A   1      44.527  22.908  35.708  1.00  0.00     0.119 C 
BRANCH  24  25
ATOM     25  C   UNL A   1      45.167  22.539  34.370  1.00  0.00     0.021 C 
BRANCH  25  26
ATOM     26  C   UNL A   1      46.099  21.323  34.413  1.00  0.00     0.002 C 
BRANCH  26  27
ATOM     27  C   UNL A   1      45.643  20.172  35.317  1.00  0.00    -0.000 C 
BRANCH  27  28
ATOM     28  C   UNL A   1      46.599  19.813  36.457  1.00  0.00    -0.003 C 
ATOM     29  C   UNL A   1      45.958  18.951  37.532  1.00  0.00     0.004 C 
ENDBRANCH  27  28
ENDBRANCH  26  27
ENDBRANCH  25  26
ENDBRANCH  24  25
ENDBRANCH  21  24
ENDBRANCH  19  20
ENDBRANCH  14  19
ENDBRANCH   8  13
BRANCH  10  30
ATOM     30  N   UNL A   1      38.969  27.213  32.858  1.00  0.00    -0.398 N 
ATOM     31  H   UNL A   1      39.158  26.774  31.996  1.00  0.00     0.156 HD
ATOM     32  H   UNL A   1      38.489  26.722  33.564  1.00  0.00     0.156 HD
ENDBRANCH  10  30
ENDBRANCH   5   7
ENDBRANCH   1   5
BRANCH   3  33
ATOM     33  C   UNL A   1      37.669  34.983  31.804  1.00  0.00     0.116 C 
BRANCH  33  34
ATOM     34  C   UNL A   1      38.829  34.593  30.887  1.00  0.00     0.021 C 
BRANCH  34  35
ATOM     35  C   UNL A   1      38.407  34.309  29.442  1.00  0.00     0.002 C 
BRANCH  35  36
ATOM     36  C   UNL A   1      37.541  33.058  29.251  1.00  0.00     0.002 C 
BRANCH  36  37
ATOM     37  C   UNL A   1      36.111  33.313  28.764  1.00  0.00     0.021 C 
BRANCH  37  38
ATOM     38  C   UNL A   1      35.024  32.624  29.584  1.00  0.00     0.116 C 
BRANCH  38  39
ATOM     39  N   UNL A   1      34.291  31.645  28.796  1.00  0.00    -0.352 N 
ATOM     40  C   UNL A   1      34.749  30.547  28.114  1.00  0.00     0.251 C 
ATOM     41  H   UNL A   1      33.319  31.794  28.744  1.00  0.00     0.163 HD
ATOM     42  O   UNL A   1      34.018  29.967  27.316  1.00  0.00    -0.269 OA
BRANCH  40  43
ATOM     43  C   UNL A   1      36.128  30.060  28.331  1.00  0.00     0.039 A 
ATOM     44  C   UNL A   1      37.051  30.151  27.286  1.00  0.00     0.014 A 
ATOM     45  C   UNL A   1      36.500  29.481  29.547  1.00  0.00     0.014 A 
ATOM     46  C   UNL A   1      38.362  29.711  27.477  1.00  0.00     0.010 A 
ATOM     47  C   UNL A   1      37.824  29.102  29.758  1.00  0.00     0.010 A 
ATOM     48  C   UNL A   1      38.766  29.209  28.724  1.00  0.00    -0.014 A 
BRANCH  48  49
ATOM     49  C   UNL A   1      40.167  28.784  28.967  1.00  0.00     0.031 A 
ATOM     50  C   UNL A   1      41.152  29.740  29.579  1.00  0.00     0.074 A 
ATOM     51  C   UNL A   1      40.569  27.559  28.574  1.00  0.00     0.049 A 
ATOM     52  N   UNL A   1      42.434  29.584  29.792  1.00  0.00    -0.248 NA
ATOM     53  C   UNL A   1      40.631  31.056  29.980  1.00  0.00     0.031 C 
ATOM     54  C   UNL A   1      39.720  26.555  27.931  1.00  0.00     0.029 A 
ATOM     55  N   UNL A   1      41.800  26.957  28.646  1.00  0.00    -0.354 N 
ATOM     56  C   UNL A   1      42.875  30.784  30.334  1.00  0.00     0.074 A 
ATOM     57  C   UNL A   1      41.735  31.674  30.374  1.00  0.00     0.031 C 
ATOM     58  C   UNL A   1      40.450  25.456  27.683  1.00  0.00     0.029 A 
ATOM     59  C   UNL A   1      41.824  25.690  28.116  1.00  0.00     0.049 A 
ATOM     60  H   UNL A   1      42.590  27.391  29.041  1.00  0.00     0.167 HD
ATOM     61  C   UNL A   1      44.114  31.108  30.777  1.00  0.00     0.037 A 
ATOM     62  C   UNL A   1      42.842  24.819  27.985  1.00  0.00     0.037 A 
ATOM     63  C   UNL A   1      45.239  30.211  30.762  1.00  0.00     0.049 A 
ATOM     64  C   UNL A   1      44.206  25.202  28.484  1.00  0.00     0.074 A 
ATOM     65  C   UNL A   1      46.519  30.424  31.243  1.00  0.00     0.029 A 
ATOM     66  N   UNL A   1      45.218  28.927  30.236  1.00  0.00    -0.354 N 
ATOM     67  N   UNL A   1      44.596  26.318  29.050  1.00  0.00    -0.248 NA
ATOM     68  C   UNL A   1      45.274  24.202  28.331  1.00  0.00     0.031 C 
ATOM     69  C   UNL A   1      47.284  29.284  30.975  1.00  0.00     0.029 A 
ATOM     70  C   UNL A   1      46.468  28.345  30.365  1.00  0.00     0.049 A 
ATOM     71  H   UNL A   1      44.431  28.496  29.832  1.00  0.00     0.167 HD
ATOM     72  C   UNL A   1      45.942  26.146  29.346  1.00  0.00     0.074 A 
ATOM     73  C   UNL A   1      46.299  24.812  28.907  1.00  0.00     0.031 C 
ATOM     74  C   UNL A   1      46.804  27.013  29.930  1.00  0.00     0.037 A 
BRANCH  61  75
ATOM     75  C   UNL A   1      44.313  32.492  31.322  1.00  0.00     0.057 A 
ATOM     76  C   UNL A   1      44.184  32.774  32.688  1.00  0.00     0.134 A 
ATOM     77  C   UNL A   1      44.672  33.549  30.476  1.00  0.00     0.134 A 
ATOM     78  F   UNL A   1      43.832  31.808  33.550  1.00  0.00    -0.206 F 
ATOM     79  C   UNL A   1      44.377  34.061  33.190  1.00  0.00     0.040 A 
ATOM     80  C   UNL A   1      44.893  34.836  30.969  1.00  0.00     0.040 A 
ATOM     81  F   UNL A   1      44.819  33.348  29.158  1.00  0.00    -0.206 F 
ATOM     82  C   UNL A   1      44.740  35.097  32.330  1.00  0.00     0.006 A 
ENDBRANCH  61  75
BRANCH  62  83
ATOM     83  C   UNL A   1      42.605  23.487  27.373  1.00  0.00     0.057 A 
ATOM     84  C   UNL A   1      42.242  22.389  28.161  1.00  0.00     0.134 A 
ATOM     85  C   UNL A   1      42.737  23.280  25.995  1.00  0.00     0.134 A 
ATOM     86  F   UNL A   1      42.118  22.522  29.490  1.00  0.00    -0.206 F 
ATOM     87  C   UNL A   1      42.037  21.126  27.604  1.00  0.00     0.040 A 
ATOM     88  C   UNL A   1      42.512  22.027  25.422  1.00  0.00     0.040 A 
ATOM     89  F   UNL A   1      43.075  24.294  25.187  1.00  0.00    -0.206 F 
ATOM     90  C   UNL A   1      42.168  20.944  26.228  1.00  0.00     0.006 A 
ENDBRANCH  62  83
BRANCH  74  91
ATOM     91  C   UNL A   1      48.208  26.536  30.158  1.00  0.00     0.057 A 
ATOM     92  C   UNL A   1      49.232  26.786  29.237  1.00  0.00     0.134 A 
ATOM     93  C   UNL A   1      48.544  25.852  31.333  1.00  0.00     0.134 A 
ATOM     94  F   UNL A   1      48.971  27.424  28.086  1.00  0.00    -0.206 F 
ATOM     95  C   UNL A   1      50.540  26.355  29.468  1.00  0.00     0.040 A 
ATOM     96  C   UNL A   1      49.852  25.438  31.587  1.00  0.00     0.040 A 
ATOM     97  F   UNL A   1      47.610  25.588  32.260  1.00  0.00    -0.206 F 
ATOM     98  C   UNL A   1      50.854  25.686  30.651  1.00  0.00     0.006 A 
ENDBRANCH  74  91
ENDBRANCH  48  49
ENDBRANCH  40  43
ENDBRANCH  38  39
ENDBRANCH  37  38
ENDBRANCH  36  37
ENDBRANCH  35  36
ENDBRANCH  34  35
ENDBRANCH  33  34
ENDBRANCH   3  33
TORSDOF 23
ENDMDL
MODEL 2
REMARK VINA RESULT:      -8.2      2.795      7.127
REMARK SMILES CCCCCCNC(=O)Oc1cccc(-c2ccc([C@@H](C)C(=O)NCCCCCCNC(=O)c3ccc(-c4c5nc(c(-c6c(F)cccc6F)c6ccc([nH]6)c(-c6c(F)cccc6F)c6nc(c(-c7c(F)cccc7F)c7ccc4[nH]7)C=C6)C=C5)cc3)cc2N)c1
REMARK SMILES IDX 22 1 23 2 24 3 20 5 21 6 19 7 16 8 17 9 89 10 18 11 88 12
REMARK SMILES IDX 15 13 11 14 12 15 91 16 13 17 14 18 10 19 8 20 7 21 9 23
REMARK SMILES IDX 6 24 5 25 4 26 3 27 2 28 1 29 90 30 25 33 26 34 27 35 28 36
REMARK SMILES IDX 29 37 30 38 31 39 32 40 33 42 34 43 35 44 87 45 36 46 86 47
REMARK SMILES IDX 37 48 38 49 39 50 80 51 40 52 85 53 79 54 81 55 41 56 84 57
REMARK SMILES IDX 78 58 77 59 42 61 68 62 51 63 67 64 52 65 55 66 66 67 82 68
REMARK SMILES IDX 53 69 54 70 65 72 83 73 56 74 43 75 44 76 49 77 45 78 46 79
REMARK SMILES IDX 48 80 50 81 47 82 69 83 70 84 75 85 71 86 72 87 74 88 76 89
REMARK SMILES IDX 73 90 57 91 58 92 63 93 59 94 60 95 62 96 64 97 61 98
REMARK H PARENT 24 4 7 22 90 31 90 32 31 41 81 60 55 71
REMARK Flexibility Score: inf
ROOT
ATOM      1  C   UNL A   1      37.976  31.343  29.258  1.00  0.00     0.227 C 
ATOM      2  O   UNL A   1      38.910  31.799  29.930  1.00  0.00    -0.274 OA
ATOM      3  N   UNL A   1      37.070  32.247  28.797  1.00  0.00    -0.356 N 
ATOM      4  H   UNL A   1      37.301  33.184  28.990  1.00  0.00     0.163 HD
ENDROOT
BRANCH   1   5
ATOM      5  C   UNL A   1      37.909  29.836  28.966  1.00  0.00     0.105 C 
ATOM      6  C   UNL A   1      37.276  29.009  30.084  1.00  0.00     0.023 C 
BRANCH   5   7
ATOM      7  C   UNL A   1      39.182  29.262  28.363  1.00  0.00    -0.034 A 
ATOM      8  C   UNL A   1      41.520  28.006  27.305  1.00  0.00     0.005 A 
ATOM      9  C   UNL A   1      40.630  28.731  26.492  1.00  0.00     0.011 A 
ATOM     10  C   UNL A   1      41.275  28.008  28.698  1.00  0.00     0.040 A 
ATOM     11  C   UNL A   1      39.514  29.387  27.016  1.00  0.00     0.005 A 
ATOM     12  C   UNL A   1      40.078  28.562  29.187  1.00  0.00     0.030 A 
BRANCH   8  13
ATOM     13  C   UNL A   1      42.655  27.290  26.667  1.00  0.00    -0.013 A 
ATOM     14  C   UNL A   1      43.527  25.480  25.294  1.00  0.00     0.133 A 
ATOM     15  C   UNL A   1      44.831  25.931  25.466  1.00  0.00     0.047 A 
ATOM     16  C   UNL A   1      42.447  26.154  25.866  1.00  0.00     0.056 A 
ATOM     17  C   UNL A   1      45.057  27.077  26.222  1.00  0.00     0.004 A 
ATOM     18  C   UNL A   1      43.983  27.738  26.826  1.00  0.00     0.009 A 
BRANCH  14  19
ATOM     19  O   UNL A   1      43.370  24.229  24.673  1.00  0.00    -0.410 OA
BRANCH  19  20
ATOM     20  C   UNL A   1      44.103  23.140  25.118  1.00  0.00     0.412 C 
ATOM     21  N   UNL A   1      43.390  22.332  25.962  1.00  0.00    -0.321 N 
ATOM     22  H   UNL A   1      43.868  21.558  26.340  1.00  0.00     0.167 HD
ATOM     23  O   UNL A   1      45.265  22.889  24.828  1.00  0.00    -0.224 OA
BRANCH  21  24
ATOM     24  C   UNL A   1      42.005  22.498  26.356  1.00  0.00     0.119 C 
BRANCH  24  25
ATOM     25  C   UNL A   1      41.816  22.364  27.867  1.00  0.00     0.021 C 
BRANCH  25  26
ATOM     26  C   UNL A   1      43.072  22.643  28.702  1.00  0.00     0.002 C 
BRANCH  26  27
ATOM     27  C   UNL A   1      43.142  24.032  29.345  1.00  0.00    -0.000 C 
BRANCH  27  28
ATOM     28  C   UNL A   1      44.435  24.810  29.088  1.00  0.00    -0.003 C 
ATOM     29  C   UNL A   1      45.562  23.945  28.549  1.00  0.00     0.004 C 
ENDBRANCH  27  28
ENDBRANCH  26  27
ENDBRANCH  25  26
ENDBRANCH  24  25
ENDBRANCH  21  24
ENDBRANCH  19  20
ENDBRANCH  14  19
ENDBRANCH   8  13
BRANCH  10  30
ATOM     30  N   UNL A   1      42.126  27.384  29.613  1.00  0.00    -0.398 N 
ATOM     31  H   UNL A   1      42.417  27.863  30.422  1.00  0.00     0.156 HD
ATOM     32  H   UNL A   1      42.435  26.463  29.448  1.00  0.00     0.156 HD
ENDBRANCH  10  30
ENDBRANCH   5   7
ENDBRANCH   1   5
BRANCH   3  33
ATOM     33  C   UNL A   1      35.827  32.081  28.075  1.00  0.00     0.116 C 
BRANCH  33  34
ATOM     34  C   UNL A   1      34.951  33.332  28.164  1.00  0.00     0.021 C 
BRANCH  34  35
ATOM     35  C   UNL A   1      34.097  33.400  29.433  1.00  0.00     0.002 C 
BRANCH  35  36
ATOM     36  C   UNL A   1      34.763  34.090  30.630  1.00  0.00     0.002 C 
BRANCH  36  37
ATOM     37  C   UNL A   1      34.866  33.246  31.905  1.00  0.00     0.021 C 
BRANCH  37  38
ATOM     38  C   UNL A   1      36.293  32.924  32.344  1.00  0.00     0.116 C 
BRANCH  38  39
ATOM     39  N   UNL A   1      36.421  32.903  33.793  1.00  0.00    -0.352 N 
ATOM     40  C   UNL A   1      37.346  32.270  34.582  1.00  0.00     0.251 C 
ATOM     41  H   UNL A   1      35.740  33.422  34.280  1.00  0.00     0.163 HD
ATOM     42  O   UNL A   1      37.164  32.175  35.792  1.00  0.00    -0.269 OA
BRANCH  40  43
ATOM     43  C   UNL A   1      38.565  31.691  33.978  1.00  0.00     0.039 A 
ATOM     44  C   UNL A   1      38.454  30.530  33.209  1.00  0.00     0.014 A 
ATOM     45  C   UNL A   1      39.818  32.268  34.200  1.00  0.00     0.014 A 
ATOM     46  C   UNL A   1      39.592  29.977  32.618  1.00  0.00     0.010 A 
ATOM     47  C   UNL A   1      40.942  31.754  33.558  1.00  0.00     0.010 A 
ATOM     48  C   UNL A   1      40.841  30.601  32.765  1.00  0.00    -0.014 A 
BRANCH  48  49
ATOM     49  C   UNL A   1      42.055  30.061  32.104  1.00  0.00     0.031 A 
ATOM     50  C   UNL A   1      42.739  28.843  32.658  1.00  0.00     0.074 A 
ATOM     51  C   UNL A   1      42.579  30.708  31.044  1.00  0.00     0.049 A 
ATOM     52  N   UNL A   1      43.852  28.272  32.272  1.00  0.00    -0.248 NA
ATOM     53  C   UNL A   1      42.101  28.197  33.815  1.00  0.00     0.031 C 
ATOM     54  C   UNL A   1      42.033  31.923  30.439  1.00  0.00     0.029 A 
ATOM     55  N   UNL A   1      43.699  30.439  30.298  1.00  0.00    -0.354 N 
ATOM     56  C   UNL A   1      44.056  27.213  33.148  1.00  0.00     0.074 A 
ATOM     57  C   UNL A   1      42.978  27.249  34.112  1.00  0.00     0.031 C 
ATOM     58  C   UNL A   1      42.809  32.285  29.405  1.00  0.00     0.029 A 
ATOM     59  C   UNL A   1      43.924  31.351  29.295  1.00  0.00     0.049 A 
ATOM     60  H   UNL A   1      44.285  29.666  30.465  1.00  0.00     0.167 HD
ATOM     61  C   UNL A   1      45.042  26.284  33.137  1.00  0.00     0.037 A 
ATOM     62  C   UNL A   1      44.922  31.428  28.395  1.00  0.00     0.037 A 
ATOM     63  C   UNL A   1      46.097  26.234  32.160  1.00  0.00     0.049 A 
ATOM     64  C   UNL A   1      46.003  30.385  28.404  1.00  0.00     0.074 A 
ATOM     65  C   UNL A   1      47.107  25.298  32.028  1.00  0.00     0.029 A 
ATOM     66  N   UNL A   1      46.277  27.163  31.146  1.00  0.00    -0.354 N 
ATOM     67  N   UNL A   1      46.151  29.355  29.201  1.00  0.00    -0.248 NA
ATOM     68  C   UNL A   1      47.056  30.513  27.386  1.00  0.00     0.031 C 
ATOM     69  C   UNL A   1      47.922  25.680  30.957  1.00  0.00     0.029 A 
ATOM     70  C   UNL A   1      47.394  26.832  30.397  1.00  0.00     0.049 A 
ATOM     71  H   UNL A   1      45.698  27.943  30.984  1.00  0.00     0.167 HD
ATOM     72  C   UNL A   1      47.293  28.696  28.764  1.00  0.00     0.074 A 
ATOM     73  C   UNL A   1      47.793  29.438  27.624  1.00  0.00     0.031 C 
ATOM     74  C   UNL A   1      47.873  27.577  29.260  1.00  0.00     0.037 A 
BRANCH  61  75
ATOM     75  C   UNL A   1      45.019  25.240  34.215  1.00  0.00     0.057 A 
ATOM     76  C   UNL A   1      44.385  24.003  34.033  1.00  0.00     0.134 A 
ATOM     77  C   UNL A   1      45.667  25.459  35.437  1.00  0.00     0.134 A 
ATOM     78  F   UNL A   1      43.736  23.735  32.889  1.00  0.00    -0.206 F 
ATOM     79  C   UNL A   1      44.373  23.034  35.036  1.00  0.00     0.040 A 
ATOM     80  C   UNL A   1      45.684  24.487  36.439  1.00  0.00     0.040 A 
ATOM     81  F   UNL A   1      46.299  26.617  35.675  1.00  0.00    -0.206 F 
ATOM     82  C   UNL A   1      45.030  23.271  36.242  1.00  0.00     0.006 A 
ENDBRANCH  61  75
BRANCH  62  83
ATOM     83  C   UNL A   1      44.934  32.524  27.395  1.00  0.00     0.057 A 
ATOM     84  C   UNL A   1      44.182  32.431  26.218  1.00  0.00     0.134 A 
ATOM     85  C   UNL A   1      45.695  33.684  27.586  1.00  0.00     0.134 A 
ATOM     86  F   UNL A   1      43.448  31.337  25.970  1.00  0.00    -0.206 F 
ATOM     87  C   UNL A   1      44.201  33.443  25.257  1.00  0.00     0.040 A 
ATOM     88  C   UNL A   1      45.704  34.714  26.644  1.00  0.00     0.040 A 
ATOM     89  F   UNL A   1      46.430  33.836  28.696  1.00  0.00    -0.206 F 
ATOM     90  C   UNL A   1      44.960  34.592  25.472  1.00  0.00     0.006 A 
ENDBRANCH  62  83
BRANCH  74  91
ATOM     91  C   UNL A   1      49.096  27.068  28.555  1.00  0.00     0.057 A 
ATOM     92  C   UNL A   1      49.014  26.137  27.513  1.00  0.00     0.134 A 
ATOM     93  C   UNL A   1      50.366  27.549  28.898  1.00  0.00     0.134 A 
ATOM     94  F   UNL A   1      47.828  25.628  27.146  1.00  0.00    -0.206 F 
ATOM     95  C   UNL A   1      50.157  25.685  26.849  1.00  0.00     0.040 A 
ATOM     96  C   UNL A   1      51.512  27.124  28.225  1.00  0.00     0.040 A 
ATOM     97  F   UNL A   1      50.511  28.449  29.882  1.00  0.00    -0.206 F 
ATOM     98  C   UNL A   1      51.410  26.186  27.201  1.00  0.00     0.006 A 
ENDBRANCH  74  91
ENDBRANCH  48  49
ENDBRANCH  40  43
ENDBRANCH  38  39
ENDBRANCH  37  38
ENDBRANCH  36  37
ENDBRANCH  35  36
ENDBRANCH  34  35
ENDBRANCH  33  34
ENDBRANCH   3  33
TORSDOF 23
ENDMDL
MODEL 3
REMARK VINA RESULT:      -8.1      4.898      9.653
REMARK SMILES CCCCCCNC(=O)Oc1cccc(-c2ccc([C@@H](C)C(=O)NCCCCCCNC(=O)c3ccc(-c4c5nc(c(-c6c(F)cccc6F)c6ccc([nH]6)c(-c6c(F)cccc6F)c6nc(c(-c7c(F)cccc7F)c7ccc4[nH]7)C=C6)C=C5)cc3)cc2N)c1
REMARK SMILES IDX 22 1 23 2 24 3 20 5 21 6 19 7 16 8 17 9 89 10 18 11 88 12
REMARK SMILES IDX 15 13 11 14 12 15 91 16 13 17 14 18 10 19 8 20 7 21 9 23
REMARK SMILES IDX 6 24 5 25 4 26 3 27 2 28 1 29 90 30 25 33 26 34 27 35 28 36
REMARK SMILES IDX 29 37 30 38 31 39 32 40 33 42 34 43 35 44 87 45 36 46 86 47
REMARK SMILES IDX 37 48 38 49 39 50 80 51 40 52 85 53 79 54 81 55 41 56 84 57
REMARK SMILES IDX 78 58 77 59 42 61 68 62 51 63 67 64 52 65 55 66 66 67 82 68
REMARK SMILES IDX 53 69 54 70 65 72 83 73 56 74 43 75 44 76 49 77 45 78 46 79
REMARK SMILES IDX 48 80 50 81 47 82 69 83 70 84 75 85 71 86 72 87 74 88 76 89
REMARK SMILES IDX 73 90 57 91 58 92 63 93 59 94 60 95 62 96 64 97 61 98
REMARK H PARENT 24 4 7 22 90 31 90 32 31 41 81 60 55 71
REMARK Flexibility Score: inf
ROOT
ATOM      1  C   UNL A   1      38.451  31.619  30.613  1.00  0.00     0.227 C 
ATOM      2  O   UNL A   1      37.820  32.021  31.599  1.00  0.00    -0.274 OA
ATOM      3  N   UNL A   1      39.473  30.757  30.863  1.00  0.00    -0.356 N 
ATOM      4  H   UNL A   1      39.551  30.488  31.807  1.00  0.00     0.163 HD
ENDROOT
BRANCH   1   5
ATOM      5  C   UNL A   1      38.041  32.077  29.206  1.00  0.00     0.105 C 
ATOM      6  C   UNL A   1      38.016  33.594  29.022  1.00  0.00     0.023 C 
BRANCH   5   7
ATOM      7  C   UNL A   1      36.850  31.326  28.630  1.00  0.00    -0.034 A 
ATOM      8  C   UNL A   1      34.603  30.054  27.405  1.00  0.00     0.005 A 
ATOM      9  C   UNL A   1      35.806  29.367  27.653  1.00  0.00     0.011 A 
ATOM     10  C   UNL A   1      34.503  31.381  27.883  1.00  0.00     0.040 A 
ATOM     11  C   UNL A   1      36.887  29.974  28.296  1.00  0.00     0.005 A 
ATOM     12  C   UNL A   1      35.645  32.013  28.409  1.00  0.00     0.030 A 
BRANCH   8  13
ATOM     13  C   UNL A   1      33.518  29.358  26.666  1.00  0.00    -0.013 A 
ATOM     14  C   UNL A   1      31.808  27.632  26.524  1.00  0.00     0.133 A 
ATOM     15  C   UNL A   1      31.460  28.034  25.239  1.00  0.00     0.047 A 
ATOM     16  C   UNL A   1      32.809  28.290  27.242  1.00  0.00     0.056 A 
ATOM     17  C   UNL A   1      32.123  29.114  24.665  1.00  0.00     0.004 A 
ATOM     18  C   UNL A   1      33.148  29.757  25.365  1.00  0.00     0.009 A 
BRANCH  14  19
ATOM     19  O   UNL A   1      31.235  26.435  26.987  1.00  0.00    -0.410 OA
BRANCH  19  20
ATOM     20  C   UNL A   1      30.736  25.513  26.081  1.00  0.00     0.412 C 
ATOM     21  N   UNL A   1      31.648  24.545  25.755  1.00  0.00    -0.321 N 
ATOM     22  H   UNL A   1      31.365  23.878  25.088  1.00  0.00     0.167 HD
ATOM     23  O   UNL A   1      29.616  25.522  25.587  1.00  0.00    -0.224 OA
BRANCH  21  24
ATOM     24  C   UNL A   1      32.987  24.402  26.291  1.00  0.00     0.119 C 
BRANCH  24  25
ATOM     25  C   UNL A   1      34.042  25.033  25.382  1.00  0.00     0.021 C 
BRANCH  25  26
ATOM     26  C   UNL A   1      33.659  25.100  23.898  1.00  0.00     0.002 C 
BRANCH  26  27
ATOM     27  C   UNL A   1      34.320  24.051  22.998  1.00  0.00    -0.000 C 
BRANCH  27  28
ATOM     28  C   UNL A   1      35.107  22.960  23.728  1.00  0.00    -0.003 C 
ATOM     29  C   UNL A   1      36.542  22.827  23.245  1.00  0.00     0.004 C 
ENDBRANCH  27  28
ENDBRANCH  26  27
ENDBRANCH  25  26
ENDBRANCH  24  25
ENDBRANCH  21  24
ENDBRANCH  19  20
ENDBRANCH  14  19
ENDBRANCH   8  13
BRANCH  10  30
ATOM     30  N   UNL A   1      33.337  32.140  27.759  1.00  0.00    -0.398 N 
ATOM     31  H   UNL A   1      32.936  32.288  26.872  1.00  0.00     0.156 HD
ATOM     32  H   UNL A   1      32.915  32.527  28.560  1.00  0.00     0.156 HD
ENDBRANCH  10  30
ENDBRANCH   5   7
ENDBRANCH   1   5
BRANCH   3  33
ATOM     33  C   UNL A   1      40.466  30.165  29.995  1.00  0.00     0.116 C 
BRANCH  33  34
ATOM     34  C   UNL A   1      40.118  28.717  29.643  1.00  0.00     0.021 C 
BRANCH  34  35
ATOM     35  C   UNL A   1      41.072  28.080  28.629  1.00  0.00     0.002 C 
BRANCH  35  36
ATOM     36  C   UNL A   1      40.425  27.649  27.306  1.00  0.00     0.002 C 
BRANCH  36  37
ATOM     37  C   UNL A   1      39.594  26.363  27.367  1.00  0.00     0.021 C 
BRANCH  37  38
ATOM     38  C   UNL A   1      40.153  25.284  28.291  1.00  0.00     0.116 C 
BRANCH  38  39
ATOM     39  N   UNL A   1      40.558  24.098  27.553  1.00  0.00    -0.352 N 
ATOM     40  C   UNL A   1      41.640  23.901  26.732  1.00  0.00     0.251 C 
ATOM     41  H   UNL A   1      39.966  23.318  27.659  1.00  0.00     0.163 HD
ATOM     42  O   UNL A   1      41.696  22.908  26.013  1.00  0.00    -0.269 OA
BRANCH  40  43
ATOM     43  C   UNL A   1      42.739  24.889  26.704  1.00  0.00     0.039 A 
ATOM     44  C   UNL A   1      43.033  25.541  25.504  1.00  0.00     0.014 A 
ATOM     45  C   UNL A   1      43.503  25.144  27.846  1.00  0.00     0.014 A 
ATOM     46  C   UNL A   1      44.057  26.489  25.461  1.00  0.00     0.010 A 
ATOM     47  C   UNL A   1      44.481  26.135  27.819  1.00  0.00     0.010 A 
ATOM     48  C   UNL A   1      44.771  26.813  26.626  1.00  0.00    -0.014 A 
BRANCH  48  49
ATOM     49  C   UNL A   1      45.829  27.854  26.617  1.00  0.00     0.031 A 
ATOM     50  C   UNL A   1      45.461  29.307  26.731  1.00  0.00     0.074 A 
ATOM     51  C   UNL A   1      47.116  27.494  26.439  1.00  0.00     0.049 A 
ATOM     52  N   UNL A   1      46.231  30.363  26.660  1.00  0.00    -0.248 NA
ATOM     53  C   UNL A   1      44.035  29.613  26.925  1.00  0.00     0.031 C 
ATOM     54  C   UNL A   1      47.596  26.122  26.274  1.00  0.00     0.029 A 
ATOM     55  N   UNL A   1      48.253  28.258  26.352  1.00  0.00    -0.354 N 
ATOM     56  C   UNL A   1      45.383  31.456  26.781  1.00  0.00     0.074 A 
ATOM     57  C   UNL A   1      44.036  30.938  26.885  1.00  0.00     0.031 C 
ATOM     58  C   UNL A   1      48.930  26.139  26.123  1.00  0.00     0.029 A 
ATOM     59  C   UNL A   1      49.394  27.522  26.145  1.00  0.00     0.049 A 
ATOM     60  H   UNL A   1      48.251  29.239  26.431  1.00  0.00     0.167 HD
ATOM     61  C   UNL A   1      45.700  32.773  26.824  1.00  0.00     0.037 A 
ATOM     62  C   UNL A   1      50.670  27.920  25.981  1.00  0.00     0.037 A 
ATOM     63  C   UNL A   1      47.042  33.285  26.750  1.00  0.00     0.049 A 
ATOM     64  C   UNL A   1      50.996  29.386  26.032  1.00  0.00     0.074 A 
ATOM     65  C   UNL A   1      47.472  34.597  26.844  1.00  0.00     0.029 A 
ATOM     66  N   UNL A   1      48.175  32.506  26.562  1.00  0.00    -0.354 N 
ATOM     67  N   UNL A   1      50.191  30.405  26.209  1.00  0.00    -0.248 NA
ATOM     68  C   UNL A   1      52.409  29.757  25.866  1.00  0.00     0.031 C 
ATOM     69  C   UNL A   1      48.861  34.617  26.676  1.00  0.00     0.029 A 
ATOM     70  C   UNL A   1      49.300  33.312  26.519  1.00  0.00     0.049 A 
ATOM     71  H   UNL A   1      48.177  31.525  26.472  1.00  0.00     0.167 HD
ATOM     72  C   UNL A   1      51.000  31.534  26.203  1.00  0.00     0.074 A 
ATOM     73  C   UNL A   1      52.361  31.073  26.018  1.00  0.00     0.031 C 
ATOM     74  C   UNL A   1      50.648  32.835  26.342  1.00  0.00     0.037 A 
BRANCH  61  75
ATOM     75  C   UNL A   1      44.570  33.752  26.963  1.00  0.00     0.057 A 
ATOM     76  C   UNL A   1      43.931  34.305  25.845  1.00  0.00     0.134 A 
ATOM     77  C   UNL A   1      44.094  34.120  28.227  1.00  0.00     0.134 A 
ATOM     78  F   UNL A   1      44.347  34.001  24.606  1.00  0.00    -0.206 F 
ATOM     79  C   UNL A   1      42.877  35.209  25.980  1.00  0.00     0.040 A 
ATOM     80  C   UNL A   1      43.024  35.004  28.374  1.00  0.00     0.040 A 
ATOM     81  F   UNL A   1      44.656  33.624  29.339  1.00  0.00    -0.206 F 
ATOM     82  C   UNL A   1      42.415  35.556  27.248  1.00  0.00     0.006 A 
ENDBRANCH  61  75
BRANCH  62  83
ATOM     83  C   UNL A   1      51.740  26.912  25.776  1.00  0.00     0.057 A 
ATOM     84  C   UNL A   1      52.403  26.335  26.865  1.00  0.00     0.134 A 
ATOM     85  C   UNL A   1      52.127  26.506  24.494  1.00  0.00     0.134 A 
ATOM     86  F   UNL A   1      52.088  26.698  28.117  1.00  0.00    -0.206 F 
ATOM     87  C   UNL A   1      53.426  25.403  26.687  1.00  0.00     0.040 A 
ATOM     88  C   UNL A   1      53.133  25.556  24.302  1.00  0.00     0.040 A 
ATOM     89  F   UNL A   1      51.526  27.016  23.410  1.00  0.00    -0.206 F 
ATOM     90  C   UNL A   1      53.791  25.008  25.402  1.00  0.00     0.006 A 
ENDBRANCH  62  83
BRANCH  74  91
ATOM     91  C   UNL A   1      51.753  33.850  26.331  1.00  0.00     0.057 A 
ATOM     92  C   UNL A   1      52.410  34.241  27.503  1.00  0.00     0.134 A 
ATOM     93  C   UNL A   1      52.191  34.409  25.124  1.00  0.00     0.134 A 
ATOM     94  F   UNL A   1      52.028  33.751  28.692  1.00  0.00    -0.206 F 
ATOM     95  C   UNL A   1      53.451  35.171  27.479  1.00  0.00     0.040 A 
ATOM     96  C   UNL A   1      53.247  35.321  25.084  1.00  0.00     0.040 A 
ATOM     97  F   UNL A   1      51.609  34.070  23.963  1.00  0.00    -0.206 F 
ATOM     98  C   UNL A   1      53.878  35.707  26.264  1.00  0.00     0.006 A 
ENDBRANCH  74  91
ENDBRANCH  48  49
ENDBRANCH  40  43
ENDBRANCH  38  39
ENDBRANCH  37  38
ENDBRANCH  36  37
ENDBRANCH  35  36
ENDBRANCH  34  35
ENDBRANCH  33  34
ENDBRANCH   3  33
TORSDOF 23
ENDMDL
