MODEL 1
REMARK VINA RESULT:     -10.5      0.000      0.000
REMARK SMILES CCOc1ccc2c(c1)=N[C@H](SCC(=O)NCCCCCCNC(=O)c1ccc(-c3c4nc(c(-c5c(F)cccc5F)c5ccc([nH]5)c(-c5c(F)cccc5F)c5nc(c(-c6c(F)cccc6F)c6ccc3[nH]6)C=C5)C=C4)cc1)N=2
REMARK SMILES IDX 18 1 17 2 16 3 14 4 15 5 13 7 12 8 11 9 4 10 5 11 9 12 6 13
REMARK SMILES IDX 8 14 7 15 10 16 80 17 3 18 2 19 1 20 19 21 20 22 21 23 22 24
REMARK SMILES IDX 23 25 24 26 25 28 26 29 27 30 79 31 28 32 78 33 29 34 30 35
REMARK SMILES IDX 31 36 72 37 32 38 77 39 71 40 73 41 33 42 76 43 70 44 69 45
REMARK SMILES IDX 34 47 60 48 43 49 59 50 44 51 47 52 58 53 74 54 45 55 46 56
REMARK SMILES IDX 57 58 75 59 48 60 35 61 36 62 41 63 37 64 38 65 40 66 42 67
REMARK SMILES IDX 39 68 61 69 62 70 67 71 63 72 64 73 66 74 68 75 65 76 49 77
REMARK SMILES IDX 50 78 55 79 51 80 52 81 54 82 56 83 53 84
REMARK H PARENT 16 6 23 27 73 46 47 57
REMARK Flexibility Score: inf
ROOT
ATOM      1  C   UNL A   1      35.217  23.956  24.431  1.00  0.00     0.021 C 
ENDROOT
BRANCH   1   2
ATOM      2  C   UNL A   1      33.981  24.620  23.816  1.00  0.00     0.116 C 
BRANCH   2   3
ATOM      3  N   UNL A   1      33.967  26.045  24.091  1.00  0.00    -0.355 N 
ATOM      4  C   UNL A   1      33.214  26.748  24.987  1.00  0.00     0.230 C 
ATOM      5  O   UNL A   1      33.268  27.980  24.946  1.00  0.00    -0.274 OA
ATOM      6  H   UNL A   1      34.590  26.584  23.553  1.00  0.00     0.163 HD
BRANCH   4   7
ATOM      7  C   UNL A   1      32.400  26.035  26.050  1.00  0.00     0.173 C 
BRANCH   7   8
ATOM      8  S   UNL A   1      30.759  25.520  25.482  1.00  0.00    -0.102 SA
BRANCH   8   9
ATOM      9  C   UNL A   1      30.575  23.953  26.432  1.00  0.00     0.281 C 
ATOM     10  C   UNL A   1      33.383  20.550  25.579  1.00  0.00     0.121 A 
ATOM     11  C   UNL A   1      34.083  21.169  26.691  1.00  0.00     0.049 A 
ATOM     12  C   UNL A   1      32.211  21.002  25.111  1.00  0.00     0.076 A 
ATOM     13  C   UNL A   1      33.595  22.207  27.385  1.00  0.00     0.034 A 
ATOM     14  C   UNL A   1      31.629  22.168  25.779  1.00  0.00     0.090 A 
ATOM     15  C   UNL A   1      32.325  22.775  26.932  1.00  0.00     0.087 A 
ATOM     16  N   UNL A   1      30.536  22.786  25.501  1.00  0.00    -0.246 NA
ATOM     17  N   UNL A   1      31.687  23.785  27.407  1.00  0.00    -0.246 NA
BRANCH  10  18
ATOM     18  O   UNL A   1      34.072  19.560  24.917  1.00  0.00    -0.494 OA
BRANCH  18  19
ATOM     19  C   UNL A   1      33.366  18.316  24.839  1.00  0.00     0.226 C 
ATOM     20  C   UNL A   1      33.303  17.835  23.399  1.00  0.00     0.049 C 
ENDBRANCH  18  19
ENDBRANCH  10  18
ENDBRANCH   8   9
ENDBRANCH   7   8
ENDBRANCH   4   7
ENDBRANCH   2   3
ENDBRANCH   1   2
BRANCH   1  21
ATOM     21  C   UNL A   1      35.639  22.651  23.740  1.00  0.00     0.002 C 
BRANCH  21  22
ATOM     22  C   UNL A   1      37.111  22.262  23.915  1.00  0.00     0.002 C 
BRANCH  22  23
ATOM     23  C   UNL A   1      37.352  20.918  24.602  1.00  0.00     0.021 C 
BRANCH  23  24
ATOM     24  C   UNL A   1      38.400  20.944  25.709  1.00  0.00     0.116 C 
BRANCH  24  25
ATOM     25  N   UNL A   1      39.346  19.841  25.617  1.00  0.00    -0.352 N 
ATOM     26  C   UNL A   1      40.686  19.825  25.933  1.00  0.00     0.251 C 
ATOM     27  H   UNL A   1      38.978  18.991  25.285  1.00  0.00     0.163 HD
ATOM     28  O   UNL A   1      41.379  18.847  25.669  1.00  0.00    -0.269 OA
BRANCH  26  29
ATOM     29  C   UNL A   1      41.296  21.017  26.560  1.00  0.00     0.039 A 
ATOM     30  C   UNL A   1      41.231  21.203  27.942  1.00  0.00     0.014 A 
ATOM     31  C   UNL A   1      41.895  21.982  25.746  1.00  0.00     0.014 A 
ATOM     32  C   UNL A   1      41.603  22.426  28.489  1.00  0.00     0.010 A 
ATOM     33  C   UNL A   1      42.342  23.181  26.309  1.00  0.00     0.010 A 
ATOM     34  C   UNL A   1      42.146  23.436  27.676  1.00  0.00    -0.014 A 
BRANCH  34  35
ATOM     35  C   UNL A   1      42.467  24.758  28.273  1.00  0.00     0.031 A 
ATOM     36  C   UNL A   1      43.885  25.114  28.632  1.00  0.00     0.074 A 
ATOM     37  C   UNL A   1      41.486  25.667  28.433  1.00  0.00     0.049 A 
ATOM     38  N   UNL A   1      44.357  26.230  29.131  1.00  0.00    -0.248 NA
ATOM     39  C   UNL A   1      44.909  24.082  28.405  1.00  0.00     0.031 C 
ATOM     40  C   UNL A   1      40.075  25.448  28.114  1.00  0.00     0.029 A 
ATOM     41  N   UNL A   1      41.533  26.963  28.878  1.00  0.00    -0.354 N 
ATOM     42  C   UNL A   1      45.722  26.029  29.294  1.00  0.00     0.074 A 
ATOM     43  C   UNL A   1      46.001  24.674  28.870  1.00  0.00     0.031 C 
ATOM     44  C   UNL A   1      39.397  26.587  28.327  1.00  0.00     0.029 A 
ATOM     45  C   UNL A   1      40.314  27.595  28.847  1.00  0.00     0.049 A 
ATOM     46  H   UNL A   1      42.359  27.398  29.189  1.00  0.00     0.167 HD
ATOM     47  C   UNL A   1      46.661  26.897  29.743  1.00  0.00     0.037 A 
ATOM     48  C   UNL A   1      39.971  28.845  29.207  1.00  0.00     0.037 A 
ATOM     49  C   UNL A   1      46.391  28.253  30.147  1.00  0.00     0.049 A 
ATOM     50  C   UNL A   1      41.023  29.773  29.738  1.00  0.00     0.074 A 
ATOM     51  C   UNL A   1      47.280  29.216  30.592  1.00  0.00     0.029 A 
ATOM     52  N   UNL A   1      45.134  28.838  30.154  1.00  0.00    -0.354 N 
ATOM     53  N   UNL A   1      42.311  29.571  29.876  1.00  0.00    -0.248 NA
ATOM     54  C   UNL A   1      40.571  31.103  30.173  1.00  0.00     0.031 C 
ATOM     55  C   UNL A   1      46.554  30.373  30.903  1.00  0.00     0.029 A 
ATOM     56  C   UNL A   1      45.219  30.141  30.616  1.00  0.00     0.049 A 
ATOM     57  H   UNL A   1      44.301  28.391  29.873  1.00  0.00     0.167 HD
ATOM     58  C   UNL A   1      42.824  30.747  30.406  1.00  0.00     0.074 A 
ATOM     59  C   UNL A   1      41.712  31.667  30.541  1.00  0.00     0.031 C 
ATOM     60  C   UNL A   1      44.101  31.038  30.756  1.00  0.00     0.037 A 
BRANCH  47  61
ATOM     61  C   UNL A   1      48.072  26.394  29.835  1.00  0.00     0.057 A 
ATOM     62  C   UNL A   1      48.534  25.773  31.003  1.00  0.00     0.134 A 
ATOM     63  C   UNL A   1      48.981  26.538  28.778  1.00  0.00     0.134 A 
ATOM     64  F   UNL A   1      47.718  25.609  32.055  1.00  0.00    -0.206 F 
ATOM     65  C   UNL A   1      49.846  25.309  31.113  1.00  0.00     0.040 A 
ATOM     66  C   UNL A   1      50.289  26.058  28.869  1.00  0.00     0.040 A 
ATOM     67  F   UNL A   1      48.598  27.112  27.627  1.00  0.00    -0.206 F 
ATOM     68  C   UNL A   1      50.726  25.445  30.041  1.00  0.00     0.006 A 
ENDBRANCH  47  61
BRANCH  48  69
ATOM     69  C   UNL A   1      38.562  29.287  29.082  1.00  0.00     0.057 A 
ATOM     70  C   UNL A   1      38.044  29.734  27.861  1.00  0.00     0.134 A 
ATOM     71  C   UNL A   1      37.701  29.276  30.186  1.00  0.00     0.134 A 
ATOM     72  F   UNL A   1      38.823  29.771  26.769  1.00  0.00    -0.206 F 
ATOM     73  C   UNL A   1      36.724  30.168  27.742  1.00  0.00     0.040 A 
ATOM     74  C   UNL A   1      36.370  29.685  30.076  1.00  0.00     0.040 A 
ATOM     75  F   UNL A   1      38.135  28.839  31.377  1.00  0.00    -0.206 F 
ATOM     76  C   UNL A   1      35.881  30.138  28.852  1.00  0.00     0.006 A 
ENDBRANCH  48  69
BRANCH  60  77
ATOM     77  C   UNL A   1      44.355  32.410  31.306  1.00  0.00     0.057 A 
ATOM     78  C   UNL A   1      44.625  33.485  30.453  1.00  0.00     0.134 A 
ATOM     79  C   UNL A   1      44.336  32.661  32.683  1.00  0.00     0.134 A 
ATOM     80  F   UNL A   1      44.662  33.309  29.123  1.00  0.00    -0.206 F 
ATOM     81  C   UNL A   1      44.865  34.767  30.951  1.00  0.00     0.040 A 
ATOM     82  C   UNL A   1      44.553  33.943  33.192  1.00  0.00     0.040 A 
ATOM     83  F   UNL A   1      44.066  31.675  33.552  1.00  0.00    -0.206 F 
ATOM     84  C   UNL A   1      44.822  35.000  32.324  1.00  0.00     0.006 A 
ENDBRANCH  60  77
ENDBRANCH  34  35
ENDBRANCH  26  29
ENDBRANCH  24  25
ENDBRANCH  23  24
ENDBRANCH  22  23
ENDBRANCH  21  22
ENDBRANCH   1  21
TORSDOF 17
ENDMDL
MODEL 2
REMARK VINA RESULT:     -10.4      0.313      6.207
REMARK SMILES CCOc1ccc2c(c1)=N[C@H](SCC(=O)NCCCCCCNC(=O)c1ccc(-c3c4nc(c(-c5c(F)cccc5F)c5ccc([nH]5)c(-c5c(F)cccc5F)c5nc(c(-c6c(F)cccc6F)c6ccc3[nH]6)C=C5)C=C4)cc1)N=2
REMARK SMILES IDX 18 1 17 2 16 3 14 4 15 5 13 7 12 8 11 9 4 10 5 11 9 12 6 13
REMARK SMILES IDX 8 14 7 15 10 16 80 17 3 18 2 19 1 20 19 21 20 22 21 23 22 24
REMARK SMILES IDX 23 25 24 26 25 28 26 29 27 30 79 31 28 32 78 33 29 34 30 35
REMARK SMILES IDX 31 36 72 37 32 38 77 39 71 40 73 41 33 42 76 43 70 44 69 45
REMARK SMILES IDX 34 47 60 48 43 49 59 50 44 51 47 52 58 53 74 54 45 55 46 56
REMARK SMILES IDX 57 58 75 59 48 60 35 61 36 62 41 63 37 64 38 65 40 66 42 67
REMARK SMILES IDX 39 68 61 69 62 70 67 71 63 72 64 73 66 74 68 75 65 76 49 77
REMARK SMILES IDX 50 78 55 79 51 80 52 81 54 82 56 83 53 84
REMARK H PARENT 16 6 23 27 73 46 47 57
REMARK Flexibility Score: inf
ROOT
ATOM      1  C   UNL A   1      35.129  24.059  24.602  1.00  0.00     0.021 C 
ENDROOT
BRANCH   1   2
ATOM      2  C   UNL A   1      33.971  24.804  23.930  1.00  0.00     0.116 C 
BRANCH   2   3
ATOM      3  N   UNL A   1      34.012  26.220  24.245  1.00  0.00    -0.355 N 
ATOM      4  C   UNL A   1      33.247  26.937  25.118  1.00  0.00     0.230 C 
ATOM      5  O   UNL A   1      33.364  28.165  25.115  1.00  0.00    -0.274 OA
ATOM      6  H   UNL A   1      34.690  26.740  23.756  1.00  0.00     0.163 HD
BRANCH   4   7
ATOM      7  C   UNL A   1      32.340  26.239  26.115  1.00  0.00     0.173 C 
BRANCH   7   8
ATOM      8  S   UNL A   1      30.770  25.688  25.403  1.00  0.00    -0.102 SA
BRANCH   8   9
ATOM      9  C   UNL A   1      30.517  24.136  26.363  1.00  0.00     0.281 C 
ATOM     10  C   UNL A   1      33.321  20.688  25.699  1.00  0.00     0.121 A 
ATOM     11  C   UNL A   1      33.971  21.314  26.837  1.00  0.00     0.049 A 
ATOM     12  C   UNL A   1      32.180  21.147  25.166  1.00  0.00     0.076 A 
ATOM     13  C   UNL A   1      33.462  22.367  27.492  1.00  0.00     0.034 A 
ATOM     14  C   UNL A   1      31.580  22.329  25.789  1.00  0.00     0.090 A 
ATOM     15  C   UNL A   1      32.224  22.943  26.967  1.00  0.00     0.087 A 
ATOM     16  N   UNL A   1      30.511  22.957  25.447  1.00  0.00    -0.246 NA
ATOM     17  N   UNL A   1      31.576  23.968  27.396  1.00  0.00    -0.246 NA
BRANCH  10  18
ATOM     18  O   UNL A   1      34.030  19.680  25.086  1.00  0.00    -0.494 OA
BRANCH  18  19
ATOM     19  C   UNL A   1      33.206  18.676  24.484  1.00  0.00     0.226 C 
ATOM     20  C   UNL A   1      32.837  17.613  25.505  1.00  0.00     0.049 C 
ENDBRANCH  18  19
ENDBRANCH  10  18
ENDBRANCH   8   9
ENDBRANCH   7   8
ENDBRANCH   4   7
ENDBRANCH   2   3
ENDBRANCH   1   2
BRANCH   1  21
ATOM     21  C   UNL A   1      35.586  22.799  23.851  1.00  0.00     0.002 C 
BRANCH  21  22
ATOM     22  C   UNL A   1      37.073  22.456  23.989  1.00  0.00     0.002 C 
BRANCH  22  23
ATOM     23  C   UNL A   1      37.372  21.076  24.575  1.00  0.00     0.021 C 
BRANCH  23  24
ATOM     24  C   UNL A   1      38.382  21.070  25.717  1.00  0.00     0.116 C 
BRANCH  24  25
ATOM     25  N   UNL A   1      39.277  19.923  25.673  1.00  0.00    -0.352 N 
ATOM     26  C   UNL A   1      40.616  19.860  25.985  1.00  0.00     0.251 C 
ATOM     27  H   UNL A   1      38.869  19.076  25.381  1.00  0.00     0.163 HD
ATOM     28  O   UNL A   1      41.263  18.841  25.764  1.00  0.00    -0.269 OA
BRANCH  26  29
ATOM     29  C   UNL A   1      41.284  21.051  26.554  1.00  0.00     0.039 A 
ATOM     30  C   UNL A   1      41.243  21.297  27.927  1.00  0.00     0.014 A 
ATOM     31  C   UNL A   1      41.912  21.955  25.694  1.00  0.00     0.014 A 
ATOM     32  C   UNL A   1      41.672  22.526  28.418  1.00  0.00     0.010 A 
ATOM     33  C   UNL A   1      42.415  23.157  26.201  1.00  0.00     0.010 A 
ATOM     34  C   UNL A   1      42.247  23.477  27.558  1.00  0.00    -0.014 A 
BRANCH  34  35
ATOM     35  C   UNL A   1      42.629  24.808  28.094  1.00  0.00     0.031 A 
ATOM     36  C   UNL A   1      41.586  25.868  28.331  1.00  0.00     0.074 A 
ATOM     37  C   UNL A   1      43.912  25.042  28.432  1.00  0.00     0.049 A 
ATOM     38  N   UNL A   1      41.730  27.074  28.823  1.00  0.00    -0.248 NA
ATOM     39  C   UNL A   1      40.201  25.534  27.965  1.00  0.00     0.031 C 
ATOM     40  C   UNL A   1      45.013  24.094  28.263  1.00  0.00     0.029 A 
ATOM     41  N   UNL A   1      44.498  26.138  29.011  1.00  0.00    -0.354 N 
ATOM     42  C   UNL A   1      40.463  27.646  28.809  1.00  0.00     0.074 A 
ATOM     43  C   UNL A   1      39.567  26.667  28.231  1.00  0.00     0.031 C 
ATOM     44  C   UNL A   1      46.133  24.629  28.772  1.00  0.00     0.029 A 
ATOM     45  C   UNL A   1      45.840  25.975  29.253  1.00  0.00     0.049 A 
ATOM     46  H   UNL A   1      44.005  26.960  29.232  1.00  0.00     0.167 HD
ATOM     47  C   UNL A   1      40.078  28.869  29.248  1.00  0.00     0.037 A 
ATOM     48  C   UNL A   1      46.737  26.820  29.793  1.00  0.00     0.037 A 
ATOM     49  C   UNL A   1      40.963  29.837  29.841  1.00  0.00     0.049 A 
ATOM     50  C   UNL A   1      46.292  28.183  30.235  1.00  0.00     0.074 A 
ATOM     51  C   UNL A   1      40.662  31.093  30.340  1.00  0.00     0.029 A 
ATOM     52  N   UNL A   1      42.327  29.657  30.017  1.00  0.00    -0.354 N 
ATOM     53  N   UNL A   1      45.089  28.704  30.223  1.00  0.00    -0.248 NA
ATOM     54  C   UNL A   1      47.333  29.079  30.757  1.00  0.00     0.031 C 
ATOM     55  C   UNL A   1      41.850  31.686  30.784  1.00  0.00     0.029 A 
ATOM     56  C   UNL A   1      42.885  30.785  30.596  1.00  0.00     0.049 A 
ATOM     57  H   UNL A   1      42.825  28.845  29.766  1.00  0.00     0.167 HD
ATOM     58  C   UNL A   1      45.227  29.985  30.741  1.00  0.00     0.074 A 
ATOM     59  C   UNL A   1      46.626  30.152  31.081  1.00  0.00     0.031 C 
ATOM     60  C   UNL A   1      44.281  30.939  30.915  1.00  0.00     0.037 A 
BRANCH  47  61
ATOM     61  C   UNL A   1      38.631  29.232  29.085  1.00  0.00     0.057 A 
ATOM     62  C   UNL A   1      38.136  29.655  27.844  1.00  0.00     0.134 A 
ATOM     63  C   UNL A   1      37.729  29.181  30.156  1.00  0.00     0.134 A 
ATOM     64  F   UNL A   1      38.947  29.733  26.779  1.00  0.00    -0.206 F 
ATOM     65  C   UNL A   1      36.796  30.009  27.675  1.00  0.00     0.040 A 
ATOM     66  C   UNL A   1      36.382  29.511  29.993  1.00  0.00     0.040 A 
ATOM     67  F   UNL A   1      38.135  28.771  31.368  1.00  0.00    -0.206 F 
ATOM     68  C   UNL A   1      35.913  29.930  28.749  1.00  0.00     0.006 A 
ENDBRANCH  47  61
BRANCH  48  69
ATOM     69  C   UNL A   1      48.151  26.399  29.937  1.00  0.00     0.057 A 
ATOM     70  C   UNL A   1      49.081  26.606  28.912  1.00  0.00     0.134 A 
ATOM     71  C   UNL A   1      48.603  25.776  31.106  1.00  0.00     0.134 A 
ATOM     72  F   UNL A   1      48.705  27.195  27.767  1.00  0.00    -0.206 F 
ATOM     73  C   UNL A   1      50.408  26.196  29.035  1.00  0.00     0.040 A 
ATOM     74  C   UNL A   1      49.935  25.382  31.253  1.00  0.00     0.040 A 
ATOM     75  F   UNL A   1      47.763  25.570  32.130  1.00  0.00    -0.206 F 
ATOM     76  C   UNL A   1      50.839  25.587  30.213  1.00  0.00     0.006 A 
ENDBRANCH  48  69
BRANCH  60  77
ATOM     77  C   UNL A   1      44.734  32.240  31.507  1.00  0.00     0.057 A 
ATOM     78  C   UNL A   1      45.159  33.291  30.687  1.00  0.00     0.134 A 
ATOM     79  C   UNL A   1      44.755  32.447  32.892  1.00  0.00     0.134 A 
ATOM     80  F   UNL A   1      45.168  33.155  29.352  1.00  0.00    -0.206 F 
ATOM     81  C   UNL A   1      45.586  34.507  31.224  1.00  0.00     0.040 A 
ATOM     82  C   UNL A   1      45.159  33.666  33.440  1.00  0.00     0.040 A 
ATOM     83  F   UNL A   1      44.344  31.484  33.731  1.00  0.00    -0.206 F 
ATOM     84  C   UNL A   1      45.579  34.699  32.604  1.00  0.00     0.006 A 
ENDBRANCH  60  77
ENDBRANCH  34  35
ENDBRANCH  26  29
ENDBRANCH  24  25
ENDBRANCH  23  24
ENDBRANCH  22  23
ENDBRANCH  21  22
ENDBRANCH   1  21
TORSDOF 17
ENDMDL
MODEL 3
REMARK VINA RESULT:     -10.4      3.991      8.888
REMARK SMILES CCOc1ccc2c(c1)=N[C@H](SCC(=O)NCCCCCCNC(=O)c1ccc(-c3c4nc(c(-c5c(F)cccc5F)c5ccc([nH]5)c(-c5c(F)cccc5F)c5nc(c(-c6c(F)cccc6F)c6ccc3[nH]6)C=C5)C=C4)cc1)N=2
REMARK SMILES IDX 18 1 17 2 16 3 14 4 15 5 13 7 12 8 11 9 4 10 5 11 9 12 6 13
REMARK SMILES IDX 8 14 7 15 10 16 80 17 3 18 2 19 1 20 19 21 20 22 21 23 22 24
REMARK SMILES IDX 23 25 24 26 25 28 26 29 27 30 79 31 28 32 78 33 29 34 30 35
REMARK SMILES IDX 31 36 72 37 32 38 77 39 71 40 73 41 33 42 76 43 70 44 69 45
REMARK SMILES IDX 34 47 60 48 43 49 59 50 44 51 47 52 58 53 74 54 45 55 46 56
REMARK SMILES IDX 57 58 75 59 48 60 35 61 36 62 41 63 37 64 38 65 40 66 42 67
REMARK SMILES IDX 39 68 61 69 62 70 67 71 63 72 64 73 66 74 68 75 65 76 49 77
REMARK SMILES IDX 50 78 55 79 51 80 52 81 54 82 56 83 53 84
REMARK H PARENT 16 6 23 27 73 46 47 57
REMARK Flexibility Score: inf
ROOT
ATOM      1  C   UNL A   1      33.028  26.244  25.945  1.00  0.00     0.021 C 
ENDROOT
BRANCH   1   2
ATOM      2  C   UNL A   1      31.575  25.766  25.870  1.00  0.00     0.116 C 
BRANCH   2   3
ATOM      3  N   UNL A   1      31.465  24.375  26.270  1.00  0.00    -0.355 N 
ATOM      4  C   UNL A   1      31.271  23.264  25.501  1.00  0.00     0.230 C 
ATOM      5  O   UNL A   1      31.064  22.192  26.075  1.00  0.00    -0.274 OA
ATOM      6  H   UNL A   1      31.540  24.207  27.237  1.00  0.00     0.163 HD
BRANCH   4   7
ATOM      7  C   UNL A   1      31.387  23.333  23.989  1.00  0.00     0.173 C 
BRANCH   7   8
ATOM      8  S   UNL A   1      33.097  23.380  23.395  1.00  0.00    -0.102 SA
BRANCH   8   9
ATOM      9  C   UNL A   1      32.912  24.569  22.000  1.00  0.00     0.281 C 
ATOM     10  C   UNL A   1      31.280  28.670  22.840  1.00  0.00     0.121 A 
ATOM     11  C   UNL A   1      32.702  28.954  22.924  1.00  0.00     0.049 A 
ATOM     12  C   UNL A   1      30.792  27.457  22.543  1.00  0.00     0.076 A 
ATOM     13  C   UNL A   1      33.652  28.048  22.654  1.00  0.00     0.034 A 
ATOM     14  C   UNL A   1      31.763  26.392  22.284  1.00  0.00     0.090 A 
ATOM     15  C   UNL A   1      33.209  26.690  22.335  1.00  0.00     0.087 A 
ATOM     16  N   UNL A   1      31.539  25.158  22.002  1.00  0.00    -0.246 NA
ATOM     17  N   UNL A   1      33.927  25.654  22.084  1.00  0.00    -0.246 NA
BRANCH  10  18
ATOM     18  O   UNL A   1      30.444  29.686  23.246  1.00  0.00    -0.494 OA
BRANCH  18  19
ATOM     19  C   UNL A   1      29.323  29.894  22.380  1.00  0.00     0.226 C 
ATOM     20  C   UNL A   1      28.168  30.510  23.151  1.00  0.00     0.049 C 
ENDBRANCH  18  19
ENDBRANCH  10  18
ENDBRANCH   8   9
ENDBRANCH   7   8
ENDBRANCH   4   7
ENDBRANCH   2   3
ENDBRANCH   1   2
BRANCH   1  21
ATOM     21  C   UNL A   1      33.195  27.666  26.501  1.00  0.00     0.002 C 
BRANCH  21  22
ATOM     22  C   UNL A   1      31.989  28.217  27.268  1.00  0.00     0.002 C 
BRANCH  22  23
ATOM     23  C   UNL A   1      31.403  29.517  26.717  1.00  0.00     0.021 C 
BRANCH  23  24
ATOM     24  C   UNL A   1      32.430  30.499  26.166  1.00  0.00     0.116 C 
BRANCH  24  25
ATOM     25  N   UNL A   1      32.231  31.857  26.651  1.00  0.00    -0.352 N 
ATOM     26  C   UNL A   1      33.028  32.598  27.493  1.00  0.00     0.251 C 
ATOM     27  H   UNL A   1      31.416  32.307  26.332  1.00  0.00     0.163 HD
ATOM     28  O   UNL A   1      32.648  33.686  27.918  1.00  0.00    -0.269 OA
BRANCH  26  29
ATOM     29  C   UNL A   1      34.334  32.053  27.920  1.00  0.00     0.039 A 
ATOM     30  C   UNL A   1      34.456  30.712  28.287  1.00  0.00     0.014 A 
ATOM     31  C   UNL A   1      35.435  32.910  28.003  1.00  0.00     0.014 A 
ATOM     32  C   UNL A   1      35.625  30.270  28.899  1.00  0.00     0.010 A 
ATOM     33  C   UNL A   1      36.636  32.443  28.547  1.00  0.00     0.010 A 
ATOM     34  C   UNL A   1      36.721  31.136  29.052  1.00  0.00    -0.014 A 
BRANCH  34  35
ATOM     35  C   UNL A   1      37.929  30.660  29.775  1.00  0.00     0.031 A 
ATOM     36  C   UNL A   1      38.160  31.039  31.214  1.00  0.00     0.074 A 
ATOM     37  C   UNL A   1      38.788  29.830  29.154  1.00  0.00     0.049 A 
ATOM     38  N   UNL A   1      39.139  30.691  32.014  1.00  0.00    -0.248 NA
ATOM     39  C   UNL A   1      37.166  31.926  31.838  1.00  0.00     0.031 C 
ATOM     40  C   UNL A   1      38.669  29.380  27.766  1.00  0.00     0.029 A 
ATOM     41  N   UNL A   1      39.913  29.198  29.617  1.00  0.00    -0.354 N 
ATOM     42  C   UNL A   1      38.889  31.329  33.223  1.00  0.00     0.074 A 
ATOM     43  C   UNL A   1      37.683  32.109  33.045  1.00  0.00     0.031 C 
ATOM     44  C   UNL A   1      39.654  28.507  27.504  1.00  0.00     0.029 A 
ATOM     45  C   UNL A   1      40.501  28.378  28.685  1.00  0.00     0.049 A 
ATOM     46  H   UNL A   1      40.266  29.321  30.527  1.00  0.00     0.167 HD
ATOM     47  C   UNL A   1      39.591  31.261  34.380  1.00  0.00     0.037 A 
ATOM     48  C   UNL A   1      41.605  27.613  28.769  1.00  0.00     0.037 A 
ATOM     49  C   UNL A   1      40.780  30.470  34.566  1.00  0.00     0.049 A 
ATOM     50  C   UNL A   1      42.386  27.587  30.050  1.00  0.00     0.074 A 
ATOM     51  C   UNL A   1      41.546  30.317  35.709  1.00  0.00     0.029 A 
ATOM     52  N   UNL A   1      41.375  29.697  33.582  1.00  0.00    -0.354 N 
ATOM     53  N   UNL A   1      42.131  28.188  31.187  1.00  0.00    -0.248 NA
ATOM     54  C   UNL A   1      43.616  26.783  30.056  1.00  0.00     0.031 C 
ATOM     55  C   UNL A   1      42.626  29.480  35.404  1.00  0.00     0.029 A 
ATOM     56  C   UNL A   1      42.511  29.081  34.083  1.00  0.00     0.049 A 
ATOM     57  H   UNL A   1      41.040  29.600  32.660  1.00  0.00     0.167 HD
ATOM     58  C   UNL A   1      43.162  27.830  32.044  1.00  0.00     0.074 A 
ATOM     59  C   UNL A   1      44.033  26.939  31.304  1.00  0.00     0.031 C 
ATOM     60  C   UNL A   1      43.373  28.208  33.329  1.00  0.00     0.037 A 
BRANCH  47  61
ATOM     61  C   UNL A   1      39.094  32.083  35.533  1.00  0.00     0.057 A 
ATOM     62  C   UNL A   1      39.486  33.420  35.678  1.00  0.00     0.134 A 
ATOM     63  C   UNL A   1      38.243  31.551  36.510  1.00  0.00     0.134 A 
ATOM     64  F   UNL A   1      40.305  33.991  34.782  1.00  0.00    -0.206 F 
ATOM     65  C   UNL A   1      39.045  34.199  36.750  1.00  0.00     0.040 A 
ATOM     66  C   UNL A   1      37.777  32.326  37.574  1.00  0.00     0.040 A 
ATOM     67  F   UNL A   1      37.819  30.280  36.423  1.00  0.00    -0.206 F 
ATOM     68  C   UNL A   1      38.181  33.654  37.698  1.00  0.00     0.006 A 
ENDBRANCH  47  61
BRANCH  48  69
ATOM     69  C   UNL A   1      42.039  26.815  27.599  1.00  0.00     0.057 A 
ATOM     70  C   UNL A   1      41.667  25.474  27.454  1.00  0.00     0.134 A 
ATOM     71  C   UNL A   1      42.841  27.376  26.599  1.00  0.00     0.134 A 
ATOM     72  F   UNL A   1      40.903  24.879  28.382  1.00  0.00    -0.206 F 
ATOM     73  C   UNL A   1      42.088  24.712  26.364  1.00  0.00     0.040 A 
ATOM     74  C   UNL A   1      43.250  26.633  25.490  1.00  0.00     0.040 A 
ATOM     75  F   UNL A   1      43.212  28.663  26.673  1.00  0.00    -0.206 F 
ATOM     76  C   UNL A   1      42.877  25.295  25.374  1.00  0.00     0.006 A 
ENDBRANCH  48  69
BRANCH  60  77
ATOM     77  C   UNL A   1      44.587  27.649  34.007  1.00  0.00     0.057 A 
ATOM     78  C   UNL A   1      44.531  26.424  34.681  1.00  0.00     0.134 A 
ATOM     79  C   UNL A   1      45.811  28.329  33.997  1.00  0.00     0.134 A 
ATOM     80  F   UNL A   1      43.387  25.725  34.732  1.00  0.00    -0.206 F 
ATOM     81  C   UNL A   1      45.652  25.891  35.319  1.00  0.00     0.040 A 
ATOM     82  C   UNL A   1      46.945  27.796  34.612  1.00  0.00     0.040 A 
ATOM     83  F   UNL A   1      45.934  29.500  33.353  1.00  0.00    -0.206 F 
ATOM     84  C   UNL A   1      46.866  26.575  35.279  1.00  0.00     0.006 A 
ENDBRANCH  60  77
ENDBRANCH  34  35
ENDBRANCH  26  29
ENDBRANCH  24  25
ENDBRANCH  23  24
ENDBRANCH  22  23
ENDBRANCH  21  22
ENDBRANCH   1  21
TORSDOF 17
ENDMDL
