MODEL 1
REMARK VINA RESULT:     -11.1      0.000      0.000
REMARK SMILES CC(C)[C@H](CCc1ccc2c(c1)CCO2)C(=O)NCCCCCCNC(=O)c1ccc(-c2c3nc(c(-c4c(F)cccc4F)c4ccc([nH]4)c(-c4c(F)cccc4F)c4nc(c(-c5c(F)cccc5F)c5ccc2[nH]5)C=C4)C=C3)cc1
REMARK SMILES IDX 21 1 20 2 19 3 18 4 16 5 17 6 4 8 2 9 1 10 3 11 5 12 6 13
REMARK SMILES IDX 7 14 8 15 12 16 9 17 11 18 10 19 13 20 15 21 14 22 22 23
REMARK SMILES IDX 23 24 24 25 25 26 26 27 27 29 28 30 29 31 81 32 30 33 80 34
REMARK SMILES IDX 31 35 32 36 33 37 74 38 34 39 79 40 73 41 75 42 35 43 78 44
REMARK SMILES IDX 72 45 71 46 36 48 62 49 45 50 61 51 46 52 49 53 60 54 76 55
REMARK SMILES IDX 47 56 48 57 59 59 77 60 50 61 37 62 38 63 43 64 39 65 40 66
REMARK SMILES IDX 42 67 44 68 41 69 63 70 64 71 69 72 65 73 66 74 68 75 70 76
REMARK SMILES IDX 67 77 51 78 52 79 57 80 53 81 54 82 56 83 58 84 55 85
REMARK H PARENT 18 7 25 28 75 47 49 58
REMARK Flexibility Score: inf
ROOT
ATOM      1  C   UNL A   1      37.400  22.391  25.248  1.00  0.00     0.002 C 
ENDROOT
BRANCH   1   2
ATOM      2  C   UNL A   1      36.567  23.571  24.739  1.00  0.00     0.021 C 
BRANCH   2   3
ATOM      3  C   UNL A   1      35.842  23.261  23.435  1.00  0.00     0.116 C 
BRANCH   3   4
ATOM      4  N   UNL A   1      34.630  24.025  23.318  1.00  0.00    -0.356 N 
ATOM      5  C   UNL A   1      33.405  23.798  23.850  1.00  0.00     0.223 C 
ATOM      6  O   UNL A   1      32.541  24.654  23.626  1.00  0.00    -0.275 OA
ATOM      7  H   UNL A   1      34.702  24.838  22.767  1.00  0.00     0.163 HD
BRANCH   5   8
ATOM      8  C   UNL A   1      33.080  22.582  24.731  1.00  0.00     0.081 C 
BRANCH   8   9
ATOM      9  C   UNL A   1      33.255  22.793  26.262  1.00  0.00    -0.005 C 
ATOM     10  C   UNL A   1      32.000  23.183  27.047  1.00  0.00     0.008 C 
ATOM     11  C   UNL A   1      33.886  21.563  26.932  1.00  0.00     0.008 C 
ENDBRANCH   8   9
BRANCH   8  12
ATOM     12  C   UNL A   1      33.407  21.178  24.120  1.00  0.00     0.018 C 
BRANCH  12  13
ATOM     13  C   UNL A   1      32.468  19.944  24.113  1.00  0.00     0.036 C 
BRANCH  13  14
ATOM     14  C   UNL A   1      33.040  18.646  24.631  1.00  0.00    -0.047 A 
ATOM     15  C   UNL A   1      34.395  18.330  24.397  1.00  0.00     0.007 A 
ATOM     16  C   UNL A   1      32.207  17.692  25.239  1.00  0.00     0.011 A 
ATOM     17  C   UNL A   1      34.894  17.052  24.667  1.00  0.00     0.047 A 
ATOM     18  C   UNL A   1      32.691  16.406  25.403  1.00  0.00    -0.002 A 
ATOM     19  C   UNL A   1      34.011  16.100  25.127  1.00  0.00     0.122 A 
ATOM     20  C   UNL A   1      31.935  15.156  25.628  1.00  0.00     0.081 C 
ATOM     21  O   UNL A   1      34.308  14.769  25.263  1.00  0.00    -0.493 OA
ATOM     22  C   UNL A   1      33.105  14.194  25.831  1.00  0.00     0.234 C 
ENDBRANCH  13  14
ENDBRANCH  12  13
ENDBRANCH   8  12
ENDBRANCH   5   8
ENDBRANCH   3   4
ENDBRANCH   2   3
ENDBRANCH   1   2
BRANCH   1  23
ATOM     23  C   UNL A   1      36.958  21.022  24.711  1.00  0.00     0.002 C 
BRANCH  23  24
ATOM     24  C   UNL A   1      37.937  19.877  24.986  1.00  0.00     0.021 C 
BRANCH  24  25
ATOM     25  C   UNL A   1      39.136  20.279  25.836  1.00  0.00     0.116 C 
BRANCH  25  26
ATOM     26  N   UNL A   1      40.122  19.211  25.908  1.00  0.00    -0.352 N 
ATOM     27  C   UNL A   1      41.483  19.303  26.072  1.00  0.00     0.251 C 
ATOM     28  H   UNL A   1      39.764  18.298  25.829  1.00  0.00     0.163 HD
ATOM     29  O   UNL A   1      42.202  18.334  25.890  1.00  0.00    -0.269 OA
BRANCH  27  30
ATOM     30  C   UNL A   1      42.064  20.601  26.466  1.00  0.00     0.039 A 
ATOM     31  C   UNL A   1      42.472  21.496  25.475  1.00  0.00     0.014 A 
ATOM     32  C   UNL A   1      42.193  20.927  27.819  1.00  0.00     0.014 A 
ATOM     33  C   UNL A   1      42.965  22.749  25.843  1.00  0.00     0.010 A 
ATOM     34  C   UNL A   1      42.615  22.199  28.180  1.00  0.00     0.010 A 
ATOM     35  C   UNL A   1      43.014  23.118  27.197  1.00  0.00    -0.014 A 
BRANCH  35  36
ATOM     36  C   UNL A   1      43.512  24.445  27.629  1.00  0.00     0.031 A 
ATOM     37  C   UNL A   1      42.527  25.496  28.060  1.00  0.00     0.074 A 
ATOM     38  C   UNL A   1      44.823  24.734  27.545  1.00  0.00     0.049 A 
ATOM     39  N   UNL A   1      42.727  26.762  28.321  1.00  0.00    -0.248 NA
ATOM     40  C   UNL A   1      41.122  25.071  28.179  1.00  0.00     0.031 C 
ATOM     41  C   UNL A   1      45.871  23.806  27.115  1.00  0.00     0.029 A 
ATOM     42  N   UNL A   1      45.496  25.903  27.796  1.00  0.00    -0.354 N 
ATOM     43  C   UNL A   1      41.474  27.288  28.609  1.00  0.00     0.074 A 
ATOM     44  C   UNL A   1      40.515  26.217  28.442  1.00  0.00     0.031 C 
ATOM     45  C   UNL A   1      47.056  24.438  27.144  1.00  0.00     0.029 A 
ATOM     46  C   UNL A   1      46.845  25.825  27.547  1.00  0.00     0.049 A 
ATOM     47  H   UNL A   1      45.054  26.720  28.123  1.00  0.00     0.167 HD
ATOM     48  C   UNL A   1      41.154  28.544  28.998  1.00  0.00     0.037 A 
ATOM     49  C   UNL A   1      47.798  26.773  27.620  1.00  0.00     0.037 A 
ATOM     50  C   UNL A   1      42.117  29.595  29.188  1.00  0.00     0.049 A 
ATOM     51  C   UNL A   1      47.417  28.167  28.036  1.00  0.00     0.074 A 
ATOM     52  C   UNL A   1      41.904  30.891  29.625  1.00  0.00     0.029 A 
ATOM     53  N   UNL A   1      43.478  29.469  28.955  1.00  0.00    -0.354 N 
ATOM     54  N   UNL A   1      46.236  28.642  28.350  1.00  0.00    -0.248 NA
ATOM     55  C   UNL A   1      48.500  29.157  28.112  1.00  0.00     0.031 C 
ATOM     56  C   UNL A   1      43.132  31.561  29.617  1.00  0.00     0.029 A 
ATOM     57  C   UNL A   1      44.116  30.668  29.223  1.00  0.00     0.049 A 
ATOM     58  H   UNL A   1      43.925  28.648  28.642  1.00  0.00     0.167 HD
ATOM     59  C   UNL A   1      46.440  29.971  28.698  1.00  0.00     0.074 A 
ATOM     60  C   UNL A   1      47.857  30.228  28.557  1.00  0.00     0.031 C 
ATOM     61  C   UNL A   1      45.534  30.896  29.102  1.00  0.00     0.037 A 
BRANCH  48  62
ATOM     62  C   UNL A   1      39.704  28.845  29.241  1.00  0.00     0.057 A 
ATOM     63  C   UNL A   1      39.130  28.740  30.515  1.00  0.00     0.134 A 
ATOM     64  C   UNL A   1      38.875  29.266  28.193  1.00  0.00     0.134 A 
ATOM     65  F   UNL A   1      39.864  28.328  31.560  1.00  0.00    -0.206 F 
ATOM     66  C   UNL A   1      37.778  29.012  30.732  1.00  0.00     0.040 A 
ATOM     67  C   UNL A   1      37.529  29.571  28.405  1.00  0.00     0.040 A 
ATOM     68  F   UNL A   1      39.361  29.395  26.949  1.00  0.00    -0.206 F 
ATOM     69  C   UNL A   1      36.975  29.435  29.675  1.00  0.00     0.006 A 
ENDBRANCH  48  62
BRANCH  49  70
ATOM     70  C   UNL A   1      49.211  26.434  27.311  1.00  0.00     0.057 A 
ATOM     71  C   UNL A   1      49.710  26.553  26.009  1.00  0.00     0.134 A 
ATOM     72  C   UNL A   1      50.090  25.977  28.299  1.00  0.00     0.134 A 
ATOM     73  F   UNL A   1      48.911  26.969  25.015  1.00  0.00    -0.206 F 
ATOM     74  C   UNL A   1      51.026  26.210  25.695  1.00  0.00     0.040 A 
ATOM     75  C   UNL A   1      51.417  25.654  28.005  1.00  0.00     0.040 A 
ATOM     76  F   UNL A   1      49.677  25.851  29.569  1.00  0.00    -0.206 F 
ATOM     77  C   UNL A   1      51.885  25.762  26.698  1.00  0.00     0.006 A 
ENDBRANCH  49  70
BRANCH  61  78
ATOM     78  C   UNL A   1      46.051  32.251  29.483  1.00  0.00     0.057 A 
ATOM     79  C   UNL A   1      46.490  32.542  30.779  1.00  0.00     0.134 A 
ATOM     80  C   UNL A   1      46.172  33.258  28.516  1.00  0.00     0.134 A 
ATOM     81  F   UNL A   1      46.390  31.625  31.753  1.00  0.00    -0.206 F 
ATOM     82  C   UNL A   1      47.018  33.793  31.105  1.00  0.00     0.040 A 
ATOM     83  C   UNL A   1      46.722  34.502  28.823  1.00  0.00     0.040 A 
ATOM     84  F   UNL A   1      45.777  33.040  27.252  1.00  0.00    -0.206 F 
ATOM     85  C   UNL A   1      47.144  34.774  30.122  1.00  0.00     0.006 A 
ENDBRANCH  61  78
ENDBRANCH  35  36
ENDBRANCH  27  30
ENDBRANCH  25  26
ENDBRANCH  24  25
ENDBRANCH  23  24
ENDBRANCH   1  23
TORSDOF 17
ENDMDL
MODEL 2
REMARK VINA RESULT:     -11.0      1.555      6.315
REMARK SMILES CC(C)[C@H](CCc1ccc2c(c1)CCO2)C(=O)NCCCCCCNC(=O)c1ccc(-c2c3nc(c(-c4c(F)cccc4F)c4ccc([nH]4)c(-c4c(F)cccc4F)c4nc(c(-c5c(F)cccc5F)c5ccc2[nH]5)C=C4)C=C3)cc1
REMARK SMILES IDX 21 1 20 2 19 3 18 4 16 5 17 6 4 8 2 9 1 10 3 11 5 12 6 13
REMARK SMILES IDX 7 14 8 15 12 16 9 17 11 18 10 19 13 20 15 21 14 22 22 23
REMARK SMILES IDX 23 24 24 25 25 26 26 27 27 29 28 30 29 31 81 32 30 33 80 34
REMARK SMILES IDX 31 35 32 36 33 37 74 38 34 39 79 40 73 41 75 42 35 43 78 44
REMARK SMILES IDX 72 45 71 46 36 48 62 49 45 50 61 51 46 52 49 53 60 54 76 55
REMARK SMILES IDX 47 56 48 57 59 59 77 60 50 61 37 62 38 63 43 64 39 65 40 66
REMARK SMILES IDX 42 67 44 68 41 69 63 70 64 71 69 72 65 73 66 74 68 75 70 76
REMARK SMILES IDX 67 77 51 78 52 79 57 80 53 81 54 82 56 83 58 84 55 85
REMARK H PARENT 18 7 25 28 75 47 49 58
REMARK Flexibility Score: inf
ROOT
ATOM      1  C   UNL A   1      35.969  20.608  25.013  1.00  0.00     0.002 C 
ENDROOT
BRANCH   1   2
ATOM      2  C   UNL A   1      36.340  21.882  24.249  1.00  0.00     0.021 C 
BRANCH   2   3
ATOM      3  C   UNL A   1      35.584  23.108  24.746  1.00  0.00     0.116 C 
BRANCH   3   4
ATOM      4  N   UNL A   1      35.185  23.952  23.653  1.00  0.00    -0.356 N 
ATOM      5  C   UNL A   1      33.981  24.509  23.380  1.00  0.00     0.223 C 
ATOM      6  O   UNL A   1      33.925  25.241  22.386  1.00  0.00    -0.275 OA
ATOM      7  H   UNL A   1      35.896  24.157  23.004  1.00  0.00     0.163 HD
BRANCH   5   8
ATOM      8  C   UNL A   1      32.738  24.306  24.262  1.00  0.00     0.081 C 
BRANCH   8   9
ATOM      9  C   UNL A   1      32.883  24.752  25.744  1.00  0.00    -0.005 C 
ATOM     10  C   UNL A   1      32.372  26.153  26.091  1.00  0.00     0.008 C 
ATOM     11  C   UNL A   1      32.231  23.744  26.703  1.00  0.00     0.008 C 
ENDBRANCH   8   9
BRANCH   8  12
ATOM     12  C   UNL A   1      31.853  23.058  23.932  1.00  0.00     0.018 C 
BRANCH  12  13
ATOM     13  C   UNL A   1      32.269  21.849  23.054  1.00  0.00     0.036 C 
BRANCH  13  14
ATOM     14  C   UNL A   1      32.376  20.509  23.741  1.00  0.00    -0.047 A 
ATOM     15  C   UNL A   1      32.378  20.438  25.151  1.00  0.00     0.007 A 
ATOM     16  C   UNL A   1      32.598  19.339  22.994  1.00  0.00     0.011 A 
ATOM     17  C   UNL A   1      32.695  19.247  25.812  1.00  0.00     0.047 A 
ATOM     18  C   UNL A   1      33.009  18.200  23.664  1.00  0.00    -0.002 A 
ATOM     19  C   UNL A   1      33.048  18.158  25.045  1.00  0.00     0.122 A 
ATOM     20  C   UNL A   1      33.675  16.999  23.118  1.00  0.00     0.081 C 
ATOM     21  O   UNL A   1      33.555  16.989  25.547  1.00  0.00    -0.493 OA
ATOM     22  C   UNL A   1      33.707  16.140  24.382  1.00  0.00     0.234 C 
ENDBRANCH  13  14
ENDBRANCH  12  13
ENDBRANCH   8  12
ENDBRANCH   5   8
ENDBRANCH   3   4
ENDBRANCH   2   3
ENDBRANCH   1   2
BRANCH   1  23
ATOM     23  C   UNL A   1      36.994  19.471  24.892  1.00  0.00     0.002 C 
BRANCH  23  24
ATOM     24  C   UNL A   1      38.445  19.929  24.726  1.00  0.00     0.021 C 
BRANCH  24  25
ATOM     25  C   UNL A   1      39.236  19.963  26.029  1.00  0.00     0.116 C 
BRANCH  25  26
ATOM     26  N   UNL A   1      40.409  19.105  25.965  1.00  0.00    -0.352 N 
ATOM     27  C   UNL A   1      41.736  19.448  26.059  1.00  0.00     0.251 C 
ATOM     28  H   UNL A   1      40.226  18.146  25.838  1.00  0.00     0.163 HD
ATOM     29  O   UNL A   1      42.611  18.651  25.765  1.00  0.00    -0.269 OA
BRANCH  27  30
ATOM     30  C   UNL A   1      42.086  20.807  26.516  1.00  0.00     0.039 A 
ATOM     31  C   UNL A   1      42.468  21.767  25.575  1.00  0.00     0.014 A 
ATOM     32  C   UNL A   1      42.024  21.125  27.875  1.00  0.00     0.014 A 
ATOM     33  C   UNL A   1      42.741  23.069  25.997  1.00  0.00     0.010 A 
ATOM     34  C   UNL A   1      42.226  22.437  28.282  1.00  0.00     0.010 A 
ATOM     35  C   UNL A   1      42.595  23.418  27.349  1.00  0.00    -0.014 A 
BRANCH  35  36
ATOM     36  C   UNL A   1      42.854  24.794  27.835  1.00  0.00     0.031 A 
ATOM     37  C   UNL A   1      44.248  25.180  28.245  1.00  0.00     0.074 A 
ATOM     38  C   UNL A   1      41.834  25.657  27.993  1.00  0.00     0.049 A 
ATOM     39  N   UNL A   1      44.666  26.265  28.842  1.00  0.00    -0.248 NA
ATOM     40  C   UNL A   1      45.308  24.193  27.978  1.00  0.00     0.031 C 
ATOM     41  C   UNL A   1      40.435  25.389  27.655  1.00  0.00     0.029 A 
ATOM     42  N   UNL A   1      41.815  26.931  28.503  1.00  0.00    -0.354 N 
ATOM     43  C   UNL A   1      46.028  26.082  29.045  1.00  0.00     0.074 A 
ATOM     44  C   UNL A   1      46.356  24.761  28.553  1.00  0.00     0.031 C 
ATOM     45  C   UNL A   1      39.696  26.470  27.957  1.00  0.00     0.029 A 
ATOM     46  C   UNL A   1      40.560  27.486  28.551  1.00  0.00     0.049 A 
ATOM     47  H   UNL A   1      42.625  27.402  28.807  1.00  0.00     0.167 HD
ATOM     48  C   UNL A   1      46.927  26.944  29.573  1.00  0.00     0.037 A 
ATOM     49  C   UNL A   1      40.152  28.673  29.036  1.00  0.00     0.037 A 
ATOM     50  C   UNL A   1      46.597  28.266  30.035  1.00  0.00     0.049 A 
ATOM     51  C   UNL A   1      41.166  29.608  29.637  1.00  0.00     0.074 A 
ATOM     52  C   UNL A   1      47.441  29.237  30.545  1.00  0.00     0.029 A 
ATOM     53  N   UNL A   1      45.318  28.803  30.039  1.00  0.00    -0.354 N 
ATOM     54  N   UNL A   1      42.459  29.443  29.781  1.00  0.00    -0.248 NA
ATOM     55  C   UNL A   1      40.667  30.896  30.138  1.00  0.00     0.031 C 
ATOM     56  C   UNL A   1      46.666  30.347  30.895  1.00  0.00     0.029 A 
ATOM     57  C   UNL A   1      45.348  30.086  30.556  1.00  0.00     0.049 A 
ATOM     58  H   UNL A   1      44.509  28.339  29.721  1.00  0.00     0.167 HD
ATOM     59  C   UNL A   1      42.932  30.618  30.352  1.00  0.00     0.074 A 
ATOM     60  C   UNL A   1      41.788  31.487  30.527  1.00  0.00     0.031 C 
ATOM     61  C   UNL A   1      44.201  30.947  30.698  1.00  0.00     0.037 A 
BRANCH  48  62
ATOM     62  C   UNL A   1      48.350  26.480  29.680  1.00  0.00     0.057 A 
ATOM     63  C   UNL A   1      48.822  25.793  30.808  1.00  0.00     0.134 A 
ATOM     64  C   UNL A   1      49.256  26.701  28.635  1.00  0.00     0.134 A 
ATOM     65  F   UNL A   1      48.010  25.560  31.851  1.00  0.00    -0.206 F 
ATOM     66  C   UNL A   1      50.149  25.373  30.905  1.00  0.00     0.040 A 
ATOM     67  C   UNL A   1      50.578  26.258  28.709  1.00  0.00     0.040 A 
ATOM     68  F   UNL A   1      48.870  27.346  27.524  1.00  0.00    -0.206 F 
ATOM     69  C   UNL A   1      51.030  25.599  29.850  1.00  0.00     0.006 A 
ENDBRANCH  48  62
BRANCH  49  70
ATOM     70  C   UNL A   1      38.720  29.058  28.959  1.00  0.00     0.057 A 
ATOM     71  C   UNL A   1      38.179  29.583  27.780  1.00  0.00     0.134 A 
ATOM     72  C   UNL A   1      37.861  28.921  30.056  1.00  0.00     0.134 A 
ATOM     73  F   UNL A   1      38.956  29.754  26.700  1.00  0.00    -0.206 F 
ATOM     74  C   UNL A   1      36.843  29.978  27.698  1.00  0.00     0.040 A 
ATOM     75  C   UNL A   1      36.516  29.288  29.982  1.00  0.00     0.040 A 
ATOM     76  F   UNL A   1      38.314  28.415  31.213  1.00  0.00    -0.206 F 
ATOM     77  C   UNL A   1      36.006  29.826  28.802  1.00  0.00     0.006 A 
ENDBRANCH  49  70
BRANCH  61  78
ATOM     78  C   UNL A   1      44.435  32.326  31.239  1.00  0.00     0.057 A 
ATOM     79  C   UNL A   1      44.442  32.595  32.612  1.00  0.00     0.134 A 
ATOM     80  C   UNL A   1      44.723  33.386  30.369  1.00  0.00     0.134 A 
ATOM     81  F   UNL A   1      44.161  31.625  33.496  1.00  0.00    -0.206 F 
ATOM     82  C   UNL A   1      44.713  33.873  33.101  1.00  0.00     0.040 A 
ATOM     83  C   UNL A   1      45.022  34.662  30.848  1.00  0.00     0.040 A 
ATOM     84  F   UNL A   1      44.741  33.193  29.041  1.00  0.00    -0.206 F 
ATOM     85  C   UNL A   1      45.014  34.909  32.218  1.00  0.00     0.006 A 
ENDBRANCH  61  78
ENDBRANCH  35  36
ENDBRANCH  27  30
ENDBRANCH  25  26
ENDBRANCH  24  25
ENDBRANCH  23  24
ENDBRANCH   1  23
TORSDOF 17
ENDMDL
MODEL 3
REMARK VINA RESULT:     -11.0      5.406     10.333
REMARK SMILES CC(C)[C@H](CCc1ccc2c(c1)CCO2)C(=O)NCCCCCCNC(=O)c1ccc(-c2c3nc(c(-c4c(F)cccc4F)c4ccc([nH]4)c(-c4c(F)cccc4F)c4nc(c(-c5c(F)cccc5F)c5ccc2[nH]5)C=C4)C=C3)cc1
REMARK SMILES IDX 21 1 20 2 19 3 18 4 16 5 17 6 4 8 2 9 1 10 3 11 5 12 6 13
REMARK SMILES IDX 7 14 8 15 12 16 9 17 11 18 10 19 13 20 15 21 14 22 22 23
REMARK SMILES IDX 23 24 24 25 25 26 26 27 27 29 28 30 29 31 81 32 30 33 80 34
REMARK SMILES IDX 31 35 32 36 33 37 74 38 34 39 79 40 73 41 75 42 35 43 78 44
REMARK SMILES IDX 72 45 71 46 36 48 62 49 45 50 61 51 46 52 49 53 60 54 76 55
REMARK SMILES IDX 47 56 48 57 59 59 77 60 50 61 37 62 38 63 43 64 39 65 40 66
REMARK SMILES IDX 42 67 44 68 41 69 63 70 64 71 69 72 65 73 66 74 68 75 70 76
REMARK SMILES IDX 67 77 51 78 52 79 57 80 53 81 54 82 56 83 58 84 55 85
REMARK H PARENT 18 7 25 28 75 47 49 58
REMARK Flexibility Score: inf
ROOT
ATOM      1  C   UNL A   1      31.937  29.552  27.160  1.00  0.00     0.002 C 
ENDROOT
BRANCH   1   2
ATOM      2  C   UNL A   1      32.284  28.192  26.549  1.00  0.00     0.021 C 
BRANCH   2   3
ATOM      3  C   UNL A   1      33.742  28.096  26.115  1.00  0.00     0.116 C 
BRANCH   3   4
ATOM      4  N   UNL A   1      33.964  28.793  24.878  1.00  0.00    -0.356 N 
ATOM      5  C   UNL A   1      33.593  28.466  23.617  1.00  0.00     0.223 C 
ATOM      6  O   UNL A   1      33.876  29.280  22.731  1.00  0.00    -0.275 OA
ATOM      7  H   UNL A   1      34.462  29.638  24.960  1.00  0.00     0.163 HD
BRANCH   5   8
ATOM      8  C   UNL A   1      32.817  27.185  23.272  1.00  0.00     0.081 C 
BRANCH   8   9
ATOM      9  C   UNL A   1      33.594  26.130  22.434  1.00  0.00    -0.005 C 
ATOM     10  C   UNL A   1      34.122  24.909  23.191  1.00  0.00     0.008 C 
ATOM     11  C   UNL A   1      32.768  25.642  21.235  1.00  0.00     0.008 C 
ENDBRANCH   8   9
BRANCH   8  12
ATOM     12  C   UNL A   1      31.278  27.352  23.035  1.00  0.00     0.018 C 
BRANCH  12  13
ATOM     13  C   UNL A   1      30.153  26.561  23.751  1.00  0.00     0.036 C 
BRANCH  13  14
ATOM     14  C   UNL A   1      30.516  25.202  24.301  1.00  0.00    -0.047 A 
ATOM     15  C   UNL A   1      30.840  25.058  25.667  1.00  0.00     0.007 A 
ATOM     16  C   UNL A   1      30.654  24.098  23.442  1.00  0.00     0.011 A 
ATOM     17  C   UNL A   1      31.389  23.868  26.156  1.00  0.00     0.047 A 
ATOM     18  C   UNL A   1      31.292  22.969  23.921  1.00  0.00    -0.002 A 
ATOM     19  C   UNL A   1      31.645  22.858  25.253  1.00  0.00     0.122 A 
ATOM     20  C   UNL A   1      31.910  21.863  23.158  1.00  0.00     0.081 C 
ATOM     21  O   UNL A   1      32.341  21.715  25.547  1.00  0.00    -0.493 OA
ATOM     22  C   UNL A   1      32.292  20.946  24.320  1.00  0.00     0.234 C 
ENDBRANCH  13  14
ENDBRANCH  12  13
ENDBRANCH   8  12
ENDBRANCH   5   8
ENDBRANCH   3   4
ENDBRANCH   2   3
ENDBRANCH   1   2
BRANCH   1  23
ATOM     23  C   UNL A   1      31.679  30.664  26.133  1.00  0.00     0.002 C 
BRANCH  23  24
ATOM     24  C   UNL A   1      31.415  32.047  26.735  1.00  0.00     0.021 C 
BRANCH  24  25
ATOM     25  C   UNL A   1      32.670  32.753  27.236  1.00  0.00     0.116 C 
BRANCH  25  26
ATOM     26  N   UNL A   1      32.407  34.149  27.553  1.00  0.00    -0.352 N 
ATOM     27  C   UNL A   1      32.969  34.932  28.531  1.00  0.00     0.251 C 
ATOM     28  H   UNL A   1      31.733  34.592  26.989  1.00  0.00     0.163 HD
ATOM     29  O   UNL A   1      32.488  36.016  28.819  1.00  0.00    -0.269 OA
BRANCH  27  30
ATOM     30  C   UNL A   1      34.166  34.435  29.237  1.00  0.00     0.039 A 
ATOM     31  C   UNL A   1      34.016  33.794  30.469  1.00  0.00     0.014 A 
ATOM     32  C   UNL A   1      35.432  34.599  28.668  1.00  0.00     0.014 A 
ATOM     33  C   UNL A   1      35.139  33.268  31.110  1.00  0.00     0.010 A 
ATOM     34  C   UNL A   1      36.536  34.013  29.271  1.00  0.00     0.010 A 
ATOM     35  C   UNL A   1      36.402  33.351  30.501  1.00  0.00    -0.014 A 
BRANCH  35  36
ATOM     36  C   UNL A   1      37.616  32.788  31.139  1.00  0.00     0.031 A 
ATOM     37  C   UNL A   1      38.291  31.598  30.515  1.00  0.00     0.074 A 
ATOM     38  C   UNL A   1      38.051  33.280  32.313  1.00  0.00     0.049 A 
ATOM     39  N   UNL A   1      39.258  30.855  30.984  1.00  0.00    -0.248 NA
ATOM     40  C   UNL A   1      37.782  31.168  29.202  1.00  0.00     0.031 C 
ATOM     41  C   UNL A   1      37.463  34.415  33.028  1.00  0.00     0.029 A 
ATOM     42  N   UNL A   1      39.079  32.872  33.124  1.00  0.00    -0.354 N 
ATOM     43  C   UNL A   1      39.457  29.856  30.038  1.00  0.00     0.074 A 
ATOM     44  C   UNL A   1      38.476  30.060  28.994  1.00  0.00     0.031 C 
ATOM     45  C   UNL A   1      38.147  34.618  34.166  1.00  0.00     0.029 A 
ATOM     46  C   UNL A   1      39.189  33.602  34.282  1.00  0.00     0.049 A 
ATOM     47  H   UNL A   1      39.681  32.126  32.897  1.00  0.00     0.167 HD
ATOM     48  C   UNL A   1      40.385  28.872  30.030  1.00  0.00     0.037 A 
ATOM     49  C   UNL A   1      40.025  33.454  35.327  1.00  0.00     0.037 A 
ATOM     50  C   UNL A   1      41.375  28.693  31.058  1.00  0.00     0.049 A 
ATOM     51  C   UNL A   1      41.038  32.341  35.305  1.00  0.00     0.074 A 
ATOM     52  C   UNL A   1      42.391  27.757  31.124  1.00  0.00     0.029 A 
ATOM     53  N   UNL A   1      41.472  29.472  32.202  1.00  0.00    -0.354 N 
ATOM     54  N   UNL A   1      41.246  31.432  34.385  1.00  0.00    -0.248 NA
ATOM     55  C   UNL A   1      41.934  32.236  36.466  1.00  0.00     0.031 C 
ATOM     56  C   UNL A   1      43.078  27.943  32.328  1.00  0.00     0.029 A 
ATOM     57  C   UNL A   1      42.522  29.028  32.987  1.00  0.00     0.049 A 
ATOM     58  H   UNL A   1      40.881  30.229  32.423  1.00  0.00     0.167 HD
ATOM     59  C   UNL A   1      42.319  30.673  34.835  1.00  0.00     0.074 A 
ATOM     60  C   UNL A   1      42.718  31.229  36.110  1.00  0.00     0.031 C 
ATOM     61  C   UNL A   1      42.922  29.612  34.242  1.00  0.00     0.037 A 
BRANCH  48  62
ATOM     62  C   UNL A   1      40.370  27.916  28.874  1.00  0.00     0.057 A 
ATOM     63  C   UNL A   1      39.603  26.743  28.894  1.00  0.00     0.134 A 
ATOM     64  C   UNL A   1      41.113  28.180  27.716  1.00  0.00     0.134 A 
ATOM     65  F   UNL A   1      38.879  26.423  29.977  1.00  0.00    -0.206 F 
ATOM     66  C   UNL A   1      39.600  25.853  27.819  1.00  0.00     0.040 A 
ATOM     67  C   UNL A   1      41.094  27.312  26.623  1.00  0.00     0.040 A 
ATOM     68  F   UNL A   1      41.865  29.288  27.627  1.00  0.00    -0.206 F 
ATOM     69  C   UNL A   1      40.343  26.140  26.676  1.00  0.00     0.006 A 
ENDBRANCH  48  62
BRANCH  49  70
ATOM     70  C   UNL A   1      39.957  34.394  36.475  1.00  0.00     0.057 A 
ATOM     71  C   UNL A   1      39.173  34.104  37.596  1.00  0.00     0.134 A 
ATOM     72  C   UNL A   1      40.662  35.604  36.477  1.00  0.00     0.134 A 
ATOM     73  F   UNL A   1      38.461  32.969  37.646  1.00  0.00    -0.206 F 
ATOM     74  C   UNL A   1      39.074  34.990  38.670  1.00  0.00     0.040 A 
ATOM     75  C   UNL A   1      40.592  36.489  37.555  1.00  0.00     0.040 A 
ATOM     76  F   UNL A   1      41.440  35.938  35.436  1.00  0.00    -0.206 F 
ATOM     77  C   UNL A   1      39.790  36.186  38.652  1.00  0.00     0.006 A 
ENDBRANCH  49  70
BRANCH  61  78
ATOM     78  C   UNL A   1      44.116  29.022  34.931  1.00  0.00     0.057 A 
ATOM     79  C   UNL A   1      45.416  29.476  34.684  1.00  0.00     0.134 A 
ATOM     80  C   UNL A   1      43.950  28.029  35.905  1.00  0.00     0.134 A 
ATOM     81  F   UNL A   1      45.643  30.416  33.754  1.00  0.00    -0.206 F 
ATOM     82  C   UNL A   1      46.512  28.953  35.371  1.00  0.00     0.040 A 
ATOM     83  C   UNL A   1      45.035  27.517  36.618  1.00  0.00     0.040 A 
ATOM     84  F   UNL A   1      42.728  27.557  36.196  1.00  0.00    -0.206 F 
ATOM     85  C   UNL A   1      46.321  27.977  36.348  1.00  0.00     0.006 A 
ENDBRANCH  61  78
ENDBRANCH  35  36
ENDBRANCH  27  30
ENDBRANCH  25  26
ENDBRANCH  24  25
ENDBRANCH  23  24
ENDBRANCH   1  23
TORSDOF 17
ENDMDL
