MODEL 1
REMARK VINA RESULT:      -8.7      0.000      0.000
REMARK SMILES CC/C=C/C/C=C/C/C=C/C/C=C/CC/C=C/COCC(=O)NCCCCCCNC(=O)c1ccc(-c2c3nc(c(-c4c(F)cccc4F)c4ccc([nH]4)c(-c4c(F)cccc4F)c4nc(c(-c5c(F)cccc5F)c5ccc2[nH]5)C=C4)C=C3)cc1
REMARK SMILES IDX 19 1 18 2 17 3 16 4 15 5 14 6 13 7 12 8 11 9 10 10 9 11 8 12
REMARK SMILES IDX 7 13 6 14 5 15 4 16 3 17 2 18 1 19 20 20 21 21 22 22 23 23
REMARK SMILES IDX 24 25 25 26 26 27 27 28 28 29 29 30 30 31 31 32 32 34 33 35
REMARK SMILES IDX 34 36 86 37 35 38 85 39 36 40 37 41 38 42 79 43 39 44 84 45
REMARK SMILES IDX 78 46 80 47 40 48 83 49 77 50 76 51 41 53 67 54 50 55 66 56
REMARK SMILES IDX 51 57 54 58 65 59 81 60 52 61 53 62 64 64 82 65 55 66 42 67
REMARK SMILES IDX 43 68 48 69 44 70 45 71 47 72 49 73 46 74 68 75 69 76 74 77
REMARK SMILES IDX 70 78 71 79 73 80 75 81 72 82 56 83 57 84 62 85 58 86 59 87
REMARK SMILES IDX 61 88 63 89 60 90
REMARK H PARENT 23 24 30 33 80 52 54 63
REMARK Flexibility Score: inf
ROOT
ATOM      1  O   UNL A   1      43.354  42.088  23.871  1.00  0.00    -0.368 OA
ENDROOT
BRANCH   1   2
ATOM      2  C   UNL A   1      41.983  42.035  23.470  1.00  0.00     0.188 C 
BRANCH   2   3
ATOM      3  C   UNL A   1      41.786  42.814  22.209  1.00  0.00    -0.003 C 
ATOM      4  C   UNL A   1      42.383  42.490  21.053  1.00  0.00    -0.029 C 
BRANCH   4   5
ATOM      5  C   UNL A   1      42.354  43.337  19.813  1.00  0.00     0.031 C 
BRANCH   5   6
ATOM      6  C   UNL A   1      40.948  43.887  19.513  1.00  0.00     0.031 C 
BRANCH   6   7
ATOM      7  C   UNL A   1      40.864  44.593  18.186  1.00  0.00    -0.031 C 
ATOM      8  C   UNL A   1      41.896  44.740  17.341  1.00  0.00    -0.027 C 
BRANCH   8   9
ATOM      9  C   UNL A   1      41.811  45.496  16.046  1.00  0.00     0.054 C 
BRANCH   9  10
ATOM     10  C   UNL A   1      41.913  46.973  16.298  1.00  0.00    -0.027 C 
ATOM     11  C   UNL A   1      43.051  47.603  16.634  1.00  0.00    -0.027 C 
BRANCH  11  12
ATOM     12  C   UNL A   1      43.145  49.069  16.933  1.00  0.00     0.054 C 
BRANCH  12  13
ATOM     13  C   UNL A   1      43.765  49.292  18.283  1.00  0.00    -0.027 C 
ATOM     14  C   UNL A   1      44.504  48.379  18.934  1.00  0.00    -0.027 C 
BRANCH  14  15
ATOM     15  C   UNL A   1      45.099  48.590  20.296  1.00  0.00     0.054 C 
BRANCH  15  16
ATOM     16  C   UNL A   1      45.595  47.293  20.869  1.00  0.00    -0.027 C 
ATOM     17  C   UNL A   1      45.338  46.088  20.337  1.00  0.00    -0.031 C 
BRANCH  17  18
ATOM     18  C   UNL A   1      45.826  44.794  20.921  1.00  0.00     0.023 C 
ATOM     19  C   UNL A   1      45.257  44.568  22.313  1.00  0.00     0.008 C 
ENDBRANCH  17  18
ENDBRANCH  15  16
ENDBRANCH  14  15
ENDBRANCH  12  13
ENDBRANCH  11  12
ENDBRANCH   9  10
ENDBRANCH   8   9
ENDBRANCH   6   7
ENDBRANCH   5   6
ENDBRANCH   4   5
ENDBRANCH   2   3
ENDBRANCH   1   2
BRANCH   1  20
ATOM     20  C   UNL A   1      43.544  42.120  25.282  1.00  0.00     0.260 C 
BRANCH  20  21
ATOM     21  C   UNL A   1      43.485  40.785  26.034  1.00  0.00     0.246 C 
ATOM     22  O   UNL A   1      42.456  40.379  26.573  1.00  0.00    -0.272 OA
ATOM     23  N   UNL A   1      44.606  40.008  26.079  1.00  0.00    -0.354 N 
ATOM     24  H   UNL A   1      44.502  39.123  26.500  1.00  0.00     0.163 HD
BRANCH  23  25
ATOM     25  C   UNL A   1      45.932  40.322  25.586  1.00  0.00     0.116 C 
BRANCH  25  26
ATOM     26  C   UNL A   1      47.013  39.779  26.520  1.00  0.00     0.021 C 
BRANCH  26  27
ATOM     27  C   UNL A   1      47.162  38.252  26.491  1.00  0.00     0.002 C 
BRANCH  27  28
ATOM     28  C   UNL A   1      48.298  37.725  25.609  1.00  0.00     0.002 C 
BRANCH  28  29
ATOM     29  C   UNL A   1      48.354  36.202  25.468  1.00  0.00     0.021 C 
BRANCH  29  30
ATOM     30  C   UNL A   1      47.150  35.466  26.045  1.00  0.00     0.116 C 
BRANCH  30  31
ATOM     31  N   UNL A   1      46.245  34.991  25.010  1.00  0.00    -0.352 N 
ATOM     32  C   UNL A   1      44.984  34.463  25.130  1.00  0.00     0.251 C 
ATOM     33  H   UNL A   1      46.587  35.059  24.088  1.00  0.00     0.163 HD
ATOM     34  O   UNL A   1      44.435  33.941  24.163  1.00  0.00    -0.269 OA
BRANCH  32  35
ATOM     35  C   UNL A   1      44.296  34.499  26.437  1.00  0.00     0.039 A 
ATOM     36  C   UNL A   1      44.342  33.368  27.257  1.00  0.00     0.014 A 
ATOM     37  C   UNL A   1      43.622  35.648  26.859  1.00  0.00     0.014 A 
ATOM     38  C   UNL A   1      43.780  33.419  28.534  1.00  0.00     0.010 A 
ATOM     39  C   UNL A   1      43.128  35.720  28.158  1.00  0.00     0.010 A 
ATOM     40  C   UNL A   1      43.209  34.609  29.012  1.00  0.00    -0.014 A 
BRANCH  40  41
ATOM     41  C   UNL A   1      42.726  34.725  30.411  1.00  0.00     0.031 A 
ATOM     42  C   UNL A   1      43.672  35.106  31.514  1.00  0.00     0.074 A 
ATOM     43  C   UNL A   1      41.447  34.410  30.699  1.00  0.00     0.049 A 
ATOM     44  N   UNL A   1      43.454  35.175  32.803  1.00  0.00    -0.248 NA
ATOM     45  C   UNL A   1      45.053  35.429  31.120  1.00  0.00     0.031 C 
ATOM     46  C   UNL A   1      40.441  33.986  29.723  1.00  0.00     0.029 A 
ATOM     47  N   UNL A   1      40.777  34.386  31.897  1.00  0.00    -0.354 N 
ATOM     48  C   UNL A   1      44.667  35.539  33.373  1.00  0.00     0.074 A 
ATOM     49  C   UNL A   1      45.630  35.624  32.297  1.00  0.00     0.031 C 
ATOM     50  C   UNL A   1      39.280  33.762  30.358  1.00  0.00     0.029 A 
ATOM     51  C   UNL A   1      39.469  33.980  31.788  1.00  0.00     0.049 A 
ATOM     52  H   UNL A   1      41.196  34.634  32.753  1.00  0.00     0.167 HD
ATOM     53  C   UNL A   1      44.948  35.798  34.673  1.00  0.00     0.037 A 
ATOM     54  C   UNL A   1      38.532  33.789  32.736  1.00  0.00     0.037 A 
ATOM     55  C   UNL A   1      43.982  35.723  35.740  1.00  0.00     0.049 A 
ATOM     56  C   UNL A   1      38.878  34.048  34.176  1.00  0.00     0.074 A 
ATOM     57  C   UNL A   1      44.155  36.026  37.079  1.00  0.00     0.029 A 
ATOM     58  N   UNL A   1      42.668  35.309  35.590  1.00  0.00    -0.354 N 
ATOM     59  N   UNL A   1      40.010  34.463  34.692  1.00  0.00    -0.248 NA
ATOM     60  C   UNL A   1      37.818  33.813  35.166  1.00  0.00     0.031 C 
ATOM     61  C   UNL A   1      42.962  35.739  37.750  1.00  0.00     0.029 A 
ATOM     62  C   UNL A   1      42.027  35.314  36.819  1.00  0.00     0.049 A 
ATOM     63  H   UNL A   1      42.250  35.050  34.736  1.00  0.00     0.167 HD
ATOM     64  C   UNL A   1      39.791  34.562  36.060  1.00  0.00     0.074 A 
ATOM     65  C   UNL A   1      38.413  34.181  36.291  1.00  0.00     0.031 C 
ATOM     66  C   UNL A   1      40.655  34.934  37.036  1.00  0.00     0.037 A 
BRANCH  53  67
ATOM     67  C   UNL A   1      46.358  36.184  35.017  1.00  0.00     0.057 A 
ATOM     68  C   UNL A   1      46.780  37.520  35.020  1.00  0.00     0.134 A 
ATOM     69  C   UNL A   1      47.294  35.211  35.389  1.00  0.00     0.134 A 
ATOM     70  F   UNL A   1      45.936  38.500  34.664  1.00  0.00    -0.206 F 
ATOM     71  C   UNL A   1      48.089  37.872  35.356  1.00  0.00     0.040 A 
ATOM     72  C   UNL A   1      48.597  35.554  35.756  1.00  0.00     0.040 A 
ATOM     73  F   UNL A   1      46.956  33.913  35.416  1.00  0.00    -0.206 F 
ATOM     74  C   UNL A   1      48.999  36.888  35.734  1.00  0.00     0.006 A 
ENDBRANCH  53  67
BRANCH  54  75
ATOM     75  C   UNL A   1      37.170  33.331  32.354  1.00  0.00     0.057 A 
ATOM     76  C   UNL A   1      36.925  31.995  32.018  1.00  0.00     0.134 A 
ATOM     77  C   UNL A   1      36.087  34.217  32.303  1.00  0.00     0.134 A 
ATOM     78  F   UNL A   1      37.926  31.102  32.029  1.00  0.00    -0.206 F 
ATOM     79  C   UNL A   1      35.659  31.559  31.626  1.00  0.00     0.040 A 
ATOM     80  C   UNL A   1      34.808  33.789  31.941  1.00  0.00     0.040 A 
ATOM     81  F   UNL A   1      36.252  35.510  32.621  1.00  0.00    -0.206 F 
ATOM     82  C   UNL A   1      34.594  32.457  31.592  1.00  0.00     0.006 A 
ENDBRANCH  54  75
BRANCH  66  83
ATOM     83  C   UNL A   1      40.131  34.973  38.442  1.00  0.00     0.057 A 
ATOM     84  C   UNL A   1      39.560  36.130  38.988  1.00  0.00     0.134 A 
ATOM     85  C   UNL A   1      40.152  33.823  39.244  1.00  0.00     0.134 A 
ATOM     86  F   UNL A   1      39.521  37.268  38.279  1.00  0.00    -0.206 F 
ATOM     87  C   UNL A   1      39.048  36.147  40.287  1.00  0.00     0.040 A 
ATOM     88  C   UNL A   1      39.616  33.821  40.533  1.00  0.00     0.040 A 
ATOM     89  F   UNL A   1      40.676  32.679  38.779  1.00  0.00    -0.206 F 
ATOM     90  C   UNL A   1      39.067  34.988  41.059  1.00  0.00     0.006 A 
ENDBRANCH  66  83
ENDBRANCH  40  41
ENDBRANCH  32  35
ENDBRANCH  30  31
ENDBRANCH  29  30
ENDBRANCH  28  29
ENDBRANCH  27  28
ENDBRANCH  26  27
ENDBRANCH  25  26
ENDBRANCH  23  25
ENDBRANCH  20  21
ENDBRANCH   1  20
TORSDOF 26
ENDMDL
MODEL 2
REMARK VINA RESULT:      -8.6      6.138     13.416
REMARK SMILES CC/C=C/C/C=C/C/C=C/C/C=C/CC/C=C/COCC(=O)NCCCCCCNC(=O)c1ccc(-c2c3nc(c(-c4c(F)cccc4F)c4ccc([nH]4)c(-c4c(F)cccc4F)c4nc(c(-c5c(F)cccc5F)c5ccc2[nH]5)C=C4)C=C3)cc1
REMARK SMILES IDX 19 1 18 2 17 3 16 4 15 5 14 6 13 7 12 8 11 9 10 10 9 11 8 12
REMARK SMILES IDX 7 13 6 14 5 15 4 16 3 17 2 18 1 19 20 20 21 21 22 22 23 23
REMARK SMILES IDX 24 25 25 26 26 27 27 28 28 29 29 30 30 31 31 32 32 34 33 35
REMARK SMILES IDX 34 36 86 37 35 38 85 39 36 40 37 41 38 42 79 43 39 44 84 45
REMARK SMILES IDX 78 46 80 47 40 48 83 49 77 50 76 51 41 53 67 54 50 55 66 56
REMARK SMILES IDX 51 57 54 58 65 59 81 60 52 61 53 62 64 64 82 65 55 66 42 67
REMARK SMILES IDX 43 68 48 69 44 70 45 71 47 72 49 73 46 74 68 75 69 76 74 77
REMARK SMILES IDX 70 78 71 79 73 80 75 81 72 82 56 83 57 84 62 85 58 86 59 87
REMARK SMILES IDX 61 88 63 89 60 90
REMARK H PARENT 23 24 30 33 80 52 54 63
REMARK Flexibility Score: inf
ROOT
ATOM      1  O   UNL A   1      44.472  31.420  26.055  1.00  0.00    -0.368 OA
ENDROOT
BRANCH   1   2
ATOM      2  C   UNL A   1      44.070  30.895  27.321  1.00  0.00     0.188 C 
BRANCH   2   3
ATOM      3  C   UNL A   1      43.281  29.638  27.130  1.00  0.00    -0.003 C 
ATOM      4  C   UNL A   1      42.391  29.482  26.139  1.00  0.00    -0.029 C 
BRANCH   4   5
ATOM      5  C   UNL A   1      41.455  28.314  26.012  1.00  0.00     0.031 C 
BRANCH   5   6
ATOM      6  C   UNL A   1      40.262  28.412  26.979  1.00  0.00     0.031 C 
BRANCH   6   7
ATOM      7  C   UNL A   1      39.915  27.094  27.619  1.00  0.00    -0.031 C 
ATOM      8  C   UNL A   1      40.236  25.896  27.105  1.00  0.00    -0.027 C 
BRANCH   8   9
ATOM      9  C   UNL A   1      39.833  24.589  27.726  1.00  0.00     0.054 C 
BRANCH   9  10
ATOM     10  C   UNL A   1      40.774  23.498  27.302  1.00  0.00    -0.027 C 
ATOM     11  C   UNL A   1      40.696  22.228  27.730  1.00  0.00    -0.027 C 
BRANCH  11  12
ATOM     12  C   UNL A   1      41.664  21.148  27.346  1.00  0.00     0.054 C 
BRANCH  12  13
ATOM     13  C   UNL A   1      43.020  21.730  27.070  1.00  0.00    -0.027 C 
ATOM     14  C   UNL A   1      43.533  21.897  25.840  1.00  0.00    -0.027 C 
BRANCH  14  15
ATOM     15  C   UNL A   1      44.901  22.452  25.565  1.00  0.00     0.054 C 
BRANCH  15  16
ATOM     16  C   UNL A   1      45.047  23.827  26.153  1.00  0.00    -0.027 C 
ATOM     17  C   UNL A   1      44.807  24.963  25.479  1.00  0.00    -0.031 C 
BRANCH  17  18
ATOM     18  C   UNL A   1      44.967  26.335  26.068  1.00  0.00     0.023 C 
ATOM     19  C   UNL A   1      45.374  27.346  25.008  1.00  0.00     0.008 C 
ENDBRANCH  17  18
ENDBRANCH  15  16
ENDBRANCH  14  15
ENDBRANCH  12  13
ENDBRANCH  11  12
ENDBRANCH   9  10
ENDBRANCH   8   9
ENDBRANCH   6   7
ENDBRANCH   5   6
ENDBRANCH   4   5
ENDBRANCH   2   3
ENDBRANCH   1   2
BRANCH   1  20
ATOM     20  C   UNL A   1      44.954  32.759  26.110  1.00  0.00     0.260 C 
BRANCH  20  21
ATOM     21  C   UNL A   1      44.817  33.613  24.844  1.00  0.00     0.246 C 
ATOM     22  O   UNL A   1      44.093  33.284  23.905  1.00  0.00    -0.272 OA
ATOM     23  N   UNL A   1      45.497  34.793  24.772  1.00  0.00    -0.354 N 
ATOM     24  H   UNL A   1      45.317  35.349  23.978  1.00  0.00     0.163 HD
BRANCH  23  25
ATOM     25  C   UNL A   1      46.455  35.332  25.717  1.00  0.00     0.116 C 
BRANCH  25  26
ATOM     26  C   UNL A   1      45.937  36.620  26.356  1.00  0.00     0.021 C 
BRANCH  26  27
ATOM     27  C   UNL A   1      46.993  37.724  26.493  1.00  0.00     0.002 C 
BRANCH  27  28
ATOM     28  C   UNL A   1      46.663  39.035  25.771  1.00  0.00     0.002 C 
BRANCH  28  29
ATOM     29  C   UNL A   1      45.641  39.925  26.482  1.00  0.00     0.021 C 
BRANCH  29  30
ATOM     30  C   UNL A   1      45.947  40.195  27.951  1.00  0.00     0.116 C 
BRANCH  30  31
ATOM     31  N   UNL A   1      44.866  40.906  28.618  1.00  0.00    -0.352 N 
ATOM     32  C   UNL A   1      43.733  40.410  29.212  1.00  0.00     0.251 C 
ATOM     33  H   UNL A   1      44.963  41.886  28.647  1.00  0.00     0.163 HD
ATOM     34  O   UNL A   1      42.834  41.170  29.564  1.00  0.00    -0.269 OA
BRANCH  32  35
ATOM     35  C   UNL A   1      43.583  38.953  29.403  1.00  0.00     0.039 A 
ATOM     36  C   UNL A   1      43.043  38.187  28.366  1.00  0.00     0.014 A 
ATOM     37  C   UNL A   1      43.987  38.342  30.592  1.00  0.00     0.014 A 
ATOM     38  C   UNL A   1      42.983  36.798  28.493  1.00  0.00     0.010 A 
ATOM     39  C   UNL A   1      43.996  36.954  30.687  1.00  0.00     0.010 A 
ATOM     40  C   UNL A   1      43.502  36.167  29.635  1.00  0.00    -0.014 A 
BRANCH  40  41
ATOM     41  C   UNL A   1      43.570  34.687  29.734  1.00  0.00     0.031 A 
ATOM     42  C   UNL A   1      42.329  33.884  30.007  1.00  0.00     0.074 A 
ATOM     43  C   UNL A   1      44.767  34.072  29.654  1.00  0.00     0.049 A 
ATOM     44  N   UNL A   1      42.206  32.596  30.209  1.00  0.00    -0.248 NA
ATOM     45  C   UNL A   1      41.063  34.629  30.087  1.00  0.00     0.031 C 
ATOM     46  C   UNL A   1      46.049  34.743  29.433  1.00  0.00     0.029 A 
ATOM     47  N   UNL A   1      45.102  32.745  29.762  1.00  0.00    -0.354 N 
ATOM     48  C   UNL A   1      40.855  32.379  30.450  1.00  0.00     0.074 A 
ATOM     49  C   UNL A   1      40.208  33.672  30.420  1.00  0.00     0.031 C 
ATOM     50  C   UNL A   1      47.027  33.824  29.403  1.00  0.00     0.029 A 
ATOM     51  C   UNL A   1      46.451  32.507  29.648  1.00  0.00     0.049 A 
ATOM     52  H   UNL A   1      44.439  32.032  29.907  1.00  0.00     0.167 HD
ATOM     53  C   UNL A   1      40.211  31.206  30.655  1.00  0.00     0.037 A 
ATOM     54  C   UNL A   1      47.147  31.358  29.749  1.00  0.00     0.037 A 
ATOM     55  C   UNL A   1      40.858  29.919  30.672  1.00  0.00     0.049 A 
ATOM     56  C   UNL A   1      46.413  30.073  30.014  1.00  0.00     0.074 A 
ATOM     57  C   UNL A   1      40.282  28.668  30.812  1.00  0.00     0.029 A 
ATOM     58  N   UNL A   1      42.225  29.718  30.554  1.00  0.00    -0.354 N 
ATOM     59  N   UNL A   1      45.125  29.874  30.165  1.00  0.00    -0.248 NA
ATOM     60  C   UNL A   1      47.226  28.854  30.122  1.00  0.00     0.031 C 
ATOM     61  C   UNL A   1      41.306  27.716  30.837  1.00  0.00     0.029 A 
ATOM     62  C   UNL A   1      42.515  28.367  30.653  1.00  0.00     0.049 A 
ATOM     63  H   UNL A   1      42.891  30.431  30.418  1.00  0.00     0.167 HD
ATOM     64  C   UNL A   1      44.972  28.507  30.362  1.00  0.00     0.074 A 
ATOM     65  C   UNL A   1      46.297  27.925  30.293  1.00  0.00     0.031 C 
ATOM     66  C   UNL A   1      43.837  27.800  30.581  1.00  0.00     0.037 A 
BRANCH  53  67
ATOM     67  C   UNL A   1      38.727  31.258  30.884  1.00  0.00     0.057 A 
ATOM     68  C   UNL A   1      38.180  31.403  32.166  1.00  0.00     0.134 A 
ATOM     69  C   UNL A   1      37.835  31.205  29.805  1.00  0.00     0.134 A 
ATOM     70  F   UNL A   1      38.978  31.450  33.243  1.00  0.00    -0.206 F 
ATOM     71  C   UNL A   1      36.801  31.466  32.369  1.00  0.00     0.040 A 
ATOM     72  C   UNL A   1      36.455  31.298  29.993  1.00  0.00     0.040 A 
ATOM     73  F   UNL A   1      38.290  31.075  28.550  1.00  0.00    -0.206 F 
ATOM     74  C   UNL A   1      35.934  31.422  31.279  1.00  0.00     0.006 A 
ENDBRANCH  53  67
BRANCH  54  75
ATOM     75  C   UNL A   1      48.625  31.368  29.593  1.00  0.00     0.057 A 
ATOM     76  C   UNL A   1      49.466  31.566  30.693  1.00  0.00     0.134 A 
ATOM     77  C   UNL A   1      49.231  31.194  28.342  1.00  0.00     0.134 A 
ATOM     78  F   UNL A   1      48.946  31.758  31.914  1.00  0.00    -0.206 F 
ATOM     79  C   UNL A   1      50.854  31.610  30.554  1.00  0.00     0.040 A 
ATOM     80  C   UNL A   1      50.618  31.207  28.193  1.00  0.00     0.040 A 
ATOM     81  F   UNL A   1      48.481  30.993  27.247  1.00  0.00    -0.206 F 
ATOM     82  C   UNL A   1      51.434  31.425  29.301  1.00  0.00     0.006 A 
ENDBRANCH  54  75
BRANCH  66  83
ATOM     83  C   UNL A   1      43.972  26.312  30.737  1.00  0.00     0.057 A 
ATOM     84  C   UNL A   1      44.363  25.727  31.948  1.00  0.00     0.134 A 
ATOM     85  C   UNL A   1      43.658  25.452  29.676  1.00  0.00     0.134 A 
ATOM     86  F   UNL A   1      44.690  26.494  32.999  1.00  0.00    -0.206 F 
ATOM     87  C   UNL A   1      44.455  24.342  32.092  1.00  0.00     0.040 A 
ATOM     88  C   UNL A   1      43.719  24.065  29.817  1.00  0.00     0.040 A 
ATOM     89  F   UNL A   1      43.268  25.947  28.491  1.00  0.00    -0.206 F 
ATOM     90  C   UNL A   1      44.124  23.506  31.027  1.00  0.00     0.006 A 
ENDBRANCH  66  83
ENDBRANCH  40  41
ENDBRANCH  32  35
ENDBRANCH  30  31
ENDBRANCH  29  30
ENDBRANCH  28  29
ENDBRANCH  27  28
ENDBRANCH  26  27
ENDBRANCH  25  26
ENDBRANCH  23  25
ENDBRANCH  20  21
ENDBRANCH   1  20
TORSDOF 26
ENDMDL
MODEL 3
REMARK VINA RESULT:      -8.6      6.788     12.522
REMARK SMILES CC/C=C/C/C=C/C/C=C/C/C=C/CC/C=C/COCC(=O)NCCCCCCNC(=O)c1ccc(-c2c3nc(c(-c4c(F)cccc4F)c4ccc([nH]4)c(-c4c(F)cccc4F)c4nc(c(-c5c(F)cccc5F)c5ccc2[nH]5)C=C4)C=C3)cc1
REMARK SMILES IDX 19 1 18 2 17 3 16 4 15 5 14 6 13 7 12 8 11 9 10 10 9 11 8 12
REMARK SMILES IDX 7 13 6 14 5 15 4 16 3 17 2 18 1 19 20 20 21 21 22 22 23 23
REMARK SMILES IDX 24 25 25 26 26 27 27 28 28 29 29 30 30 31 31 32 32 34 33 35
REMARK SMILES IDX 34 36 86 37 35 38 85 39 36 40 37 41 38 42 79 43 39 44 84 45
REMARK SMILES IDX 78 46 80 47 40 48 83 49 77 50 76 51 41 53 67 54 50 55 66 56
REMARK SMILES IDX 51 57 54 58 65 59 81 60 52 61 53 62 64 64 82 65 55 66 42 67
REMARK SMILES IDX 43 68 48 69 44 70 45 71 47 72 49 73 46 74 68 75 69 76 74 77
REMARK SMILES IDX 70 78 71 79 73 80 75 81 72 82 56 83 57 84 62 85 58 86 59 87
REMARK SMILES IDX 61 88 63 89 60 90
REMARK H PARENT 23 24 30 33 80 52 54 63
REMARK Flexibility Score: inf
ROOT
ATOM      1  O   UNL A   1      35.257  35.637  32.975  1.00  0.00    -0.368 OA
ENDROOT
BRANCH   1   2
ATOM      2  C   UNL A   1      34.435  35.216  31.885  1.00  0.00     0.188 C 
BRANCH   2   3
ATOM      3  C   UNL A   1      35.141  34.171  31.081  1.00  0.00    -0.003 C 
ATOM      4  C   UNL A   1      34.586  33.576  30.014  1.00  0.00    -0.029 C 
BRANCH   4   5
ATOM      5  C   UNL A   1      35.182  32.406  29.286  1.00  0.00     0.031 C 
BRANCH   5   6
ATOM      6  C   UNL A   1      36.652  32.163  29.674  1.00  0.00     0.031 C 
BRANCH   6   7
ATOM      7  C   UNL A   1      37.321  31.123  28.817  1.00  0.00    -0.031 C 
ATOM      8  C   UNL A   1      37.467  29.835  29.165  1.00  0.00    -0.027 C 
BRANCH   8   9
ATOM      9  C   UNL A   1      38.188  28.821  28.324  1.00  0.00     0.054 C 
BRANCH   9  10
ATOM     10  C   UNL A   1      39.672  29.037  28.404  1.00  0.00    -0.027 C 
ATOM     11  C   UNL A   1      40.482  29.100  27.334  1.00  0.00    -0.027 C 
BRANCH  11  12
ATOM     12  C   UNL A   1      41.970  29.267  27.413  1.00  0.00     0.054 C 
BRANCH  12  13
ATOM     13  C   UNL A   1      42.455  29.014  28.812  1.00  0.00    -0.027 C 
ATOM     14  C   UNL A   1      43.568  29.554  29.334  1.00  0.00    -0.027 C 
BRANCH  14  15
ATOM     15  C   UNL A   1      44.069  29.277  30.722  1.00  0.00     0.054 C 
BRANCH  15  16
ATOM     16  C   UNL A   1      44.692  30.507  31.319  1.00  0.00    -0.027 C 
ATOM     17  C   UNL A   1      44.326  31.041  32.496  1.00  0.00    -0.031 C 
BRANCH  17  18
ATOM     18  C   UNL A   1      44.944  32.278  33.081  1.00  0.00     0.023 C 
ATOM     19  C   UNL A   1      45.588  33.135  32.004  1.00  0.00     0.008 C 
ENDBRANCH  17  18
ENDBRANCH  15  16
ENDBRANCH  14  15
ENDBRANCH  12  13
ENDBRANCH  11  12
ENDBRANCH   9  10
ENDBRANCH   8   9
ENDBRANCH   6   7
ENDBRANCH   5   6
ENDBRANCH   4   5
ENDBRANCH   2   3
ENDBRANCH   1   2
BRANCH   1  20
ATOM     20  C   UNL A   1      35.699  34.574  33.812  1.00  0.00     0.260 C 
BRANCH  20  21
ATOM     21  C   UNL A   1      37.197  34.499  34.131  1.00  0.00     0.246 C 
ATOM     22  O   UNL A   1      38.057  34.889  33.342  1.00  0.00    -0.272 OA
ATOM     23  N   UNL A   1      37.586  34.013  35.345  1.00  0.00    -0.354 N 
ATOM     24  H   UNL A   1      38.550  34.060  35.541  1.00  0.00     0.163 HD
BRANCH  23  25
ATOM     25  C   UNL A   1      36.756  33.435  36.384  1.00  0.00     0.116 C 
BRANCH  25  26
ATOM     26  C   UNL A   1      37.431  33.536  37.751  1.00  0.00     0.021 C 
BRANCH  26  27
ATOM     27  C   UNL A   1      36.716  32.761  38.866  1.00  0.00     0.002 C 
BRANCH  27  28
ATOM     28  C   UNL A   1      37.623  31.885  39.736  1.00  0.00     0.002 C 
BRANCH  28  29
ATOM     29  C   UNL A   1      37.427  32.048  41.245  1.00  0.00     0.021 C 
BRANCH  29  30
ATOM     30  C   UNL A   1      37.495  33.488  41.742  1.00  0.00     0.116 C 
BRANCH  30  31
ATOM     31  N   UNL A   1      38.568  33.690  42.703  1.00  0.00    -0.352 N 
ATOM     32  C   UNL A   1      39.913  33.855  42.486  1.00  0.00     0.251 C 
ATOM     33  H   UNL A   1      38.288  33.711  43.648  1.00  0.00     0.163 HD
ATOM     34  O   UNL A   1      40.702  33.828  43.427  1.00  0.00    -0.269 OA
BRANCH  32  35
ATOM     35  C   UNL A   1      40.415  34.040  41.109  1.00  0.00     0.039 A 
ATOM     36  C   UNL A   1      41.376  33.153  40.615  1.00  0.00     0.014 A 
ATOM     37  C   UNL A   1      39.930  35.072  40.303  1.00  0.00     0.014 A 
ATOM     38  C   UNL A   1      41.791  33.254  39.286  1.00  0.00     0.010 A 
ATOM     39  C   UNL A   1      40.289  35.125  38.959  1.00  0.00     0.010 A 
ATOM     40  C   UNL A   1      41.216  34.212  38.434  1.00  0.00    -0.014 A 
BRANCH  40  41
ATOM     41  C   UNL A   1      41.544  34.251  36.987  1.00  0.00     0.031 A 
ATOM     42  C   UNL A   1      42.337  35.394  36.417  1.00  0.00     0.074 A 
ATOM     43  C   UNL A   1      41.059  33.294  36.171  1.00  0.00     0.049 A 
ATOM     44  N   UNL A   1      42.647  35.643  35.169  1.00  0.00    -0.248 NA
ATOM     45  C   UNL A   1      42.826  36.401  37.371  1.00  0.00     0.031 C 
ATOM     46  C   UNL A   1      40.241  32.156  36.596  1.00  0.00     0.029 A 
ATOM     47  N   UNL A   1      41.172  33.132  34.813  1.00  0.00    -0.354 N 
ATOM     48  C   UNL A   1      43.357  36.837  35.187  1.00  0.00     0.074 A 
ATOM     49  C   UNL A   1      43.386  37.289  36.561  1.00  0.00     0.031 C 
ATOM     50  C   UNL A   1      39.942  31.405  35.525  1.00  0.00     0.029 A 
ATOM     51  C   UNL A   1      40.506  32.030  34.333  1.00  0.00     0.049 A 
ATOM     52  H   UNL A   1      41.680  33.748  34.237  1.00  0.00     0.167 HD
ATOM     53  C   UNL A   1      43.948  37.485  34.156  1.00  0.00     0.037 A 
ATOM     54  C   UNL A   1      40.352  31.582  33.072  1.00  0.00     0.037 A 
ATOM     55  C   UNL A   1      43.926  37.025  32.791  1.00  0.00     0.049 A 
ATOM     56  C   UNL A   1      40.987  32.340  31.939  1.00  0.00     0.074 A 
ATOM     57  C   UNL A   1      44.546  37.580  31.686  1.00  0.00     0.029 A 
ATOM     58  N   UNL A   1      43.242  35.904  32.344  1.00  0.00    -0.354 N 
ATOM     59  N   UNL A   1      41.717  33.428  31.981  1.00  0.00    -0.248 NA
ATOM     60  C   UNL A   1      40.776  31.810  30.585  1.00  0.00     0.031 C 
ATOM     61  C   UNL A   1      44.189  36.829  30.561  1.00  0.00     0.029 A 
ATOM     62  C   UNL A   1      43.395  35.771  30.974  1.00  0.00     0.049 A 
ATOM     63  H   UNL A   1      42.723  35.293  32.917  1.00  0.00     0.167 HD
ATOM     64  C   UNL A   1      42.074  33.698  30.665  1.00  0.00     0.074 A 
ATOM     65  C   UNL A   1      41.493  32.649  29.852  1.00  0.00     0.031 C 
ATOM     66  C   UNL A   1      42.814  34.722  30.176  1.00  0.00     0.037 A 
BRANCH  53  67
ATOM     67  C   UNL A   1      44.666  38.769  34.461  1.00  0.00     0.057 A 
ATOM     68  C   UNL A   1      44.051  40.017  34.300  1.00  0.00     0.134 A 
ATOM     69  C   UNL A   1      45.974  38.754  34.962  1.00  0.00     0.134 A 
ATOM     70  F   UNL A   1      42.803  40.103  33.815  1.00  0.00    -0.206 F 
ATOM     71  C   UNL A   1      44.720  41.205  34.600  1.00  0.00     0.040 A 
ATOM     72  C   UNL A   1      46.642  39.934  35.295  1.00  0.00     0.040 A 
ATOM     73  F   UNL A   1      46.620  37.593  35.149  1.00  0.00    -0.206 F 
ATOM     74  C   UNL A   1      46.017  41.165  35.107  1.00  0.00     0.006 A 
ENDBRANCH  53  67
BRANCH  54  75
ATOM     75  C   UNL A   1      39.565  30.349  32.811  1.00  0.00     0.057 A 
ATOM     76  C   UNL A   1      38.168  30.387  32.724  1.00  0.00     0.134 A 
ATOM     77  C   UNL A   1      40.186  29.103  32.657  1.00  0.00     0.134 A 
ATOM     78  F   UNL A   1      37.514  31.547  32.882  1.00  0.00    -0.206 F 
ATOM     79  C   UNL A   1      37.417  29.231  32.513  1.00  0.00     0.040 A 
ATOM     80  C   UNL A   1      39.448  27.942  32.416  1.00  0.00     0.040 A 
ATOM     81  F   UNL A   1      41.521  28.998  32.722  1.00  0.00    -0.206 F 
ATOM     82  C   UNL A   1      38.057  28.004  32.352  1.00  0.00     0.006 A 
ENDBRANCH  54  75
BRANCH  66  83
ATOM     83  C   UNL A   1      43.061  34.748  28.695  1.00  0.00     0.057 A 
ATOM     84  C   UNL A   1      43.953  33.862  28.078  1.00  0.00     0.134 A 
ATOM     85  C   UNL A   1      42.361  35.638  27.870  1.00  0.00     0.134 A 
ATOM     86  F   UNL A   1      44.666  32.993  28.812  1.00  0.00    -0.206 F 
ATOM     87  C   UNL A   1      44.154  33.873  26.697  1.00  0.00     0.040 A 
ATOM     88  C   UNL A   1      42.532  35.639  26.485  1.00  0.00     0.040 A 
ATOM     89  F   UNL A   1      41.485  36.508  28.395  1.00  0.00    -0.206 F 
ATOM     90  C   UNL A   1      43.435  34.758  25.895  1.00  0.00     0.006 A 
ENDBRANCH  66  83
ENDBRANCH  40  41
ENDBRANCH  32  35
ENDBRANCH  30  31
ENDBRANCH  29  30
ENDBRANCH  28  29
ENDBRANCH  27  28
ENDBRANCH  26  27
ENDBRANCH  25  26
ENDBRANCH  23  25
ENDBRANCH  20  21
ENDBRANCH   1  20
TORSDOF 26
ENDMDL
