MODEL 1
REMARK VINA RESULT:     -11.1      0.000      0.000
REMARK SMILES CCCC[C@H](NS(=O)(=O)c1cccc(F)c1)C(=O)NCCCCCCNC(=O)c1ccc(-c2c3nc(c(-c4c(F)cccc4F)c4ccc([nH]4)c(-c4c(F)cccc4F)c4nc(c(-c5c(F)cccc5F)c5ccc2[nH]5)C=C4)C=C3)cc1
REMARK SMILES IDX 22 1 21 2 20 3 19 4 17 5 18 6 5 8 4 9 3 10 2 11 1 12 6 13
REMARK SMILES IDX 7 15 8 16 9 17 10 18 11 19 16 20 12 21 14 22 13 23 15 24
REMARK SMILES IDX 23 25 24 26 25 27 26 28 27 29 28 31 29 32 30 33 82 34 31 35
REMARK SMILES IDX 81 36 32 37 33 38 34 39 75 40 35 41 80 42 74 43 76 44 36 45
REMARK SMILES IDX 79 46 73 47 72 48 37 50 63 51 46 52 62 53 47 54 50 55 61 56
REMARK SMILES IDX 77 57 48 58 49 59 60 61 78 62 51 63 38 64 39 65 44 66 40 67
REMARK SMILES IDX 41 68 43 69 45 70 42 71 64 72 65 73 70 74 66 75 67 76 69 77
REMARK SMILES IDX 71 78 68 79 52 80 53 81 58 82 54 83 55 84 57 85 59 86 56 87
REMARK H PARENT 19 7 6 14 26 30 76 49 50 60
REMARK Flexibility Score: inf
ROOT
ATOM      1  C   UNL A   1      32.416  29.919  27.065  1.00  0.00     0.002 C 
ENDROOT
BRANCH   1   2
ATOM      2  C   UNL A   1      33.679  29.319  26.454  1.00  0.00     0.021 C 
BRANCH   2   3
ATOM      3  C   UNL A   1      33.739  27.799  26.495  1.00  0.00     0.116 C 
BRANCH   3   4
ATOM      4  N   UNL A   1      33.635  27.178  25.186  1.00  0.00    -0.355 N 
ATOM      5  C   UNL A   1      32.542  26.978  24.386  1.00  0.00     0.238 C 
ATOM      6  O   UNL A   1      32.730  26.572  23.237  1.00  0.00    -0.273 OA
ATOM      7  H   UNL A   1      34.485  26.848  24.815  1.00  0.00     0.163 HD
BRANCH   5   8
ATOM      8  C   UNL A   1      31.125  27.272  24.900  1.00  0.00     0.159 C 
BRANCH   8   9
ATOM      9  C   UNL A   1      30.284  25.992  24.726  1.00  0.00     0.030 C 
BRANCH   9  10
ATOM     10  C   UNL A   1      30.005  25.153  25.972  1.00  0.00     0.002 C 
BRANCH  10  11
ATOM     11  C   UNL A   1      30.769  23.836  26.100  1.00  0.00    -0.003 C 
ATOM     12  C   UNL A   1      32.183  23.980  26.645  1.00  0.00     0.004 C 
ENDBRANCH  10  11
ENDBRANCH   9  10
ENDBRANCH   8   9
BRANCH   8  13
ATOM     13  N   UNL A   1      30.594  28.457  24.208  1.00  0.00    -0.199 NA
ATOM     14  H   UNL A   1      31.400  28.956  23.831  1.00  0.00     0.142 HD
BRANCH  13  15
ATOM     15  S   UNL A   1      29.494  28.315  22.950  1.00  0.00     0.241 S 
ATOM     16  O   UNL A   1      30.279  27.882  21.811  1.00  0.00    -0.207 OA
ATOM     17  O   UNL A   1      28.371  27.544  23.424  1.00  0.00    -0.207 OA
BRANCH  15  18
ATOM     18  C   UNL A   1      28.953  29.971  22.618  1.00  0.00     0.085 A 
ATOM     19  C   UNL A   1      29.092  30.957  23.602  1.00  0.00     0.022 A 
ATOM     20  C   UNL A   1      28.378  30.285  21.386  1.00  0.00     0.061 A 
ATOM     21  C   UNL A   1      28.758  32.282  23.309  1.00  0.00     0.004 A 
ATOM     22  C   UNL A   1      28.068  31.610  21.105  1.00  0.00     0.124 A 
ATOM     23  C   UNL A   1      28.267  32.612  22.048  1.00  0.00     0.039 A 
ATOM     24  F   UNL A   1      27.607  31.933  19.889  1.00  0.00    -0.207 F 
ENDBRANCH  15  18
ENDBRANCH  13  15
ENDBRANCH   8  13
ENDBRANCH   5   8
ENDBRANCH   3   4
ENDBRANCH   2   3
ENDBRANCH   1   2
BRANCH   1  25
ATOM     25  C   UNL A   1      31.652  30.858  26.129  1.00  0.00     0.002 C 
BRANCH  25  26
ATOM     26  C   UNL A   1      31.419  32.263  26.686  1.00  0.00     0.021 C 
BRANCH  26  27
ATOM     27  C   UNL A   1      32.625  32.871  27.394  1.00  0.00     0.116 C 
BRANCH  27  28
ATOM     28  N   UNL A   1      32.419  34.277  27.706  1.00  0.00    -0.352 N 
ATOM     29  C   UNL A   1      33.033  35.050  28.657  1.00  0.00     0.251 C 
ATOM     30  H   UNL A   1      31.744  34.737  27.157  1.00  0.00     0.163 HD
ATOM     31  O   UNL A   1      32.589  36.159  28.938  1.00  0.00    -0.269 OA
BRANCH  29  32
ATOM     32  C   UNL A   1      34.222  34.529  29.363  1.00  0.00     0.039 A 
ATOM     33  C   UNL A   1      34.054  33.913  30.604  1.00  0.00     0.014 A 
ATOM     34  C   UNL A   1      35.495  34.637  28.792  1.00  0.00     0.014 A 
ATOM     35  C   UNL A   1      35.156  33.342  31.242  1.00  0.00     0.010 A 
ATOM     36  C   UNL A   1      36.577  34.001  29.393  1.00  0.00     0.010 A 
ATOM     37  C   UNL A   1      36.418  33.344  30.622  1.00  0.00    -0.014 A 
BRANCH  37  38
ATOM     38  C   UNL A   1      37.570  32.635  31.233  1.00  0.00     0.031 A 
ATOM     39  C   UNL A   1      38.156  33.108  32.533  1.00  0.00     0.074 A 
ATOM     40  C   UNL A   1      38.123  31.592  30.582  1.00  0.00     0.049 A 
ATOM     41  N   UNL A   1      39.188  32.640  33.189  1.00  0.00    -0.248 NA
ATOM     42  C   UNL A   1      37.517  34.268  33.170  1.00  0.00     0.031 C 
ATOM     43  C   UNL A   1      37.669  31.068  29.291  1.00  0.00     0.029 A 
ATOM     44  N   UNL A   1      39.186  30.790  30.910  1.00  0.00    -0.354 N 
ATOM     45  C   UNL A   1      39.322  33.449  34.308  1.00  0.00     0.074 A 
ATOM     46  C   UNL A   1      38.304  34.471  34.217  1.00  0.00     0.031 C 
ATOM     47  C   UNL A   1      38.428  30.013  28.956  1.00  0.00     0.029 A 
ATOM     48  C   UNL A   1      39.449  29.814  29.979  1.00  0.00     0.049 A 
ATOM     49  H   UNL A   1      39.712  30.902  31.735  1.00  0.00     0.167 HD
ATOM     50  C   UNL A   1      40.202  33.332  35.331  1.00  0.00     0.037 A 
ATOM     51  C   UNL A   1      40.409  28.869  29.945  1.00  0.00     0.037 A 
ATOM     52  C   UNL A   1      41.200  32.300  35.426  1.00  0.00     0.049 A 
ATOM     53  C   UNL A   1      41.391  28.779  31.079  1.00  0.00     0.074 A 
ATOM     54  C   UNL A   1      42.093  32.063  36.455  1.00  0.00     0.029 A 
ATOM     55  N   UNL A   1      41.444  31.340  34.455  1.00  0.00    -0.354 N 
ATOM     56  N   UNL A   1      41.463  29.509  32.165  1.00  0.00    -0.248 NA
ATOM     57  C   UNL A   1      42.426  27.739  30.984  1.00  0.00     0.031 C 
ATOM     58  C   UNL A   1      42.919  31.000  36.081  1.00  0.00     0.029 A 
ATOM     59  C   UNL A   1      42.500  30.532  34.846  1.00  0.00     0.049 A 
ATOM     60  H   UNL A   1      40.941  31.245  33.615  1.00  0.00     0.167 HD
ATOM     61  C   UNL A   1      42.537  29.009  32.891  1.00  0.00     0.074 A 
ATOM     62  C   UNL A   1      43.075  27.900  32.130  1.00  0.00     0.031 C 
ATOM     63  C   UNL A   1      43.031  29.434  34.079  1.00  0.00     0.037 A 
BRANCH  50  64
ATOM     64  C   UNL A   1      40.123  34.337  36.444  1.00  0.00     0.057 A 
ATOM     65  C   UNL A   1      39.244  34.148  37.518  1.00  0.00     0.134 A 
ATOM     66  C   UNL A   1      40.854  35.532  36.412  1.00  0.00     0.134 A 
ATOM     67  F   UNL A   1      38.508  33.030  37.607  1.00  0.00    -0.206 F 
ATOM     68  C   UNL A   1      39.082  35.117  38.510  1.00  0.00     0.040 A 
ATOM     69  C   UNL A   1      40.723  36.496  37.415  1.00  0.00     0.040 A 
ATOM     70  F   UNL A   1      41.721  35.773  35.417  1.00  0.00    -0.206 F 
ATOM     71  C   UNL A   1      39.826  36.294  38.461  1.00  0.00     0.006 A 
ENDBRANCH  50  64
BRANCH  51  72
ATOM     72  C   UNL A   1      40.464  27.923  28.802  1.00  0.00     0.057 A 
ATOM     73  C   UNL A   1      41.205  28.210  27.648  1.00  0.00     0.134 A 
ATOM     74  C   UNL A   1      39.743  26.724  28.821  1.00  0.00     0.134 A 
ATOM     75  F   UNL A   1      41.912  29.346  27.563  1.00  0.00    -0.206 F 
ATOM     76  C   UNL A   1      41.207  27.353  26.546  1.00  0.00     0.040 A 
ATOM     77  C   UNL A   1      39.756  25.845  27.738  1.00  0.00     0.040 A 
ATOM     78  F   UNL A   1      39.029  26.385  29.904  1.00  0.00    -0.206 F 
ATOM     79  C   UNL A   1      40.482  26.163  26.591  1.00  0.00     0.006 A 
ENDBRANCH  51  72
BRANCH  63  80
ATOM     80  C   UNL A   1      44.212  28.702  34.646  1.00  0.00     0.057 A 
ATOM     81  C   UNL A   1      44.032  27.604  35.499  1.00  0.00     0.134 A 
ATOM     82  C   UNL A   1      45.524  29.142  34.427  1.00  0.00     0.134 A 
ATOM     83  F   UNL A   1      42.802  27.139  35.760  1.00  0.00    -0.206 F 
ATOM     84  C   UNL A   1      45.112  26.984  36.128  1.00  0.00     0.040 A 
ATOM     85  C   UNL A   1      46.614  28.511  35.028  1.00  0.00     0.040 A 
ATOM     86  F   UNL A   1      45.765  30.181  33.614  1.00  0.00    -0.206 F 
ATOM     87  C   UNL A   1      46.408  27.437  35.892  1.00  0.00     0.006 A 
ENDBRANCH  63  80
ENDBRANCH  37  38
ENDBRANCH  29  32
ENDBRANCH  27  28
ENDBRANCH  26  27
ENDBRANCH  25  26
ENDBRANCH   1  25
TORSDOF 19
ENDMDL
MODEL 2
REMARK VINA RESULT:     -11.0      0.380      6.274
REMARK SMILES CCCC[C@H](NS(=O)(=O)c1cccc(F)c1)C(=O)NCCCCCCNC(=O)c1ccc(-c2c3nc(c(-c4c(F)cccc4F)c4ccc([nH]4)c(-c4c(F)cccc4F)c4nc(c(-c5c(F)cccc5F)c5ccc2[nH]5)C=C4)C=C3)cc1
REMARK SMILES IDX 22 1 21 2 20 3 19 4 17 5 18 6 5 8 4 9 3 10 2 11 1 12 6 13
REMARK SMILES IDX 7 15 8 16 9 17 10 18 11 19 16 20 12 21 14 22 13 23 15 24
REMARK SMILES IDX 23 25 24 26 25 27 26 28 27 29 28 31 29 32 30 33 82 34 31 35
REMARK SMILES IDX 81 36 32 37 33 38 34 39 75 40 35 41 80 42 74 43 76 44 36 45
REMARK SMILES IDX 79 46 73 47 72 48 37 50 63 51 46 52 62 53 47 54 50 55 61 56
REMARK SMILES IDX 77 57 48 58 49 59 60 61 78 62 51 63 38 64 39 65 44 66 40 67
REMARK SMILES IDX 41 68 43 69 45 70 42 71 64 72 65 73 70 74 66 75 67 76 69 77
REMARK SMILES IDX 71 78 68 79 52 80 53 81 58 82 54 83 55 84 57 85 59 86 56 87
REMARK H PARENT 19 7 6 14 26 30 76 49 50 60
REMARK Flexibility Score: inf
ROOT
ATOM      1  C   UNL A   1      32.445  29.801  27.129  1.00  0.00     0.002 C 
ENDROOT
BRANCH   1   2
ATOM      2  C   UNL A   1      33.719  29.192  26.549  1.00  0.00     0.021 C 
BRANCH   2   3
ATOM      3  C   UNL A   1      33.738  27.670  26.530  1.00  0.00     0.116 C 
BRANCH   3   4
ATOM      4  N   UNL A   1      33.634  27.104  25.196  1.00  0.00    -0.355 N 
ATOM      5  C   UNL A   1      32.543  26.953  24.383  1.00  0.00     0.238 C 
ATOM      6  O   UNL A   1      32.732  26.592  23.219  1.00  0.00    -0.273 OA
ATOM      7  H   UNL A   1      34.481  26.778  24.817  1.00  0.00     0.163 HD
BRANCH   5   8
ATOM      8  C   UNL A   1      31.127  27.247  24.901  1.00  0.00     0.159 C 
BRANCH   8   9
ATOM      9  C   UNL A   1      30.284  25.970  24.719  1.00  0.00     0.030 C 
BRANCH   9  10
ATOM     10  C   UNL A   1      30.202  25.002  25.898  1.00  0.00     0.002 C 
BRANCH  10  11
ATOM     11  C   UNL A   1      31.244  23.886  25.947  1.00  0.00    -0.003 C 
ATOM     12  C   UNL A   1      31.383  23.099  24.650  1.00  0.00     0.004 C 
ENDBRANCH  10  11
ENDBRANCH   9  10
ENDBRANCH   8   9
BRANCH   8  13
ATOM     13  N   UNL A   1      30.598  28.438  24.217  1.00  0.00    -0.199 NA
ATOM     14  H   UNL A   1      31.403  28.926  23.826  1.00  0.00     0.142 HD
BRANCH  13  15
ATOM     15  S   UNL A   1      29.475  28.307  22.978  1.00  0.00     0.241 S 
ATOM     16  O   UNL A   1      30.231  27.848  21.831  1.00  0.00    -0.207 OA
ATOM     17  O   UNL A   1      28.343  27.565  23.478  1.00  0.00    -0.207 OA
BRANCH  15  18
ATOM     18  C   UNL A   1      28.963  29.972  22.641  1.00  0.00     0.085 A 
ATOM     19  C   UNL A   1      29.123  30.959  23.619  1.00  0.00     0.022 A 
ATOM     20  C   UNL A   1      28.391  30.290  21.409  1.00  0.00     0.061 A 
ATOM     21  C   UNL A   1      28.813  32.289  23.321  1.00  0.00     0.004 A 
ATOM     22  C   UNL A   1      28.104  31.619  21.122  1.00  0.00     0.124 A 
ATOM     23  C   UNL A   1      28.324  32.622  22.059  1.00  0.00     0.039 A 
ATOM     24  F   UNL A   1      27.646  31.944  19.906  1.00  0.00    -0.207 F 
ENDBRANCH  15  18
ENDBRANCH  13  15
ENDBRANCH   8  13
ENDBRANCH   5   8
ENDBRANCH   3   4
ENDBRANCH   2   3
ENDBRANCH   1   2
BRANCH   1  25
ATOM     25  C   UNL A   1      31.734  30.776  26.190  1.00  0.00     0.002 C 
BRANCH  25  26
ATOM     26  C   UNL A   1      31.455  32.154  26.794  1.00  0.00     0.021 C 
BRANCH  26  27
ATOM     27  C   UNL A   1      32.675  32.838  27.401  1.00  0.00     0.116 C 
BRANCH  27  28
ATOM     28  N   UNL A   1      32.429  34.246  27.670  1.00  0.00    -0.352 N 
ATOM     29  C   UNL A   1      33.004  35.059  28.614  1.00  0.00     0.251 C 
ATOM     30  H   UNL A   1      31.757  34.676  27.095  1.00  0.00     0.163 HD
ATOM     31  O   UNL A   1      32.529  36.163  28.856  1.00  0.00    -0.269 OA
BRANCH  29  32
ATOM     32  C   UNL A   1      34.189  34.585  29.358  1.00  0.00     0.039 A 
ATOM     33  C   UNL A   1      34.017  34.062  30.641  1.00  0.00     0.014 A 
ATOM     34  C   UNL A   1      35.464  34.644  28.783  1.00  0.00     0.014 A 
ATOM     35  C   UNL A   1      35.114  33.535  31.321  1.00  0.00     0.010 A 
ATOM     36  C   UNL A   1      36.541  34.048  29.432  1.00  0.00     0.010 A 
ATOM     37  C   UNL A   1      36.378  33.484  30.706  1.00  0.00    -0.014 A 
BRANCH  37  38
ATOM     38  C   UNL A   1      37.524  32.816  31.369  1.00  0.00     0.031 A 
ATOM     39  C   UNL A   1      38.171  31.611  30.749  1.00  0.00     0.074 A 
ATOM     40  C   UNL A   1      37.947  33.269  32.567  1.00  0.00     0.049 A 
ATOM     41  N   UNL A   1      39.151  30.875  31.207  1.00  0.00    -0.248 NA
ATOM     42  C   UNL A   1      37.637  31.160  29.455  1.00  0.00     0.031 C 
ATOM     43  C   UNL A   1      37.370  34.403  33.291  1.00  0.00     0.029 A 
ATOM     44  N   UNL A   1      38.955  32.829  33.388  1.00  0.00    -0.354 N 
ATOM     45  C   UNL A   1      39.346  29.875  30.265  1.00  0.00     0.074 A 
ATOM     46  C   UNL A   1      38.348  30.063  29.235  1.00  0.00     0.031 C 
ATOM     47  C   UNL A   1      38.054  34.590  34.431  1.00  0.00     0.029 A 
ATOM     48  C   UNL A   1      39.084  33.562  34.543  1.00  0.00     0.049 A 
ATOM     49  H   UNL A   1      39.530  32.060  33.171  1.00  0.00     0.167 HD
ATOM     50  C   UNL A   1      40.289  28.903  30.249  1.00  0.00     0.037 A 
ATOM     51  C   UNL A   1      39.931  33.421  35.582  1.00  0.00     0.037 A 
ATOM     52  C   UNL A   1      41.292  28.734  31.267  1.00  0.00     0.049 A 
ATOM     53  C   UNL A   1      40.949  32.317  35.554  1.00  0.00     0.074 A 
ATOM     54  C   UNL A   1      42.328  27.818  31.306  1.00  0.00     0.029 A 
ATOM     55  N   UNL A   1      41.380  29.488  32.428  1.00  0.00    -0.354 N 
ATOM     56  N   UNL A   1      41.166  31.420  34.623  1.00  0.00    -0.248 NA
ATOM     57  C   UNL A   1      41.839  32.200  36.719  1.00  0.00     0.031 C 
ATOM     58  C   UNL A   1      43.005  27.976  32.517  1.00  0.00     0.029 A 
ATOM     59  C   UNL A   1      42.431  29.032  33.207  1.00  0.00     0.049 A 
ATOM     60  H   UNL A   1      40.786  30.236  32.663  1.00  0.00     0.167 HD
ATOM     61  C   UNL A   1      42.225  30.645  35.078  1.00  0.00     0.074 A 
ATOM     62  C   UNL A   1      42.619  31.188  36.361  1.00  0.00     0.031 C 
ATOM     63  C   UNL A   1      42.813  29.577  34.485  1.00  0.00     0.037 A 
BRANCH  50  64
ATOM     64  C   UNL A   1      40.296  27.948  29.091  1.00  0.00     0.057 A 
ATOM     65  C   UNL A   1      41.023  28.239  27.929  1.00  0.00     0.134 A 
ATOM     66  C   UNL A   1      39.517  26.783  29.089  1.00  0.00     0.134 A 
ATOM     67  F   UNL A   1      41.783  29.342  27.859  1.00  0.00    -0.206 F 
ATOM     68  C   UNL A   1      40.963  27.415  26.804  1.00  0.00     0.040 A 
ATOM     69  C   UNL A   1      39.473  25.936  27.981  1.00  0.00     0.040 A 
ATOM     70  F   UNL A   1      38.804  26.441  30.173  1.00  0.00    -0.206 F 
ATOM     71  C   UNL A   1      40.188  26.258  26.830  1.00  0.00     0.006 A 
ENDBRANCH  50  64
BRANCH  51  72
ATOM     72  C   UNL A   1      39.857  34.372  36.720  1.00  0.00     0.057 A 
ATOM     73  C   UNL A   1      39.067  34.106  37.846  1.00  0.00     0.134 A 
ATOM     74  C   UNL A   1      40.545  35.590  36.691  1.00  0.00     0.134 A 
ATOM     75  F   UNL A   1      38.377  32.960  37.934  1.00  0.00    -0.206 F 
ATOM     76  C   UNL A   1      38.944  35.026  38.889  1.00  0.00     0.040 A 
ATOM     77  C   UNL A   1      40.453  36.508  37.738  1.00  0.00     0.040 A 
ATOM     78  F   UNL A   1      41.331  35.895  35.648  1.00  0.00    -0.206 F 
ATOM     79  C   UNL A   1      39.642  36.231  38.837  1.00  0.00     0.006 A 
ENDBRANCH  51  72
BRANCH  63  80
ATOM     80  C   UNL A   1      43.953  28.918  35.206  1.00  0.00     0.057 A 
ATOM     81  C   UNL A   1      45.278  29.284  34.935  1.00  0.00     0.134 A 
ATOM     82  C   UNL A   1      43.745  27.856  36.095  1.00  0.00     0.134 A 
ATOM     83  F   UNL A   1      45.548  30.286  34.085  1.00  0.00    -0.206 F 
ATOM     84  C   UNL A   1      46.354  28.605  35.507  1.00  0.00     0.040 A 
ATOM     85  C   UNL A   1      44.813  27.187  36.695  1.00  0.00     0.040 A 
ATOM     86  F   UNL A   1      42.499  27.463  36.404  1.00  0.00    -0.206 F 
ATOM     87  C   UNL A   1      46.122  27.553  36.391  1.00  0.00     0.006 A 
ENDBRANCH  63  80
ENDBRANCH  37  38
ENDBRANCH  29  32
ENDBRANCH  27  28
ENDBRANCH  26  27
ENDBRANCH  25  26
ENDBRANCH   1  25
TORSDOF 19
ENDMDL
MODEL 3
REMARK VINA RESULT:     -11.0      2.326      7.163
REMARK SMILES CCCC[C@H](NS(=O)(=O)c1cccc(F)c1)C(=O)NCCCCCCNC(=O)c1ccc(-c2c3nc(c(-c4c(F)cccc4F)c4ccc([nH]4)c(-c4c(F)cccc4F)c4nc(c(-c5c(F)cccc5F)c5ccc2[nH]5)C=C4)C=C3)cc1
REMARK SMILES IDX 22 1 21 2 20 3 19 4 17 5 18 6 5 8 4 9 3 10 2 11 1 12 6 13
REMARK SMILES IDX 7 15 8 16 9 17 10 18 11 19 16 20 12 21 14 22 13 23 15 24
REMARK SMILES IDX 23 25 24 26 25 27 26 28 27 29 28 31 29 32 30 33 82 34 31 35
REMARK SMILES IDX 81 36 32 37 33 38 34 39 75 40 35 41 80 42 74 43 76 44 36 45
REMARK SMILES IDX 79 46 73 47 72 48 37 50 63 51 46 52 62 53 47 54 50 55 61 56
REMARK SMILES IDX 77 57 48 58 49 59 60 61 78 62 51 63 38 64 39 65 44 66 40 67
REMARK SMILES IDX 41 68 43 69 45 70 42 71 64 72 65 73 70 74 66 75 67 76 69 77
REMARK SMILES IDX 71 78 68 79 52 80 53 81 58 82 54 83 55 84 57 85 59 86 56 87
REMARK H PARENT 19 7 6 14 26 30 76 49 50 60
REMARK Flexibility Score: inf
ROOT
ATOM      1  C   UNL A   1      32.723  29.776  26.844  1.00  0.00     0.002 C 
ENDROOT
BRANCH   1   2
ATOM      2  C   UNL A   1      32.239  28.443  27.409  1.00  0.00     0.021 C 
BRANCH   2   3
ATOM      3  C   UNL A   1      32.083  27.338  26.374  1.00  0.00     0.116 C 
BRANCH   3   4
ATOM      4  N   UNL A   1      31.218  26.254  26.806  1.00  0.00    -0.355 N 
ATOM      5  C   UNL A   1      30.588  25.282  26.077  1.00  0.00     0.238 C 
ATOM      6  O   UNL A   1      30.034  24.365  26.688  1.00  0.00    -0.273 OA
ATOM      7  H   UNL A   1      31.060  26.212  27.776  1.00  0.00     0.163 HD
BRANCH   5   8
ATOM      8  C   UNL A   1      30.590  25.322  24.541  1.00  0.00     0.159 C 
BRANCH   8   9
ATOM      9  C   UNL A   1      29.332  26.088  24.087  1.00  0.00     0.030 C 
BRANCH   9  10
ATOM     10  C   UNL A   1      29.526  27.488  23.506  1.00  0.00     0.002 C 
BRANCH  10  11
ATOM     11  C   UNL A   1      30.699  27.676  22.544  1.00  0.00    -0.003 C 
ATOM     12  C   UNL A   1      31.507  28.945  22.781  1.00  0.00     0.004 C 
ENDBRANCH  10  11
ENDBRANCH   9  10
ENDBRANCH   8   9
BRANCH   8  13
ATOM     13  N   UNL A   1      30.699  23.950  24.020  1.00  0.00    -0.199 NA
ATOM     14  H   UNL A   1      29.919  23.824  23.376  1.00  0.00     0.142 HD
BRANCH  13  15
ATOM     15  S   UNL A   1      32.071  23.429  23.209  1.00  0.00     0.241 S 
ATOM     16  O   UNL A   1      31.766  22.079  22.780  1.00  0.00    -0.207 OA
ATOM     17  O   UNL A   1      32.446  24.452  22.263  1.00  0.00    -0.207 OA
BRANCH  15  18
ATOM     18  C   UNL A   1      33.329  23.314  24.455  1.00  0.00     0.085 A 
ATOM     19  C   UNL A   1      34.483  24.097  24.350  1.00  0.00     0.022 A 
ATOM     20  C   UNL A   1      33.172  22.434  25.526  1.00  0.00     0.061 A 
ATOM     21  C   UNL A   1      35.429  24.082  25.380  1.00  0.00     0.004 A 
ATOM     22  C   UNL A   1      34.112  22.444  26.550  1.00  0.00     0.124 A 
ATOM     23  C   UNL A   1      35.229  23.269  26.494  1.00  0.00     0.039 A 
ATOM     24  F   UNL A   1      33.917  21.673  27.628  1.00  0.00    -0.207 F 
ENDBRANCH  15  18
ENDBRANCH  13  15
ENDBRANCH   8  13
ENDBRANCH   5   8
ENDBRANCH   3   4
ENDBRANCH   2   3
ENDBRANCH   1   2
BRANCH   1  25
ATOM     25  C   UNL A   1      31.656  30.551  26.069  1.00  0.00     0.002 C 
BRANCH  25  26
ATOM     26  C   UNL A   1      31.464  31.999  26.523  1.00  0.00     0.021 C 
BRANCH  26  27
ATOM     27  C   UNL A   1      32.665  32.600  27.245  1.00  0.00     0.116 C 
BRANCH  27  28
ATOM     28  N   UNL A   1      32.465  34.007  27.553  1.00  0.00    -0.352 N 
ATOM     29  C   UNL A   1      33.064  34.775  28.519  1.00  0.00     0.251 C 
ATOM     30  H   UNL A   1      31.807  34.474  26.990  1.00  0.00     0.163 HD
ATOM     31  O   UNL A   1      32.624  35.887  28.791  1.00  0.00    -0.269 OA
BRANCH  29  32
ATOM     32  C   UNL A   1      34.232  34.243  29.251  1.00  0.00     0.039 A 
ATOM     33  C   UNL A   1      34.022  33.538  30.438  1.00  0.00     0.014 A 
ATOM     34  C   UNL A   1      35.528  34.427  28.758  1.00  0.00     0.014 A 
ATOM     35  C   UNL A   1      35.108  32.959  31.094  1.00  0.00     0.010 A 
ATOM     36  C   UNL A   1      36.599  33.785  29.372  1.00  0.00     0.010 A 
ATOM     37  C   UNL A   1      36.400  33.041  30.544  1.00  0.00    -0.014 A 
BRANCH  37  38
ATOM     38  C   UNL A   1      37.542  32.327  31.167  1.00  0.00     0.031 A 
ATOM     39  C   UNL A   1      38.242  31.218  30.435  1.00  0.00     0.074 A 
ATOM     40  C   UNL A   1      37.911  32.646  32.424  1.00  0.00     0.049 A 
ATOM     41  N   UNL A   1      39.225  30.456  30.840  1.00  0.00    -0.248 NA
ATOM     42  C   UNL A   1      37.763  30.909  29.079  1.00  0.00     0.031 C 
ATOM     43  C   UNL A   1      37.280  33.674  33.254  1.00  0.00     0.029 A 
ATOM     44  N   UNL A   1      38.903  32.136  33.225  1.00  0.00    -0.354 N 
ATOM     45  C   UNL A   1      39.479  29.578  29.796  1.00  0.00     0.074 A 
ATOM     46  C   UNL A   1      38.512  29.862  28.759  1.00  0.00     0.031 C 
ATOM     47  C   UNL A   1      37.920  33.742  34.431  1.00  0.00     0.029 A 
ATOM     48  C   UNL A   1      38.974  32.732  34.461  1.00  0.00     0.049 A 
ATOM     49  H   UNL A   1      39.506  31.412  32.941  1.00  0.00     0.167 HD
ATOM     50  C   UNL A   1      40.448  28.637  29.702  1.00  0.00     0.037 A 
ATOM     51  C   UNL A   1      39.789  32.491  35.506  1.00  0.00     0.037 A 
ATOM     52  C   UNL A   1      41.421  28.373  30.729  1.00  0.00     0.049 A 
ATOM     53  C   UNL A   1      40.837  31.421  35.388  1.00  0.00     0.074 A 
ATOM     54  C   UNL A   1      42.479  27.484  30.699  1.00  0.00     0.029 A 
ATOM     55  N   UNL A   1      41.450  28.988  31.972  1.00  0.00    -0.354 N 
ATOM     56  N   UNL A   1      41.110  30.645  34.367  1.00  0.00    -0.248 NA
ATOM     57  C   UNL A   1      41.690  31.190  36.562  1.00  0.00     0.031 C 
ATOM     58  C   UNL A   1      43.111  27.514  31.944  1.00  0.00     0.029 A 
ATOM     59  C   UNL A   1      42.486  28.469  32.731  1.00  0.00     0.049 A 
ATOM     60  H   UNL A   1      40.827  29.690  32.270  1.00  0.00     0.167 HD
ATOM     61  C   UNL A   1      42.173  29.846  34.768  1.00  0.00     0.074 A 
ATOM     62  C   UNL A   1      42.509  30.245  36.119  1.00  0.00     0.031 C 
ATOM     63  C   UNL A   1      42.810  28.869  34.076  1.00  0.00     0.037 A 
BRANCH  50  64
ATOM     64  C   UNL A   1      40.520  27.825  28.441  1.00  0.00     0.057 A 
ATOM     65  C   UNL A   1      39.883  26.579  28.356  1.00  0.00     0.134 A 
ATOM     66  C   UNL A   1      41.287  28.233  27.342  1.00  0.00     0.134 A 
ATOM     67  F   UNL A   1      39.139  26.123  29.375  1.00  0.00    -0.206 F 
ATOM     68  C   UNL A   1      40.021  25.764  27.232  1.00  0.00     0.040 A 
ATOM     69  C   UNL A   1      41.407  27.439  26.200  1.00  0.00     0.040 A 
ATOM     70  F   UNL A   1      41.914  29.419  27.354  1.00  0.00    -0.206 F 
ATOM     71  C   UNL A   1      40.783  26.195  26.148  1.00  0.00     0.006 A 
ENDBRANCH  50  64
BRANCH  51  72
ATOM     72  C   UNL A   1      39.651  33.300  36.744  1.00  0.00     0.057 A 
ATOM     73  C   UNL A   1      38.761  32.933  37.763  1.00  0.00     0.134 A 
ATOM     74  C   UNL A   1      40.378  34.482  36.919  1.00  0.00     0.134 A 
ATOM     75  F   UNL A   1      38.029  31.815  37.653  1.00  0.00    -0.206 F 
ATOM     76  C   UNL A   1      38.582  33.725  38.898  1.00  0.00     0.040 A 
ATOM     77  C   UNL A   1      40.228  35.270  38.061  1.00  0.00     0.040 A 
ATOM     78  F   UNL A   1      41.257  34.877  35.988  1.00  0.00    -0.206 F 
ATOM     79  C   UNL A   1      39.320  34.898  39.051  1.00  0.00     0.006 A 
ENDBRANCH  51  72
BRANCH  63  80
ATOM     80  C   UNL A   1      43.942  28.157  34.757  1.00  0.00     0.057 A 
ATOM     81  C   UNL A   1      43.709  27.001  35.514  1.00  0.00     0.134 A 
ATOM     82  C   UNL A   1      45.246  28.669  34.744  1.00  0.00     0.134 A 
ATOM     83  F   UNL A   1      42.481  26.465  35.578  1.00  0.00    -0.206 F 
ATOM     84  C   UNL A   1      44.727  26.392  36.248  1.00  0.00     0.040 A 
ATOM     85  C   UNL A   1      46.279  28.051  35.451  1.00  0.00     0.040 A 
ATOM     86  F   UNL A   1      45.538  29.767  34.030  1.00  0.00    -0.206 F 
ATOM     87  C   UNL A   1      46.017  26.917  36.217  1.00  0.00     0.006 A 
ENDBRANCH  63  80
ENDBRANCH  37  38
ENDBRANCH  29  32
ENDBRANCH  27  28
ENDBRANCH  26  27
ENDBRANCH  25  26
ENDBRANCH   1  25
TORSDOF 19
ENDMDL
