MODEL 1
REMARK VINA RESULT:     -11.8      0.000      0.000
REMARK SMILES Cc1ccc(NC(=O)C[C@@H](C(=O)NCCCCCCNC(=O)c2ccc(-c3c4nc(c(-c5c(F)cccc5F)c5ccc([nH]5)c(-c5c(F)cccc5F)c5nc(c(-c6c(F)cccc6F)c6ccc3[nH]6)C=C5)C=C4)cc2)[NH+]2CCOCC2)cc1
REMARK SMILES IDX 16 1 15 2 14 3 13 4 11 5 12 6 10 8 9 9 7 10 6 11 8 13 5 14
REMARK SMILES IDX 1 15 2 16 3 17 84 18 4 19 83 20 77 21 78 22 82 23 79 25
REMARK SMILES IDX 81 26 80 27 17 28 18 29 19 30 20 31 21 32 22 34 23 35 24 36
REMARK SMILES IDX 76 37 25 38 75 39 26 40 27 41 28 42 69 43 29 44 74 45 68 46
REMARK SMILES IDX 70 47 30 48 73 49 67 50 66 51 31 53 57 54 40 55 56 56 41 57
REMARK SMILES IDX 44 58 55 59 71 60 42 61 43 62 54 64 72 65 45 66 32 67 33 68
REMARK SMILES IDX 38 69 34 70 35 71 37 72 39 73 36 74 58 75 59 76 64 77 60 78
REMARK SMILES IDX 61 79 63 80 65 81 62 82 46 83 47 84 52 85 48 86 49 87 51 88
REMARK SMILES IDX 53 89 50 90
REMARK H PARENT 13 7 6 12 77 24 20 33 70 52 44 63
REMARK Flexibility Score: inf
ROOT
ATOM      1  C   UNL A   1      32.335  27.768  26.838  1.00  0.00     0.002 C 
ENDROOT
BRANCH   1   2
ATOM      2  C   UNL A   1      31.249  26.721  26.530  1.00  0.00     0.021 C 
BRANCH   2   3
ATOM      3  C   UNL A   1      31.746  25.341  26.073  1.00  0.00     0.116 C 
BRANCH   3   4
ATOM      4  N   UNL A   1      33.186  25.310  25.953  1.00  0.00    -0.351 N 
ATOM      5  C   UNL A   1      34.070  24.517  25.304  1.00  0.00     0.278 C 
ATOM      6  O   UNL A   1      35.248  24.874  25.440  1.00  0.00    -0.268 OA
ATOM      7  H   UNL A   1      33.624  26.031  26.461  1.00  0.00     0.163 HD
BRANCH   5   8
ATOM      8  C   UNL A   1      33.655  23.335  24.357  1.00  0.00     0.283 C 
BRANCH   8   9
ATOM      9  C   UNL A   1      32.564  23.656  23.312  1.00  0.00     0.175 C 
BRANCH   9  10
ATOM     10  C   UNL A   1      32.918  24.294  21.993  1.00  0.00     0.230 C 
ATOM     11  N   UNL A   1      32.586  25.578  21.670  1.00  0.00    -0.326 N 
ATOM     12  H   UNL A   1      32.722  25.810  20.723  1.00  0.00     0.169 HD
ATOM     13  O   UNL A   1      33.547  23.639  21.154  1.00  0.00    -0.274 OA
BRANCH  11  14
ATOM     14  C   UNL A   1      32.083  26.623  22.461  1.00  0.00     0.041 A 
ATOM     15  C   UNL A   1      30.141  30.160  23.920  1.00  0.00     0.044 C 
ATOM     16  C   UNL A   1      30.807  28.873  23.542  1.00  0.00    -0.051 A 
ATOM     17  C   UNL A   1      32.201  28.816  23.465  1.00  0.00     0.005 A 
ATOM     18  C   UNL A   1      30.063  27.745  23.193  1.00  0.00     0.005 A 
ATOM     19  C   UNL A   1      32.836  27.691  22.936  1.00  0.00     0.026 A 
ATOM     20  C   UNL A   1      30.703  26.613  22.683  1.00  0.00     0.026 A 
ENDBRANCH  11  14
ENDBRANCH   9  10
ENDBRANCH   8   9
BRANCH   8  21
ATOM     21  N   UNL A   1      33.259  22.178  25.225  1.00  0.00    -0.320 N 
ATOM     22  C   UNL A   1      34.381  21.372  25.750  1.00  0.00     0.291 C 
ATOM     23  C   UNL A   1      32.125  21.313  24.883  1.00  0.00     0.291 C 
ATOM     24  H   UNL A   1      32.859  22.764  25.958  1.00  0.00     0.348 HD
ATOM     25  C   UNL A   1      34.680  20.110  24.928  1.00  0.00     0.221 C 
ATOM     26  C   UNL A   1      32.485  20.037  24.113  1.00  0.00     0.221 C 
ATOM     27  O   UNL A   1      33.516  19.296  24.772  1.00  0.00    -0.370 OA
ENDBRANCH   8  21
ENDBRANCH   5   8
ENDBRANCH   3   4
ENDBRANCH   2   3
ENDBRANCH   1   2
BRANCH   1  28
ATOM     28  C   UNL A   1      31.848  29.163  27.250  1.00  0.00     0.002 C 
BRANCH  28  29
ATOM     29  C   UNL A   1      32.781  30.323  26.908  1.00  0.00     0.021 C 
BRANCH  29  30
ATOM     30  C   UNL A   1      34.260  30.013  27.082  1.00  0.00     0.116 C 
BRANCH  30  31
ATOM     31  N   UNL A   1      35.067  31.123  27.552  1.00  0.00    -0.352 N 
ATOM     32  C   UNL A   1      36.288  31.124  28.194  1.00  0.00     0.251 C 
ATOM     33  H   UNL A   1      34.682  32.015  27.387  1.00  0.00     0.163 HD
ATOM     34  O   UNL A   1      36.703  32.190  28.656  1.00  0.00    -0.269 OA
BRANCH  32  35
ATOM     35  C   UNL A   1      37.185  29.932  28.196  1.00  0.00     0.039 A 
ATOM     36  C   UNL A   1      37.162  29.110  29.338  1.00  0.00     0.014 A 
ATOM     37  C   UNL A   1      38.182  29.735  27.247  1.00  0.00     0.014 A 
ATOM     38  C   UNL A   1      38.264  28.318  29.649  1.00  0.00     0.010 A 
ATOM     39  C   UNL A   1      39.320  29.047  27.599  1.00  0.00     0.010 A 
ATOM     40  C   UNL A   1      39.383  28.406  28.834  1.00  0.00    -0.014 A 
BRANCH  40  41
ATOM     41  C   UNL A   1      40.697  27.900  29.178  1.00  0.00     0.031 A 
ATOM     42  C   UNL A   1      41.098  26.568  28.701  1.00  0.00     0.074 A 
ATOM     43  C   UNL A   1      41.578  28.762  29.732  1.00  0.00     0.049 A 
ATOM     44  N   UNL A   1      42.164  25.959  29.085  1.00  0.00    -0.248 NA
ATOM     45  C   UNL A   1      40.284  25.775  27.780  1.00  0.00     0.031 C 
ATOM     46  C   UNL A   1      43.032  28.649  29.796  1.00  0.00     0.029 A 
ATOM     47  N   UNL A   1      41.278  29.848  30.567  1.00  0.00    -0.354 N 
ATOM     48  C   UNL A   1      42.346  24.893  28.239  1.00  0.00     0.074 A 
ATOM     49  C   UNL A   1      41.086  24.728  27.565  1.00  0.00     0.031 C 
ATOM     50  C   UNL A   1      43.479  29.402  30.816  1.00  0.00     0.029 A 
ATOM     51  C   UNL A   1      42.307  29.869  31.537  1.00  0.00     0.049 A 
ATOM     52  H   UNL A   1      40.515  30.464  30.493  1.00  0.00     0.167 HD
ATOM     53  C   UNL A   1      43.603  24.395  28.095  1.00  0.00     0.037 A 
ATOM     54  C   UNL A   1      42.036  29.568  32.843  1.00  0.00     0.037 A 
ATOM     55  C   UNL A   1      44.468  24.881  29.172  1.00  0.00     0.049 A 
ATOM     56  C   UNL A   1      42.791  28.361  33.350  1.00  0.00     0.074 A 
ATOM     57  C   UNL A   1      45.480  25.820  29.229  1.00  0.00     0.029 A 
ATOM     58  N   UNL A   1      44.119  24.593  30.491  1.00  0.00    -0.354 N 
ATOM     59  N   UNL A   1      43.282  27.429  32.577  1.00  0.00    -0.248 NA
ATOM     60  C   UNL A   1      43.058  28.111  34.764  1.00  0.00     0.031 C 
ATOM     61  C   UNL A   1      45.635  26.201  30.592  1.00  0.00     0.029 A 
ATOM     62  C   UNL A   1      44.765  25.448  31.362  1.00  0.00     0.049 A 
ATOM     63  H   UNL A   1      43.499  23.879  30.764  1.00  0.00     0.167 HD
ATOM     64  C   UNL A   1      43.908  26.482  33.342  1.00  0.00     0.074 A 
ATOM     65  C   UNL A   1      43.750  26.959  34.705  1.00  0.00     0.031 C 
ATOM     66  C   UNL A   1      44.505  25.382  32.796  1.00  0.00     0.037 A 
BRANCH  53  67
ATOM     67  C   UNL A   1      44.110  23.654  26.875  1.00  0.00     0.057 A 
ATOM     68  C   UNL A   1      44.845  24.343  25.891  1.00  0.00     0.134 A 
ATOM     69  C   UNL A   1      43.797  22.321  26.532  1.00  0.00     0.134 A 
ATOM     70  F   UNL A   1      45.203  25.624  26.057  1.00  0.00    -0.206 F 
ATOM     71  C   UNL A   1      45.225  23.758  24.671  1.00  0.00     0.040 A 
ATOM     72  C   UNL A   1      44.215  21.711  25.341  1.00  0.00     0.040 A 
ATOM     73  F   UNL A   1      43.016  21.545  27.289  1.00  0.00    -0.206 F 
ATOM     74  C   UNL A   1      44.921  22.434  24.396  1.00  0.00     0.006 A 
ENDBRANCH  53  67
BRANCH  54  75
ATOM     75  C   UNL A   1      40.653  29.954  33.244  1.00  0.00     0.057 A 
ATOM     76  C   UNL A   1      40.378  31.320  33.448  1.00  0.00     0.134 A 
ATOM     77  C   UNL A   1      39.560  29.116  33.007  1.00  0.00     0.134 A 
ATOM     78  F   UNL A   1      41.382  32.180  33.687  1.00  0.00    -0.206 F 
ATOM     79  C   UNL A   1      39.097  31.850  33.277  1.00  0.00     0.040 A 
ATOM     80  C   UNL A   1      38.267  29.634  32.857  1.00  0.00     0.040 A 
ATOM     81  F   UNL A   1      39.737  27.804  32.792  1.00  0.00    -0.206 F 
ATOM     82  C   UNL A   1      38.041  31.008  32.941  1.00  0.00     0.006 A 
ENDBRANCH  54  75
BRANCH  66  83
ATOM     83  C   UNL A   1      44.970  24.170  33.568  1.00  0.00     0.057 A 
ATOM     84  C   UNL A   1      44.217  22.996  33.721  1.00  0.00     0.134 A 
ATOM     85  C   UNL A   1      46.291  24.100  34.062  1.00  0.00     0.134 A 
ATOM     86  F   UNL A   1      42.991  22.873  33.195  1.00  0.00    -0.206 F 
ATOM     87  C   UNL A   1      44.715  21.862  34.377  1.00  0.00     0.040 A 
ATOM     88  C   UNL A   1      46.818  22.956  34.668  1.00  0.00     0.040 A 
ATOM     89  F   UNL A   1      47.139  25.133  33.956  1.00  0.00    -0.206 F 
ATOM     90  C   UNL A   1      46.023  21.835  34.843  1.00  0.00     0.006 A 
ENDBRANCH  66  83
ENDBRANCH  40  41
ENDBRANCH  32  35
ENDBRANCH  30  31
ENDBRANCH  29  30
ENDBRANCH  28  29
ENDBRANCH   1  28
TORSDOF 17
ENDMDL
MODEL 2
REMARK VINA RESULT:     -11.6      1.290      2.384
REMARK SMILES Cc1ccc(NC(=O)C[C@@H](C(=O)NCCCCCCNC(=O)c2ccc(-c3c4nc(c(-c5c(F)cccc5F)c5ccc([nH]5)c(-c5c(F)cccc5F)c5nc(c(-c6c(F)cccc6F)c6ccc3[nH]6)C=C5)C=C4)cc2)[NH+]2CCOCC2)cc1
REMARK SMILES IDX 16 1 15 2 14 3 13 4 11 5 12 6 10 8 9 9 7 10 6 11 8 13 5 14
REMARK SMILES IDX 1 15 2 16 3 17 84 18 4 19 83 20 77 21 78 22 82 23 79 25
REMARK SMILES IDX 81 26 80 27 17 28 18 29 19 30 20 31 21 32 22 34 23 35 24 36
REMARK SMILES IDX 76 37 25 38 75 39 26 40 27 41 28 42 69 43 29 44 74 45 68 46
REMARK SMILES IDX 70 47 30 48 73 49 67 50 66 51 31 53 57 54 40 55 56 56 41 57
REMARK SMILES IDX 44 58 55 59 71 60 42 61 43 62 54 64 72 65 45 66 32 67 33 68
REMARK SMILES IDX 38 69 34 70 35 71 37 72 39 73 36 74 58 75 59 76 64 77 60 78
REMARK SMILES IDX 61 79 63 80 65 81 62 82 46 83 47 84 52 85 48 86 49 87 51 88
REMARK SMILES IDX 53 89 50 90
REMARK H PARENT 13 7 6 12 77 24 20 33 70 52 44 63
REMARK Flexibility Score: inf
ROOT
ATOM      1  C   UNL A   1      31.693  27.725  27.264  1.00  0.00     0.002 C 
ENDROOT
BRANCH   1   2
ATOM      2  C   UNL A   1      31.699  26.992  25.910  1.00  0.00     0.021 C 
BRANCH   2   3
ATOM      3  C   UNL A   1      30.370  26.354  25.477  1.00  0.00     0.116 C 
BRANCH   3   4
ATOM      4  N   UNL A   1      30.026  25.227  26.315  1.00  0.00    -0.351 N 
ATOM      5  C   UNL A   1      30.454  23.946  26.408  1.00  0.00     0.278 C 
ATOM      6  O   UNL A   1      29.905  23.307  27.316  1.00  0.00    -0.268 OA
ATOM      7  H   UNL A   1      29.320  25.441  26.966  1.00  0.00     0.163 HD
BRANCH   5   8
ATOM      8  C   UNL A   1      31.622  23.348  25.548  1.00  0.00     0.283 C 
BRANCH   8   9
ATOM      9  C   UNL A   1      31.425  23.387  24.017  1.00  0.00     0.175 C 
BRANCH   9  10
ATOM     10  C   UNL A   1      32.051  24.475  23.182  1.00  0.00     0.230 C 
ATOM     11  N   UNL A   1      33.372  24.810  23.258  1.00  0.00    -0.326 N 
ATOM     12  H   UNL A   1      33.609  25.644  22.791  1.00  0.00     0.169 HD
ATOM     13  O   UNL A   1      31.348  25.099  22.378  1.00  0.00    -0.274 OA
BRANCH  11  14
ATOM     14  C   UNL A   1      34.448  24.166  23.887  1.00  0.00     0.041 A 
ATOM     15  C   UNL A   1      38.263  23.123  25.552  1.00  0.00     0.044 C 
ATOM     16  C   UNL A   1      36.873  23.395  25.063  1.00  0.00    -0.051 A 
ATOM     17  C   UNL A   1      36.418  22.770  23.899  1.00  0.00     0.005 A 
ATOM     18  C   UNL A   1      36.046  24.319  25.704  1.00  0.00     0.005 A 
ATOM     19  C   UNL A   1      35.204  23.147  23.321  1.00  0.00     0.026 A 
ATOM     20  C   UNL A   1      34.824  24.679  25.133  1.00  0.00     0.026 A 
ENDBRANCH  11  14
ENDBRANCH   9  10
ENDBRANCH   8   9
BRANCH   8  21
ATOM     21  N   UNL A   1      31.871  21.950  26.033  1.00  0.00    -0.320 N 
ATOM     22  C   UNL A   1      32.885  21.825  27.100  1.00  0.00     0.291 C 
ATOM     23  C   UNL A   1      31.965  20.819  25.104  1.00  0.00     0.291 C 
ATOM     24  H   UNL A   1      30.931  21.831  26.410  1.00  0.00     0.348 HD
ATOM     25  C   UNL A   1      34.283  21.447  26.591  1.00  0.00     0.221 C 
ATOM     26  C   UNL A   1      33.388  20.445  24.671  1.00  0.00     0.221 C 
ATOM     27  O   UNL A   1      34.250  20.259  25.797  1.00  0.00    -0.370 OA
ENDBRANCH   8  21
ENDBRANCH   5   8
ENDBRANCH   3   4
ENDBRANCH   2   3
ENDBRANCH   1   2
BRANCH   1  28
ATOM     28  C   UNL A   1      32.195  29.175  27.262  1.00  0.00     0.002 C 
BRANCH  28  29
ATOM     29  C   UNL A   1      33.663  29.372  27.637  1.00  0.00     0.021 C 
BRANCH  29  30
ATOM     30  C   UNL A   1      34.314  30.595  27.009  1.00  0.00     0.116 C 
BRANCH  30  31
ATOM     31  N   UNL A   1      34.944  31.502  27.949  1.00  0.00    -0.352 N 
ATOM     32  C   UNL A   1      35.967  31.280  28.849  1.00  0.00     0.251 C 
ATOM     33  H   UNL A   1      34.586  32.419  27.945  1.00  0.00     0.163 HD
ATOM     34  O   UNL A   1      36.221  32.162  29.673  1.00  0.00    -0.269 OA
BRANCH  32  35
ATOM     35  C   UNL A   1      36.870  30.098  28.747  1.00  0.00     0.039 A 
ATOM     36  C   UNL A   1      36.919  29.227  29.851  1.00  0.00     0.014 A 
ATOM     37  C   UNL A   1      37.812  29.951  27.734  1.00  0.00     0.014 A 
ATOM     38  C   UNL A   1      38.043  28.432  30.063  1.00  0.00     0.010 A 
ATOM     39  C   UNL A   1      38.973  29.259  27.989  1.00  0.00     0.010 A 
ATOM     40  C   UNL A   1      39.113  28.566  29.190  1.00  0.00    -0.014 A 
BRANCH  40  41
ATOM     41  C   UNL A   1      40.448  28.058  29.434  1.00  0.00     0.031 A 
ATOM     42  C   UNL A   1      40.805  26.719  28.942  1.00  0.00     0.074 A 
ATOM     43  C   UNL A   1      41.373  28.922  29.907  1.00  0.00     0.049 A 
ATOM     44  N   UNL A   1      41.896  26.109  29.248  1.00  0.00    -0.248 NA
ATOM     45  C   UNL A   1      39.917  25.919  28.097  1.00  0.00     0.031 C 
ATOM     46  C   UNL A   1      42.827  28.803  29.857  1.00  0.00     0.029 A 
ATOM     47  N   UNL A   1      41.144  30.018  30.750  1.00  0.00    -0.354 N 
ATOM     48  C   UNL A   1      42.006  25.033  28.402  1.00  0.00     0.074 A 
ATOM     49  C   UNL A   1      40.696  24.867  27.831  1.00  0.00     0.031 C 
ATOM     50  C   UNL A   1      43.356  29.566  30.830  1.00  0.00     0.029 A 
ATOM     51  C   UNL A   1      42.245  30.046  31.636  1.00  0.00     0.049 A 
ATOM     52  H   UNL A   1      40.379  30.636  30.730  1.00  0.00     0.167 HD
ATOM     53  C   UNL A   1      43.246  24.528  28.165  1.00  0.00     0.037 A 
ATOM     54  C   UNL A   1      42.077  29.760  32.963  1.00  0.00     0.037 A 
ATOM     55  C   UNL A   1      44.196  25.022  29.165  1.00  0.00     0.049 A 
ATOM     56  C   UNL A   1      42.866  28.555  33.422  1.00  0.00     0.074 A 
ATOM     57  C   UNL A   1      45.212  25.958  29.131  1.00  0.00     0.029 A 
ATOM     58  N   UNL A   1      43.951  24.750  30.510  1.00  0.00    -0.354 N 
ATOM     59  N   UNL A   1      43.291  27.613  32.624  1.00  0.00    -0.248 NA
ATOM     60  C   UNL A   1      43.243  28.320  34.813  1.00  0.00     0.031 C 
ATOM     61  C   UNL A   1      45.476  26.353  30.473  1.00  0.00     0.029 A 
ATOM     62  C   UNL A   1      44.667  25.612  31.319  1.00  0.00     0.049 A 
ATOM     63  H   UNL A   1      43.351  24.043  30.840  1.00  0.00     0.167 HD
ATOM     64  C   UNL A   1      43.973  26.672  33.348  1.00  0.00     0.074 A 
ATOM     65  C   UNL A   1      43.924  27.164  34.713  1.00  0.00     0.031 C 
ATOM     66  C   UNL A   1      44.520  25.563  32.768  1.00  0.00     0.037 A 
BRANCH  53  67
ATOM     67  C   UNL A   1      43.653  23.772  26.917  1.00  0.00     0.057 A 
ATOM     68  C   UNL A   1      44.184  24.469  25.815  1.00  0.00     0.134 A 
ATOM     69  C   UNL A   1      43.421  22.401  26.674  1.00  0.00     0.134 A 
ATOM     70  F   UNL A   1      44.442  25.783  25.881  1.00  0.00    -0.206 F 
ATOM     71  C   UNL A   1      44.451  23.857  24.580  1.00  0.00     0.040 A 
ATOM     72  C   UNL A   1      43.732  21.768  25.462  1.00  0.00     0.040 A 
ATOM     73  F   UNL A   1      42.822  21.600  27.560  1.00  0.00    -0.206 F 
ATOM     74  C   UNL A   1      44.236  22.499  24.401  1.00  0.00     0.006 A 
ENDBRANCH  53  67
BRANCH  54  75
ATOM     75  C   UNL A   1      40.732  30.157  33.467  1.00  0.00     0.057 A 
ATOM     76  C   UNL A   1      40.499  31.519  33.737  1.00  0.00     0.134 A 
ATOM     77  C   UNL A   1      39.609  29.348  33.274  1.00  0.00     0.134 A 
ATOM     78  F   UNL A   1      41.534  32.351  33.939  1.00  0.00    -0.206 F 
ATOM     79  C   UNL A   1      39.221  32.078  33.669  1.00  0.00     0.040 A 
ATOM     80  C   UNL A   1      38.320  29.895  33.227  1.00  0.00     0.040 A 
ATOM     81  F   UNL A   1      39.745  28.042  33.002  1.00  0.00    -0.206 F 
ATOM     82  C   UNL A   1      38.129  31.269  33.375  1.00  0.00     0.006 A 
ENDBRANCH  54  75
BRANCH  66  83
ATOM     83  C   UNL A   1      45.040  24.357  33.516  1.00  0.00     0.057 A 
ATOM     84  C   UNL A   1      44.313  23.173  33.705  1.00  0.00     0.134 A 
ATOM     85  C   UNL A   1      46.386  24.306  33.942  1.00  0.00     0.134 A 
ATOM     86  F   UNL A   1      43.063  23.033  33.242  1.00  0.00    -0.206 F 
ATOM     87  C   UNL A   1      44.859  22.046  34.334  1.00  0.00     0.040 A 
ATOM     88  C   UNL A   1      46.958  23.169  34.520  1.00  0.00     0.040 A 
ATOM     89  F   UNL A   1      47.213  25.351  33.794  1.00  0.00    -0.206 F 
ATOM     90  C   UNL A   1      46.189  22.037  34.734  1.00  0.00     0.006 A 
ENDBRANCH  66  83
ENDBRANCH  40  41
ENDBRANCH  32  35
ENDBRANCH  30  31
ENDBRANCH  29  30
ENDBRANCH  28  29
ENDBRANCH   1  28
TORSDOF 17
ENDMDL
MODEL 3
REMARK VINA RESULT:     -11.5      1.405      3.557
REMARK SMILES Cc1ccc(NC(=O)C[C@@H](C(=O)NCCCCCCNC(=O)c2ccc(-c3c4nc(c(-c5c(F)cccc5F)c5ccc([nH]5)c(-c5c(F)cccc5F)c5nc(c(-c6c(F)cccc6F)c6ccc3[nH]6)C=C5)C=C4)cc2)[NH+]2CCOCC2)cc1
REMARK SMILES IDX 16 1 15 2 14 3 13 4 11 5 12 6 10 8 9 9 7 10 6 11 8 13 5 14
REMARK SMILES IDX 1 15 2 16 3 17 84 18 4 19 83 20 77 21 78 22 82 23 79 25
REMARK SMILES IDX 81 26 80 27 17 28 18 29 19 30 20 31 21 32 22 34 23 35 24 36
REMARK SMILES IDX 76 37 25 38 75 39 26 40 27 41 28 42 69 43 29 44 74 45 68 46
REMARK SMILES IDX 70 47 30 48 73 49 67 50 66 51 31 53 57 54 40 55 56 56 41 57
REMARK SMILES IDX 44 58 55 59 71 60 42 61 43 62 54 64 72 65 45 66 32 67 33 68
REMARK SMILES IDX 38 69 34 70 35 71 37 72 39 73 36 74 58 75 59 76 64 77 60 78
REMARK SMILES IDX 61 79 63 80 65 81 62 82 46 83 47 84 52 85 48 86 49 87 51 88
REMARK SMILES IDX 53 89 50 90
REMARK H PARENT 13 7 6 12 77 24 20 33 70 52 44 63
REMARK Flexibility Score: inf
ROOT
ATOM      1  C   UNL A   1      32.253  28.005  26.570  1.00  0.00     0.002 C 
ENDROOT
BRANCH   1   2
ATOM      2  C   UNL A   1      31.657  26.818  25.790  1.00  0.00     0.021 C 
BRANCH   2   3
ATOM      3  C   UNL A   1      32.658  25.774  25.273  1.00  0.00     0.116 C 
BRANCH   3   4
ATOM      4  N   UNL A   1      32.503  24.509  25.954  1.00  0.00    -0.351 N 
ATOM      5  C   UNL A   1      33.125  23.309  25.883  1.00  0.00     0.278 C 
ATOM      6  O   UNL A   1      32.692  22.480  26.696  1.00  0.00    -0.268 OA
ATOM      7  H   UNL A   1      31.779  24.524  26.621  1.00  0.00     0.163 HD
BRANCH   5   8
ATOM      8  C   UNL A   1      34.362  23.015  24.964  1.00  0.00     0.283 C 
BRANCH   8   9
ATOM      9  C   UNL A   1      34.069  22.243  23.660  1.00  0.00     0.175 C 
BRANCH   9  10
ATOM     10  C   UNL A   1      32.653  21.956  23.230  1.00  0.00     0.230 C 
ATOM     11  N   UNL A   1      32.099  20.709  23.264  1.00  0.00    -0.326 N 
ATOM     12  H   UNL A   1      31.236  20.633  22.797  1.00  0.00     0.169 HD
ATOM     13  O   UNL A   1      31.942  22.886  22.831  1.00  0.00    -0.274 OA
BRANCH  11  14
ATOM     14  C   UNL A   1      32.552  19.518  23.852  1.00  0.00     0.041 A 
ATOM     15  C   UNL A   1      32.945  15.521  25.362  1.00  0.00     0.044 C 
ATOM     16  C   UNL A   1      32.950  16.919  24.825  1.00  0.00    -0.051 A 
ATOM     17  C   UNL A   1      32.823  17.996  25.707  1.00  0.00     0.005 A 
ATOM     18  C   UNL A   1      33.005  17.170  23.453  1.00  0.00     0.005 A 
ATOM     19  C   UNL A   1      32.635  19.291  25.221  1.00  0.00     0.026 A 
ATOM     20  C   UNL A   1      32.837  18.470  22.971  1.00  0.00     0.026 A 
ENDBRANCH  11  14
ENDBRANCH   9  10
ENDBRANCH   8   9
BRANCH   8  21
ATOM     21  N   UNL A   1      35.389  22.311  25.799  1.00  0.00    -0.320 N 
ATOM     22  C   UNL A   1      36.383  23.191  26.450  1.00  0.00     0.291 C 
ATOM     23  C   UNL A   1      36.026  21.068  25.350  1.00  0.00     0.291 C 
ATOM     24  H   UNL A   1      34.713  21.964  26.478  1.00  0.00     0.348 HD
ATOM     25  C   UNL A   1      37.705  23.315  25.681  1.00  0.00     0.221 C 
ATOM     26  C   UNL A   1      37.372  21.243  24.638  1.00  0.00     0.221 C 
ATOM     27  O   UNL A   1      38.279  22.033  25.412  1.00  0.00    -0.370 OA
ENDBRANCH   8  21
ENDBRANCH   5   8
ENDBRANCH   3   4
ENDBRANCH   2   3
ENDBRANCH   1   2
BRANCH   1  28
ATOM     28  C   UNL A   1      31.734  29.400  26.200  1.00  0.00     0.002 C 
BRANCH  28  29
ATOM     29  C   UNL A   1      32.566  30.577  26.707  1.00  0.00     0.021 C 
BRANCH  29  30
ATOM     30  C   UNL A   1      33.853  30.178  27.413  1.00  0.00     0.116 C 
BRANCH  30  31
ATOM     31  N   UNL A   1      34.668  31.287  27.871  1.00  0.00    -0.352 N 
ATOM     32  C   UNL A   1      35.902  31.287  28.487  1.00  0.00     0.251 C 
ATOM     33  H   UNL A   1      34.280  32.179  27.718  1.00  0.00     0.163 HD
ATOM     34  O   UNL A   1      36.326  32.351  28.946  1.00  0.00    -0.269 OA
BRANCH  32  35
ATOM     35  C   UNL A   1      36.800  30.096  28.466  1.00  0.00     0.039 A 
ATOM     36  C   UNL A   1      36.830  29.290  29.619  1.00  0.00     0.014 A 
ATOM     37  C   UNL A   1      37.755  29.887  27.477  1.00  0.00     0.014 A 
ATOM     38  C   UNL A   1      37.946  28.504  29.891  1.00  0.00     0.010 A 
ATOM     39  C   UNL A   1      38.908  29.205  27.787  1.00  0.00     0.010 A 
ATOM     40  C   UNL A   1      39.028  28.581  29.026  1.00  0.00    -0.014 A 
BRANCH  40  41
ATOM     41  C   UNL A   1      40.356  28.082  29.318  1.00  0.00     0.031 A 
ATOM     42  C   UNL A   1      40.735  26.739  28.851  1.00  0.00     0.074 A 
ATOM     43  C   UNL A   1      41.263  28.954  29.812  1.00  0.00     0.049 A 
ATOM     44  N   UNL A   1      41.818  26.137  29.196  1.00  0.00    -0.248 NA
ATOM     45  C   UNL A   1      39.878  25.928  27.985  1.00  0.00     0.031 C 
ATOM     46  C   UNL A   1      42.718  28.841  29.809  1.00  0.00     0.029 A 
ATOM     47  N   UNL A   1      41.002  30.057  30.637  1.00  0.00    -0.354 N 
ATOM     48  C   UNL A   1      41.959  25.054  28.365  1.00  0.00     0.074 A 
ATOM     49  C   UNL A   1      40.669  24.877  27.754  1.00  0.00     0.031 C 
ATOM     50  C   UNL A   1      43.213  29.615  30.791  1.00  0.00     0.029 A 
ATOM     51  C   UNL A   1      42.075  30.098  31.557  1.00  0.00     0.049 A 
ATOM     52  H   UNL A   1      40.236  30.672  30.587  1.00  0.00     0.167 HD
ATOM     53  C   UNL A   1      43.208  24.552  28.171  1.00  0.00     0.037 A 
ATOM     54  C   UNL A   1      41.867  29.824  32.880  1.00  0.00     0.037 A 
ATOM     55  C   UNL A   1      44.123  25.060  29.196  1.00  0.00     0.049 A 
ATOM     56  C   UNL A   1      42.645  28.627  33.376  1.00  0.00     0.074 A 
ATOM     57  C   UNL A   1      45.137  25.999  29.185  1.00  0.00     0.029 A 
ATOM     58  N   UNL A   1      43.838  24.800  30.536  1.00  0.00    -0.354 N 
ATOM     59  N   UNL A   1      43.099  27.679  32.600  1.00  0.00    -0.248 NA
ATOM     60  C   UNL A   1      42.979  28.406  34.780  1.00  0.00     0.031 C 
ATOM     61  C   UNL A   1      45.356  26.408  30.532  1.00  0.00     0.029 A 
ATOM     62  C   UNL A   1      44.524  25.672  31.358  1.00  0.00     0.049 A 
ATOM     63  H   UNL A   1      43.231  24.092  30.853  1.00  0.00     0.167 HD
ATOM     64  C   UNL A   1      43.761  26.748  33.354  1.00  0.00     0.074 A 
ATOM     65  C   UNL A   1      43.667  27.253  34.712  1.00  0.00     0.031 C 
ATOM     66  C   UNL A   1      44.332  25.636  32.803  1.00  0.00     0.037 A 
BRANCH  53  67
ATOM     67  C   UNL A   1      43.657  23.786  26.945  1.00  0.00     0.057 A 
ATOM     68  C   UNL A   1      44.233  24.474  25.859  1.00  0.00     0.134 A 
ATOM     69  C   UNL A   1      43.428  22.415  26.701  1.00  0.00     0.134 A 
ATOM     70  F   UNL A   1      44.494  25.787  25.926  1.00  0.00    -0.206 F 
ATOM     71  C   UNL A   1      44.542  23.852  24.638  1.00  0.00     0.040 A 
ATOM     72  C   UNL A   1      43.780  21.773  25.505  1.00  0.00     0.040 A 
ATOM     73  F   UNL A   1      42.792  21.622  27.570  1.00  0.00    -0.206 F 
ATOM     74  C   UNL A   1      44.327  22.495  24.460  1.00  0.00     0.006 A 
ENDBRANCH  53  67
BRANCH  54  75
ATOM     75  C   UNL A   1      40.504  30.220  33.338  1.00  0.00     0.057 A 
ATOM     76  C   UNL A   1      40.239  31.589  33.527  1.00  0.00     0.134 A 
ATOM     77  C   UNL A   1      39.401  29.378  33.170  1.00  0.00     0.134 A 
ATOM     78  F   UNL A   1      41.253  32.453  33.700  1.00  0.00    -0.206 F 
ATOM     79  C   UNL A   1      38.951  32.117  33.406  1.00  0.00     0.040 A 
ATOM     80  C   UNL A   1      38.103  29.894  33.071  1.00  0.00     0.040 A 
ATOM     81  F   UNL A   1      39.568  28.062  32.975  1.00  0.00    -0.206 F 
ATOM     82  C   UNL A   1      37.881  31.269  33.138  1.00  0.00     0.006 A 
ENDBRANCH  54  75
BRANCH  66  83
ATOM     83  C   UNL A   1      44.833  24.440  33.578  1.00  0.00     0.057 A 
ATOM     84  C   UNL A   1      46.189  24.137  33.770  1.00  0.00     0.134 A 
ATOM     85  C   UNL A   1      43.931  23.626  34.299  1.00  0.00     0.134 A 
ATOM     86  F   UNL A   1      47.161  24.897  33.247  1.00  0.00    -0.206 F 
ATOM     87  C   UNL A   1      46.615  23.063  34.563  1.00  0.00     0.040 A 
ATOM     88  C   UNL A   1      44.347  22.588  35.137  1.00  0.00     0.040 A 
ATOM     89  F   UNL A   1      42.605  23.819  34.241  1.00  0.00    -0.206 F 
ATOM     90  C   UNL A   1      45.695  22.291  35.259  1.00  0.00     0.006 A 
ENDBRANCH  66  83
ENDBRANCH  40  41
ENDBRANCH  32  35
ENDBRANCH  30  31
ENDBRANCH  29  30
ENDBRANCH  28  29
ENDBRANCH   1  28
TORSDOF 17
ENDMDL
