MODEL 1
REMARK VINA RESULT:     -11.0      0.000      0.000
REMARK SMILES O=C(NCCCCCCNC(=O)[C@@H]1CS[C@@H](C2CC2)N1C(=O)Cc1ccn[nH]1)c1ccc(-c2c3nc(c(-c4c(F)cccc4F)c4ccc([nH]4)c(-c4c(F)cccc4F)c4nc(c(-c5c(F)cccc5F)c5ccc2[nH]5)C=C4)C=C3)cc1
REMARK SMILES IDX 7 1 6 2 5 3 4 4 3 5 1 6 2 7 29 9 30 10 82 11 31 12 81 13
REMARK SMILES IDX 32 14 33 15 34 16 75 17 35 18 80 19 74 20 76 21 36 22 79 23
REMARK SMILES IDX 73 24 72 25 37 27 63 28 46 29 62 30 47 31 50 32 61 33 77 34
REMARK SMILES IDX 48 35 49 36 60 38 78 39 51 40 38 41 39 42 44 43 40 44 41 45
REMARK SMILES IDX 43 46 45 47 42 48 64 49 65 50 70 51 66 52 67 53 69 54 71 55
REMARK SMILES IDX 68 56 52 57 53 58 58 59 54 60 55 61 57 62 59 63 56 64 8 65
REMARK SMILES IDX 9 66 10 67 11 68 12 70 13 71 14 72 20 73 15 74 16 75 21 76
REMARK SMILES IDX 22 77 23 78 24 79 25 80 28 81 26 82 27 83 17 85 18 86 19 87
REMARK H PARENT 3 8 76 26 50 37 10 69 28 84
REMARK Flexibility Score: inf
ROOT
ATOM      1  C   UNL A   1      32.928  30.066  27.106  1.00  0.00     0.002 C 
ENDROOT
BRANCH   1   2
ATOM      2  C   UNL A   1      31.544  30.626  26.761  1.00  0.00     0.002 C 
BRANCH   2   3
ATOM      3  C   UNL A   1      31.410  32.147  26.837  1.00  0.00     0.021 C 
BRANCH   3   4
ATOM      4  C   UNL A   1      32.722  32.898  27.023  1.00  0.00     0.116 C 
BRANCH   4   5
ATOM      5  N   UNL A   1      32.537  34.201  27.639  1.00  0.00    -0.352 N 
ATOM      6  O   UNL A   1      32.788  35.794  29.219  1.00  0.00    -0.269 OA
ATOM      7  C   UNL A   1      33.180  34.741  28.725  1.00  0.00     0.251 C 
ATOM      8  H   UNL A   1      31.856  34.775  27.220  1.00  0.00     0.163 HD
BRANCH   7   9
ATOM      9  C   UNL A   1      34.339  34.037  29.313  1.00  0.00     0.039 A 
ATOM     10  C   UNL A   1      35.643  34.391  28.951  1.00  0.00     0.014 A 
ATOM     11  C   UNL A   1      34.119  33.018  30.243  1.00  0.00     0.014 A 
ATOM     12  C   UNL A   1      36.716  33.646  29.422  1.00  0.00     0.010 A 
ATOM     13  C   UNL A   1      35.207  32.325  30.781  1.00  0.00     0.010 A 
ATOM     14  C   UNL A   1      36.512  32.619  30.358  1.00  0.00    -0.014 A 
BRANCH  14  15
ATOM     15  C   UNL A   1      37.686  31.924  30.942  1.00  0.00     0.031 A 
ATOM     16  C   UNL A   1      38.166  32.231  32.331  1.00  0.00     0.074 A 
ATOM     17  C   UNL A   1      38.309  30.987  30.199  1.00  0.00     0.049 A 
ATOM     18  N   UNL A   1      39.173  31.710  32.988  1.00  0.00    -0.248 NA
ATOM     19  C   UNL A   1      37.428  33.256  33.082  1.00  0.00     0.031 C 
ATOM     20  C   UNL A   1      37.936  30.611  28.833  1.00  0.00     0.029 A 
ATOM     21  N   UNL A   1      39.371  30.172  30.489  1.00  0.00    -0.354 N 
ATOM     22  C   UNL A   1      39.197  32.349  34.219  1.00  0.00     0.074 A 
ATOM     23  C   UNL A   1      38.121  33.318  34.211  1.00  0.00     0.031 C 
ATOM     24  C   UNL A   1      38.725  29.609  28.422  1.00  0.00     0.029 A 
ATOM     25  C   UNL A   1      39.700  29.318  29.465  1.00  0.00     0.049 A 
ATOM     26  H   UNL A   1      39.853  30.195  31.348  1.00  0.00     0.167 HD
ATOM     27  C   UNL A   1      40.038  32.140  35.262  1.00  0.00     0.037 A 
ATOM     28  C   UNL A   1      40.689  28.411  29.366  1.00  0.00     0.037 A 
ATOM     29  C   UNL A   1      41.103  31.170  35.264  1.00  0.00     0.049 A 
ATOM     30  C   UNL A   1      41.629  28.231  30.521  1.00  0.00     0.074 A 
ATOM     31  C   UNL A   1      41.993  30.867  36.281  1.00  0.00     0.029 A 
ATOM     32  N   UNL A   1      41.429  30.350  34.193  1.00  0.00    -0.354 N 
ATOM     33  N   UNL A   1      41.623  28.826  31.689  1.00  0.00    -0.248 NA
ATOM     34  C   UNL A   1      42.716  27.261  30.341  1.00  0.00     0.031 C 
ATOM     35  C   UNL A   1      42.884  29.896  35.810  1.00  0.00     0.029 A 
ATOM     36  C   UNL A   1      42.519  29.557  34.518  1.00  0.00     0.049 A 
ATOM     37  H   UNL A   1      40.955  30.333  33.329  1.00  0.00     0.167 HD
ATOM     38  C   UNL A   1      42.693  28.289  32.392  1.00  0.00     0.074 A 
ATOM     39  C   UNL A   1      43.312  27.308  31.524  1.00  0.00     0.031 C 
ATOM     40  C   UNL A   1      43.124  28.585  33.642  1.00  0.00     0.037 A 
BRANCH  27  41
ATOM     41  C   UNL A   1      39.849  32.986  36.489  1.00  0.00     0.057 A 
ATOM     42  C   UNL A   1      40.580  34.162  36.698  1.00  0.00     0.134 A 
ATOM     43  C   UNL A   1      38.887  32.646  37.450  1.00  0.00     0.134 A 
ATOM     44  F   UNL A   1      41.522  34.541  35.822  1.00  0.00    -0.206 F 
ATOM     45  C   UNL A   1      40.375  34.960  37.826  1.00  0.00     0.040 A 
ATOM     46  C   UNL A   1      38.656  33.447  38.569  1.00  0.00     0.040 A 
ATOM     47  F   UNL A   1      38.145  31.537  37.309  1.00  0.00    -0.206 F 
ATOM     48  C   UNL A   1      39.405  34.606  38.762  1.00  0.00     0.006 A 
ENDBRANCH  27  41
BRANCH  28  49
ATOM     49  C   UNL A   1      40.836  27.614  28.124  1.00  0.00     0.057 A 
ATOM     50  C   UNL A   1      40.224  26.363  27.992  1.00  0.00     0.134 A 
ATOM     51  C   UNL A   1      41.580  28.089  27.037  1.00  0.00     0.134 A 
ATOM     52  F   UNL A   1      39.512  25.849  29.005  1.00  0.00    -0.206 F 
ATOM     53  C   UNL A   1      40.355  25.607  26.826  1.00  0.00     0.040 A 
ATOM     54  C   UNL A   1      41.696  27.356  25.856  1.00  0.00     0.040 A 
ATOM     55  F   UNL A   1      42.184  29.285  27.099  1.00  0.00    -0.206 F 
ATOM     56  C   UNL A   1      41.088  26.107  25.751  1.00  0.00     0.006 A 
ENDBRANCH  28  49
BRANCH  40  57
ATOM     57  C   UNL A   1      44.305  27.814  34.153  1.00  0.00     0.057 A 
ATOM     58  C   UNL A   1      45.614  28.295  34.023  1.00  0.00     0.134 A 
ATOM     59  C   UNL A   1      44.127  26.586  34.803  1.00  0.00     0.134 A 
ATOM     60  F   UNL A   1      45.851  29.457  33.395  1.00  0.00    -0.206 F 
ATOM     61  C   UNL A   1      46.707  27.569  34.500  1.00  0.00     0.040 A 
ATOM     62  C   UNL A   1      45.209  25.864  35.308  1.00  0.00     0.040 A 
ATOM     63  F   UNL A   1      42.898  26.072  34.966  1.00  0.00    -0.206 F 
ATOM     64  C   UNL A   1      46.504  26.354  35.151  1.00  0.00     0.006 A 
ENDBRANCH  40  57
ENDBRANCH  14  15
ENDBRANCH   7   9
ENDBRANCH   4   5
ENDBRANCH   3   4
ENDBRANCH   2   3
ENDBRANCH   1   2
BRANCH   1  65
ATOM     65  C   UNL A   1      33.641  29.313  25.979  1.00  0.00     0.021 C 
BRANCH  65  66
ATOM     66  C   UNL A   1      32.946  29.380  24.623  1.00  0.00     0.116 C 
BRANCH  66  67
ATOM     67  N   UNL A   1      33.740  28.770  23.570  1.00  0.00    -0.354 N 
ATOM     68  C   UNL A   1      33.741  27.472  23.153  1.00  0.00     0.243 C 
ATOM     69  H   UNL A   1      34.357  29.373  23.097  1.00  0.00     0.163 HD
ATOM     70  O   UNL A   1      34.246  27.204  22.055  1.00  0.00    -0.273 OA
BRANCH  68  71
ATOM     71  C   UNL A   1      33.115  26.356  24.023  1.00  0.00     0.185 C 
ATOM     72  C   UNL A   1      34.290  25.591  24.613  1.00  0.00     0.107 C 
ATOM     73  N   UNL A   1      32.261  25.530  23.140  1.00  0.00    -0.317 N 
ATOM     74  S   UNL A   1      33.985  23.866  24.278  1.00  0.00    -0.134 SA
ATOM     75  C   UNL A   1      32.768  24.172  22.899  1.00  0.00     0.147 C 
BRANCH  73  76
ATOM     76  C   UNL A   1      31.232  26.257  22.563  1.00  0.00     0.230 C 
ATOM     77  O   UNL A   1      31.129  26.280  21.325  1.00  0.00    -0.274 OA
BRANCH  76  78
ATOM     78  C   UNL A   1      30.202  27.045  23.334  1.00  0.00     0.155 C 
BRANCH  78  79
ATOM     79  C   UNL A   1      29.682  28.296  22.717  1.00  0.00     0.044 A 
ATOM     80  C   UNL A   1      28.417  28.840  22.832  1.00  0.00     0.045 A 
ATOM     81  N   UNL A   1      30.385  29.177  21.937  1.00  0.00    -0.282 N 
ATOM     82  C   UNL A   1      28.422  29.958  21.986  1.00  0.00     0.135 A 
ATOM     83  N   UNL A   1      29.609  30.140  21.405  1.00  0.00    -0.184 NA
ATOM     84  H   UNL A   1      31.355  29.113  21.782  1.00  0.00     0.190 HD
ENDBRANCH  78  79
ENDBRANCH  76  78
ENDBRANCH  73  76
BRANCH  75  85
ATOM     85  C   UNL A   1      31.864  22.966  23.053  1.00  0.00     0.022 C 
ATOM     86  C   UNL A   1      32.158  21.582  22.538  1.00  0.00     0.007 C 
ATOM     87  C   UNL A   1      32.140  21.845  24.024  1.00  0.00     0.007 C 
ENDBRANCH  75  85
ENDBRANCH  68  71
ENDBRANCH  66  67
ENDBRANCH  65  66
ENDBRANCH   1  65
TORSDOF 17
ENDMDL
MODEL 2
REMARK VINA RESULT:     -10.8      1.667      6.181
REMARK SMILES O=C(NCCCCCCNC(=O)[C@@H]1CS[C@@H](C2CC2)N1C(=O)Cc1ccn[nH]1)c1ccc(-c2c3nc(c(-c4c(F)cccc4F)c4ccc([nH]4)c(-c4c(F)cccc4F)c4nc(c(-c5c(F)cccc5F)c5ccc2[nH]5)C=C4)C=C3)cc1
REMARK SMILES IDX 7 1 6 2 5 3 4 4 3 5 1 6 2 7 29 9 30 10 82 11 31 12 81 13
REMARK SMILES IDX 32 14 33 15 34 16 75 17 35 18 80 19 74 20 76 21 36 22 79 23
REMARK SMILES IDX 73 24 72 25 37 27 63 28 46 29 62 30 47 31 50 32 61 33 77 34
REMARK SMILES IDX 48 35 49 36 60 38 78 39 51 40 38 41 39 42 44 43 40 44 41 45
REMARK SMILES IDX 43 46 45 47 42 48 64 49 65 50 70 51 66 52 67 53 69 54 71 55
REMARK SMILES IDX 68 56 52 57 53 58 58 59 54 60 55 61 57 62 59 63 56 64 8 65
REMARK SMILES IDX 9 66 10 67 11 68 12 70 13 71 14 72 20 73 15 74 16 75 21 76
REMARK SMILES IDX 22 77 23 78 24 79 25 80 28 81 26 82 27 83 17 85 18 86 19 87
REMARK H PARENT 3 8 76 26 50 37 10 69 28 84
REMARK Flexibility Score: inf
ROOT
ATOM      1  C   UNL A   1      32.131  29.777  26.837  1.00  0.00     0.002 C 
ENDROOT
BRANCH   1   2
ATOM      2  C   UNL A   1      31.371  30.799  25.984  1.00  0.00     0.002 C 
BRANCH   2   3
ATOM      3  C   UNL A   1      31.267  32.204  26.578  1.00  0.00     0.021 C 
BRANCH   3   4
ATOM      4  C   UNL A   1      32.561  32.749  27.167  1.00  0.00     0.116 C 
BRANCH   4   5
ATOM      5  N   UNL A   1      32.400  34.078  27.732  1.00  0.00    -0.352 N 
ATOM      6  O   UNL A   1      32.787  35.770  29.177  1.00  0.00    -0.269 OA
ATOM      7  C   UNL A   1      33.157  34.705  28.691  1.00  0.00     0.251 C 
ATOM      8  H   UNL A   1      31.643  34.600  27.381  1.00  0.00     0.163 HD
BRANCH   7   9
ATOM      9  C   UNL A   1      34.416  34.082  29.151  1.00  0.00     0.039 A 
ATOM     10  C   UNL A   1      35.616  34.321  28.473  1.00  0.00     0.014 A 
ATOM     11  C   UNL A   1      34.397  33.258  30.280  1.00  0.00     0.014 A 
ATOM     12  C   UNL A   1      36.766  33.638  28.847  1.00  0.00     0.010 A 
ATOM     13  C   UNL A   1      35.575  32.639  30.704  1.00  0.00     0.010 A 
ATOM     14  C   UNL A   1      36.764  32.807  29.979  1.00  0.00    -0.014 A 
BRANCH  14  15
ATOM     15  C   UNL A   1      38.037  32.191  30.430  1.00  0.00     0.031 A 
ATOM     16  C   UNL A   1      38.540  30.908  29.834  1.00  0.00     0.074 A 
ATOM     17  C   UNL A   1      38.750  32.823  31.383  1.00  0.00     0.049 A 
ATOM     18  N   UNL A   1      39.633  30.244  30.115  1.00  0.00    -0.248 NA
ATOM     19  C   UNL A   1      37.711  30.286  28.792  1.00  0.00     0.031 C 
ATOM     20  C   UNL A   1      38.356  34.072  32.040  1.00  0.00     0.029 A 
ATOM     21  N   UNL A   1      39.958  32.516  31.953  1.00  0.00    -0.354 N 
ATOM     22  C   UNL A   1      39.618  29.122  29.298  1.00  0.00     0.074 A 
ATOM     23  C   UNL A   1      38.394  29.179  28.527  1.00  0.00     0.031 C 
ATOM     24  C   UNL A   1      39.323  34.448  32.888  1.00  0.00     0.029 A 
ATOM     25  C   UNL A   1      40.373  33.437  32.884  1.00  0.00     0.049 A 
ATOM     26  H   UNL A   1      40.478  31.714  31.718  1.00  0.00     0.167 HD
ATOM     27  C   UNL A   1      40.547  28.139  29.197  1.00  0.00     0.037 A 
ATOM     28  C   UNL A   1      41.468  33.457  33.665  1.00  0.00     0.037 A 
ATOM     29  C   UNL A   1      41.765  28.092  29.964  1.00  0.00     0.049 A 
ATOM     30  C   UNL A   1      42.457  32.334  33.560  1.00  0.00     0.074 A 
ATOM     31  C   UNL A   1      42.780  27.151  29.916  1.00  0.00     0.029 A 
ATOM     32  N   UNL A   1      42.132  29.023  30.926  1.00  0.00    -0.354 N 
ATOM     33  N   UNL A   1      42.442  31.293  32.763  1.00  0.00    -0.248 NA
ATOM     34  C   UNL A   1      43.611  32.385  34.467  1.00  0.00     0.031 C 
ATOM     35  C   UNL A   1      43.738  27.488  30.879  1.00  0.00     0.029 A 
ATOM     36  C   UNL A   1      43.346  28.666  31.492  1.00  0.00     0.049 A 
ATOM     37  H   UNL A   1      41.607  29.820  31.170  1.00  0.00     0.167 HD
ATOM     38  C   UNL A   1      43.592  30.574  33.058  1.00  0.00     0.074 A 
ATOM     39  C   UNL A   1      44.289  31.309  34.095  1.00  0.00     0.031 C 
ATOM     40  C   UNL A   1      44.028  29.409  32.522  1.00  0.00     0.037 A 
BRANCH  27  41
ATOM     41  C   UNL A   1      40.276  27.023  28.229  1.00  0.00     0.057 A 
ATOM     42  C   UNL A   1      40.821  27.013  26.938  1.00  0.00     0.134 A 
ATOM     43  C   UNL A   1      39.501  25.919  28.609  1.00  0.00     0.134 A 
ATOM     44  F   UNL A   1      41.565  28.042  26.506  1.00  0.00    -0.206 F 
ATOM     45  C   UNL A   1      40.591  25.955  26.055  1.00  0.00     0.040 A 
ATOM     46  C   UNL A   1      39.284  24.845  27.745  1.00  0.00     0.040 A 
ATOM     47  F   UNL A   1      38.956  25.860  29.833  1.00  0.00    -0.206 F 
ATOM     48  C   UNL A   1      39.826  24.864  26.461  1.00  0.00     0.006 A 
ENDBRANCH  27  41
BRANCH  28  49
ATOM     49  C   UNL A   1      41.676  34.578  34.613  1.00  0.00     0.057 A 
ATOM     50  C   UNL A   1      41.229  34.498  35.936  1.00  0.00     0.134 A 
ATOM     51  C   UNL A   1      42.340  35.748  34.224  1.00  0.00     0.134 A 
ATOM     52  F   UNL A   1      40.573  33.409  36.362  1.00  0.00    -0.206 F 
ATOM     53  C   UNL A   1      41.421  35.547  36.836  1.00  0.00     0.040 A 
ATOM     54  C   UNL A   1      42.564  36.793  35.121  1.00  0.00     0.040 A 
ATOM     55  F   UNL A   1      42.801  35.882  32.972  1.00  0.00    -0.206 F 
ATOM     56  C   UNL A   1      42.098  36.696  36.430  1.00  0.00     0.006 A 
ENDBRANCH  28  49
BRANCH  40  57
ATOM     57  C   UNL A   1      45.336  28.876  33.028  1.00  0.00     0.057 A 
ATOM     58  C   UNL A   1      46.557  29.251  32.455  1.00  0.00     0.134 A 
ATOM     59  C   UNL A   1      45.373  27.995  34.115  1.00  0.00     0.134 A 
ATOM     60  F   UNL A   1      46.587  30.080  31.400  1.00  0.00    -0.206 F 
ATOM     61  C   UNL A   1      47.770  28.749  32.932  1.00  0.00     0.040 A 
ATOM     62  C   UNL A   1      46.579  27.506  34.617  1.00  0.00     0.040 A 
ATOM     63  F   UNL A   1      44.238  27.601  34.714  1.00  0.00    -0.206 F 
ATOM     64  C   UNL A   1      47.782  27.879  34.020  1.00  0.00     0.006 A 
ENDBRANCH  40  57
ENDBRANCH  14  15
ENDBRANCH   7   9
ENDBRANCH   4   5
ENDBRANCH   3   4
ENDBRANCH   2   3
ENDBRANCH   1   2
BRANCH   1  65
ATOM     65  C   UNL A   1      31.774  28.308  26.588  1.00  0.00     0.021 C 
BRANCH  65  66
ATOM     66  C   UNL A   1      32.967  27.363  26.506  1.00  0.00     0.116 C 
BRANCH  66  67
ATOM     67  N   UNL A   1      33.481  27.245  25.152  1.00  0.00    -0.354 N 
ATOM     68  C   UNL A   1      33.726  26.113  24.434  1.00  0.00     0.243 C 
ATOM     69  H   UNL A   1      33.677  28.094  24.694  1.00  0.00     0.163 HD
ATOM     70  O   UNL A   1      33.865  26.208  23.207  1.00  0.00    -0.273 OA
BRANCH  68  71
ATOM     71  C   UNL A   1      33.818  24.733  25.129  1.00  0.00     0.185 C 
ATOM     72  C   UNL A   1      35.247  24.260  24.911  1.00  0.00     0.107 C 
ATOM     73  N   UNL A   1      32.807  23.851  24.503  1.00  0.00    -0.317 N 
ATOM     74  S   UNL A   1      35.136  22.603  24.262  1.00  0.00    -0.134 SA
ATOM     75  C   UNL A   1      33.368  22.763  23.692  1.00  0.00     0.147 C 
BRANCH  73  76
ATOM     76  C   UNL A   1      31.515  24.328  24.658  1.00  0.00     0.230 C 
ATOM     77  O   UNL A   1      31.063  24.486  25.804  1.00  0.00    -0.274 OA
BRANCH  76  78
ATOM     78  C   UNL A   1      30.588  24.678  23.519  1.00  0.00     0.155 C 
BRANCH  78  79
ATOM     79  C   UNL A   1      30.374  26.120  23.218  1.00  0.00     0.044 A 
ATOM     80  C   UNL A   1      29.548  27.013  23.873  1.00  0.00     0.045 A 
ATOM     81  N   UNL A   1      30.997  26.853  22.241  1.00  0.00    -0.282 N 
ATOM     82  C   UNL A   1      29.642  28.203  23.138  1.00  0.00     0.135 A 
ATOM     83  N   UNL A   1      30.492  28.095  22.117  1.00  0.00    -0.184 NA
ATOM     84  H   UNL A   1      31.735  26.508  21.689  1.00  0.00     0.190 HD
ENDBRANCH  78  79
ENDBRANCH  76  78
ENDBRANCH  73  76
BRANCH  75  85
ATOM     85  C   UNL A   1      32.889  21.336  23.867  1.00  0.00     0.022 C 
ATOM     86  C   UNL A   1      33.536  20.298  24.747  1.00  0.00     0.007 C 
ATOM     87  C   UNL A   1      32.178  20.849  25.104  1.00  0.00     0.007 C 
ENDBRANCH  75  85
ENDBRANCH  68  71
ENDBRANCH  66  67
ENDBRANCH  65  66
ENDBRANCH   1  65
TORSDOF 17
ENDMDL
MODEL 3
REMARK VINA RESULT:     -10.8      4.184      9.264
REMARK SMILES O=C(NCCCCCCNC(=O)[C@@H]1CS[C@@H](C2CC2)N1C(=O)Cc1ccn[nH]1)c1ccc(-c2c3nc(c(-c4c(F)cccc4F)c4ccc([nH]4)c(-c4c(F)cccc4F)c4nc(c(-c5c(F)cccc5F)c5ccc2[nH]5)C=C4)C=C3)cc1
REMARK SMILES IDX 7 1 6 2 5 3 4 4 3 5 1 6 2 7 29 9 30 10 82 11 31 12 81 13
REMARK SMILES IDX 32 14 33 15 34 16 75 17 35 18 80 19 74 20 76 21 36 22 79 23
REMARK SMILES IDX 73 24 72 25 37 27 63 28 46 29 62 30 47 31 50 32 61 33 77 34
REMARK SMILES IDX 48 35 49 36 60 38 78 39 51 40 38 41 39 42 44 43 40 44 41 45
REMARK SMILES IDX 43 46 45 47 42 48 64 49 65 50 70 51 66 52 67 53 69 54 71 55
REMARK SMILES IDX 68 56 52 57 53 58 58 59 54 60 55 61 57 62 59 63 56 64 8 65
REMARK SMILES IDX 9 66 10 67 11 68 12 70 13 71 14 72 20 73 15 74 16 75 21 76
REMARK SMILES IDX 22 77 23 78 24 79 25 80 28 81 26 82 27 83 17 85 18 86 19 87
REMARK H PARENT 3 8 76 26 50 37 10 69 28 84
REMARK Flexibility Score: inf
ROOT
ATOM      1  C   UNL A   1      36.312  21.799  24.524  1.00  0.00     0.002 C 
ENDROOT
BRANCH   1   2
ATOM      2  C   UNL A   1      36.345  20.331  24.962  1.00  0.00     0.002 C 
BRANCH   2   3
ATOM      3  C   UNL A   1      37.688  19.621  24.786  1.00  0.00     0.021 C 
BRANCH   3   4
ATOM      4  C   UNL A   1      38.816  20.157  25.659  1.00  0.00     0.116 C 
BRANCH   4   5
ATOM      5  N   UNL A   1      39.947  19.248  25.729  1.00  0.00    -0.352 N 
ATOM      6  O   UNL A   1      42.120  18.665  25.917  1.00  0.00    -0.269 OA
ATOM      7  C   UNL A   1      41.251  19.518  26.066  1.00  0.00     0.251 C 
ATOM      8  H   UNL A   1      39.753  18.311  25.502  1.00  0.00     0.163 HD
BRANCH   7   9
ATOM      9  C   UNL A   1      41.608  20.851  26.595  1.00  0.00     0.039 A 
ATOM     10  C   UNL A   1      41.520  21.119  27.965  1.00  0.00     0.014 A 
ATOM     11  C   UNL A   1      42.046  21.841  25.711  1.00  0.00     0.014 A 
ATOM     12  C   UNL A   1      41.747  22.407  28.431  1.00  0.00     0.010 A 
ATOM     13  C   UNL A   1      42.355  23.114  26.196  1.00  0.00     0.010 A 
ATOM     14  C   UNL A   1      42.188  23.413  27.557  1.00  0.00    -0.014 A 
BRANCH  14  15
ATOM     15  C   UNL A   1      42.546  24.745  28.103  1.00  0.00     0.031 A 
ATOM     16  C   UNL A   1      43.966  25.094  28.448  1.00  0.00     0.074 A 
ATOM     17  C   UNL A   1      41.565  25.654  28.267  1.00  0.00     0.049 A 
ATOM     18  N   UNL A   1      44.444  26.214  28.930  1.00  0.00    -0.248 NA
ATOM     19  C   UNL A   1      44.981  24.053  28.230  1.00  0.00     0.031 C 
ATOM     20  C   UNL A   1      40.148  25.425  27.973  1.00  0.00     0.029 A 
ATOM     21  N   UNL A   1      41.607  26.952  28.703  1.00  0.00    -0.354 N 
ATOM     22  C   UNL A   1      45.808  26.011  29.084  1.00  0.00     0.074 A 
ATOM     23  C   UNL A   1      46.080  24.650  28.671  1.00  0.00     0.031 C 
ATOM     24  C   UNL A   1      39.464  26.556  28.193  1.00  0.00     0.029 A 
ATOM     25  C   UNL A   1      40.379  27.568  28.705  1.00  0.00     0.049 A 
ATOM     26  H   UNL A   1      42.436  27.401  28.988  1.00  0.00     0.167 HD
ATOM     27  C   UNL A   1      46.747  26.884  29.525  1.00  0.00     0.037 A 
ATOM     28  C   UNL A   1      40.023  28.806  29.094  1.00  0.00     0.037 A 
ATOM     29  C   UNL A   1      46.468  28.239  29.930  1.00  0.00     0.049 A 
ATOM     30  C   UNL A   1      41.077  29.737  29.616  1.00  0.00     0.074 A 
ATOM     31  C   UNL A   1      47.355  29.208  30.368  1.00  0.00     0.029 A 
ATOM     32  N   UNL A   1      45.206  28.814  29.954  1.00  0.00    -0.354 N 
ATOM     33  N   UNL A   1      42.368  29.538  29.732  1.00  0.00    -0.248 NA
ATOM     34  C   UNL A   1      40.625  31.059  30.067  1.00  0.00     0.031 C 
ATOM     35  C   UNL A   1      46.623  30.354  30.700  1.00  0.00     0.029 A 
ATOM     36  C   UNL A   1      45.288  30.117  30.420  1.00  0.00     0.049 A 
ATOM     37  H   UNL A   1      44.374  28.364  29.680  1.00  0.00     0.167 HD
ATOM     38  C   UNL A   1      42.886  30.716  30.251  1.00  0.00     0.074 A 
ATOM     39  C   UNL A   1      41.771  31.628  30.410  1.00  0.00     0.031 C 
ATOM     40  C   UNL A   1      44.168  31.013  30.571  1.00  0.00     0.037 A 
BRANCH  27  41
ATOM     41  C   UNL A   1      48.166  26.399  29.605  1.00  0.00     0.057 A 
ATOM     42  C   UNL A   1      49.067  26.566  28.546  1.00  0.00     0.134 A 
ATOM     43  C   UNL A   1      48.652  25.803  30.776  1.00  0.00     0.134 A 
ATOM     44  F   UNL A   1      48.665  27.121  27.393  1.00  0.00    -0.206 F 
ATOM     45  C   UNL A   1      50.394  26.141  28.640  1.00  0.00     0.040 A 
ATOM     46  C   UNL A   1      49.982  25.396  30.892  1.00  0.00     0.040 A 
ATOM     47  F   UNL A   1      47.846  25.620  31.832  1.00  0.00    -0.206 F 
ATOM     48  C   UNL A   1      50.857  25.560  29.820  1.00  0.00     0.006 A 
ENDBRANCH  27  41
BRANCH  28  49
ATOM     49  C   UNL A   1      38.603  29.226  29.005  1.00  0.00     0.057 A 
ATOM     50  C   UNL A   1      38.057  29.678  27.799  1.00  0.00     0.134 A 
ATOM     51  C   UNL A   1      37.756  29.172  30.119  1.00  0.00     0.134 A 
ATOM     52  F   UNL A   1      38.823  29.767  26.702  1.00  0.00    -0.206 F 
ATOM     53  C   UNL A   1      36.722  30.073  27.706  1.00  0.00     0.040 A 
ATOM     54  C   UNL A   1      36.413  29.537  30.033  1.00  0.00     0.040 A 
ATOM     55  F   UNL A   1      38.218  28.739  31.302  1.00  0.00    -0.206 F 
ATOM     56  C   UNL A   1      35.894  29.996  28.825  1.00  0.00     0.006 A 
ENDBRANCH  28  49
BRANCH  40  57
ATOM     57  C   UNL A   1      44.435  32.393  31.096  1.00  0.00     0.057 A 
ATOM     58  C   UNL A   1      44.431  32.676  32.468  1.00  0.00     0.134 A 
ATOM     59  C   UNL A   1      44.722  33.445  30.218  1.00  0.00     0.134 A 
ATOM     60  F   UNL A   1      44.146  31.713  33.359  1.00  0.00    -0.206 F 
ATOM     61  C   UNL A   1      44.679  33.963  32.946  1.00  0.00     0.040 A 
ATOM     62  C   UNL A   1      44.998  34.731  30.686  1.00  0.00     0.040 A 
ATOM     63  F   UNL A   1      44.749  33.240  28.892  1.00  0.00    -0.206 F 
ATOM     64  C   UNL A   1      44.970  34.993  32.054  1.00  0.00     0.006 A 
ENDBRANCH  40  57
ENDBRANCH  14  15
ENDBRANCH   7   9
ENDBRANCH   4   5
ENDBRANCH   3   4
ENDBRANCH   2   3
ENDBRANCH   1   2
BRANCH   1  65
ATOM     65  C   UNL A   1      35.521  22.745  25.432  1.00  0.00     0.021 C 
BRANCH  65  66
ATOM     66  C   UNL A   1      35.152  24.082  24.800  1.00  0.00     0.116 C 
BRANCH  66  67
ATOM     67  N   UNL A   1      34.531  24.986  25.754  1.00  0.00    -0.354 N 
ATOM     68  C   UNL A   1      33.610  25.964  25.519  1.00  0.00     0.243 C 
ATOM     69  H   UNL A   1      34.812  24.878  26.690  1.00  0.00     0.163 HD
ATOM     70  O   UNL A   1      32.972  26.418  26.478  1.00  0.00    -0.273 OA
BRANCH  68  71
ATOM     71  C   UNL A   1      33.354  26.489  24.086  1.00  0.00     0.185 C 
ATOM     72  C   UNL A   1      33.927  27.898  24.060  1.00  0.00     0.107 C 
ATOM     73  N   UNL A   1      31.893  26.446  23.851  1.00  0.00    -0.317 N 
ATOM     74  S   UNL A   1      32.646  28.949  23.401  1.00  0.00    -0.134 SA
ATOM     75  C   UNL A   1      31.252  27.764  23.759  1.00  0.00     0.147 C 
BRANCH  73  76
ATOM     76  C   UNL A   1      31.377  25.162  23.939  1.00  0.00     0.230 C 
ATOM     77  O   UNL A   1      30.487  24.925  24.772  1.00  0.00    -0.274 OA
BRANCH  76  78
ATOM     78  C   UNL A   1      31.823  23.999  23.087  1.00  0.00     0.155 C 
BRANCH  78  79
ATOM     79  C   UNL A   1      31.998  22.680  23.753  1.00  0.00     0.044 A 
ATOM     80  C   UNL A   1      32.446  21.497  23.196  1.00  0.00     0.045 A 
ATOM     81  N   UNL A   1      31.780  22.396  25.077  1.00  0.00    -0.282 N 
ATOM     82  C   UNL A   1      32.331  20.545  24.219  1.00  0.00     0.135 A 
ATOM     83  N   UNL A   1      31.884  21.083  25.355  1.00  0.00    -0.184 NA
ATOM     84  H   UNL A   1      31.570  23.080  25.753  1.00  0.00     0.190 HD
ENDBRANCH  78  79
ENDBRANCH  76  78
ENDBRANCH  73  76
BRANCH  75  85
ATOM     85  C   UNL A   1      30.309  28.092  22.620  1.00  0.00     0.022 C 
ATOM     86  C   UNL A   1      28.917  28.651  22.769  1.00  0.00     0.007 C 
ATOM     87  C   UNL A   1      30.011  29.502  22.173  1.00  0.00     0.007 C 
ENDBRANCH  75  85
ENDBRANCH  68  71
ENDBRANCH  66  67
ENDBRANCH  65  66
ENDBRANCH   1  65
TORSDOF 17
ENDMDL
