MODEL 1
REMARK VINA RESULT:     -10.0      0.000      0.000
REMARK SMILES COCC[NH2+]CC(=O)N1C[C@H](OC)C[C@@H]1C(=O)NCCCCCCNC(=O)c1ccc(-c2c3nc(c(-c4c(F)cccc4F)c4ccc([nH]4)c(-c4c(F)cccc4F)c4nc(c(-c5c(F)cccc5F)c5ccc2[nH]5)C=C4)C=C3)cc1
REMARK SMILES IDX 19 1 18 2 16 3 17 4 15 6 9 7 10 8 11 9 14 10 7 11 8 12 6 13
REMARK SMILES IDX 5 14 4 17 3 18 2 19 1 20 12 21 13 22 20 23 21 24 22 25 23 26
REMARK SMILES IDX 24 27 25 28 26 29 27 31 28 32 29 33 81 34 30 35 80 36 31 37
REMARK SMILES IDX 32 38 33 39 74 40 34 41 79 42 73 43 75 44 35 45 78 46 72 47
REMARK SMILES IDX 71 48 36 50 62 51 45 52 61 53 46 54 49 55 60 56 76 57 47 58
REMARK SMILES IDX 48 59 59 61 77 62 50 63 37 64 38 65 43 66 39 67 40 68 42 69
REMARK SMILES IDX 44 70 41 71 63 72 64 73 69 74 65 75 66 76 68 77 70 78 67 79
REMARK SMILES IDX 51 80 52 81 57 82 53 83 54 84 56 85 58 86 55 87
REMARK H PARENT 18 5 5 15 5 16 25 30 75 49 49 60
REMARK Flexibility Score: inf
ROOT
ATOM      1  C   UNL A   1      31.563  27.658  26.321  1.00  0.00     0.116 C 
ENDROOT
BRANCH   1   2
ATOM      2  N   UNL A   1      31.162  26.370  26.814  1.00  0.00    -0.354 N 
ATOM      3  C   UNL A   1      31.785  25.172  26.604  1.00  0.00     0.242 C 
ATOM      4  O   UNL A   1      31.307  24.186  27.173  1.00  0.00    -0.273 OA
ATOM      5  H   UNL A   1      30.348  26.348  27.366  1.00  0.00     0.163 HD
BRANCH   3   6
ATOM      6  C   UNL A   1      32.949  25.001  25.589  1.00  0.00     0.177 C 
ATOM      7  N   UNL A   1      32.688  24.540  24.212  1.00  0.00    -0.323 N 
ATOM      8  C   UNL A   1      33.954  23.957  23.779  1.00  0.00     0.152 C 
ATOM      9  C   UNL A   1      34.382  23.099  24.949  1.00  0.00     0.139 C 
ATOM     10  C   UNL A   1      34.040  24.026  26.127  1.00  0.00     0.069 C 
BRANCH   7  11
ATOM     11  C   UNL A   1      32.026  25.372  23.308  1.00  0.00     0.278 C 
ATOM     12  O   UNL A   1      30.904  25.116  22.879  1.00  0.00    -0.268 OA
BRANCH  11  13
ATOM     13  C   UNL A   1      32.799  26.648  22.879  1.00  0.00     0.362 C 
BRANCH  13  14
ATOM     14  N   UNL A   1      32.021  27.575  22.007  1.00  0.00    -0.337 N 
ATOM     15  H   UNL A   1      32.642  27.967  21.299  1.00  0.00     0.346 HD
ATOM     16  H   UNL A   1      31.265  27.050  21.567  1.00  0.00     0.346 HD
BRANCH  14  17
ATOM     17  C   UNL A   1      31.440  28.663  22.791  1.00  0.00     0.289 C 
BRANCH  17  18
ATOM     18  C   UNL A   1      29.940  28.703  23.108  1.00  0.00     0.221 C 
BRANCH  18  19
ATOM     19  O   UNL A   1      29.143  29.061  21.977  1.00  0.00    -0.379 OA
ATOM     20  C   UNL A   1      29.153  30.449  21.692  1.00  0.00     0.195 C 
ENDBRANCH  18  19
ENDBRANCH  17  18
ENDBRANCH  14  17
ENDBRANCH  13  14
ENDBRANCH  11  13
ENDBRANCH   7  11
BRANCH   9  21
ATOM     21  O   UNL A   1      33.719  21.829  25.095  1.00  0.00    -0.380 OA
ATOM     22  C   UNL A   1      33.716  21.207  26.380  1.00  0.00     0.195 C 
ENDBRANCH   9  21
ENDBRANCH   3   6
ENDBRANCH   1   2
BRANCH   1  23
ATOM     23  C   UNL A   1      32.377  28.499  27.298  1.00  0.00     0.021 C 
BRANCH  23  24
ATOM     24  C   UNL A   1      32.647  29.930  26.833  1.00  0.00     0.002 C 
BRANCH  24  25
ATOM     25  C   UNL A   1      31.441  30.666  26.237  1.00  0.00     0.002 C 
BRANCH  25  26
ATOM     26  C   UNL A   1      31.372  32.174  26.503  1.00  0.00     0.021 C 
BRANCH  26  27
ATOM     27  C   UNL A   1      32.574  32.767  27.236  1.00  0.00     0.116 C 
BRANCH  27  28
ATOM     28  N   UNL A   1      32.372  34.158  27.604  1.00  0.00    -0.352 N 
ATOM     29  C   UNL A   1      32.975  34.923  28.571  1.00  0.00     0.251 C 
ATOM     30  H   UNL A   1      31.688  34.629  27.075  1.00  0.00     0.163 HD
ATOM     31  O   UNL A   1      32.530  36.033  28.838  1.00  0.00    -0.269 OA
BRANCH  29  32
ATOM     32  C   UNL A   1      34.148  34.406  29.309  1.00  0.00     0.039 A 
ATOM     33  C   UNL A   1      33.948  33.846  30.574  1.00  0.00     0.014 A 
ATOM     34  C   UNL A   1      35.435  34.485  28.773  1.00  0.00     0.014 A 
ATOM     35  C   UNL A   1      35.027  33.289  31.263  1.00  0.00     0.010 A 
ATOM     36  C   UNL A   1      36.498  33.872  29.432  1.00  0.00     0.010 A 
ATOM     37  C   UNL A   1      36.302  33.253  30.677  1.00  0.00    -0.014 A 
BRANCH  37  38
ATOM     38  C   UNL A   1      37.427  32.530  31.325  1.00  0.00     0.031 A 
ATOM     39  C   UNL A   1      38.020  33.037  32.610  1.00  0.00     0.074 A 
ATOM     40  C   UNL A   1      37.956  31.452  30.714  1.00  0.00     0.049 A 
ATOM     41  N   UNL A   1      39.064  32.596  33.266  1.00  0.00    -0.248 NA
ATOM     42  C   UNL A   1      37.369  34.200  33.231  1.00  0.00     0.031 C 
ATOM     43  C   UNL A   1      37.489  30.883  29.446  1.00  0.00     0.029 A 
ATOM     44  N   UNL A   1      39.012  30.649  31.065  1.00  0.00    -0.354 N 
ATOM     45  C   UNL A   1      39.192  33.422  34.375  1.00  0.00     0.074 A 
ATOM     46  C   UNL A   1      38.153  34.425  34.276  1.00  0.00     0.031 C 
ATOM     47  C   UNL A   1      38.246  29.819  29.136  1.00  0.00     0.029 A 
ATOM     48  C   UNL A   1      39.281  29.658  30.151  1.00  0.00     0.049 A 
ATOM     49  H   UNL A   1      39.529  30.771  31.895  1.00  0.00     0.167 HD
ATOM     50  C   UNL A   1      40.078  33.335  35.395  1.00  0.00     0.037 A 
ATOM     51  C   UNL A   1      40.265  28.739  30.120  1.00  0.00     0.037 A 
ATOM     52  C   UNL A   1      41.107  32.332  35.494  1.00  0.00     0.049 A 
ATOM     53  C   UNL A   1      41.272  28.708  31.238  1.00  0.00     0.074 A 
ATOM     54  C   UNL A   1      42.031  32.145  36.508  1.00  0.00     0.029 A 
ATOM     55  N   UNL A   1      41.347  31.349  34.547  1.00  0.00    -0.354 N 
ATOM     56  N   UNL A   1      41.341  29.458  32.310  1.00  0.00    -0.248 NA
ATOM     57  C   UNL A   1      42.340  27.702  31.140  1.00  0.00     0.031 C 
ATOM     58  C   UNL A   1      42.861  31.078  36.151  1.00  0.00     0.029 A 
ATOM     59  C   UNL A   1      42.423  30.570  34.941  1.00  0.00     0.049 A 
ATOM     60  H   UNL A   1      40.830  31.223  33.719  1.00  0.00     0.167 HD
ATOM     61  C   UNL A   1      42.442  29.000  33.025  1.00  0.00     0.074 A 
ATOM     62  C   UNL A   1      42.994  27.890  32.277  1.00  0.00     0.031 C 
ATOM     63  C   UNL A   1      42.954  29.460  34.191  1.00  0.00     0.037 A 
BRANCH  50  64
ATOM     64  C   UNL A   1      39.972  34.342  36.503  1.00  0.00     0.057 A 
ATOM     65  C   UNL A   1      39.232  34.078  37.662  1.00  0.00     0.134 A 
ATOM     66  C   UNL A   1      40.679  35.551  36.448  1.00  0.00     0.134 A 
ATOM     67  F   UNL A   1      38.526  32.943  37.775  1.00  0.00    -0.206 F 
ATOM     68  C   UNL A   1      39.189  34.984  38.723  1.00  0.00     0.040 A 
ATOM     69  C   UNL A   1      40.663  36.453  37.513  1.00  0.00     0.040 A 
ATOM     70  F   UNL A   1      41.414  35.862  35.370  1.00  0.00    -0.206 F 
ATOM     71  C   UNL A   1      39.915  36.171  38.655  1.00  0.00     0.006 A 
ENDBRANCH  50  64
BRANCH  51  72
ATOM     72  C   UNL A   1      40.371  27.781  28.987  1.00  0.00     0.057 A 
ATOM     73  C   UNL A   1      41.148  28.075  27.861  1.00  0.00     0.134 A 
ATOM     74  C   UNL A   1      39.658  26.576  28.981  1.00  0.00     0.134 A 
ATOM     75  F   UNL A   1      41.839  29.223  27.797  1.00  0.00    -0.206 F 
ATOM     76  C   UNL A   1      41.182  27.225  26.753  1.00  0.00     0.040 A 
ATOM     77  C   UNL A   1      39.708  25.701  27.893  1.00  0.00     0.040 A 
ATOM     78  F   UNL A   1      38.902  26.228  30.032  1.00  0.00    -0.206 F 
ATOM     79  C   UNL A   1      40.461  26.033  26.769  1.00  0.00     0.006 A 
ENDBRANCH  51  72
BRANCH  63  80
ATOM     80  C   UNL A   1      44.156  28.752  34.743  1.00  0.00     0.057 A 
ATOM     81  C   UNL A   1      45.459  29.176  34.456  1.00  0.00     0.134 A 
ATOM     82  C   UNL A   1      44.007  27.659  35.607  1.00  0.00     0.134 A 
ATOM     83  F   UNL A   1      45.670  30.208  33.623  1.00  0.00    -0.206 F 
ATOM     84  C   UNL A   1      46.572  28.528  34.993  1.00  0.00     0.040 A 
ATOM     85  C   UNL A   1      45.111  27.021  36.174  1.00  0.00     0.040 A 
ATOM     86  F   UNL A   1      42.786  27.207  35.930  1.00  0.00    -0.206 F 
ATOM     87  C   UNL A   1      46.399  27.453  35.862  1.00  0.00     0.006 A 
ENDBRANCH  63  80
ENDBRANCH  37  38
ENDBRANCH  29  32
ENDBRANCH  27  28
ENDBRANCH  26  27
ENDBRANCH  25  26
ENDBRANCH  24  25
ENDBRANCH  23  24
ENDBRANCH   1  23
TORSDOF 20
ENDMDL
MODEL 2
REMARK VINA RESULT:      -9.8      4.909      9.546
REMARK SMILES COCC[NH2+]CC(=O)N1C[C@H](OC)C[C@@H]1C(=O)NCCCCCCNC(=O)c1ccc(-c2c3nc(c(-c4c(F)cccc4F)c4ccc([nH]4)c(-c4c(F)cccc4F)c4nc(c(-c5c(F)cccc5F)c5ccc2[nH]5)C=C4)C=C3)cc1
REMARK SMILES IDX 19 1 18 2 16 3 17 4 15 6 9 7 10 8 11 9 14 10 7 11 8 12 6 13
REMARK SMILES IDX 5 14 4 17 3 18 2 19 1 20 12 21 13 22 20 23 21 24 22 25 23 26
REMARK SMILES IDX 24 27 25 28 26 29 27 31 28 32 29 33 81 34 30 35 80 36 31 37
REMARK SMILES IDX 32 38 33 39 74 40 34 41 79 42 73 43 75 44 35 45 78 46 72 47
REMARK SMILES IDX 71 48 36 50 62 51 45 52 61 53 46 54 49 55 60 56 76 57 47 58
REMARK SMILES IDX 48 59 59 61 77 62 50 63 37 64 38 65 43 66 39 67 40 68 42 69
REMARK SMILES IDX 44 70 41 71 63 72 64 73 69 74 65 75 66 76 68 77 70 78 67 79
REMARK SMILES IDX 51 80 52 81 57 82 53 83 54 84 56 85 58 86 55 87
REMARK H PARENT 18 5 5 15 5 16 25 30 75 49 49 60
REMARK Flexibility Score: inf
ROOT
ATOM      1  C   UNL A   1      35.561  22.765  26.130  1.00  0.00     0.116 C 
ENDROOT
BRANCH   1   2
ATOM      2  N   UNL A   1      34.720  22.713  27.292  1.00  0.00    -0.354 N 
ATOM      3  C   UNL A   1      33.384  22.428  27.336  1.00  0.00     0.242 C 
ATOM      4  O   UNL A   1      32.859  22.376  28.452  1.00  0.00    -0.273 OA
ATOM      5  H   UNL A   1      35.153  22.905  28.155  1.00  0.00     0.163 HD
BRANCH   3   6
ATOM      6  C   UNL A   1      32.510  22.315  26.057  1.00  0.00     0.177 C 
ATOM      7  N   UNL A   1      32.985  21.560  24.881  1.00  0.00    -0.323 N 
ATOM      8  C   UNL A   1      32.251  22.135  23.759  1.00  0.00     0.152 C 
ATOM      9  C   UNL A   1      32.362  23.629  23.974  1.00  0.00     0.139 C 
ATOM     10  C   UNL A   1      32.134  23.719  25.493  1.00  0.00     0.069 C 
BRANCH   7  11
ATOM     11  C   UNL A   1      33.082  20.169  24.934  1.00  0.00     0.278 C 
ATOM     12  O   UNL A   1      32.106  19.449  25.136  1.00  0.00    -0.268 OA
BRANCH  11  13
ATOM     13  C   UNL A   1      34.504  19.585  24.721  1.00  0.00     0.362 C 
BRANCH  13  14
ATOM     14  N   UNL A   1      34.629  18.135  25.047  1.00  0.00    -0.337 N 
ATOM     15  H   UNL A   1      35.558  17.959  25.431  1.00  0.00     0.346 HD
ATOM     16  H   UNL A   1      33.910  17.892  25.728  1.00  0.00     0.346 HD
BRANCH  14  17
ATOM     17  C   UNL A   1      34.441  17.314  23.853  1.00  0.00     0.289 C 
BRANCH  17  18
ATOM     18  C   UNL A   1      33.390  16.198  23.812  1.00  0.00     0.221 C 
BRANCH  18  19
ATOM     19  O   UNL A   1      33.539  15.256  24.877  1.00  0.00    -0.379 OA
ATOM     20  C   UNL A   1      32.347  15.038  25.612  1.00  0.00     0.195 C 
ENDBRANCH  18  19
ENDBRANCH  17  18
ENDBRANCH  14  17
ENDBRANCH  13  14
ENDBRANCH  11  13
ENDBRANCH   7  11
BRANCH   9  21
ATOM     21  O   UNL A   1      33.615  24.241  23.614  1.00  0.00    -0.380 OA
ATOM     22  C   UNL A   1      33.622  25.632  23.289  1.00  0.00     0.195 C 
ENDBRANCH   9  21
ENDBRANCH   3   6
ENDBRANCH   1   2
BRANCH   1  23
ATOM     23  C   UNL A   1      36.376  24.046  25.979  1.00  0.00     0.021 C 
BRANCH  23  24
ATOM     24  C   UNL A   1      37.813  23.832  25.506  1.00  0.00     0.002 C 
BRANCH  24  25
ATOM     25  C   UNL A   1      38.613  22.782  26.287  1.00  0.00     0.002 C 
BRANCH  25  26
ATOM     26  C   UNL A   1      38.989  21.511  25.517  1.00  0.00     0.021 C 
BRANCH  26  27
ATOM     27  C   UNL A   1      39.215  20.267  26.374  1.00  0.00     0.116 C 
BRANCH  27  28
ATOM     28  N   UNL A   1      40.358  19.485  25.932  1.00  0.00    -0.352 N 
ATOM     29  C   UNL A   1      41.690  19.806  25.870  1.00  0.00     0.251 C 
ATOM     30  H   UNL A   1      40.140  18.576  25.624  1.00  0.00     0.163 HD
ATOM     31  O   UNL A   1      42.473  19.061  25.295  1.00  0.00    -0.269 OA
BRANCH  29  32
ATOM     32  C   UNL A   1      42.185  21.062  26.475  1.00  0.00     0.039 A 
ATOM     33  C   UNL A   1      42.648  22.075  25.631  1.00  0.00     0.014 A 
ATOM     34  C   UNL A   1      42.211  21.239  27.860  1.00  0.00     0.014 A 
ATOM     35  C   UNL A   1      43.056  23.296  26.172  1.00  0.00     0.010 A 
ATOM     36  C   UNL A   1      42.556  22.478  28.394  1.00  0.00     0.010 A 
ATOM     37  C   UNL A   1      42.967  23.525  27.554  1.00  0.00    -0.014 A 
BRANCH  37  38
ATOM     38  C   UNL A   1      43.250  24.865  28.132  1.00  0.00     0.031 A 
ATOM     39  C   UNL A   1      42.142  25.859  28.331  1.00  0.00     0.074 A 
ATOM     40  C   UNL A   1      44.524  25.205  28.412  1.00  0.00     0.049 A 
ATOM     41  N   UNL A   1      42.213  27.106  28.727  1.00  0.00    -0.248 NA
ATOM     42  C   UNL A   1      40.776  25.403  28.032  1.00  0.00     0.031 C 
ATOM     43  C   UNL A   1      45.692  24.338  28.229  1.00  0.00     0.029 A 
ATOM     44  N   UNL A   1      45.055  26.376  28.893  1.00  0.00    -0.354 N 
ATOM     45  C   UNL A   1      40.908  27.579  28.728  1.00  0.00     0.074 A 
ATOM     46  C   UNL A   1      40.069  26.506  28.241  1.00  0.00     0.031 C 
ATOM     47  C   UNL A   1      46.796  25.002  28.606  1.00  0.00     0.029 A 
ATOM     48  C   UNL A   1      46.425  26.354  29.008  1.00  0.00     0.049 A 
ATOM     49  H   UNL A   1      44.506  27.157  29.135  1.00  0.00     0.167 HD
ATOM     50  C   UNL A   1      40.449  28.790  29.124  1.00  0.00     0.037 A 
ATOM     51  C   UNL A   1      47.288  27.322  29.374  1.00  0.00     0.037 A 
ATOM     52  C   UNL A   1      41.285  29.855  29.615  1.00  0.00     0.049 A 
ATOM     53  C   UNL A   1      46.751  28.677  29.749  1.00  0.00     0.074 A 
ATOM     54  C   UNL A   1      40.907  31.106  30.070  1.00  0.00     0.029 A 
ATOM     55  N   UNL A   1      42.667  29.794  29.714  1.00  0.00    -0.354 N 
ATOM     56  N   UNL A   1      45.508  29.089  29.802  1.00  0.00    -0.248 NA
ATOM     57  C   UNL A   1      47.739  29.704  30.113  1.00  0.00     0.031 C 
ATOM     58  C   UNL A   1      42.062  31.820  30.399  1.00  0.00     0.029 A 
ATOM     59  C   UNL A   1      43.157  30.997  30.197  1.00  0.00     0.049 A 
ATOM     60  H   UNL A   1      43.217  29.013  29.477  1.00  0.00     0.167 HD
ATOM     61  C   UNL A   1      45.563  30.410  30.228  1.00  0.00     0.074 A 
ATOM     62  C   UNL A   1      46.960  30.723  30.444  1.00  0.00     0.031 C 
ATOM     63  C   UNL A   1      44.550  31.289  30.417  1.00  0.00     0.037 A 
BRANCH  50  64
ATOM     64  C   UNL A   1      38.969  29.033  29.061  1.00  0.00     0.057 A 
ATOM     65  C   UNL A   1      38.162  28.927  30.200  1.00  0.00     0.134 A 
ATOM     66  C   UNL A   1      38.359  29.456  27.873  1.00  0.00     0.134 A 
ATOM     67  F   UNL A   1      38.682  28.520  31.368  1.00  0.00    -0.206 F 
ATOM     68  C   UNL A   1      36.798  29.221  30.159  1.00  0.00     0.040 A 
ATOM     69  C   UNL A   1      37.001  29.776  27.825  1.00  0.00     0.040 A 
ATOM     70  F   UNL A   1      39.076  29.587  26.747  1.00  0.00    -0.206 F 
ATOM     71  C   UNL A   1      36.216  29.657  28.971  1.00  0.00     0.006 A 
ENDBRANCH  50  64
BRANCH  51  72
ATOM     72  C   UNL A   1      48.752  27.065  29.385  1.00  0.00     0.057 A 
ATOM     73  C   UNL A   1      49.529  27.247  28.235  1.00  0.00     0.134 A 
ATOM     74  C   UNL A   1      49.400  26.582  30.530  1.00  0.00     0.134 A 
ATOM     75  F   UNL A   1      48.964  27.688  27.101  1.00  0.00    -0.206 F 
ATOM     76  C   UNL A   1      50.887  26.922  28.209  1.00  0.00     0.040 A 
ATOM     77  C   UNL A   1      50.765  26.284  30.527  1.00  0.00     0.040 A 
ATOM     78  F   UNL A   1      48.718  26.394  31.668  1.00  0.00    -0.206 F 
ATOM     79  C   UNL A   1      51.508  26.440  29.360  1.00  0.00     0.006 A 
ENDBRANCH  51  72
BRANCH  63  80
ATOM     80  C   UNL A   1      44.910  32.662  30.903  1.00  0.00     0.057 A 
ATOM     81  C   UNL A   1      45.151  33.718  30.016  1.00  0.00     0.134 A 
ATOM     82  C   UNL A   1      44.973  32.941  32.275  1.00  0.00     0.134 A 
ATOM     83  F   UNL A   1      45.120  33.513  28.690  1.00  0.00    -0.206 F 
ATOM     84  C   UNL A   1      45.461  35.000  30.475  1.00  0.00     0.040 A 
ATOM     85  C   UNL A   1      45.253  34.225  32.746  1.00  0.00     0.040 A 
ATOM     86  F   UNL A   1      44.745  31.976  33.179  1.00  0.00    -0.206 F 
ATOM     87  C   UNL A   1      45.504  35.257  31.844  1.00  0.00     0.006 A 
ENDBRANCH  63  80
ENDBRANCH  37  38
ENDBRANCH  29  32
ENDBRANCH  27  28
ENDBRANCH  26  27
ENDBRANCH  25  26
ENDBRANCH  24  25
ENDBRANCH  23  24
ENDBRANCH   1  23
TORSDOF 20
ENDMDL
MODEL 3
REMARK VINA RESULT:      -9.8      4.718      9.821
REMARK SMILES COCC[NH2+]CC(=O)N1C[C@H](OC)C[C@@H]1C(=O)NCCCCCCNC(=O)c1ccc(-c2c3nc(c(-c4c(F)cccc4F)c4ccc([nH]4)c(-c4c(F)cccc4F)c4nc(c(-c5c(F)cccc5F)c5ccc2[nH]5)C=C4)C=C3)cc1
REMARK SMILES IDX 19 1 18 2 16 3 17 4 15 6 9 7 10 8 11 9 14 10 7 11 8 12 6 13
REMARK SMILES IDX 5 14 4 17 3 18 2 19 1 20 12 21 13 22 20 23 21 24 22 25 23 26
REMARK SMILES IDX 24 27 25 28 26 29 27 31 28 32 29 33 81 34 30 35 80 36 31 37
REMARK SMILES IDX 32 38 33 39 74 40 34 41 79 42 73 43 75 44 35 45 78 46 72 47
REMARK SMILES IDX 71 48 36 50 62 51 45 52 61 53 46 54 49 55 60 56 76 57 47 58
REMARK SMILES IDX 48 59 59 61 77 62 50 63 37 64 38 65 43 66 39 67 40 68 42 69
REMARK SMILES IDX 44 70 41 71 63 72 64 73 69 74 65 75 66 76 68 77 70 78 67 79
REMARK SMILES IDX 51 80 52 81 57 82 53 83 54 84 56 85 58 86 55 87
REMARK H PARENT 18 5 5 15 5 16 25 30 75 49 49 60
REMARK Flexibility Score: inf
ROOT
ATOM      1  C   UNL A   1      35.548  22.876  26.138  1.00  0.00     0.116 C 
ENDROOT
BRANCH   1   2
ATOM      2  N   UNL A   1      34.725  22.770  27.310  1.00  0.00    -0.354 N 
ATOM      3  C   UNL A   1      33.392  22.474  27.362  1.00  0.00     0.242 C 
ATOM      4  O   UNL A   1      32.886  22.372  28.484  1.00  0.00    -0.273 OA
ATOM      5  H   UNL A   1      35.171  22.928  28.173  1.00  0.00     0.163 HD
BRANCH   3   6
ATOM      6  C   UNL A   1      32.499  22.409  26.093  1.00  0.00     0.177 C 
ATOM      7  N   UNL A   1      32.949  21.687  24.888  1.00  0.00    -0.323 N 
ATOM      8  C   UNL A   1      32.204  22.304  23.796  1.00  0.00     0.152 C 
ATOM      9  C   UNL A   1      32.334  23.788  24.055  1.00  0.00     0.139 C 
ATOM     10  C   UNL A   1      32.129  23.834  25.579  1.00  0.00     0.069 C 
BRANCH   7  11
ATOM     11  C   UNL A   1      33.033  20.294  24.897  1.00  0.00     0.278 C 
ATOM     12  O   UNL A   1      32.045  19.577  25.042  1.00  0.00    -0.268 OA
BRANCH  11  13
ATOM     13  C   UNL A   1      34.456  19.704  24.710  1.00  0.00     0.362 C 
BRANCH  13  14
ATOM     14  N   UNL A   1      34.569  18.254  25.040  1.00  0.00    -0.337 N 
ATOM     15  H   UNL A   1      35.467  18.084  25.494  1.00  0.00     0.346 HD
ATOM     16  H   UNL A   1      33.802  18.001  25.663  1.00  0.00     0.346 HD
BRANCH  14  17
ATOM     17  C   UNL A   1      34.481  17.436  23.832  1.00  0.00     0.289 C 
BRANCH  17  18
ATOM     18  C   UNL A   1      33.546  16.223  23.759  1.00  0.00     0.221 C 
BRANCH  18  19
ATOM     19  O   UNL A   1      33.720  15.322  24.855  1.00  0.00    -0.379 OA
ATOM     20  C   UNL A   1      32.514  15.018  25.536  1.00  0.00     0.195 C 
ENDBRANCH  18  19
ENDBRANCH  17  18
ENDBRANCH  14  17
ENDBRANCH  13  14
ENDBRANCH  11  13
ENDBRANCH   7  11
BRANCH   9  21
ATOM     21  O   UNL A   1      33.588  24.400  23.695  1.00  0.00    -0.380 OA
ATOM     22  C   UNL A   1      33.891  25.690  24.225  1.00  0.00     0.195 C 
ENDBRANCH   9  21
ENDBRANCH   3   6
ENDBRANCH   1   2
BRANCH   1  23
ATOM     23  C   UNL A   1      36.598  23.981  26.184  1.00  0.00     0.021 C 
BRANCH  23  24
ATOM     24  C   UNL A   1      37.898  23.652  25.451  1.00  0.00     0.002 C 
BRANCH  24  25
ATOM     25  C   UNL A   1      38.822  22.657  26.164  1.00  0.00     0.002 C 
BRANCH  25  26
ATOM     26  C   UNL A   1      39.024  21.307  25.468  1.00  0.00     0.021 C 
BRANCH  26  27
ATOM     27  C   UNL A   1      39.268  20.119  26.396  1.00  0.00     0.116 C 
BRANCH  27  28
ATOM     28  N   UNL A   1      40.438  19.345  26.015  1.00  0.00    -0.352 N 
ATOM     29  C   UNL A   1      41.764  19.695  25.964  1.00  0.00     0.251 C 
ATOM     30  H   UNL A   1      40.248  18.416  25.748  1.00  0.00     0.163 HD
ATOM     31  O   UNL A   1      42.576  18.941  25.441  1.00  0.00    -0.269 OA
BRANCH  29  32
ATOM     32  C   UNL A   1      42.216  20.990  26.517  1.00  0.00     0.039 A 
ATOM     33  C   UNL A   1      42.760  21.937  25.645  1.00  0.00     0.014 A 
ATOM     34  C   UNL A   1      42.124  21.267  27.883  1.00  0.00     0.014 A 
ATOM     35  C   UNL A   1      43.131  23.193  26.129  1.00  0.00     0.010 A 
ATOM     36  C   UNL A   1      42.434  22.542  28.354  1.00  0.00     0.010 A 
ATOM     37  C   UNL A   1      42.926  23.522  27.478  1.00  0.00    -0.014 A 
BRANCH  37  38
ATOM     38  C   UNL A   1      43.170  24.901  27.979  1.00  0.00     0.031 A 
ATOM     39  C   UNL A   1      44.544  25.319  28.421  1.00  0.00     0.074 A 
ATOM     40  C   UNL A   1      42.132  25.752  28.097  1.00  0.00     0.049 A 
ATOM     41  N   UNL A   1      44.925  26.443  28.976  1.00  0.00    -0.248 NA
ATOM     42  C   UNL A   1      45.630  24.345  28.232  1.00  0.00     0.031 C 
ATOM     43  C   UNL A   1      40.744  25.451  27.733  1.00  0.00     0.029 A 
ATOM     44  N   UNL A   1      42.076  27.038  28.572  1.00  0.00    -0.354 N 
ATOM     45  C   UNL A   1      46.289  26.313  29.197  1.00  0.00     0.074 A 
ATOM     46  C   UNL A   1      46.662  24.982  28.769  1.00  0.00     0.031 C 
ATOM     47  C   UNL A   1      39.980  26.525  27.986  1.00  0.00     0.029 A 
ATOM     48  C   UNL A   1      40.808  27.571  28.575  1.00  0.00     0.049 A 
ATOM     49  H   UNL A   1      42.869  27.534  28.881  1.00  0.00     0.167 HD
ATOM     50  C   UNL A   1      47.156  27.229  29.690  1.00  0.00     0.037 A 
ATOM     51  C   UNL A   1      40.359  28.759  29.023  1.00  0.00     0.037 A 
ATOM     52  C   UNL A   1      46.784  28.556  30.109  1.00  0.00     0.049 A 
ATOM     53  C   UNL A   1      41.338  29.733  29.622  1.00  0.00     0.074 A 
ATOM     54  C   UNL A   1      47.599  29.566  30.590  1.00  0.00     0.029 A 
ATOM     55  N   UNL A   1      45.491  29.056  30.098  1.00  0.00    -0.354 N 
ATOM     56  N   UNL A   1      42.636  29.617  29.768  1.00  0.00    -0.248 NA
ATOM     57  C   UNL A   1      40.790  31.003  30.119  1.00  0.00     0.031 C 
ATOM     58  C   UNL A   1      46.793  30.661  30.916  1.00  0.00     0.029 A 
ATOM     59  C   UNL A   1      45.483  30.351  30.590  1.00  0.00     0.049 A 
ATOM     60  H   UNL A   1      44.698  28.564  29.786  1.00  0.00     0.167 HD
ATOM     61  C   UNL A   1      43.060  30.805  30.350  1.00  0.00     0.074 A 
ATOM     62  C   UNL A   1      41.887  31.638  30.506  1.00  0.00     0.031 C 
ATOM     63  C   UNL A   1      44.308  31.172  30.729  1.00  0.00     0.037 A 
BRANCH  50  64
ATOM     64  C   UNL A   1      48.603  26.842  29.790  1.00  0.00     0.057 A 
ATOM     65  C   UNL A   1      49.119  26.236  30.943  1.00  0.00     0.134 A 
ATOM     66  C   UNL A   1      49.468  27.001  28.700  1.00  0.00     0.134 A 
ATOM     67  F   UNL A   1      48.346  26.062  32.024  1.00  0.00    -0.206 F 
ATOM     68  C   UNL A   1      50.447  25.811  31.011  1.00  0.00     0.040 A 
ATOM     69  C   UNL A   1      50.791  26.558  28.749  1.00  0.00     0.040 A 
ATOM     70  F   UNL A   1      49.036  27.567  27.563  1.00  0.00    -0.206 F 
ATOM     71  C   UNL A   1      51.284  25.963  29.908  1.00  0.00     0.006 A 
ENDBRANCH  50  64
BRANCH  51  72
ATOM     72  C   UNL A   1      38.913  29.099  28.950  1.00  0.00     0.057 A 
ATOM     73  C   UNL A   1      38.082  28.972  30.068  1.00  0.00     0.134 A 
ATOM     74  C   UNL A   1      38.318  29.505  27.748  1.00  0.00     0.134 A 
ATOM     75  F   UNL A   1      38.588  28.568  31.243  1.00  0.00    -0.206 F 
ATOM     76  C   UNL A   1      36.707  29.200  29.989  1.00  0.00     0.040 A 
ATOM     77  C   UNL A   1      36.949  29.768  27.662  1.00  0.00     0.040 A 
ATOM     78  F   UNL A   1      39.057  29.655  26.641  1.00  0.00    -0.206 F 
ATOM     79  C   UNL A   1      36.137  29.601  28.782  1.00  0.00     0.006 A 
ENDBRANCH  51  72
BRANCH  63  80
ATOM     80  C   UNL A   1      44.474  32.539  31.324  1.00  0.00     0.057 A 
ATOM     81  C   UNL A   1      44.414  32.753  32.707  1.00  0.00     0.134 A 
ATOM     82  C   UNL A   1      44.739  33.647  30.508  1.00  0.00     0.134 A 
ATOM     83  F   UNL A   1      44.149  31.736  33.542  1.00  0.00    -0.206 F 
ATOM     84  C   UNL A   1      44.595  34.023  33.257  1.00  0.00     0.040 A 
ATOM     85  C   UNL A   1      44.950  34.916  31.048  1.00  0.00     0.040 A 
ATOM     86  F   UNL A   1      44.817  33.510  29.176  1.00  0.00    -0.206 F 
ATOM     87  C   UNL A   1      44.872  35.107  32.427  1.00  0.00     0.006 A 
ENDBRANCH  63  80
ENDBRANCH  37  38
ENDBRANCH  29  32
ENDBRANCH  27  28
ENDBRANCH  26  27
ENDBRANCH  25  26
ENDBRANCH  24  25
ENDBRANCH  23  24
ENDBRANCH   1  23
TORSDOF 20
ENDMDL
