MODEL 1
REMARK VINA RESULT:     -13.0      0.000      0.000
REMARK SMILES Cc1cc(S(F)(F)(F)(F)F)cc2c1O[C@H](C(F)(F)F)C(C(=O)NCCCCCCNC(=O)c1ccc(-c3c4nc(c(-c5c(F)cccc5F)c5ccc([nH]5)c(-c5c(F)cccc5F)c5nc(c(-c6c(F)cccc6F)c6ccc3[nH]6)C=C5)C=C4)cc1)=C2
REMARK SMILES IDX 27 1 26 2 25 3 24 4 23 5 21 6 22 7 20 9 1 10 2 11 3 12 13 13
REMARK SMILES IDX 4 14 12 15 14 16 11 17 87 18 15 19 5 20 6 21 7 22 8 23 9 24
REMARK SMILES IDX 10 25 16 26 17 27 18 28 19 29 28 30 29 31 30 32 31 33 32 35
REMARK SMILES IDX 33 36 34 37 86 38 35 39 85 40 36 41 37 42 38 43 79 44 39 45
REMARK SMILES IDX 84 46 78 47 80 48 40 49 83 50 77 51 76 52 41 54 67 55 50 56
REMARK SMILES IDX 66 57 51 58 54 59 65 60 81 61 52 62 53 63 64 65 82 66 55 67
REMARK SMILES IDX 42 68 43 69 48 70 44 71 45 72 47 73 49 74 46 75 68 76 69 77
REMARK SMILES IDX 74 78 70 79 71 80 73 81 75 82 72 83 56 84 57 85 62 86 58 87
REMARK SMILES IDX 59 88 61 89 63 90 60 91
REMARK H PARENT 23 8 30 34 80 53 54 64
REMARK Flexibility Score: inf
ROOT
ATOM      1  C   UNL A   1      32.058  30.128  26.970  1.00  0.00     0.002 C 
ENDROOT
BRANCH   1   2
ATOM      2  C   UNL A   1      33.567  30.163  27.150  1.00  0.00     0.002 C 
BRANCH   2   3
ATOM      3  C   UNL A   1      34.183  28.938  26.493  1.00  0.00     0.021 C 
BRANCH   3   4
ATOM      4  C   UNL A   1      33.498  28.680  25.161  1.00  0.00     0.116 C 
BRANCH   4   5
ATOM      5  N   UNL A   1      33.881  27.352  24.662  1.00  0.00    -0.352 N 
ATOM      6  C   UNL A   1      32.883  26.496  24.005  1.00  0.00     0.251 C 
ATOM      7  O   UNL A   1      33.213  25.348  23.574  1.00  0.00    -0.270 OA
ATOM      8  H   UNL A   1      34.807  27.034  24.768  1.00  0.00     0.163 HD
BRANCH   6   9
ATOM      9  C   UNL A   1      31.452  26.987  23.841  1.00  0.00     0.067 C 
ATOM     10  C   UNL A   1      26.330  27.453  23.876  1.00  0.00     0.048 C 
ATOM     11  C   UNL A   1      27.502  28.299  23.407  1.00  0.00    -0.007 A 
ATOM     12  C   UNL A   1      27.278  29.546  22.866  1.00  0.00     0.031 A 
ATOM     13  C   UNL A   1      28.812  27.845  23.560  1.00  0.00     0.130 A 
ATOM     14  C   UNL A   1      28.340  30.349  22.470  1.00  0.00     0.108 A 
ATOM     15  C   UNL A   1      29.889  28.667  23.160  1.00  0.00     0.019 A 
ATOM     16  O   UNL A   1      29.117  26.526  24.128  1.00  0.00    -0.475 OA
ATOM     17  C   UNL A   1      29.631  29.927  22.616  1.00  0.00     0.036 A 
ATOM     18  C   UNL A   1      31.253  28.165  23.331  1.00  0.00     0.025 C 
ATOM     19  C   UNL A   1      30.409  26.153  24.245  1.00  0.00     0.314 C 
BRANCH  14  20
ATOM     20  S   UNL A   1      28.008  31.976  21.749  1.00  0.00     0.310 S 
ATOM     21  F   UNL A   1      29.490  32.482  22.002  1.00  0.00    -0.094 F 
ATOM     22  F   UNL A   1      27.659  32.490  23.198  1.00  0.00    -0.094 F 
ATOM     23  F   UNL A   1      27.699  33.376  21.148  1.00  0.00    -0.094 F 
ATOM     24  F   UNL A   1      28.495  31.483  20.331  1.00  0.00    -0.094 F 
ATOM     25  F   UNL A   1      28.434  30.584  22.363  1.00  0.00    -0.094 F 
ENDBRANCH  14  20
BRANCH  19  26
ATOM     26  C   UNL A   1      30.597  26.108  25.753  1.00  0.00     0.429 C 
ATOM     27  F   UNL A   1      29.496  25.628  26.323  1.00  0.00    -0.167 F 
ATOM     28  F   UNL A   1      31.628  25.321  26.048  1.00  0.00    -0.167 F 
ATOM     29  F   UNL A   1      30.833  27.336  26.208  1.00  0.00    -0.167 F 
ENDBRANCH  19  26
ENDBRANCH   6   9
ENDBRANCH   4   5
ENDBRANCH   3   4
ENDBRANCH   2   3
ENDBRANCH   1   2
BRANCH   1  30
ATOM     30  C   UNL A   1      31.526  31.549  26.867  1.00  0.00     0.021 C 
BRANCH  30  31
ATOM     31  C   UNL A   1      32.690  32.515  26.713  1.00  0.00     0.116 C 
BRANCH  31  32
ATOM     32  N   UNL A   1      32.309  33.830  27.249  1.00  0.00    -0.352 N 
ATOM     33  C   UNL A   1      33.073  34.422  28.356  1.00  0.00     0.251 C 
ATOM     34  H   UNL A   1      31.542  34.314  26.866  1.00  0.00     0.163 HD
ATOM     35  O   UNL A   1      32.744  35.559  28.820  1.00  0.00    -0.269 OA
BRANCH  33  36
ATOM     36  C   UNL A   1      34.257  33.675  28.948  1.00  0.00     0.039 A 
ATOM     37  C   UNL A   1      34.068  32.679  29.899  1.00  0.00     0.014 A 
ATOM     38  C   UNL A   1      35.487  33.954  28.571  1.00  0.00     0.014 A 
ATOM     39  C   UNL A   1      35.096  31.717  30.019  1.00  0.00     0.010 A 
ATOM     40  C   UNL A   1      36.577  33.272  29.123  1.00  0.00     0.010 A 
ATOM     41  C   UNL A   1      36.398  32.177  29.831  1.00  0.00    -0.014 A 
BRANCH  41  42
ATOM     42  C   UNL A   1      37.581  31.432  30.427  1.00  0.00     0.031 A 
ATOM     43  C   UNL A   1      38.281  30.547  29.605  1.00  0.00     0.074 A 
ATOM     44  C   UNL A   1      37.901  31.675  31.751  1.00  0.00     0.049 A 
ATOM     45  N   UNL A   1      39.360  29.827  29.917  1.00  0.00    -0.248 NA
ATOM     46  C   UNL A   1      37.922  30.262  28.208  1.00  0.00     0.031 C 
ATOM     47  C   UNL A   1      37.206  32.574  32.584  1.00  0.00     0.029 A 
ATOM     48  N   UNL A   1      38.917  31.113  32.492  1.00  0.00    -0.354 N 
ATOM     49  C   UNL A   1      39.756  29.110  28.862  1.00  0.00     0.074 A 
ATOM     50  C   UNL A   1      38.834  29.376  27.750  1.00  0.00     0.031 C 
ATOM     51  C   UNL A   1      37.786  32.546  33.812  1.00  0.00     0.029 A 
ATOM     52  C   UNL A   1      38.855  31.630  33.768  1.00  0.00     0.049 A 
ATOM     53  H   UNL A   1      39.574  30.456  32.168  1.00  0.00     0.167 HD
ATOM     54  C   UNL A   1      40.852  28.249  28.785  1.00  0.00     0.037 A 
ATOM     55  C   UNL A   1      39.673  31.330  34.845  1.00  0.00     0.037 A 
ATOM     56  C   UNL A   1      41.696  27.982  29.850  1.00  0.00     0.049 A 
ATOM     57  C   UNL A   1      40.734  30.423  34.785  1.00  0.00     0.074 A 
ATOM     58  C   UNL A   1      42.809  27.122  29.788  1.00  0.00     0.029 A 
ATOM     59  N   UNL A   1      41.619  28.479  31.134  1.00  0.00    -0.354 N 
ATOM     60  N   UNL A   1      41.154  29.737  33.720  1.00  0.00    -0.248 NA
ATOM     61  C   UNL A   1      41.587  30.073  35.928  1.00  0.00     0.031 C 
ATOM     62  C   UNL A   1      43.390  27.093  31.017  1.00  0.00     0.029 A 
ATOM     63  C   UNL A   1      42.649  27.934  31.868  1.00  0.00     0.049 A 
ATOM     64  H   UNL A   1      40.945  29.114  31.467  1.00  0.00     0.167 HD
ATOM     65  C   UNL A   1      42.208  28.986  34.044  1.00  0.00     0.074 A 
ATOM     66  C   UNL A   1      42.497  29.185  35.470  1.00  0.00     0.031 C 
ATOM     67  C   UNL A   1      42.943  28.145  33.206  1.00  0.00     0.037 A 
BRANCH  54  68
ATOM     68  C   UNL A   1      41.134  27.566  27.457  1.00  0.00     0.057 A 
ATOM     69  C   UNL A   1      41.908  28.169  26.581  1.00  0.00     0.134 A 
ATOM     70  C   UNL A   1      40.586  26.308  27.183  1.00  0.00     0.134 A 
ATOM     71  F   UNL A   1      42.424  29.368  26.837  1.00  0.00    -0.206 F 
ATOM     72  C   UNL A   1      42.176  27.521  25.380  1.00  0.00     0.040 A 
ATOM     73  C   UNL A   1      41.022  25.590  26.170  1.00  0.00     0.040 A 
ATOM     74  F   UNL A   1      39.612  25.834  27.954  1.00  0.00    -0.206 F 
ATOM     75  C   UNL A   1      42.042  26.114  25.377  1.00  0.00     0.006 A 
ENDBRANCH  54  68
BRANCH  55  76
ATOM     76  C   UNL A   1      39.401  32.027  36.169  1.00  0.00     0.057 A 
ATOM     77  C   UNL A   1      40.161  33.040  36.525  1.00  0.00     0.134 A 
ATOM     78  C   UNL A   1      38.361  31.585  36.994  1.00  0.00     0.134 A 
ATOM     79  F   UNL A   1      41.154  33.456  35.745  1.00  0.00    -0.206 F 
ATOM     80  C   UNL A   1      39.899  33.666  37.740  1.00  0.00     0.040 A 
ATOM     81  C   UNL A   1      37.956  32.312  38.014  1.00  0.00     0.040 A 
ATOM     82  F   UNL A   1      37.778  30.416  36.748  1.00  0.00    -0.206 F 
ATOM     83  C   UNL A   1      38.589  33.531  38.251  1.00  0.00     0.006 A 
ENDBRANCH  55  76
BRANCH  67  84
ATOM     84  C   UNL A   1      44.137  27.414  33.798  1.00  0.00     0.057 A 
ATOM     85  C   UNL A   1      43.971  26.224  34.335  1.00  0.00     0.134 A 
ATOM     86  C   UNL A   1      45.401  28.014  33.764  1.00  0.00     0.134 A 
ATOM     87  F   UNL A   1      42.768  25.657  34.375  1.00  0.00    -0.206 F 
ATOM     88  C   UNL A   1      45.083  25.575  34.859  1.00  0.00     0.040 A 
ATOM     89  C   UNL A   1      46.484  27.316  34.031  1.00  0.00     0.040 A 
ATOM     90  F   UNL A   1      45.509  29.304  33.459  1.00  0.00    -0.206 F 
ATOM     91  C   UNL A   1      46.341  25.967  34.351  1.00  0.00     0.006 A 
ENDBRANCH  67  84
ENDBRANCH  41  42
ENDBRANCH  33  36
ENDBRANCH  31  32
ENDBRANCH  30  31
ENDBRANCH   1  30
TORSDOF 15
ENDMDL
MODEL 2
REMARK VINA RESULT:     -12.8      5.656      9.775
REMARK SMILES Cc1cc(S(F)(F)(F)(F)F)cc2c1O[C@H](C(F)(F)F)C(C(=O)NCCCCCCNC(=O)c1ccc(-c3c4nc(c(-c5c(F)cccc5F)c5ccc([nH]5)c(-c5c(F)cccc5F)c5nc(c(-c6c(F)cccc6F)c6ccc3[nH]6)C=C5)C=C4)cc1)=C2
REMARK SMILES IDX 27 1 26 2 25 3 24 4 23 5 21 6 22 7 20 9 1 10 2 11 3 12 13 13
REMARK SMILES IDX 4 14 12 15 14 16 11 17 87 18 15 19 5 20 6 21 7 22 8 23 9 24
REMARK SMILES IDX 10 25 16 26 17 27 18 28 19 29 28 30 29 31 30 32 31 33 32 35
REMARK SMILES IDX 33 36 34 37 86 38 35 39 85 40 36 41 37 42 38 43 79 44 39 45
REMARK SMILES IDX 84 46 78 47 80 48 40 49 83 50 77 51 76 52 41 54 67 55 50 56
REMARK SMILES IDX 66 57 51 58 54 59 65 60 81 61 52 62 53 63 64 65 82 66 55 67
REMARK SMILES IDX 42 68 43 69 48 70 44 71 45 72 47 73 49 74 46 75 68 76 69 77
REMARK SMILES IDX 74 78 70 79 71 80 73 81 75 82 72 83 56 84 57 85 62 86 58 87
REMARK SMILES IDX 59 88 61 89 63 90 60 91
REMARK H PARENT 23 8 30 34 80 53 54 64
REMARK Flexibility Score: inf
ROOT
ATOM      1  C   UNL A   1      36.787  21.055  24.882  1.00  0.00     0.002 C 
ENDROOT
BRANCH   1   2
ATOM      2  C   UNL A   1      37.518  22.326  25.286  1.00  0.00     0.002 C 
BRANCH   2   3
ATOM      3  C   UNL A   1      36.503  23.405  25.630  1.00  0.00     0.021 C 
BRANCH   3   4
ATOM      4  C   UNL A   1      35.274  22.763  26.252  1.00  0.00     0.116 C 
BRANCH   4   5
ATOM      5  N   UNL A   1      34.188  23.751  26.323  1.00  0.00    -0.352 N 
ATOM      6  C   UNL A   1      32.946  23.536  25.568  1.00  0.00     0.251 C 
ATOM      7  O   UNL A   1      32.008  24.391  25.629  1.00  0.00    -0.270 OA
ATOM      8  H   UNL A   1      34.293  24.559  26.877  1.00  0.00     0.163 HD
BRANCH   6   9
ATOM      9  C   UNL A   1      32.784  22.289  24.713  1.00  0.00     0.067 C 
ATOM     10  C   UNL A   1      31.934  18.988  20.861  1.00  0.00     0.048 C 
ATOM     11  C   UNL A   1      32.326  18.882  22.326  1.00  0.00    -0.007 A 
ATOM     12  C   UNL A   1      32.582  17.649  22.883  1.00  0.00     0.031 A 
ATOM     13  C   UNL A   1      32.474  20.028  23.106  1.00  0.00     0.130 A 
ATOM     14  C   UNL A   1      32.980  17.537  24.209  1.00  0.00     0.108 A 
ATOM     15  C   UNL A   1      32.883  19.911  24.453  1.00  0.00     0.019 A 
ATOM     16  O   UNL A   1      32.215  21.371  22.572  1.00  0.00    -0.475 OA
ATOM     17  C   UNL A   1      33.136  18.647  24.990  1.00  0.00     0.036 A 
ATOM     18  C   UNL A   1      33.030  21.130  25.248  1.00  0.00     0.025 C 
ATOM     19  C   UNL A   1      32.378  22.436  23.386  1.00  0.00     0.314 C 
BRANCH  14  20
ATOM     20  S   UNL A   1      33.293  15.899  24.912  1.00  0.00     0.310 S 
ATOM     21  F   UNL A   1      33.817  16.497  26.285  1.00  0.00    -0.094 F 
ATOM     22  F   UNL A   1      34.772  16.009  24.379  1.00  0.00    -0.094 F 
ATOM     23  F   UNL A   1      33.578  14.484  25.492  1.00  0.00    -0.094 F 
ATOM     24  F   UNL A   1      31.854  15.865  25.560  1.00  0.00    -0.094 F 
ATOM     25  F   UNL A   1      33.026  17.379  24.429  1.00  0.00    -0.094 F 
ENDBRANCH  14  20
BRANCH  19  26
ATOM     26  C   UNL A   1      33.570  23.142  22.760  1.00  0.00     0.429 C 
ATOM     27  F   UNL A   1      33.593  24.410  23.158  1.00  0.00    -0.167 F 
ATOM     28  F   UNL A   1      34.693  22.538  23.139  1.00  0.00    -0.167 F 
ATOM     29  F   UNL A   1      33.468  23.095  21.434  1.00  0.00    -0.167 F 
ENDBRANCH  19  26
ENDBRANCH   6   9
ENDBRANCH   4   5
ENDBRANCH   3   4
ENDBRANCH   2   3
ENDBRANCH   1   2
BRANCH   1  30
ATOM     30  C   UNL A   1      37.764  19.890  24.870  1.00  0.00     0.021 C 
BRANCH  30  31
ATOM     31  C   UNL A   1      38.925  20.194  25.802  1.00  0.00     0.116 C 
BRANCH  31  32
ATOM     32  N   UNL A   1      39.930  19.127  25.696  1.00  0.00    -0.352 N 
ATOM     33  C   UNL A   1      41.323  19.387  26.088  1.00  0.00     0.251 C 
ATOM     34  H   UNL A   1      39.671  18.237  25.361  1.00  0.00     0.163 HD
ATOM     35  O   UNL A   1      42.193  18.464  25.996  1.00  0.00    -0.269 OA
BRANCH  33  36
ATOM     36  C   UNL A   1      41.724  20.759  26.604  1.00  0.00     0.039 A 
ATOM     37  C   UNL A   1      42.290  21.702  25.755  1.00  0.00     0.014 A 
ATOM     38  C   UNL A   1      41.543  21.084  27.867  1.00  0.00     0.014 A 
ATOM     39  C   UNL A   1      42.166  23.055  26.141  1.00  0.00     0.010 A 
ATOM     40  C   UNL A   1      41.921  22.344  28.343  1.00  0.00     0.010 A 
ATOM     41  C   UNL A   1      42.226  23.316  27.508  1.00  0.00    -0.014 A 
BRANCH  41  42
ATOM     42  C   UNL A   1      42.631  24.686  28.025  1.00  0.00     0.031 A 
ATOM     43  C   UNL A   1      43.986  24.924  28.261  1.00  0.00     0.074 A 
ATOM     44  C   UNL A   1      41.634  25.624  28.230  1.00  0.00     0.049 A 
ATOM     45  N   UNL A   1      44.553  26.057  28.678  1.00  0.00    -0.248 NA
ATOM     46  C   UNL A   1      45.043  23.919  28.076  1.00  0.00     0.031 C 
ATOM     47  C   UNL A   1      40.266  25.395  27.984  1.00  0.00     0.029 A 
ATOM     48  N   UNL A   1      41.769  26.913  28.695  1.00  0.00    -0.354 N 
ATOM     49  C   UNL A   1      45.876  25.904  28.771  1.00  0.00     0.074 A 
ATOM     50  C   UNL A   1      46.209  24.525  28.390  1.00  0.00     0.031 C 
ATOM     51  C   UNL A   1      39.584  26.525  28.309  1.00  0.00     0.029 A 
ATOM     52  C   UNL A   1      40.515  27.480  28.760  1.00  0.00     0.049 A 
ATOM     53  H   UNL A   1      42.614  27.354  28.940  1.00  0.00     0.167 HD
ATOM     54  C   UNL A   1      46.816  26.861  29.155  1.00  0.00     0.037 A 
ATOM     55  C   UNL A   1      40.182  28.755  29.189  1.00  0.00     0.037 A 
ATOM     56  C   UNL A   1      46.487  28.150  29.542  1.00  0.00     0.049 A 
ATOM     57  C   UNL A   1      41.117  29.695  29.629  1.00  0.00     0.074 A 
ATOM     58  C   UNL A   1      47.423  29.130  29.925  1.00  0.00     0.029 A 
ATOM     59  N   UNL A   1      45.231  28.709  29.632  1.00  0.00    -0.354 N 
ATOM     60  N   UNL A   1      42.443  29.554  29.684  1.00  0.00    -0.248 NA
ATOM     61  C   UNL A   1      40.773  31.037  30.117  1.00  0.00     0.031 C 
ATOM     62  C   UNL A   1      46.741  30.261  30.249  1.00  0.00     0.029 A 
ATOM     63  C   UNL A   1      45.368  30.006  30.075  1.00  0.00     0.049 A 
ATOM     64  H   UNL A   1      44.382  28.260  29.415  1.00  0.00     0.167 HD
ATOM     65  C   UNL A   1      43.005  30.675  30.141  1.00  0.00     0.074 A 
ATOM     66  C   UNL A   1      41.939  31.642  30.433  1.00  0.00     0.031 C 
ATOM     67  C   UNL A   1      44.365  30.931  30.322  1.00  0.00     0.037 A 
BRANCH  54  68
ATOM     68  C   UNL A   1      48.284  26.468  29.147  1.00  0.00     0.057 A 
ATOM     69  C   UNL A   1      48.994  26.671  28.057  1.00  0.00     0.134 A 
ATOM     70  C   UNL A   1      48.870  25.910  30.289  1.00  0.00     0.134 A 
ATOM     71  F   UNL A   1      48.438  27.194  26.968  1.00  0.00    -0.206 F 
ATOM     72  C   UNL A   1      50.341  26.327  28.073  1.00  0.00     0.040 A 
ATOM     73  C   UNL A   1      50.177  25.809  30.395  1.00  0.00     0.040 A 
ATOM     74  F   UNL A   1      48.094  25.476  31.278  1.00  0.00    -0.206 F 
ATOM     75  C   UNL A   1      50.964  26.270  29.340  1.00  0.00     0.006 A 
ENDBRANCH  54  68
BRANCH  55  76
ATOM     76  C   UNL A   1      38.714  29.154  29.181  1.00  0.00     0.057 A 
ATOM     77  C   UNL A   1      37.990  28.946  30.259  1.00  0.00     0.134 A 
ATOM     78  C   UNL A   1      38.148  29.723  28.035  1.00  0.00     0.134 A 
ATOM     79  F   UNL A   1      38.525  28.398  31.346  1.00  0.00    -0.206 F 
ATOM     80  C   UNL A   1      36.649  29.316  30.234  1.00  0.00     0.040 A 
ATOM     81  C   UNL A   1      36.962  30.292  28.082  1.00  0.00     0.040 A 
ATOM     82  F   UNL A   1      38.815  29.688  26.885  1.00  0.00    -0.206 F 
ATOM     83  C   UNL A   1      36.285  30.311  29.300  1.00  0.00     0.006 A 
ENDBRANCH  55  76
BRANCH  67  84
ATOM     84  C   UNL A   1      44.772  32.308  30.822  1.00  0.00     0.057 A 
ATOM     85  C   UNL A   1      44.877  32.525  32.115  1.00  0.00     0.134 A 
ATOM     86  C   UNL A   1      45.032  33.329  29.901  1.00  0.00     0.134 A 
ATOM     87  F   UNL A   1      44.621  31.557  32.992  1.00  0.00    -0.206 F 
ATOM     88  C   UNL A   1      45.260  33.791  32.544  1.00  0.00     0.040 A 
ATOM     89  C   UNL A   1      45.624  34.441  30.279  1.00  0.00     0.040 A 
ATOM     90  F   UNL A   1      44.676  33.173  28.629  1.00  0.00    -0.206 F 
ATOM     91  C   UNL A   1      45.982  34.578  31.619  1.00  0.00     0.006 A 
ENDBRANCH  67  84
ENDBRANCH  41  42
ENDBRANCH  33  36
ENDBRANCH  31  32
ENDBRANCH  30  31
ENDBRANCH   1  30
TORSDOF 15
ENDMDL
MODEL 3
REMARK VINA RESULT:     -12.8      1.356      5.848
REMARK SMILES Cc1cc(S(F)(F)(F)(F)F)cc2c1O[C@H](C(F)(F)F)C(C(=O)NCCCCCCNC(=O)c1ccc(-c3c4nc(c(-c5c(F)cccc5F)c5ccc([nH]5)c(-c5c(F)cccc5F)c5nc(c(-c6c(F)cccc6F)c6ccc3[nH]6)C=C5)C=C4)cc1)=C2
REMARK SMILES IDX 27 1 26 2 25 3 24 4 23 5 21 6 22 7 20 9 1 10 2 11 3 12 13 13
REMARK SMILES IDX 4 14 12 15 14 16 11 17 87 18 15 19 5 20 6 21 7 22 8 23 9 24
REMARK SMILES IDX 10 25 16 26 17 27 18 28 19 29 28 30 29 31 30 32 31 33 32 35
REMARK SMILES IDX 33 36 34 37 86 38 35 39 85 40 36 41 37 42 38 43 79 44 39 45
REMARK SMILES IDX 84 46 78 47 80 48 40 49 83 50 77 51 76 52 41 54 67 55 50 56
REMARK SMILES IDX 66 57 51 58 54 59 65 60 81 61 52 62 53 63 64 65 82 66 55 67
REMARK SMILES IDX 42 68 43 69 48 70 44 71 45 72 47 73 49 74 46 75 68 76 69 77
REMARK SMILES IDX 74 78 70 79 71 80 73 81 75 82 72 83 56 84 57 85 62 86 58 87
REMARK SMILES IDX 59 88 61 89 63 90 60 91
REMARK H PARENT 23 8 30 34 80 53 54 64
REMARK Flexibility Score: inf
ROOT
ATOM      1  C   UNL A   1      31.825  30.187  26.301  1.00  0.00     0.002 C 
ENDROOT
BRANCH   1   2
ATOM      2  C   UNL A   1      33.155  29.889  26.976  1.00  0.00     0.002 C 
BRANCH   2   3
ATOM      3  C   UNL A   1      33.692  28.560  26.470  1.00  0.00     0.021 C 
BRANCH   3   4
ATOM      4  C   UNL A   1      33.509  28.481  24.963  1.00  0.00     0.116 C 
BRANCH   4   5
ATOM      5  N   UNL A   1      33.825  27.122  24.501  1.00  0.00    -0.352 N 
ATOM      6  C   UNL A   1      32.774  26.281  23.911  1.00  0.00     0.251 C 
ATOM      7  O   UNL A   1      33.048  25.106  23.513  1.00  0.00    -0.270 OA
ATOM      8  H   UNL A   1      34.742  26.775  24.587  1.00  0.00     0.163 HD
BRANCH   6   9
ATOM      9  C   UNL A   1      31.358  26.818  23.779  1.00  0.00     0.067 C 
ATOM     10  C   UNL A   1      26.255  27.450  23.919  1.00  0.00     0.048 C 
ATOM     11  C   UNL A   1      27.444  28.261  23.429  1.00  0.00    -0.007 A 
ATOM     12  C   UNL A   1      27.250  29.516  22.897  1.00  0.00     0.031 A 
ATOM     13  C   UNL A   1      28.741  27.764  23.554  1.00  0.00     0.130 A 
ATOM     14  C   UNL A   1      28.329  30.286  22.482  1.00  0.00     0.108 A 
ATOM     15  C   UNL A   1      29.836  28.552  23.135  1.00  0.00     0.019 A 
ATOM     16  O   UNL A   1      29.015  26.433  24.112  1.00  0.00    -0.475 OA
ATOM     17  C   UNL A   1      29.609  29.821  22.600  1.00  0.00     0.036 A 
ATOM     18  C   UNL A   1      31.186  28.005  23.276  1.00  0.00     0.025 C 
ATOM     19  C   UNL A   1      30.296  26.018  24.201  1.00  0.00     0.314 C 
BRANCH  14  20
ATOM     20  S   UNL A   1      28.035  31.925  21.774  1.00  0.00     0.310 S 
ATOM     21  F   UNL A   1      29.540  32.379  21.990  1.00  0.00    -0.094 F 
ATOM     22  F   UNL A   1      27.741  32.447  23.232  1.00  0.00    -0.094 F 
ATOM     23  F   UNL A   1      27.760  33.337  21.183  1.00  0.00    -0.094 F 
ATOM     24  F   UNL A   1      28.470  31.421  20.342  1.00  0.00    -0.094 F 
ATOM     25  F   UNL A   1      28.428  30.517  22.373  1.00  0.00    -0.094 F 
ENDBRANCH  14  20
BRANCH  19  26
ATOM     26  C   UNL A   1      30.513  25.960  25.704  1.00  0.00     0.429 C 
ATOM     27  F   UNL A   1      31.515  25.129  25.976  1.00  0.00    -0.167 F 
ATOM     28  F   UNL A   1      30.810  27.176  26.156  1.00  0.00    -0.167 F 
ATOM     29  F   UNL A   1      29.403  25.527  26.297  1.00  0.00    -0.167 F 
ENDBRANCH  19  26
ENDBRANCH   6   9
ENDBRANCH   4   5
ENDBRANCH   3   4
ENDBRANCH   2   3
ENDBRANCH   1   2
BRANCH   1  30
ATOM     30  C   UNL A   1      31.420  31.624  26.590  1.00  0.00     0.021 C 
BRANCH  30  31
ATOM     31  C   UNL A   1      32.649  32.426  26.988  1.00  0.00     0.116 C 
BRANCH  31  32
ATOM     32  N   UNL A   1      32.233  33.748  27.478  1.00  0.00    -0.352 N 
ATOM     33  C   UNL A   1      33.060  34.460  28.463  1.00  0.00     0.251 C 
ATOM     34  H   UNL A   1      31.400  34.156  27.147  1.00  0.00     0.163 HD
ATOM     35  O   UNL A   1      32.701  35.603  28.887  1.00  0.00    -0.269 OA
BRANCH  33  36
ATOM     36  C   UNL A   1      34.346  33.830  28.974  1.00  0.00     0.039 A 
ATOM     37  C   UNL A   1      35.533  33.957  28.262  1.00  0.00     0.014 A 
ATOM     38  C   UNL A   1      34.362  33.151  30.101  1.00  0.00     0.014 A 
ATOM     39  C   UNL A   1      36.730  33.810  28.998  1.00  0.00     0.010 A 
ATOM     40  C   UNL A   1      35.544  32.564  30.565  1.00  0.00     0.010 A 
ATOM     41  C   UNL A   1      36.707  32.880  30.035  1.00  0.00    -0.014 A 
BRANCH  41  42
ATOM     42  C   UNL A   1      37.992  32.246  30.543  1.00  0.00     0.031 A 
ATOM     43  C   UNL A   1      38.668  32.879  31.587  1.00  0.00     0.074 A 
ATOM     44  C   UNL A   1      38.419  31.075  29.942  1.00  0.00     0.049 A 
ATOM     45  N   UNL A   1      39.784  32.476  32.197  1.00  0.00    -0.248 NA
ATOM     46  C   UNL A   1      38.234  34.141  32.204  1.00  0.00     0.031 C 
ATOM     47  C   UNL A   1      37.738  30.425  28.895  1.00  0.00     0.029 A 
ATOM     48  N   UNL A   1      39.547  30.339  30.232  1.00  0.00    -0.354 N 
ATOM     49  C   UNL A   1      40.118  33.335  33.162  1.00  0.00     0.074 A 
ATOM     50  C   UNL A   1      39.129  34.421  33.177  1.00  0.00     0.031 C 
ATOM     51  C   UNL A   1      38.450  29.321  28.549  1.00  0.00     0.029 A 
ATOM     52  C   UNL A   1      39.588  29.260  29.376  1.00  0.00     0.049 A 
ATOM     53  H   UNL A   1      40.210  30.547  30.929  1.00  0.00     0.167 HD
ATOM     54  C   UNL A   1      41.207  33.253  34.032  1.00  0.00     0.037 A 
ATOM     55  C   UNL A   1      40.555  28.271  29.303  1.00  0.00     0.037 A 
ATOM     56  C   UNL A   1      42.150  32.240  33.988  1.00  0.00     0.049 A 
ATOM     57  C   UNL A   1      41.677  28.220  30.135  1.00  0.00     0.074 A 
ATOM     58  C   UNL A   1      43.250  32.138  34.862  1.00  0.00     0.029 A 
ATOM     59  N   UNL A   1      42.206  31.175  33.116  1.00  0.00    -0.354 N 
ATOM     60  N   UNL A   1      41.989  29.058  31.126  1.00  0.00    -0.248 NA
ATOM     61  C   UNL A   1      42.726  27.196  30.046  1.00  0.00     0.031 C 
ATOM     62  C   UNL A   1      43.963  31.033  34.517  1.00  0.00     0.029 A 
ATOM     63  C   UNL A   1      43.321  30.427  33.421  1.00  0.00     0.049 A 
ATOM     64  H   UNL A   1      41.559  30.981  32.400  1.00  0.00     0.167 HD
ATOM     65  C   UNL A   1      43.128  28.676  31.708  1.00  0.00     0.074 A 
ATOM     66  C   UNL A   1      43.622  27.477  31.017  1.00  0.00     0.031 C 
ATOM     67  C   UNL A   1      43.773  29.277  32.790  1.00  0.00     0.037 A 
BRANCH  54  68
ATOM     68  C   UNL A   1      41.365  34.336  35.087  1.00  0.00     0.057 A 
ATOM     69  C   UNL A   1      42.051  35.419  34.792  1.00  0.00     0.134 A 
ATOM     70  C   UNL A   1      40.776  34.182  36.347  1.00  0.00     0.134 A 
ATOM     71  F   UNL A   1      42.618  35.564  33.597  1.00  0.00    -0.206 F 
ATOM     72  C   UNL A   1      42.167  36.411  35.760  1.00  0.00     0.040 A 
ATOM     73  C   UNL A   1      40.674  35.202  37.172  1.00  0.00     0.040 A 
ATOM     74  F   UNL A   1      40.315  32.990  36.714  1.00  0.00    -0.206 F 
ATOM     75  C   UNL A   1      41.169  36.438  36.759  1.00  0.00     0.006 A 
ENDBRANCH  54  68
BRANCH  55  76
ATOM     76  C   UNL A   1      40.387  27.178  28.260  1.00  0.00     0.057 A 
ATOM     77  C   UNL A   1      40.903  27.354  27.062  1.00  0.00     0.134 A 
ATOM     78  C   UNL A   1      39.685  26.010  28.573  1.00  0.00     0.134 A 
ATOM     79  F   UNL A   1      41.565  28.468  26.761  1.00  0.00    -0.206 F 
ATOM     80  C   UNL A   1      40.739  26.345  26.118  1.00  0.00     0.040 A 
ATOM     81  C   UNL A   1      39.734  24.962  27.778  1.00  0.00     0.040 A 
ATOM     82  F   UNL A   1      38.957  25.958  29.685  1.00  0.00    -0.206 F 
ATOM     83  C   UNL A   1      40.500  25.046  26.618  1.00  0.00     0.006 A 
ENDBRANCH  55  76
BRANCH  67  84
ATOM     84  C   UNL A   1      45.048  28.633  33.309  1.00  0.00     0.057 A 
ATOM     85  C   UNL A   1      46.211  29.009  32.822  1.00  0.00     0.134 A 
ATOM     86  C   UNL A   1      44.972  27.648  34.300  1.00  0.00     0.134 A 
ATOM     87  F   UNL A   1      46.283  29.940  31.873  1.00  0.00    -0.206 F 
ATOM     88  C   UNL A   1      47.362  28.411  33.321  1.00  0.00     0.040 A 
ATOM     89  C   UNL A   1      46.050  27.258  34.945  1.00  0.00     0.040 A 
ATOM     90  F   UNL A   1      43.796  27.100  34.593  1.00  0.00    -0.206 F 
ATOM     91  C   UNL A   1      47.270  27.847  34.613  1.00  0.00     0.006 A 
ENDBRANCH  67  84
ENDBRANCH  41  42
ENDBRANCH  33  36
ENDBRANCH  31  32
ENDBRANCH  30  31
ENDBRANCH   1  30
TORSDOF 15
ENDMDL
