MODEL 1
REMARK VINA RESULT:     -12.0      0.000      0.000
REMARK SMILES C[C@@H](C(=O)NCCCCCCNC(=O)c1ccc(-c2c3nc(c(-c4c(F)cccc4F)c4ccc([nH]4)c(-c4c(F)cccc4F)c4nc(c(-c5c(F)cccc5F)c5ccc2[nH]5)C=C4)C=C3)cc1)c1ccc(C[C@H]2CCC[C@@H]2O)cc1F
REMARK SMILES IDX 7 1 6 2 5 3 3 4 4 5 2 7 1 8 69 9 70 10 81 11 71 12 80 13
REMARK SMILES IDX 82 14 72 15 73 16 74 17 75 18 78 19 76 20 77 21 79 22 8 24
REMARK SMILES IDX 9 25 10 26 11 27 12 28 13 29 14 31 15 32 16 33 68 34 17 35
REMARK SMILES IDX 67 36 18 37 19 38 20 39 61 40 21 41 66 42 60 43 62 44 22 45
REMARK SMILES IDX 65 46 59 47 58 48 23 50 49 51 32 52 48 53 33 54 36 55 47 56
REMARK SMILES IDX 63 57 34 58 35 59 46 61 64 62 37 63 24 64 25 65 30 66 26 67
REMARK SMILES IDX 27 68 29 69 31 70 28 71 50 72 51 73 56 74 52 75 53 76 55 77
REMARK SMILES IDX 57 78 54 79 38 80 39 81 44 82 40 83 41 84 43 85 45 86 42 87
REMARK H PARENT 5 6 79 23 12 30 62 49 36 60
REMARK Flexibility Score: inf
ROOT
ATOM      1  C   UNL A   1      31.771  28.344  27.468  1.00  0.00     0.021 C 
ENDROOT
BRANCH   1   2
ATOM      2  C   UNL A   1      31.401  27.397  26.320  1.00  0.00     0.116 C 
BRANCH   2   3
ATOM      3  N   UNL A   1      31.163  26.066  26.840  1.00  0.00    -0.356 N 
ATOM      4  C   UNL A   1      30.958  24.904  26.150  1.00  0.00     0.227 C 
ATOM      5  O   UNL A   1      30.332  24.012  26.723  1.00  0.00    -0.274 OA
ATOM      6  H   UNL A   1      31.147  25.988  27.822  1.00  0.00     0.163 HD
BRANCH   4   7
ATOM      7  C   UNL A   1      31.495  24.777  24.710  1.00  0.00     0.108 C 
ATOM      8  C   UNL A   1      30.282  24.775  23.764  1.00  0.00     0.023 C 
BRANCH   7   9
ATOM      9  C   UNL A   1      32.396  23.556  24.520  1.00  0.00    -0.000 A 
ATOM     10  C   UNL A   1      32.083  22.533  23.613  1.00  0.00     0.008 A 
ATOM     11  C   UNL A   1      33.577  23.412  25.261  1.00  0.00     0.127 A 
ATOM     12  C   UNL A   1      32.824  21.352  23.579  1.00  0.00     0.004 A 
ATOM     13  C   UNL A   1      34.292  22.215  25.270  1.00  0.00     0.043 A 
ATOM     14  F   UNL A   1      34.030  24.424  26.014  1.00  0.00    -0.207 F 
ATOM     15  C   UNL A   1      33.872  21.144  24.478  1.00  0.00    -0.045 A 
BRANCH  15  16
ATOM     16  C   UNL A   1      34.485  19.772  24.625  1.00  0.00     0.041 C 
BRANCH  16  17
ATOM     17  C   UNL A   1      33.498  18.594  24.496  1.00  0.00     0.022 C 
ATOM     18  C   UNL A   1      33.821  17.561  23.403  1.00  0.00     0.007 C 
ATOM     19  C   UNL A   1      33.285  17.741  25.750  1.00  0.00     0.117 C 
ATOM     20  C   UNL A   1      33.309  16.213  23.929  1.00  0.00     0.003 C 
ATOM     21  C   UNL A   1      32.545  16.529  25.206  1.00  0.00     0.032 C 
BRANCH  19  22
ATOM     22  O   UNL A   1      32.528  18.434  26.724  1.00  0.00    -0.393 OA
ATOM     23  H   UNL A   1      32.659  18.017  27.591  1.00  0.00     0.210 HD
ENDBRANCH  19  22
ENDBRANCH  16  17
ENDBRANCH  15  16
ENDBRANCH   7   9
ENDBRANCH   4   7
ENDBRANCH   2   3
ENDBRANCH   1   2
BRANCH   1  24
ATOM     24  C   UNL A   1      32.353  29.687  27.005  1.00  0.00     0.002 C 
BRANCH  24  25
ATOM     25  C   UNL A   1      31.429  30.514  26.107  1.00  0.00     0.002 C 
BRANCH  25  26
ATOM     26  C   UNL A   1      31.300  31.986  26.503  1.00  0.00     0.021 C 
BRANCH  26  27
ATOM     27  C   UNL A   1      32.596  32.618  26.996  1.00  0.00     0.116 C 
BRANCH  27  28
ATOM     28  N   UNL A   1      32.375  33.929  27.587  1.00  0.00    -0.352 N 
ATOM     29  C   UNL A   1      33.051  34.523  28.623  1.00  0.00     0.251 C 
ATOM     30  H   UNL A   1      31.645  34.459  27.191  1.00  0.00     0.163 HD
ATOM     31  O   UNL A   1      32.639  35.559  29.135  1.00  0.00    -0.269 OA
BRANCH  29  32
ATOM     32  C   UNL A   1      34.282  33.886  29.130  1.00  0.00     0.039 A 
ATOM     33  C   UNL A   1      35.525  34.365  28.708  1.00  0.00     0.014 A 
ATOM     34  C   UNL A   1      34.197  32.837  30.048  1.00  0.00     0.014 A 
ATOM     35  C   UNL A   1      36.692  33.828  29.256  1.00  0.00     0.010 A 
ATOM     36  C   UNL A   1      35.355  32.349  30.640  1.00  0.00     0.010 A 
ATOM     37  C   UNL A   1      36.613  32.838  30.248  1.00  0.00    -0.014 A 
BRANCH  37  38
ATOM     38  C   UNL A   1      37.822  32.267  30.889  1.00  0.00     0.031 A 
ATOM     39  C   UNL A   1      38.557  31.147  30.210  1.00  0.00     0.074 A 
ATOM     40  C   UNL A   1      38.182  32.664  32.123  1.00  0.00     0.049 A 
ATOM     41  N   UNL A   1      39.505  30.377  30.672  1.00  0.00    -0.248 NA
ATOM     42  C   UNL A   1      38.133  30.829  28.837  1.00  0.00     0.031 C 
ATOM     43  C   UNL A   1      37.526  33.715  32.902  1.00  0.00     0.029 A 
ATOM     44  N   UNL A   1      39.171  32.200  32.954  1.00  0.00    -0.354 N 
ATOM     45  C   UNL A   1      39.766  29.458  29.664  1.00  0.00     0.074 A 
ATOM     46  C   UNL A   1      38.849  29.745  28.583  1.00  0.00     0.031 C 
ATOM     47  C   UNL A   1      38.125  33.811  34.099  1.00  0.00     0.029 A 
ATOM     48  C   UNL A   1      39.177  32.803  34.188  1.00  0.00     0.049 A 
ATOM     49  H   UNL A   1      39.814  31.503  32.691  1.00  0.00     0.167 HD
ATOM     50  C   UNL A   1      40.694  28.473  29.639  1.00  0.00     0.037 A 
ATOM     51  C   UNL A   1      39.929  32.554  35.278  1.00  0.00     0.037 A 
ATOM     52  C   UNL A   1      41.626  28.218  30.705  1.00  0.00     0.049 A 
ATOM     53  C   UNL A   1      40.966  31.468  35.226  1.00  0.00     0.074 A 
ATOM     54  C   UNL A   1      42.656  27.295  30.747  1.00  0.00     0.029 A 
ATOM     55  N   UNL A   1      41.639  28.892  31.917  1.00  0.00    -0.354 N 
ATOM     56  N   UNL A   1      41.244  30.642  34.247  1.00  0.00    -0.248 NA
ATOM     57  C   UNL A   1      41.796  31.280  36.424  1.00  0.00     0.031 C 
ATOM     58  C   UNL A   1      43.266  27.382  32.003  1.00  0.00     0.029 A 
ATOM     59  C   UNL A   1      42.646  28.391  32.724  1.00  0.00     0.049 A 
ATOM     60  H   UNL A   1      41.023  29.617  32.168  1.00  0.00     0.167 HD
ATOM     61  C   UNL A   1      42.298  29.857  34.697  1.00  0.00     0.074 A 
ATOM     62  C   UNL A   1      42.608  30.305  36.040  1.00  0.00     0.031 C 
ATOM     63  C   UNL A   1      42.951  28.859  34.052  1.00  0.00     0.037 A 
BRANCH  50  64
ATOM     64  C   UNL A   1      40.730  27.596  28.422  1.00  0.00     0.057 A 
ATOM     65  C   UNL A   1      39.985  26.412  28.337  1.00  0.00     0.134 A 
ATOM     66  C   UNL A   1      41.524  27.939  27.321  1.00  0.00     0.134 A 
ATOM     67  F   UNL A   1      39.214  26.019  29.362  1.00  0.00    -0.206 F 
ATOM     68  C   UNL A   1      40.062  25.580  27.219  1.00  0.00     0.040 A 
ATOM     69  C   UNL A   1      41.586  27.129  26.185  1.00  0.00     0.040 A 
ATOM     70  F   UNL A   1      42.257  29.062  27.332  1.00  0.00    -0.206 F 
ATOM     71  C   UNL A   1      40.862  25.940  26.137  1.00  0.00     0.006 A 
ENDBRANCH  50  64
BRANCH  51  72
ATOM     72  C   UNL A   1      39.726  33.364  36.503  1.00  0.00     0.057 A 
ATOM     73  C   UNL A   1      40.392  34.582  36.680  1.00  0.00     0.134 A 
ATOM     74  C   UNL A   1      38.833  32.964  37.504  1.00  0.00     0.134 A 
ATOM     75  F   UNL A   1      41.270  35.009  35.762  1.00  0.00    -0.206 F 
ATOM     76  C   UNL A   1      40.181  35.372  37.811  1.00  0.00     0.040 A 
ATOM     77  C   UNL A   1      38.597  33.754  38.632  1.00  0.00     0.040 A 
ATOM     78  F   UNL A   1      38.157  31.812  37.388  1.00  0.00    -0.206 F 
ATOM     79  C   UNL A   1      39.274  34.962  38.787  1.00  0.00     0.006 A 
ENDBRANCH  51  72
BRANCH  63  80
ATOM     80  C   UNL A   1      44.097  28.207  34.765  1.00  0.00     0.057 A 
ATOM     81  C   UNL A   1      45.390  28.743  34.732  1.00  0.00     0.134 A 
ATOM     82  C   UNL A   1      43.883  27.075  35.561  1.00  0.00     0.134 A 
ATOM     83  F   UNL A   1      45.661  29.819  33.978  1.00  0.00    -0.206 F 
ATOM     84  C   UNL A   1      46.431  28.173  35.466  1.00  0.00     0.040 A 
ATOM     85  C   UNL A   1      44.911  26.510  36.317  1.00  0.00     0.040 A 
ATOM     86  F   UNL A   1      42.664  26.518  35.640  1.00  0.00    -0.206 F 
ATOM     87  C   UNL A   1      46.190  27.060  36.270  1.00  0.00     0.006 A 
ENDBRANCH  63  80
ENDBRANCH  37  38
ENDBRANCH  29  32
ENDBRANCH  27  28
ENDBRANCH  26  27
ENDBRANCH  25  26
ENDBRANCH  24  25
ENDBRANCH   1  24
TORSDOF 17
ENDMDL
MODEL 2
REMARK VINA RESULT:     -11.9      3.198      4.978
REMARK SMILES C[C@@H](C(=O)NCCCCCCNC(=O)c1ccc(-c2c3nc(c(-c4c(F)cccc4F)c4ccc([nH]4)c(-c4c(F)cccc4F)c4nc(c(-c5c(F)cccc5F)c5ccc2[nH]5)C=C4)C=C3)cc1)c1ccc(C[C@H]2CCC[C@@H]2O)cc1F
REMARK SMILES IDX 7 1 6 2 5 3 3 4 4 5 2 7 1 8 69 9 70 10 81 11 71 12 80 13
REMARK SMILES IDX 82 14 72 15 73 16 74 17 75 18 78 19 76 20 77 21 79 22 8 24
REMARK SMILES IDX 9 25 10 26 11 27 12 28 13 29 14 31 15 32 16 33 68 34 17 35
REMARK SMILES IDX 67 36 18 37 19 38 20 39 61 40 21 41 66 42 60 43 62 44 22 45
REMARK SMILES IDX 65 46 59 47 58 48 23 50 49 51 32 52 48 53 33 54 36 55 47 56
REMARK SMILES IDX 63 57 34 58 35 59 46 61 64 62 37 63 24 64 25 65 30 66 26 67
REMARK SMILES IDX 27 68 29 69 31 70 28 71 50 72 51 73 56 74 52 75 53 76 55 77
REMARK SMILES IDX 57 78 54 79 38 80 39 81 44 82 40 83 41 84 43 85 45 86 42 87
REMARK H PARENT 5 6 79 23 12 30 62 49 36 60
REMARK Flexibility Score: inf
ROOT
ATOM      1  C   UNL A   1      33.119  28.552  27.259  1.00  0.00     0.021 C 
ENDROOT
BRANCH   1   2
ATOM      2  C   UNL A   1      33.831  27.655  26.240  1.00  0.00     0.116 C 
BRANCH   2   3
ATOM      3  N   UNL A   1      34.034  28.383  25.004  1.00  0.00    -0.356 N 
ATOM      4  C   UNL A   1      33.843  27.955  23.720  1.00  0.00     0.227 C 
ATOM      5  O   UNL A   1      34.488  28.521  22.836  1.00  0.00    -0.274 OA
ATOM      6  H   UNL A   1      34.352  29.310  25.103  1.00  0.00     0.163 HD
BRANCH   4   7
ATOM      7  C   UNL A   1      32.861  26.798  23.449  1.00  0.00     0.108 C 
ATOM      8  C   UNL A   1      33.449  25.953  22.306  1.00  0.00     0.023 C 
BRANCH   7   9
ATOM      9  C   UNL A   1      31.441  27.282  23.156  1.00  0.00    -0.000 A 
ATOM     10  C   UNL A   1      31.188  28.480  22.471  1.00  0.00     0.008 A 
ATOM     11  C   UNL A   1      30.328  26.540  23.575  1.00  0.00     0.127 A 
ATOM     12  C   UNL A   1      29.892  28.986  22.365  1.00  0.00     0.004 A 
ATOM     13  C   UNL A   1      29.037  27.064  23.519  1.00  0.00     0.043 A 
ATOM     14  F   UNL A   1      30.488  25.307  24.077  1.00  0.00    -0.207 F 
ATOM     15  C   UNL A   1      28.820  28.333  22.977  1.00  0.00    -0.045 A 
BRANCH  15  16
ATOM     16  C   UNL A   1      27.482  29.019  23.098  1.00  0.00     0.041 C 
BRANCH  16  17
ATOM     17  C   UNL A   1      27.475  30.516  22.727  1.00  0.00     0.022 C 
ATOM     18  C   UNL A   1      28.068  31.474  23.775  1.00  0.00     0.007 C 
ATOM     19  C   UNL A   1      28.198  30.902  21.433  1.00  0.00     0.117 C 
ATOM     20  C   UNL A   1      28.689  32.634  22.986  1.00  0.00     0.003 C 
ATOM     21  C   UNL A   1      28.280  32.417  21.537  1.00  0.00     0.032 C 
BRANCH  19  22
ATOM     22  O   UNL A   1      27.474  30.486  20.292  1.00  0.00    -0.393 OA
ATOM     23  H   UNL A   1      26.563  30.269  20.548  1.00  0.00     0.210 HD
ENDBRANCH  19  22
ENDBRANCH  16  17
ENDBRANCH  15  16
ENDBRANCH   7   9
ENDBRANCH   4   7
ENDBRANCH   2   3
ENDBRANCH   1   2
BRANCH   1  24
ATOM     24  C   UNL A   1      33.092  30.037  26.870  1.00  0.00     0.002 C 
BRANCH  24  25
ATOM     25  C   UNL A   1      31.728  30.557  26.408  1.00  0.00     0.002 C 
BRANCH  25  26
ATOM     26  C   UNL A   1      31.467  32.032  26.717  1.00  0.00     0.021 C 
BRANCH  26  27
ATOM     27  C   UNL A   1      32.641  32.754  27.368  1.00  0.00     0.116 C 
BRANCH  27  28
ATOM     28  N   UNL A   1      32.350  34.157  27.618  1.00  0.00    -0.352 N 
ATOM     29  C   UNL A   1      32.937  35.002  28.527  1.00  0.00     0.251 C 
ATOM     30  H   UNL A   1      31.639  34.553  27.063  1.00  0.00     0.163 HD
ATOM     31  O   UNL A   1      32.467  36.112  28.754  1.00  0.00    -0.269 OA
BRANCH  29  32
ATOM     32  C   UNL A   1      34.142  34.547  29.248  1.00  0.00     0.039 A 
ATOM     33  C   UNL A   1      34.005  33.951  30.504  1.00  0.00     0.014 A 
ATOM     34  C   UNL A   1      35.401  34.683  28.658  1.00  0.00     0.014 A 
ATOM     35  C   UNL A   1      35.132  33.434  31.147  1.00  0.00     0.010 A 
ATOM     36  C   UNL A   1      36.509  34.111  29.268  1.00  0.00     0.010 A 
ATOM     37  C   UNL A   1      36.386  33.484  30.520  1.00  0.00    -0.014 A 
BRANCH  37  38
ATOM     38  C   UNL A   1      37.603  32.912  31.144  1.00  0.00     0.031 A 
ATOM     39  C   UNL A   1      38.259  31.716  30.517  1.00  0.00     0.074 A 
ATOM     40  C   UNL A   1      38.039  33.382  32.327  1.00  0.00     0.049 A 
ATOM     41  N   UNL A   1      39.200  30.942  30.991  1.00  0.00    -0.248 NA
ATOM     42  C   UNL A   1      37.756  31.315  29.193  1.00  0.00     0.031 C 
ATOM     43  C   UNL A   1      37.463  34.514  33.054  1.00  0.00     0.029 A 
ATOM     44  N   UNL A   1      39.050  32.940  33.143  1.00  0.00    -0.354 N 
ATOM     45  C   UNL A   1      39.374  29.942  30.043  1.00  0.00     0.074 A 
ATOM     46  C   UNL A   1      38.416  30.187  28.988  1.00  0.00     0.031 C 
ATOM     47  C   UNL A   1      38.125  34.672  34.212  1.00  0.00     0.029 A 
ATOM     48  C   UNL A   1      39.141  33.630  34.326  1.00  0.00     0.049 A 
ATOM     49  H   UNL A   1      39.652  32.199  32.903  1.00  0.00     0.167 HD
ATOM     50  C   UNL A   1      40.262  28.920  30.048  1.00  0.00     0.037 A 
ATOM     51  C   UNL A   1      39.936  33.431  35.395  1.00  0.00     0.037 A 
ATOM     52  C   UNL A   1      41.236  28.705  31.085  1.00  0.00     0.049 A 
ATOM     53  C   UNL A   1      40.928  32.301  35.376  1.00  0.00     0.074 A 
ATOM     54  C   UNL A   1      42.231  27.746  31.148  1.00  0.00     0.029 A 
ATOM     55  N   UNL A   1      41.335  29.464  32.241  1.00  0.00    -0.354 N 
ATOM     56  N   UNL A   1      41.125  31.395  34.449  1.00  0.00    -0.248 NA
ATOM     57  C   UNL A   1      41.808  32.167  36.544  1.00  0.00     0.031 C 
ATOM     58  C   UNL A   1      42.906  27.899  32.363  1.00  0.00     0.029 A 
ATOM     59  C   UNL A   1      42.362  28.983  33.035  1.00  0.00     0.049 A 
ATOM     60  H   UNL A   1      40.761  30.231  32.466  1.00  0.00     0.167 HD
ATOM     61  C   UNL A   1      42.169  30.602  34.907  1.00  0.00     0.074 A 
ATOM     62  C   UNL A   1      42.563  31.133  36.196  1.00  0.00     0.031 C 
ATOM     63  C   UNL A   1      42.750  29.534  34.309  1.00  0.00     0.037 A 
BRANCH  50  64
ATOM     64  C   UNL A   1      40.204  27.956  28.900  1.00  0.00     0.057 A 
ATOM     65  C   UNL A   1      39.472  26.763  28.968  1.00  0.00     0.134 A 
ATOM     66  C   UNL A   1      40.893  28.223  27.710  1.00  0.00     0.134 A 
ATOM     67  F   UNL A   1      38.800  26.440  30.084  1.00  0.00    -0.206 F 
ATOM     68  C   UNL A   1      39.462  25.851  27.912  1.00  0.00     0.040 A 
ATOM     69  C   UNL A   1      40.866  27.332  26.636  1.00  0.00     0.040 A 
ATOM     70  F   UNL A   1      41.608  29.349  27.574  1.00  0.00    -0.206 F 
ATOM     71  C   UNL A   1      40.159  26.137  26.739  1.00  0.00     0.006 A 
ENDBRANCH  50  64
BRANCH  51  72
ATOM     72  C   UNL A   1      39.826  34.336  36.565  1.00  0.00     0.057 A 
ATOM     73  C   UNL A   1      40.493  35.566  36.589  1.00  0.00     0.134 A 
ATOM     74  C   UNL A   1      39.020  34.015  37.664  1.00  0.00     0.134 A 
ATOM     75  F   UNL A   1      41.291  35.920  35.571  1.00  0.00    -0.206 F 
ATOM     76  C   UNL A   1      40.368  36.443  37.666  1.00  0.00     0.040 A 
ATOM     77  C   UNL A   1      38.869  34.892  38.740  1.00  0.00     0.040 A 
ATOM     78  F   UNL A   1      38.347  32.856  37.695  1.00  0.00    -0.206 F 
ATOM     79  C   UNL A   1      39.546  36.110  38.743  1.00  0.00     0.006 A 
ENDBRANCH  51  72
BRANCH  63  80
ATOM     80  C   UNL A   1      43.906  28.887  35.013  1.00  0.00     0.057 A 
ATOM     81  C   UNL A   1      45.226  29.302  34.802  1.00  0.00     0.134 A 
ATOM     82  C   UNL A   1      43.682  27.896  35.977  1.00  0.00     0.134 A 
ATOM     83  F   UNL A   1      45.506  30.240  33.885  1.00  0.00    -0.206 F 
ATOM     84  C   UNL A   1      46.285  28.750  35.525  1.00  0.00     0.040 A 
ATOM     85  C   UNL A   1      44.729  27.352  36.721  1.00  0.00     0.040 A 
ATOM     86  F   UNL A   1      42.437  27.461  36.230  1.00  0.00    -0.206 F 
ATOM     87  C   UNL A   1      46.036  27.780  36.495  1.00  0.00     0.006 A 
ENDBRANCH  63  80
ENDBRANCH  37  38
ENDBRANCH  29  32
ENDBRANCH  27  28
ENDBRANCH  26  27
ENDBRANCH  25  26
ENDBRANCH  24  25
ENDBRANCH   1  24
TORSDOF 17
ENDMDL
MODEL 3
REMARK VINA RESULT:     -11.8      4.519      8.942
REMARK SMILES C[C@@H](C(=O)NCCCCCCNC(=O)c1ccc(-c2c3nc(c(-c4c(F)cccc4F)c4ccc([nH]4)c(-c4c(F)cccc4F)c4nc(c(-c5c(F)cccc5F)c5ccc2[nH]5)C=C4)C=C3)cc1)c1ccc(C[C@H]2CCC[C@@H]2O)cc1F
REMARK SMILES IDX 7 1 6 2 5 3 3 4 4 5 2 7 1 8 69 9 70 10 81 11 71 12 80 13
REMARK SMILES IDX 82 14 72 15 73 16 74 17 75 18 78 19 76 20 77 21 79 22 8 24
REMARK SMILES IDX 9 25 10 26 11 27 12 28 13 29 14 31 15 32 16 33 68 34 17 35
REMARK SMILES IDX 67 36 18 37 19 38 20 39 61 40 21 41 66 42 60 43 62 44 22 45
REMARK SMILES IDX 65 46 59 47 58 48 23 50 49 51 32 52 48 53 33 54 36 55 47 56
REMARK SMILES IDX 63 57 34 58 35 59 46 61 64 62 37 63 24 64 25 65 30 66 26 67
REMARK SMILES IDX 27 68 29 69 31 70 28 71 50 72 51 73 56 74 52 75 53 76 55 77
REMARK SMILES IDX 57 78 54 79 38 80 39 81 44 82 40 83 41 84 43 85 45 86 42 87
REMARK H PARENT 5 6 79 23 12 30 62 49 36 60
REMARK Flexibility Score: inf
ROOT
ATOM      1  C   UNL A   1      35.791  23.740  25.094  1.00  0.00     0.021 C 
ENDROOT
BRANCH   1   2
ATOM      2  C   UNL A   1      35.052  24.848  24.334  1.00  0.00     0.116 C 
BRANCH   2   3
ATOM      3  N   UNL A   1      34.037  25.433  25.186  1.00  0.00    -0.356 N 
ATOM      4  C   UNL A   1      32.736  25.726  24.885  1.00  0.00     0.227 C 
ATOM      5  O   UNL A   1      32.190  26.610  25.547  1.00  0.00    -0.274 OA
ATOM      6  H   UNL A   1      34.321  25.647  26.104  1.00  0.00     0.163 HD
BRANCH   4   7
ATOM      7  C   UNL A   1      32.036  24.964  23.741  1.00  0.00     0.108 C 
ATOM      8  C   UNL A   1      30.661  25.620  23.524  1.00  0.00     0.023 C 
BRANCH   7   9
ATOM      9  C   UNL A   1      31.939  23.461  24.004  1.00  0.00    -0.000 A 
ATOM     10  C   UNL A   1      31.419  22.945  25.201  1.00  0.00     0.008 A 
ATOM     11  C   UNL A   1      32.379  22.534  23.049  1.00  0.00     0.127 A 
ATOM     12  C   UNL A   1      31.498  21.583  25.489  1.00  0.00     0.004 A 
ATOM     13  C   UNL A   1      32.508  21.179  23.351  1.00  0.00     0.043 A 
ATOM     14  F   UNL A   1      32.723  22.944  21.819  1.00  0.00    -0.207 F 
ATOM     15  C   UNL A   1      32.134  20.705  24.610  1.00  0.00    -0.045 A 
BRANCH  15  16
ATOM     16  C   UNL A   1      32.462  19.297  25.046  1.00  0.00     0.041 C 
BRANCH  16  17
ATOM     17  C   UNL A   1      33.414  18.525  24.110  1.00  0.00     0.022 C 
ATOM     18  C   UNL A   1      34.645  17.887  24.778  1.00  0.00     0.007 C 
ATOM     19  C   UNL A   1      32.799  17.373  23.309  1.00  0.00     0.117 C 
ATOM     20  C   UNL A   1      34.952  16.616  23.975  1.00  0.00     0.003 C 
ATOM     21  C   UNL A   1      34.025  16.652  22.770  1.00  0.00     0.032 C 
BRANCH  19  22
ATOM     22  O   UNL A   1      31.965  17.853  22.272  1.00  0.00    -0.393 OA
ATOM     23  H   UNL A   1      31.753  17.125  21.666  1.00  0.00     0.210 HD
ENDBRANCH  19  22
ENDBRANCH  16  17
ENDBRANCH  15  16
ENDBRANCH   7   9
ENDBRANCH   4   7
ENDBRANCH   2   3
ENDBRANCH   1   2
BRANCH   1  24
ATOM     24  C   UNL A   1      35.702  22.361  24.426  1.00  0.00     0.002 C 
BRANCH  24  25
ATOM     25  C   UNL A   1      36.138  21.188  25.308  1.00  0.00     0.002 C 
BRANCH  25  26
ATOM     26  C   UNL A   1      37.410  20.476  24.846  1.00  0.00     0.021 C 
BRANCH  26  27
ATOM     27  C   UNL A   1      38.647  20.803  25.674  1.00  0.00     0.116 C 
BRANCH  27  28
ATOM     28  N   UNL A   1      39.604  19.707  25.683  1.00  0.00    -0.352 N 
ATOM     29  C   UNL A   1      40.942  19.745  25.987  1.00  0.00     0.251 C 
ATOM     30  H   UNL A   1      39.245  18.823  25.440  1.00  0.00     0.163 HD
ATOM     31  O   UNL A   1      41.665  18.777  25.778  1.00  0.00    -0.269 OA
BRANCH  29  32
ATOM     32  C   UNL A   1      41.508  20.982  26.558  1.00  0.00     0.039 A 
ATOM     33  C   UNL A   1      42.005  21.968  25.701  1.00  0.00     0.014 A 
ATOM     34  C   UNL A   1      41.513  21.174  27.942  1.00  0.00     0.014 A 
ATOM     35  C   UNL A   1      42.455  23.179  26.232  1.00  0.00     0.010 A 
ATOM     36  C   UNL A   1      41.899  22.402  28.462  1.00  0.00     0.010 A 
ATOM     37  C   UNL A   1      42.376  23.415  27.613  1.00  0.00    -0.014 A 
BRANCH  37  38
ATOM     38  C   UNL A   1      42.802  24.700  28.218  1.00  0.00     0.031 A 
ATOM     39  C   UNL A   1      41.776  25.763  28.487  1.00  0.00     0.074 A 
ATOM     40  C   UNL A   1      44.109  24.956  28.407  1.00  0.00     0.049 A 
ATOM     41  N   UNL A   1      41.947  27.015  28.821  1.00  0.00    -0.248 NA
ATOM     42  C   UNL A   1      40.369  25.369  28.315  1.00  0.00     0.031 C 
ATOM     43  C   UNL A   1      45.203  24.019  28.148  1.00  0.00     0.029 A 
ATOM     44  N   UNL A   1      44.741  26.099  28.828  1.00  0.00    -0.354 N 
ATOM     45  C   UNL A   1      40.674  27.568  28.861  1.00  0.00     0.074 A 
ATOM     46  C   UNL A   1      39.746  26.525  28.480  1.00  0.00     0.031 C 
ATOM     47  C   UNL A   1      46.372  24.628  28.409  1.00  0.00     0.029 A 
ATOM     48  C   UNL A   1      46.111  26.007  28.812  1.00  0.00     0.049 A 
ATOM     49  H   UNL A   1      44.258  26.908  29.114  1.00  0.00     0.167 HD
ATOM     50  C   UNL A   1      40.311  28.828  29.198  1.00  0.00     0.037 A 
ATOM     51  C   UNL A   1      47.052  26.935  29.068  1.00  0.00     0.037 A 
ATOM     52  C   UNL A   1      41.237  29.849  29.610  1.00  0.00     0.049 A 
ATOM     53  C   UNL A   1      46.631  28.325  29.457  1.00  0.00     0.074 A 
ATOM     54  C   UNL A   1      40.966  31.134  30.046  1.00  0.00     0.029 A 
ATOM     55  N   UNL A   1      42.615  29.696  29.638  1.00  0.00    -0.354 N 
ATOM     56  N   UNL A   1      45.422  28.822  29.548  1.00  0.00    -0.248 NA
ATOM     57  C   UNL A   1      47.699  29.279  29.782  1.00  0.00     0.031 C 
ATOM     58  C   UNL A   1      42.184  31.773  30.298  1.00  0.00     0.029 A 
ATOM     59  C   UNL A   1      43.211  30.871  30.064  1.00  0.00     0.049 A 
ATOM     60  H   UNL A   1      43.099  28.876  29.391  1.00  0.00     0.167 HD
ATOM     61  C   UNL A   1      45.581  30.137  29.969  1.00  0.00     0.074 A 
ATOM     62  C   UNL A   1      47.005  30.360  30.112  1.00  0.00     0.031 C 
ATOM     63  C   UNL A   1      44.630  31.071  30.216  1.00  0.00     0.037 A 
BRANCH  50  64
ATOM     64  C   UNL A   1      38.851  29.166  29.118  1.00  0.00     0.057 A 
ATOM     65  C   UNL A   1      38.003  29.068  30.229  1.00  0.00     0.134 A 
ATOM     66  C   UNL A   1      38.285  29.591  27.910  1.00  0.00     0.134 A 
ATOM     67  F   UNL A   1      38.480  28.654  31.413  1.00  0.00    -0.206 F 
ATOM     68  C   UNL A   1      36.638  29.340  30.132  1.00  0.00     0.040 A 
ATOM     69  C   UNL A   1      36.926  29.895  27.808  1.00  0.00     0.040 A 
ATOM     70  F   UNL A   1      39.040  29.714  26.808  1.00  0.00    -0.206 F 
ATOM     71  C   UNL A   1      36.097  29.758  28.918  1.00  0.00     0.006 A 
ENDBRANCH  50  64
BRANCH  51  72
ATOM     72  C   UNL A   1      48.485  26.566  28.973  1.00  0.00     0.057 A 
ATOM     73  C   UNL A   1      49.198  26.748  27.783  1.00  0.00     0.134 A 
ATOM     74  C   UNL A   1      49.185  26.064  30.077  1.00  0.00     0.134 A 
ATOM     75  F   UNL A   1      48.577  27.211  26.689  1.00  0.00    -0.206 F 
ATOM     76  C   UNL A   1      50.556  26.440  27.691  1.00  0.00     0.040 A 
ATOM     77  C   UNL A   1      50.549  25.771  30.005  1.00  0.00     0.040 A 
ATOM     78  F   UNL A   1      48.560  25.877  31.248  1.00  0.00    -0.206 F 
ATOM     79  C   UNL A   1      51.237  25.958  28.808  1.00  0.00     0.006 A 
ENDBRANCH  51  72
BRANCH  63  80
ATOM     80  C   UNL A   1      45.086  32.410  30.713  1.00  0.00     0.057 A 
ATOM     81  C   UNL A   1      45.327  33.479  29.842  1.00  0.00     0.134 A 
ATOM     82  C   UNL A   1      45.203  32.653  32.087  1.00  0.00     0.134 A 
ATOM     83  F   UNL A   1      45.243  33.306  28.514  1.00  0.00    -0.206 F 
ATOM     84  C   UNL A   1      45.671  34.744  30.322  1.00  0.00     0.040 A 
ATOM     85  C   UNL A   1      45.524  33.918  32.580  1.00  0.00     0.040 A 
ATOM     86  F   UNL A   1      44.977  31.671  32.974  1.00  0.00    -0.206 F 
ATOM     87  C   UNL A   1      45.759  34.968  31.694  1.00  0.00     0.006 A 
ENDBRANCH  63  80
ENDBRANCH  37  38
ENDBRANCH  29  32
ENDBRANCH  27  28
ENDBRANCH  26  27
ENDBRANCH  25  26
ENDBRANCH  24  25
ENDBRANCH   1  24
TORSDOF 17
ENDMDL
