MODEL 1
REMARK VINA RESULT:     -11.2      0.000      0.000
REMARK SMILES C[C@H]1[C@@H](C(=O)NCCCCCCNC(=O)c2ccc(-c3c4nc(c(-c5c(F)cccc5F)c5ccc([nH]5)c(-c5c(F)cccc5F)c5nc(c(-c6c(F)cccc6F)c6ccc3[nH]6)C=C5)C=C4)cc2)CC[N@@H+]1CC(=O)NNC(=O)c1cccs1
REMARK SMILES IDX 8 1 7 2 6 3 4 4 5 5 3 7 1 8 2 9 72 10 70 11 71 12 73 14
REMARK SMILES IDX 74 15 75 16 76 17 77 19 78 20 79 22 80 23 81 24 84 25 82 26
REMARK SMILES IDX 83 27 9 28 10 29 11 30 12 31 13 32 14 33 15 35 16 36 17 37
REMARK SMILES IDX 69 38 18 39 68 40 19 41 20 42 21 43 62 44 22 45 67 46 61 47
REMARK SMILES IDX 63 48 23 49 66 50 60 51 59 52 24 54 50 55 33 56 49 57 34 58
REMARK SMILES IDX 37 59 48 60 64 61 35 62 36 63 47 65 65 66 38 67 25 68 26 69
REMARK SMILES IDX 31 70 27 71 28 72 30 73 32 74 29 75 51 76 52 77 57 78 53 79
REMARK SMILES IDX 54 80 56 81 58 82 55 83 39 84 40 85 45 86 41 87 42 88 44 89
REMARK SMILES IDX 46 90 43 91
REMARK H PARENT 6 6 72 13 76 18 77 21 13 34 63 53 37 64
REMARK Flexibility Score: inf
ROOT
ATOM      1  C   UNL A   1      35.656  32.521  27.983  1.00  0.00     0.021 C 
ENDROOT
BRANCH   1   2
ATOM      2  C   UNL A   1      35.007  31.133  27.987  1.00  0.00     0.116 C 
BRANCH   2   3
ATOM      3  N   UNL A   1      33.626  31.270  27.585  1.00  0.00    -0.356 N 
ATOM      4  C   UNL A   1      32.791  30.366  27.002  1.00  0.00     0.229 C 
ATOM      5  O   UNL A   1      31.787  30.830  26.457  1.00  0.00    -0.275 OA
ATOM      6  H   UNL A   1      33.227  32.153  27.760  1.00  0.00     0.163 HD
BRANCH   4   7
ATOM      7  C   UNL A   1      33.017  28.861  27.162  1.00  0.00     0.142 C 
ATOM      8  C   UNL A   1      33.646  28.578  24.597  1.00  0.00     0.076 C 
ATOM      9  C   UNL A   1      33.527  27.987  25.994  1.00  0.00     0.194 C 
ATOM     10  N   UNL A   1      32.591  26.864  25.854  1.00  0.00    -0.324 N 
ATOM     11  C   UNL A   1      31.723  28.157  27.618  1.00  0.00     0.081 C 
ATOM     12  C   UNL A   1      31.327  27.280  26.448  1.00  0.00     0.263 C 
ATOM     13  H   UNL A   1      32.446  26.675  24.862  1.00  0.00     0.348 HD
BRANCH  10  14
ATOM     14  C   UNL A   1      33.092  25.537  26.230  1.00  0.00     0.365 C 
BRANCH  14  15
ATOM     15  C   UNL A   1      32.056  24.416  26.241  1.00  0.00     0.293 C 
ATOM     16  O   UNL A   1      31.456  24.105  27.276  1.00  0.00    -0.267 OA
ATOM     17  N   UNL A   1      31.751  23.731  25.092  1.00  0.00    -0.262 N 
ATOM     18  H   UNL A   1      31.014  23.080  25.138  1.00  0.00     0.191 HD
BRANCH  17  19
ATOM     19  N   UNL A   1      32.395  23.879  23.863  1.00  0.00    -0.263 N 
ATOM     20  C   UNL A   1      33.344  22.981  23.391  1.00  0.00     0.279 C 
ATOM     21  H   UNL A   1      32.166  24.657  23.304  1.00  0.00     0.191 HD
ATOM     22  O   UNL A   1      34.215  23.421  22.636  1.00  0.00    -0.266 OA
BRANCH  20  23
ATOM     23  C   UNL A   1      33.233  21.586  23.787  1.00  0.00     0.094 A 
ATOM     24  C   UNL A   1      32.357  20.613  23.340  1.00  0.00     0.026 A 
ATOM     25  S   UNL A   1      34.361  20.935  24.902  1.00  0.00    -0.139 S 
ATOM     26  C   UNL A   1      32.588  19.345  23.946  1.00  0.00     0.012 A 
ATOM     27  C   UNL A   1      33.654  19.380  24.815  1.00  0.00     0.065 A 
ENDBRANCH  20  23
ENDBRANCH  17  19
ENDBRANCH  14  15
ENDBRANCH  10  14
ENDBRANCH   4   7
ENDBRANCH   2   3
ENDBRANCH   1   2
BRANCH   1  28
ATOM     28  C   UNL A   1      35.069  33.502  28.995  1.00  0.00     0.002 C 
BRANCH  28  29
ATOM     29  C   UNL A   1      34.534  34.794  28.375  1.00  0.00     0.002 C 
BRANCH  29  30
ATOM     30  C   UNL A   1      33.211  35.296  28.963  1.00  0.00     0.021 C 
BRANCH  30  31
ATOM     31  C   UNL A   1      33.333  36.525  29.861  1.00  0.00     0.116 C 
BRANCH  31  32
ATOM     32  N   UNL A   1      32.454  36.438  31.015  1.00  0.00    -0.352 N 
ATOM     33  C   UNL A   1      32.526  35.610  32.106  1.00  0.00     0.251 C 
ATOM     34  H   UNL A   1      31.696  37.066  31.014  1.00  0.00     0.163 HD
ATOM     35  O   UNL A   1      31.567  35.492  32.858  1.00  0.00    -0.269 OA
BRANCH  33  36
ATOM     36  C   UNL A   1      33.766  34.853  32.367  1.00  0.00     0.039 A 
ATOM     37  C   UNL A   1      34.994  35.508  32.260  1.00  0.00     0.014 A 
ATOM     38  C   UNL A   1      33.718  33.493  32.691  1.00  0.00     0.014 A 
ATOM     39  C   UNL A   1      36.173  34.813  32.530  1.00  0.00     0.010 A 
ATOM     40  C   UNL A   1      34.887  32.822  33.033  1.00  0.00     0.010 A 
ATOM     41  C   UNL A   1      36.127  33.471  32.947  1.00  0.00    -0.014 A 
BRANCH  41  42
ATOM     42  C   UNL A   1      37.368  32.735  33.294  1.00  0.00     0.031 A 
ATOM     43  C   UNL A   1      38.105  33.053  34.566  1.00  0.00     0.074 A 
ATOM     44  C   UNL A   1      37.859  31.820  32.438  1.00  0.00     0.049 A 
ATOM     45  N   UNL A   1      39.229  32.556  35.016  1.00  0.00    -0.248 NA
ATOM     46  C   UNL A   1      37.514  34.084  35.434  1.00  0.00     0.031 C 
ATOM     47  C   UNL A   1      37.261  31.455  31.153  1.00  0.00     0.029 A 
ATOM     48  N   UNL A   1      38.982  31.034  32.516  1.00  0.00    -0.354 N 
ATOM     49  C   UNL A   1      39.484  33.218  36.210  1.00  0.00     0.074 A 
ATOM     50  C   UNL A   1      38.429  34.193  36.386  1.00  0.00     0.031 C 
ATOM     51  C   UNL A   1      38.005  30.499  30.576  1.00  0.00     0.029 A 
ATOM     52  C   UNL A   1      39.155  30.213  31.427  1.00  0.00     0.049 A 
ATOM     53  H   UNL A   1      39.604  31.056  33.278  1.00  0.00     0.167 HD
ATOM     54  C   UNL A   1      40.492  33.015  37.093  1.00  0.00     0.037 A 
ATOM     55  C   UNL A   1      40.134  29.333  31.145  1.00  0.00     0.037 A 
ATOM     56  C   UNL A   1      41.530  32.034  36.920  1.00  0.00     0.049 A 
ATOM     57  C   UNL A   1      41.254  29.143  32.131  1.00  0.00     0.074 A 
ATOM     58  C   UNL A   1      42.564  31.711  37.782  1.00  0.00     0.029 A 
ATOM     59  N   UNL A   1      41.670  31.218  35.807  1.00  0.00    -0.354 N 
ATOM     60  N   UNL A   1      41.445  29.725  33.290  1.00  0.00    -0.248 NA
ATOM     61  C   UNL A   1      42.293  28.168  31.770  1.00  0.00     0.031 C 
ATOM     62  C   UNL A   1      43.360  30.740  37.166  1.00  0.00     0.029 A 
ATOM     63  C   UNL A   1      42.790  30.415  35.946  1.00  0.00     0.049 A 
ATOM     64  H   UNL A   1      41.063  31.212  35.031  1.00  0.00     0.167 HD
ATOM     65  C   UNL A   1      42.607  29.170  33.808  1.00  0.00     0.074 A 
ATOM     66  C   UNL A   1      43.068  28.191  32.845  1.00  0.00     0.031 C 
ATOM     67  C   UNL A   1      43.236  29.444  34.978  1.00  0.00     0.037 A 
BRANCH  54  68
ATOM     68  C   UNL A   1      40.517  33.875  38.323  1.00  0.00     0.057 A 
ATOM     69  C   UNL A   1      41.266  35.058  38.384  1.00  0.00     0.134 A 
ATOM     70  C   UNL A   1      39.763  33.532  39.453  1.00  0.00     0.134 A 
ATOM     71  F   UNL A   1      42.020  35.440  37.343  1.00  0.00    -0.206 F 
ATOM     72  C   UNL A   1      41.287  35.853  39.533  1.00  0.00     0.040 A 
ATOM     73  C   UNL A   1      39.752  34.335  40.595  1.00  0.00     0.040 A 
ATOM     74  F   UNL A   1      39.017  32.417  39.462  1.00  0.00    -0.206 F 
ATOM     75  C   UNL A   1      40.522  35.495  40.640  1.00  0.00     0.006 A 
ENDBRANCH  54  68
BRANCH  55  76
ATOM     76  C   UNL A   1      40.091  28.551  29.884  1.00  0.00     0.057 A 
ATOM     77  C   UNL A   1      39.365  27.357  29.799  1.00  0.00     0.134 A 
ATOM     78  C   UNL A   1      40.776  28.971  28.737  1.00  0.00     0.134 A 
ATOM     79  F   UNL A   1      38.702  26.893  30.869  1.00  0.00    -0.206 F 
ATOM     80  C   UNL A   1      39.339  26.599  28.628  1.00  0.00     0.040 A 
ATOM     81  C   UNL A   1      40.735  28.238  27.551  1.00  0.00     0.040 A 
ATOM     82  F   UNL A   1      41.484  30.111  28.750  1.00  0.00    -0.206 F 
ATOM     83  C   UNL A   1      40.021  27.042  27.497  1.00  0.00     0.006 A 
ENDBRANCH  55  76
BRANCH  67  84
ATOM     84  C   UNL A   1      44.473  28.655  35.294  1.00  0.00     0.057 A 
ATOM     85  C   UNL A   1      45.752  29.116  34.957  1.00  0.00     0.134 A 
ATOM     86  C   UNL A   1      44.385  27.436  35.979  1.00  0.00     0.134 A 
ATOM     87  F   UNL A   1      45.905  30.269  34.288  1.00  0.00    -0.206 F 
ATOM     88  C   UNL A   1      46.898  28.380  35.266  1.00  0.00     0.040 A 
ATOM     89  C   UNL A   1      45.524  26.706  36.320  1.00  0.00     0.040 A 
ATOM     90  F   UNL A   1      43.191  26.941  36.340  1.00  0.00    -0.206 F 
ATOM     91  C   UNL A   1      46.786  27.175  35.958  1.00  0.00     0.006 A 
ENDBRANCH  67  84
ENDBRANCH  41  42
ENDBRANCH  33  36
ENDBRANCH  31  32
ENDBRANCH  30  31
ENDBRANCH  29  30
ENDBRANCH  28  29
ENDBRANCH   1  28
TORSDOF 17
ENDMDL
MODEL 2
REMARK VINA RESULT:     -11.0      6.639     12.038
REMARK SMILES C[C@H]1[C@@H](C(=O)NCCCCCCNC(=O)c2ccc(-c3c4nc(c(-c5c(F)cccc5F)c5ccc([nH]5)c(-c5c(F)cccc5F)c5nc(c(-c6c(F)cccc6F)c6ccc3[nH]6)C=C5)C=C4)cc2)CC[N@@H+]1CC(=O)NNC(=O)c1cccs1
REMARK SMILES IDX 8 1 7 2 6 3 4 4 5 5 3 7 1 8 2 9 72 10 70 11 71 12 73 14
REMARK SMILES IDX 74 15 75 16 76 17 77 19 78 20 79 22 80 23 81 24 84 25 82 26
REMARK SMILES IDX 83 27 9 28 10 29 11 30 12 31 13 32 14 33 15 35 16 36 17 37
REMARK SMILES IDX 69 38 18 39 68 40 19 41 20 42 21 43 62 44 22 45 67 46 61 47
REMARK SMILES IDX 63 48 23 49 66 50 60 51 59 52 24 54 50 55 33 56 49 57 34 58
REMARK SMILES IDX 37 59 48 60 64 61 35 62 36 63 47 65 65 66 38 67 25 68 26 69
REMARK SMILES IDX 31 70 27 71 28 72 30 73 32 74 29 75 51 76 52 77 57 78 53 79
REMARK SMILES IDX 54 80 56 81 58 82 55 83 39 84 40 85 45 86 41 87 42 88 44 89
REMARK SMILES IDX 46 90 43 91
REMARK H PARENT 6 6 72 13 76 18 77 21 13 34 63 53 37 64
REMARK Flexibility Score: inf
ROOT
ATOM      1  C   UNL A   1      40.343  22.831  27.174  1.00  0.00     0.021 C 
ENDROOT
BRANCH   1   2
ATOM      2  C   UNL A   1      39.027  23.254  26.513  1.00  0.00     0.116 C 
BRANCH   2   3
ATOM      3  N   UNL A   1      38.571  22.174  25.667  1.00  0.00    -0.356 N 
ATOM      4  C   UNL A   1      37.436  22.066  24.923  1.00  0.00     0.229 C 
ATOM      5  O   UNL A   1      37.125  20.926  24.571  1.00  0.00    -0.275 OA
ATOM      6  H   UNL A   1      39.174  21.397  25.621  1.00  0.00     0.163 HD
BRANCH   4   7
ATOM      7  C   UNL A   1      36.693  23.309  24.426  1.00  0.00     0.142 C 
ATOM      8  C   UNL A   1      34.978  23.220  26.452  1.00  0.00     0.076 C 
ATOM      9  C   UNL A   1      35.532  23.936  25.229  1.00  0.00     0.194 C 
ATOM     10  N   UNL A   1      34.391  24.060  24.312  1.00  0.00    -0.324 N 
ATOM     11  C   UNL A   1      36.093  23.067  23.027  1.00  0.00     0.081 C 
ATOM     12  C   UNL A   1      34.593  23.096  23.239  1.00  0.00     0.263 C 
ATOM     13  H   UNL A   1      33.535  23.824  24.815  1.00  0.00     0.348 HD
BRANCH  10  14
ATOM     14  C   UNL A   1      34.009  25.420  23.915  1.00  0.00     0.365 C 
BRANCH  14  15
ATOM     15  C   UNL A   1      33.208  25.532  22.620  1.00  0.00     0.293 C 
ATOM     16  O   UNL A   1      33.733  25.922  21.572  1.00  0.00    -0.267 OA
ATOM     17  N   UNL A   1      31.881  25.184  22.584  1.00  0.00    -0.262 N 
ATOM     18  H   UNL A   1      31.438  25.192  21.705  1.00  0.00     0.191 HD
BRANCH  17  19
ATOM     19  N   UNL A   1      31.106  24.821  23.685  1.00  0.00    -0.263 N 
ATOM     20  C   UNL A   1      30.565  25.744  24.570  1.00  0.00     0.279 C 
ATOM     21  H   UNL A   1      30.936  23.864  23.843  1.00  0.00     0.191 HD
ATOM     22  O   UNL A   1      30.387  25.377  25.735  1.00  0.00    -0.266 OA
BRANCH  20  23
ATOM     23  C   UNL A   1      30.214  27.062  24.066  1.00  0.00     0.094 A 
ATOM     24  C   UNL A   1      29.104  27.459  23.342  1.00  0.00     0.026 A 
ATOM     25  S   UNL A   1      31.216  28.402  24.442  1.00  0.00    -0.139 S 
ATOM     26  C   UNL A   1      29.100  28.855  23.062  1.00  0.00     0.012 A 
ATOM     27  C   UNL A   1      30.193  29.489  23.608  1.00  0.00     0.065 A 
ENDBRANCH  20  23
ENDBRANCH  17  19
ENDBRANCH  14  15
ENDBRANCH  10  14
ENDBRANCH   4   7
ENDBRANCH   2   3
ENDBRANCH   1   2
BRANCH   1  28
ATOM     28  C   UNL A   1      41.237  21.947  26.308  1.00  0.00     0.002 C 
BRANCH  28  29
ATOM     29  C   UNL A   1      41.660  20.639  26.979  1.00  0.00     0.002 C 
BRANCH  29  30
ATOM     30  C   UNL A   1      41.992  19.495  26.017  1.00  0.00     0.021 C 
BRANCH  30  31
ATOM     31  C   UNL A   1      43.395  18.911  26.172  1.00  0.00     0.116 C 
BRANCH  31  32
ATOM     32  N   UNL A   1      44.040  18.707  24.886  1.00  0.00    -0.352 N 
ATOM     33  C   UNL A   1      44.585  19.627  24.028  1.00  0.00     0.251 C 
ATOM     34  H   UNL A   1      44.093  17.770  24.588  1.00  0.00     0.163 HD
ATOM     35  O   UNL A   1      44.855  19.314  22.876  1.00  0.00    -0.269 OA
BRANCH  33  36
ATOM     36  C   UNL A   1      44.837  21.003  24.498  1.00  0.00     0.039 A 
ATOM     37  C   UNL A   1      44.378  22.075  23.729  1.00  0.00     0.014 A 
ATOM     38  C   UNL A   1      45.545  21.236  25.681  1.00  0.00     0.014 A 
ATOM     39  C   UNL A   1      44.585  23.381  24.174  1.00  0.00     0.010 A 
ATOM     40  C   UNL A   1      45.684  22.534  26.160  1.00  0.00     0.010 A 
ATOM     41  C   UNL A   1      45.214  23.620  25.408  1.00  0.00    -0.014 A 
BRANCH  41  42
ATOM     42  C   UNL A   1      45.388  25.002  25.923  1.00  0.00     0.031 A 
ATOM     43  C   UNL A   1      46.745  25.649  25.910  1.00  0.00     0.074 A 
ATOM     44  C   UNL A   1      44.333  25.651  26.451  1.00  0.00     0.049 A 
ATOM     45  N   UNL A   1      47.105  26.824  26.360  1.00  0.00    -0.248 NA
ATOM     46  C   UNL A   1      47.849  24.862  25.337  1.00  0.00     0.031 C 
ATOM     47  C   UNL A   1      42.977  25.113  26.562  1.00  0.00     0.029 A 
ATOM     48  N   UNL A   1      44.240  26.904  27.003  1.00  0.00    -0.354 N 
ATOM     49  C   UNL A   1      48.473  26.912  26.135  1.00  0.00     0.074 A 
ATOM     50  C   UNL A   1      48.889  25.651  25.562  1.00  0.00     0.031 C 
ATOM     51  C   UNL A   1      42.181  26.038  27.120  1.00  0.00     0.029 A 
ATOM     52  C   UNL A   1      42.977  27.218  27.445  1.00  0.00     0.049 A 
ATOM     53  H   UNL A   1      45.004  27.520  27.076  1.00  0.00     0.167 HD
ATOM     54  C   UNL A   1      49.303  27.959  26.362  1.00  0.00     0.037 A 
ATOM     55  C   UNL A   1      42.515  28.328  28.050  1.00  0.00     0.037 A 
ATOM     56  C   UNL A   1      48.880  29.217  26.919  1.00  0.00     0.049 A 
ATOM     57  C   UNL A   1      43.461  29.467  28.312  1.00  0.00     0.074 A 
ATOM     58  C   UNL A   1      49.631  30.359  27.137  1.00  0.00     0.029 A 
ATOM     59  N   UNL A   1      47.593  29.498  27.351  1.00  0.00    -0.354 N 
ATOM     60  N   UNL A   1      44.738  29.564  28.030  1.00  0.00    -0.248 NA
ATOM     61  C   UNL A   1      42.900  30.654  28.973  1.00  0.00     0.031 C 
ATOM     62  C   UNL A   1      48.811  31.312  27.750  1.00  0.00     0.029 A 
ATOM     63  C   UNL A   1      47.535  30.785  27.861  1.00  0.00     0.049 A 
ATOM     64  H   UNL A   1      46.832  28.875  27.302  1.00  0.00     0.167 HD
ATOM     65  C   UNL A   1      45.126  30.829  28.453  1.00  0.00     0.074 A 
ATOM     66  C   UNL A   1      43.945  31.469  28.995  1.00  0.00     0.031 C 
ATOM     67  C   UNL A   1      46.351  31.409  28.397  1.00  0.00     0.037 A 
BRANCH  54  68
ATOM     68  C   UNL A   1      50.751  27.783  26.009  1.00  0.00     0.057 A 
ATOM     69  C   UNL A   1      51.706  27.408  26.965  1.00  0.00     0.134 A 
ATOM     70  C   UNL A   1      51.195  27.962  24.693  1.00  0.00     0.134 A 
ATOM     71  F   UNL A   1      51.352  27.231  28.247  1.00  0.00    -0.206 F 
ATOM     72  C   UNL A   1      53.053  27.248  26.631  1.00  0.00     0.040 A 
ATOM     73  C   UNL A   1      52.533  27.774  24.341  1.00  0.00     0.040 A 
ATOM     74  F   UNL A   1      50.335  28.313  23.725  1.00  0.00    -0.206 F 
ATOM     75  C   UNL A   1      53.467  27.424  25.313  1.00  0.00     0.006 A 
ENDBRANCH  54  68
BRANCH  55  76
ATOM     76  C   UNL A   1      41.084  28.426  28.432  1.00  0.00     0.057 A 
ATOM     77  C   UNL A   1      40.643  28.007  29.693  1.00  0.00     0.134 A 
ATOM     78  C   UNL A   1      40.122  28.932  27.550  1.00  0.00     0.134 A 
ATOM     79  F   UNL A   1      41.513  27.497  30.577  1.00  0.00    -0.206 F 
ATOM     80  C   UNL A   1      39.297  28.068  30.055  1.00  0.00     0.040 A 
ATOM     81  C   UNL A   1      38.777  29.025  27.908  1.00  0.00     0.040 A 
ATOM     82  F   UNL A   1      40.480  29.357  26.329  1.00  0.00    -0.206 F 
ATOM     83  C   UNL A   1      38.360  28.584  29.162  1.00  0.00     0.006 A 
ENDBRANCH  55  76
BRANCH  67  84
ATOM     84  C   UNL A   1      46.468  32.815  28.907  1.00  0.00     0.057 A 
ATOM     85  C   UNL A   1      46.296  33.925  28.070  1.00  0.00     0.134 A 
ATOM     86  C   UNL A   1      46.717  33.063  30.264  1.00  0.00     0.134 A 
ATOM     87  F   UNL A   1      46.068  33.757  26.757  1.00  0.00    -0.206 F 
ATOM     88  C   UNL A   1      46.394  35.229  28.557  1.00  0.00     0.040 A 
ATOM     89  C   UNL A   1      46.787  34.361  30.769  1.00  0.00     0.040 A 
ATOM     90  F   UNL A   1      46.882  32.045  31.123  1.00  0.00    -0.206 F 
ATOM     91  C   UNL A   1      46.632  35.450  29.913  1.00  0.00     0.006 A 
ENDBRANCH  67  84
ENDBRANCH  41  42
ENDBRANCH  33  36
ENDBRANCH  31  32
ENDBRANCH  30  31
ENDBRANCH  29  30
ENDBRANCH  28  29
ENDBRANCH   1  28
TORSDOF 17
ENDMDL
MODEL 3
REMARK VINA RESULT:     -10.9      0.879      1.908
REMARK SMILES C[C@H]1[C@@H](C(=O)NCCCCCCNC(=O)c2ccc(-c3c4nc(c(-c5c(F)cccc5F)c5ccc([nH]5)c(-c5c(F)cccc5F)c5nc(c(-c6c(F)cccc6F)c6ccc3[nH]6)C=C5)C=C4)cc2)CC[N@@H+]1CC(=O)NNC(=O)c1cccs1
REMARK SMILES IDX 8 1 7 2 6 3 4 4 5 5 3 7 1 8 2 9 72 10 70 11 71 12 73 14
REMARK SMILES IDX 74 15 75 16 76 17 77 19 78 20 79 22 80 23 81 24 84 25 82 26
REMARK SMILES IDX 83 27 9 28 10 29 11 30 12 31 13 32 14 33 15 35 16 36 17 37
REMARK SMILES IDX 69 38 18 39 68 40 19 41 20 42 21 43 62 44 22 45 67 46 61 47
REMARK SMILES IDX 63 48 23 49 66 50 60 51 59 52 24 54 50 55 33 56 49 57 34 58
REMARK SMILES IDX 37 59 48 60 64 61 35 62 36 63 47 65 65 66 38 67 25 68 26 69
REMARK SMILES IDX 31 70 27 71 28 72 30 73 32 74 29 75 51 76 52 77 57 78 53 79
REMARK SMILES IDX 54 80 56 81 58 82 55 83 39 84 40 85 45 86 41 87 42 88 44 89
REMARK SMILES IDX 46 90 43 91
REMARK H PARENT 6 6 72 13 76 18 77 21 13 34 63 53 37 64
REMARK Flexibility Score: inf
ROOT
ATOM      1  C   UNL A   1      35.475  31.631  28.073  1.00  0.00     0.021 C 
ENDROOT
BRANCH   1   2
ATOM      2  C   UNL A   1      34.861  30.400  27.399  1.00  0.00     0.116 C 
BRANCH   2   3
ATOM      3  N   UNL A   1      33.467  30.671  27.130  1.00  0.00    -0.356 N 
ATOM      4  C   UNL A   1      32.569  29.973  26.382  1.00  0.00     0.229 C 
ATOM      5  O   UNL A   1      31.557  30.588  26.039  1.00  0.00    -0.275 OA
ATOM      6  H   UNL A   1      33.112  31.486  27.554  1.00  0.00     0.163 HD
BRANCH   4   7
ATOM      7  C   UNL A   1      32.744  28.474  26.128  1.00  0.00     0.142 C 
ATOM      8  C   UNL A   1      33.490  28.882  23.612  1.00  0.00     0.076 C 
ATOM      9  C   UNL A   1      33.286  27.935  24.786  1.00  0.00     0.194 C 
ATOM     10  N   UNL A   1      32.327  26.933  24.304  1.00  0.00    -0.324 N 
ATOM     11  C   UNL A   1      31.410  27.725  26.321  1.00  0.00     0.081 C 
ATOM     12  C   UNL A   1      31.047  27.220  24.939  1.00  0.00     0.263 C 
ATOM     13  H   UNL A   1      32.226  27.030  23.294  1.00  0.00     0.348 HD
BRANCH  10  14
ATOM     14  C   UNL A   1      32.771  25.534  24.317  1.00  0.00     0.365 C 
BRANCH  14  15
ATOM     15  C   UNL A   1      32.174  24.639  23.234  1.00  0.00     0.293 C 
ATOM     16  O   UNL A   1      32.546  24.716  22.059  1.00  0.00    -0.267 OA
ATOM     17  N   UNL A   1      31.215  23.707  23.545  1.00  0.00    -0.262 N 
ATOM     18  H   UNL A   1      30.930  23.098  22.826  1.00  0.00     0.191 HD
BRANCH  17  19
ATOM     19  N   UNL A   1      30.610  23.550  24.792  1.00  0.00    -0.263 N 
ATOM     20  C   UNL A   1      30.867  22.472  25.630  1.00  0.00     0.279 C 
ATOM     21  H   UNL A   1      29.970  24.235  25.091  1.00  0.00     0.191 HD
ATOM     22  O   UNL A   1      29.963  22.119  26.393  1.00  0.00    -0.266 OA
BRANCH  20  23
ATOM     23  C   UNL A   1      32.182  21.855  25.579  1.00  0.00     0.094 A 
ATOM     24  C   UNL A   1      33.340  22.197  26.255  1.00  0.00     0.026 A 
ATOM     25  S   UNL A   1      32.413  20.439  24.639  1.00  0.00    -0.139 S 
ATOM     26  C   UNL A   1      34.425  21.321  25.966  1.00  0.00     0.012 A 
ATOM     27  C   UNL A   1      34.054  20.316  25.101  1.00  0.00     0.065 A 
ENDBRANCH  20  23
ENDBRANCH  17  19
ENDBRANCH  14  15
ENDBRANCH  10  14
ENDBRANCH   4   7
ENDBRANCH   2   3
ENDBRANCH   1   2
BRANCH   1  28
ATOM     28  C   UNL A   1      34.530  32.387  29.004  1.00  0.00     0.002 C 
BRANCH  28  29
ATOM     29  C   UNL A   1      34.577  33.907  28.842  1.00  0.00     0.002 C 
BRANCH  29  30
ATOM     30  C   UNL A   1      33.245  34.626  29.074  1.00  0.00     0.021 C 
BRANCH  30  31
ATOM     31  C   UNL A   1      33.368  36.048  29.615  1.00  0.00     0.116 C 
BRANCH  31  32
ATOM     32  N   UNL A   1      32.512  36.263  30.770  1.00  0.00    -0.352 N 
ATOM     33  C   UNL A   1      32.584  35.711  32.023  1.00  0.00     0.251 C 
ATOM     34  H   UNL A   1      31.772  36.896  30.631  1.00  0.00     0.163 HD
ATOM     35  O   UNL A   1      31.637  35.802  32.795  1.00  0.00    -0.269 OA
BRANCH  33  36
ATOM     36  C   UNL A   1      33.808  34.997  32.437  1.00  0.00     0.039 A 
ATOM     37  C   UNL A   1      33.699  33.691  32.918  1.00  0.00     0.014 A 
ATOM     38  C   UNL A   1      35.056  35.624  32.375  1.00  0.00     0.014 A 
ATOM     39  C   UNL A   1      34.850  32.994  33.288  1.00  0.00     0.010 A 
ATOM     40  C   UNL A   1      36.208  34.904  32.672  1.00  0.00     0.010 A 
ATOM     41  C   UNL A   1      36.116  33.585  33.140  1.00  0.00    -0.014 A 
BRANCH  41  42
ATOM     42  C   UNL A   1      37.354  32.835  33.473  1.00  0.00     0.031 A 
ATOM     43  C   UNL A   1      38.101  33.134  34.743  1.00  0.00     0.074 A 
ATOM     44  C   UNL A   1      37.832  31.924  32.604  1.00  0.00     0.049 A 
ATOM     45  N   UNL A   1      39.223  32.622  35.181  1.00  0.00    -0.248 NA
ATOM     46  C   UNL A   1      37.524  34.160  35.625  1.00  0.00     0.031 C 
ATOM     47  C   UNL A   1      37.223  31.579  31.319  1.00  0.00     0.029 A 
ATOM     48  N   UNL A   1      38.948  31.128  32.667  1.00  0.00    -0.354 N 
ATOM     49  C   UNL A   1      39.491  33.270  36.381  1.00  0.00     0.074 A 
ATOM     50  C   UNL A   1      38.445  34.251  36.573  1.00  0.00     0.031 C 
ATOM     51  C   UNL A   1      37.955  30.622  30.728  1.00  0.00     0.029 A 
ATOM     52  C   UNL A   1      39.108  30.317  31.569  1.00  0.00     0.049 A 
ATOM     53  H   UNL A   1      39.575  31.137  33.425  1.00  0.00     0.167 HD
ATOM     54  C   UNL A   1      40.501  33.049  37.255  1.00  0.00     0.037 A 
ATOM     55  C   UNL A   1      40.078  29.432  31.272  1.00  0.00     0.037 A 
ATOM     56  C   UNL A   1      41.530  32.061  37.066  1.00  0.00     0.049 A 
ATOM     57  C   UNL A   1      41.202  29.222  32.249  1.00  0.00     0.074 A 
ATOM     58  C   UNL A   1      42.567  31.721  37.918  1.00  0.00     0.029 A 
ATOM     59  N   UNL A   1      41.657  31.256  35.943  1.00  0.00    -0.354 N 
ATOM     60  N   UNL A   1      41.404  29.791  33.413  1.00  0.00    -0.248 NA
ATOM     61  C   UNL A   1      42.231  28.242  31.872  1.00  0.00     0.031 C 
ATOM     62  C   UNL A   1      43.350  30.749  37.288  1.00  0.00     0.029 A 
ATOM     63  C   UNL A   1      42.771  30.441  36.068  1.00  0.00     0.049 A 
ATOM     64  H   UNL A   1      41.046  31.263  35.172  1.00  0.00     0.167 HD
ATOM     65  C   UNL A   1      42.565  29.220  33.919  1.00  0.00     0.074 A 
ATOM     66  C   UNL A   1      43.012  28.248  32.943  1.00  0.00     0.031 C 
ATOM     67  C   UNL A   1      43.203  29.477  35.088  1.00  0.00     0.037 A 
BRANCH  54  68
ATOM     68  C   UNL A   1      40.542  33.896  38.494  1.00  0.00     0.057 A 
ATOM     69  C   UNL A   1      39.823  33.553  39.649  1.00  0.00     0.134 A 
ATOM     70  C   UNL A   1      41.330  35.052  38.547  1.00  0.00     0.134 A 
ATOM     71  F   UNL A   1      39.040  32.465  39.664  1.00  0.00    -0.206 F 
ATOM     72  C   UNL A   1      39.864  34.346  40.798  1.00  0.00     0.040 A 
ATOM     73  C   UNL A   1      41.402  35.836  39.700  1.00  0.00     0.040 A 
ATOM     74  F   UNL A   1      42.050  35.436  37.481  1.00  0.00    -0.206 F 
ATOM     75  C   UNL A   1      40.661  35.488  40.827  1.00  0.00     0.006 A 
ENDBRANCH  54  68
BRANCH  55  76
ATOM     76  C   UNL A   1      40.021  28.664  30.003  1.00  0.00     0.057 A 
ATOM     77  C   UNL A   1      39.304  27.464  29.917  1.00  0.00     0.134 A 
ATOM     78  C   UNL A   1      40.682  29.103  28.850  1.00  0.00     0.134 A 
ATOM     79  F   UNL A   1      38.664  26.983  30.992  1.00  0.00    -0.206 F 
ATOM     80  C   UNL A   1      39.265  26.719  28.738  1.00  0.00     0.040 A 
ATOM     81  C   UNL A   1      40.629  28.382  27.657  1.00  0.00     0.040 A 
ATOM     82  F   UNL A   1      41.380  30.248  28.864  1.00  0.00    -0.206 F 
ATOM     83  C   UNL A   1      39.924  27.181  27.601  1.00  0.00     0.006 A 
ENDBRANCH  55  76
BRANCH  67  84
ATOM     84  C   UNL A   1      44.435  28.674  35.388  1.00  0.00     0.057 A 
ATOM     85  C   UNL A   1      44.373  27.440  36.046  1.00  0.00     0.134 A 
ATOM     86  C   UNL A   1      45.697  29.125  34.977  1.00  0.00     0.134 A 
ATOM     87  F   UNL A   1      43.197  26.957  36.478  1.00  0.00    -0.206 F 
ATOM     88  C   UNL A   1      45.524  26.694  36.309  1.00  0.00     0.040 A 
ATOM     89  C   UNL A   1      46.850  28.375  35.206  1.00  0.00     0.040 A 
ATOM     90  F   UNL A   1      45.826  30.295  34.332  1.00  0.00    -0.206 F 
ATOM     91  C   UNL A   1      46.767  27.158  35.881  1.00  0.00     0.006 A 
ENDBRANCH  67  84
ENDBRANCH  41  42
ENDBRANCH  33  36
ENDBRANCH  31  32
ENDBRANCH  30  31
ENDBRANCH  29  30
ENDBRANCH  28  29
ENDBRANCH   1  28
TORSDOF 17
ENDMDL
