MODEL 1
REMARK VINA RESULT:     -13.8      0.000      0.000
REMARK SMILES O=C(NCCCCCCNC(=O)[C@@H]1[C@H](C(=O)Nc2ccccc2Cc2ccccc2)[C@H]2C=C[C@@H]1O2)c1ccc(-c2c3nc(c(-c4c(F)cccc4F)c4ccc([nH]4)c(-c4c(F)cccc4F)c4nc(c(-c5c(F)cccc5F)c5ccc2[nH]5)C=C4)C=C3)cc1
REMARK SMILES IDX 7 1 6 2 5 3 4 4 3 5 1 6 2 7 36 9 37 10 89 11 38 12 88 13
REMARK SMILES IDX 39 14 40 15 41 16 82 17 42 18 87 19 81 20 83 21 43 22 86 23
REMARK SMILES IDX 80 24 79 25 44 27 70 28 53 29 69 30 54 31 57 32 68 33 84 34
REMARK SMILES IDX 55 35 56 36 67 38 85 39 58 40 45 41 46 42 51 43 47 44 48 45
REMARK SMILES IDX 50 46 52 47 49 48 71 49 72 50 77 51 73 52 74 53 76 54 78 55
REMARK SMILES IDX 75 56 59 57 60 58 65 59 61 60 62 61 64 62 66 63 63 64 8 65
REMARK SMILES IDX 9 66 10 67 11 68 12 70 13 71 14 72 34 73 31 74 33 75 35 76
REMARK SMILES IDX 32 77 15 78 16 79 17 80 18 82 19 83 23 84 20 85 22 86 21 87
REMARK SMILES IDX 24 88 25 89 26 90 30 91 27 92 29 93 28 94
REMARK H PARENT 3 8 83 26 57 37 10 69 17 81
REMARK Flexibility Score: inf
ROOT
ATOM      1  C   UNL A   1      36.923  21.928  24.225  1.00  0.00     0.002 C 
ENDROOT
BRANCH   1   2
ATOM      2  C   UNL A   1      36.735  20.510  24.785  1.00  0.00     0.002 C 
BRANCH   2   3
ATOM      3  C   UNL A   1      37.956  19.596  24.901  1.00  0.00     0.021 C 
BRANCH   3   4
ATOM      4  C   UNL A   1      39.001  19.919  25.966  1.00  0.00     0.116 C 
BRANCH   4   5
ATOM      5  N   UNL A   1      40.239  19.169  25.821  1.00  0.00    -0.352 N 
ATOM      6  O   UNL A   1      42.453  18.770  25.677  1.00  0.00    -0.269 OA
ATOM      7  C   UNL A   1      41.547  19.545  25.999  1.00  0.00     0.251 C 
ATOM      8  H   UNL A   1      40.118  18.231  25.549  1.00  0.00     0.163 HD
BRANCH   7   9
ATOM      9  C   UNL A   1      41.895  20.869  26.557  1.00  0.00     0.039 A 
ATOM     10  C   UNL A   1      41.854  21.103  27.931  1.00  0.00     0.014 A 
ATOM     11  C   UNL A   1      42.311  21.890  25.693  1.00  0.00     0.014 A 
ATOM     12  C   UNL A   1      42.067  22.385  28.424  1.00  0.00     0.010 A 
ATOM     13  C   UNL A   1      42.623  23.155  26.201  1.00  0.00     0.010 A 
ATOM     14  C   UNL A   1      42.471  23.425  27.569  1.00  0.00    -0.014 A 
BRANCH  14  15
ATOM     15  C   UNL A   1      42.783  24.760  28.145  1.00  0.00     0.031 A 
ATOM     16  C   UNL A   1      44.194  25.154  28.486  1.00  0.00     0.074 A 
ATOM     17  C   UNL A   1      41.774  25.636  28.327  1.00  0.00     0.049 A 
ATOM     18  N   UNL A   1      44.640  26.286  28.968  1.00  0.00    -0.248 NA
ATOM     19  C   UNL A   1      45.240  24.144  28.269  1.00  0.00     0.031 C 
ATOM     20  C   UNL A   1      40.362  25.362  28.047  1.00  0.00     0.029 A 
ATOM     21  N   UNL A   1      41.777  26.935  28.765  1.00  0.00    -0.354 N 
ATOM     22  C   UNL A   1      46.010  26.118  29.137  1.00  0.00     0.074 A 
ATOM     23  C   UNL A   1      46.318  24.764  28.729  1.00  0.00     0.031 C 
ATOM     24  C   UNL A   1      39.646  26.475  28.259  1.00  0.00     0.029 A 
ATOM     25  C   UNL A   1      40.533  27.517  28.761  1.00  0.00     0.049 A 
ATOM     26  H   UNL A   1      42.592  27.405  29.056  1.00  0.00     0.167 HD
ATOM     27  C   UNL A   1      46.923  27.013  29.587  1.00  0.00     0.037 A 
ATOM     28  C   UNL A   1      40.142  28.749  29.133  1.00  0.00     0.037 A 
ATOM     29  C   UNL A   1      46.607  28.365  29.976  1.00  0.00     0.049 A 
ATOM     30  C   UNL A   1      41.173  29.713  29.644  1.00  0.00     0.074 A 
ATOM     31  C   UNL A   1      47.464  29.363  30.407  1.00  0.00     0.029 A 
ATOM     32  N   UNL A   1      45.329  28.909  29.986  1.00  0.00    -0.354 N 
ATOM     33  N   UNL A   1      42.468  29.549  29.763  1.00  0.00    -0.248 NA
ATOM     34  C   UNL A   1      40.688  31.029  30.074  1.00  0.00     0.031 C 
ATOM     35  C   UNL A   1      46.702  30.490  30.729  1.00  0.00     0.029 A 
ATOM     36  C   UNL A   1      45.374  30.218  30.439  1.00  0.00     0.049 A 
ATOM     37  H   UNL A   1      44.512  28.433  29.711  1.00  0.00     0.167 HD
ATOM     38  C   UNL A   1      42.958  30.752  30.255  1.00  0.00     0.074 A 
ATOM     39  C   UNL A   1      41.820  31.639  30.394  1.00  0.00     0.031 C 
ATOM     40  C   UNL A   1      44.233  31.090  30.563  1.00  0.00     0.037 A 
BRANCH  27  41
ATOM     41  C   UNL A   1      48.349  26.553  29.713  1.00  0.00     0.057 A 
ATOM     42  C   UNL A   1      49.297  26.768  28.703  1.00  0.00     0.134 A 
ATOM     43  C   UNL A   1      48.790  25.917  30.881  1.00  0.00     0.134 A 
ATOM     44  F   UNL A   1      48.942  27.363  27.553  1.00  0.00    -0.206 F 
ATOM     45  C   UNL A   1      50.620  26.344  28.838  1.00  0.00     0.040 A 
ATOM     46  C   UNL A   1      50.117  25.514  31.040  1.00  0.00     0.040 A 
ATOM     47  F   UNL A   1      47.941  25.685  31.892  1.00  0.00    -0.206 F 
ATOM     48  C   UNL A   1      51.036  25.720  30.013  1.00  0.00     0.006 A 
ENDBRANCH  27  41
BRANCH  28  49
ATOM     49  C   UNL A   1      38.712  29.137  29.034  1.00  0.00     0.057 A 
ATOM     50  C   UNL A   1      38.163  29.577  27.824  1.00  0.00     0.134 A 
ATOM     51  C   UNL A   1      37.859  29.077  30.143  1.00  0.00     0.134 A 
ATOM     52  F   UNL A   1      38.932  29.671  26.728  1.00  0.00    -0.206 F 
ATOM     53  C   UNL A   1      36.825  29.960  27.724  1.00  0.00     0.040 A 
ATOM     54  C   UNL A   1      36.512  29.427  30.051  1.00  0.00     0.040 A 
ATOM     55  F   UNL A   1      38.321  28.655  31.330  1.00  0.00    -0.206 F 
ATOM     56  C   UNL A   1      35.993  29.879  28.840  1.00  0.00     0.006 A 
ENDBRANCH  28  49
BRANCH  40  57
ATOM     57  C   UNL A   1      44.468  32.498  31.031  1.00  0.00     0.057 A 
ATOM     58  C   UNL A   1      44.450  32.846  32.388  1.00  0.00     0.134 A 
ATOM     59  C   UNL A   1      44.723  33.519  30.106  1.00  0.00     0.134 A 
ATOM     60  F   UNL A   1      44.197  31.920  33.325  1.00  0.00    -0.206 F 
ATOM     61  C   UNL A   1      44.644  34.164  32.805  1.00  0.00     0.040 A 
ATOM     62  C   UNL A   1      44.950  34.833  30.512  1.00  0.00     0.040 A 
ATOM     63  F   UNL A   1      44.761  33.252  28.791  1.00  0.00    -0.206 F 
ATOM     64  C   UNL A   1      44.901  35.161  31.865  1.00  0.00     0.006 A 
ENDBRANCH  40  57
ENDBRANCH  14  15
ENDBRANCH   7   9
ENDBRANCH   4   5
ENDBRANCH   3   4
ENDBRANCH   2   3
ENDBRANCH   1   2
BRANCH   1  65
ATOM     65  C   UNL A   1      35.778  22.972  24.345  1.00  0.00     0.021 C 
BRANCH  65  66
ATOM     66  C   UNL A   1      34.884  23.281  23.097  1.00  0.00     0.116 C 
BRANCH  66  67
ATOM     67  N   UNL A   1      33.912  24.501  22.980  1.00  0.00    -0.356 N 
ATOM     68  C   UNL A   1      33.501  25.749  23.477  1.00  0.00     0.227 C 
ATOM     69  H   UNL A   1      33.324  24.307  22.214  1.00  0.00     0.163 HD
ATOM     70  O   UNL A   1      33.085  26.422  22.498  1.00  0.00    -0.275 OA
BRANCH  68  71
ATOM     71  C   UNL A   1      33.197  26.630  25.011  1.00  0.00     0.127 C 
ATOM     72  C   UNL A   1      32.027  26.108  25.854  1.00  0.00     0.127 C 
ATOM     73  C   UNL A   1      33.044  28.116  25.511  1.00  0.00     0.155 C 
ATOM     74  C   UNL A   1      31.189  27.325  26.278  1.00  0.00     0.155 C 
ATOM     75  C   UNL A   1      33.025  28.377  27.012  1.00  0.00     0.004 C 
ATOM     76  O   UNL A   1      31.614  28.301  25.313  1.00  0.00    -0.365 OA
ATOM     77  C   UNL A   1      31.837  27.955  27.462  1.00  0.00     0.004 C 
BRANCH  72  78
ATOM     78  C   UNL A   1      31.226  25.189  25.086  1.00  0.00     0.231 C 
ATOM     79  O   UNL A   1      30.374  25.618  24.301  1.00  0.00    -0.274 OA
ATOM     80  N   UNL A   1      31.432  23.873  25.151  1.00  0.00    -0.325 N 
ATOM     81  H   UNL A   1      30.760  23.440  24.576  1.00  0.00     0.169 HD
BRANCH  80  82
ATOM     82  C   UNL A   1      32.235  22.844  25.721  1.00  0.00     0.044 A 
ATOM     83  C   UNL A   1      32.767  23.533  26.878  1.00  0.00     0.026 A 
ATOM     84  C   UNL A   1      32.646  21.455  25.480  1.00  0.00    -0.020 A 
ATOM     85  C   UNL A   1      33.686  23.024  27.763  1.00  0.00     0.002 A 
ATOM     86  C   UNL A   1      33.537  20.971  26.513  1.00  0.00     0.006 A 
ATOM     87  C   UNL A   1      34.079  21.732  27.569  1.00  0.00     0.000 A 
BRANCH  84  88
ATOM     88  C   UNL A   1      32.455  20.168  24.321  1.00  0.00     0.073 C 
BRANCH  88  89
ATOM     89  C   UNL A   1      32.834  18.514  24.267  1.00  0.00    -0.044 A 
ATOM     90  C   UNL A   1      33.423  17.728  23.235  1.00  0.00     0.004 A 
ATOM     91  C   UNL A   1      32.503  17.696  25.363  1.00  0.00     0.004 A 
ATOM     92  C   UNL A   1      34.017  16.459  23.389  1.00  0.00     0.000 A 
ATOM     93  C   UNL A   1      33.004  16.365  25.508  1.00  0.00     0.000 A 
ATOM     94  C   UNL A   1      33.843  15.784  24.563  1.00  0.00     0.000 A 
ENDBRANCH  88  89
ENDBRANCH  84  88
ENDBRANCH  80  82
ENDBRANCH  72  78
ENDBRANCH  68  71
ENDBRANCH  66  67
ENDBRANCH  65  66
ENDBRANCH   1  65
TORSDOF 17
ENDMDL
MODEL 2
REMARK VINA RESULT:     -13.7      0.283      5.961
REMARK SMILES O=C(NCCCCCCNC(=O)[C@@H]1[C@H](C(=O)Nc2ccccc2Cc2ccccc2)[C@H]2C=C[C@@H]1O2)c1ccc(-c2c3nc(c(-c4c(F)cccc4F)c4ccc([nH]4)c(-c4c(F)cccc4F)c4nc(c(-c5c(F)cccc5F)c5ccc2[nH]5)C=C4)C=C3)cc1
REMARK SMILES IDX 7 1 6 2 5 3 4 4 3 5 1 6 2 7 36 9 37 10 89 11 38 12 88 13
REMARK SMILES IDX 39 14 40 15 41 16 82 17 42 18 87 19 81 20 83 21 43 22 86 23
REMARK SMILES IDX 80 24 79 25 44 27 70 28 53 29 69 30 54 31 57 32 68 33 84 34
REMARK SMILES IDX 55 35 56 36 67 38 85 39 58 40 45 41 46 42 51 43 47 44 48 45
REMARK SMILES IDX 50 46 52 47 49 48 71 49 72 50 77 51 73 52 74 53 76 54 78 55
REMARK SMILES IDX 75 56 59 57 60 58 65 59 61 60 62 61 64 62 66 63 63 64 8 65
REMARK SMILES IDX 9 66 10 67 11 68 12 70 13 71 14 72 34 73 31 74 33 75 35 76
REMARK SMILES IDX 32 77 15 78 16 79 17 80 18 82 19 83 23 84 20 85 22 86 21 87
REMARK SMILES IDX 24 88 25 89 26 90 30 91 27 92 29 93 28 94
REMARK H PARENT 3 8 83 26 57 37 10 69 17 81
REMARK Flexibility Score: inf
ROOT
ATOM      1  C   UNL A   1      36.838  21.897  24.249  1.00  0.00     0.002 C 
ENDROOT
BRANCH   1   2
ATOM      2  C   UNL A   1      36.604  20.448  24.702  1.00  0.00     0.002 C 
BRANCH   2   3
ATOM      3  C   UNL A   1      37.815  19.540  24.922  1.00  0.00     0.021 C 
BRANCH   3   4
ATOM      4  C   UNL A   1      38.905  20.009  25.883  1.00  0.00     0.116 C 
BRANCH   4   5
ATOM      5  N   UNL A   1      40.112  19.198  25.844  1.00  0.00    -0.352 N 
ATOM      6  O   UNL A   1      42.309  18.694  25.842  1.00  0.00    -0.269 OA
ATOM      7  C   UNL A   1      41.425  19.524  26.075  1.00  0.00     0.251 C 
ATOM      8  H   UNL A   1      39.961  18.254  25.612  1.00  0.00     0.163 HD
BRANCH   7   9
ATOM      9  C   UNL A   1      41.805  20.859  26.584  1.00  0.00     0.039 A 
ATOM     10  C   UNL A   1      41.796  21.136  27.951  1.00  0.00     0.014 A 
ATOM     11  C   UNL A   1      42.220  21.846  25.681  1.00  0.00     0.014 A 
ATOM     12  C   UNL A   1      42.039  22.429  28.400  1.00  0.00     0.010 A 
ATOM     13  C   UNL A   1      42.563  23.121  26.143  1.00  0.00     0.010 A 
ATOM     14  C   UNL A   1      42.442  23.435  27.505  1.00  0.00    -0.014 A 
BRANCH  14  15
ATOM     15  C   UNL A   1      42.787  24.782  28.032  1.00  0.00     0.031 A 
ATOM     16  C   UNL A   1      41.724  25.813  28.297  1.00  0.00     0.074 A 
ATOM     17  C   UNL A   1      44.078  25.058  28.306  1.00  0.00     0.049 A 
ATOM     18  N   UNL A   1      41.851  27.023  28.781  1.00  0.00    -0.248 NA
ATOM     19  C   UNL A   1      40.339  25.445  27.967  1.00  0.00     0.031 C 
ATOM     20  C   UNL A   1      45.200  24.143  28.076  1.00  0.00     0.029 A 
ATOM     21  N   UNL A   1      44.665  26.168  28.854  1.00  0.00    -0.354 N 
ATOM     22  C   UNL A   1      40.573  27.569  28.789  1.00  0.00     0.074 A 
ATOM     23  C   UNL A   1      39.687  26.567  28.236  1.00  0.00     0.031 C 
ATOM     24  C   UNL A   1      46.327  24.702  28.538  1.00  0.00     0.029 A 
ATOM     25  C   UNL A   1      46.023  26.041  29.025  1.00  0.00     0.049 A 
ATOM     26  H   UNL A   1      44.163  26.978  29.101  1.00  0.00     0.167 HD
ATOM     27  C   UNL A   1      40.178  28.792  29.221  1.00  0.00     0.037 A 
ATOM     28  C   UNL A   1      46.929  26.911  29.508  1.00  0.00     0.037 A 
ATOM     29  C   UNL A   1      41.067  29.777  29.784  1.00  0.00     0.049 A 
ATOM     30  C   UNL A   1      46.464  28.263  29.962  1.00  0.00     0.074 A 
ATOM     31  C   UNL A   1      40.761  31.029  30.289  1.00  0.00     0.029 A 
ATOM     32  N   UNL A   1      42.441  29.622  29.913  1.00  0.00    -0.354 N 
ATOM     33  N   UNL A   1      45.248  28.750  29.995  1.00  0.00    -0.248 NA
ATOM     34  C   UNL A   1      47.499  29.187  30.442  1.00  0.00     0.031 C 
ATOM     35  C   UNL A   1      41.953  31.653  30.671  1.00  0.00     0.029 A 
ATOM     36  C   UNL A   1      42.997  30.766  30.465  1.00  0.00     0.049 A 
ATOM     37  H   UNL A   1      42.945  28.819  29.651  1.00  0.00     0.167 HD
ATOM     38  C   UNL A   1      45.365  30.027  30.527  1.00  0.00     0.074 A 
ATOM     39  C   UNL A   1      46.771  30.229  30.817  1.00  0.00     0.031 C 
ATOM     40  C   UNL A   1      44.397  30.948  30.755  1.00  0.00     0.037 A 
BRANCH  27  41
ATOM     41  C   UNL A   1      38.724  29.148  29.075  1.00  0.00     0.057 A 
ATOM     42  C   UNL A   1      37.825  29.077  30.148  1.00  0.00     0.134 A 
ATOM     43  C   UNL A   1      38.224  29.606  27.849  1.00  0.00     0.134 A 
ATOM     44  F   UNL A   1      38.232  28.638  31.349  1.00  0.00    -0.206 F 
ATOM     45  C   UNL A   1      36.480  29.421  30.000  1.00  0.00     0.040 A 
ATOM     46  C   UNL A   1      36.888  29.980  27.696  1.00  0.00     0.040 A 
ATOM     47  F   UNL A   1      39.028  29.708  26.781  1.00  0.00    -0.206 F 
ATOM     48  C   UNL A   1      36.008  29.881  28.772  1.00  0.00     0.006 A 
ENDBRANCH  27  41
BRANCH  28  49
ATOM     49  C   UNL A   1      48.361  26.525  29.585  1.00  0.00     0.057 A 
ATOM     50  C   UNL A   1      48.867  25.840  30.695  1.00  0.00     0.134 A 
ATOM     51  C   UNL A   1      49.258  26.831  28.554  1.00  0.00     0.134 A 
ATOM     52  F   UNL A   1      48.062  25.530  31.723  1.00  0.00    -0.206 F 
ATOM     53  C   UNL A   1      50.215  25.487  30.785  1.00  0.00     0.040 A 
ATOM     54  C   UNL A   1      50.600  26.458  28.616  1.00  0.00     0.040 A 
ATOM     55  F   UNL A   1      48.834  27.478  27.458  1.00  0.00    -0.206 F 
ATOM     56  C   UNL A   1      51.085  25.792  29.740  1.00  0.00     0.006 A 
ENDBRANCH  28  49
BRANCH  40  57
ATOM     57  C   UNL A   1      44.825  32.237  31.395  1.00  0.00     0.057 A 
ATOM     58  C   UNL A   1      44.868  32.401  32.786  1.00  0.00     0.134 A 
ATOM     59  C   UNL A   1      45.208  33.329  30.604  1.00  0.00     0.134 A 
ATOM     60  F   UNL A   1      44.499  31.401  33.601  1.00  0.00    -0.206 F 
ATOM     61  C   UNL A   1      45.242  33.614  33.366  1.00  0.00     0.040 A 
ATOM     62  C   UNL A   1      45.615  34.535  31.173  1.00  0.00     0.040 A 
ATOM     63  F   UNL A   1      45.197  33.236  29.266  1.00  0.00    -0.206 F 
ATOM     64  C   UNL A   1      45.623  34.684  32.558  1.00  0.00     0.006 A 
ENDBRANCH  40  57
ENDBRANCH  14  15
ENDBRANCH   7   9
ENDBRANCH   4   5
ENDBRANCH   3   4
ENDBRANCH   2   3
ENDBRANCH   1   2
BRANCH   1  65
ATOM     65  C   UNL A   1      35.698  22.945  24.368  1.00  0.00     0.021 C 
BRANCH  65  66
ATOM     66  C   UNL A   1      34.848  23.305  23.103  1.00  0.00     0.116 C 
BRANCH  66  67
ATOM     67  N   UNL A   1      33.889  24.536  22.997  1.00  0.00    -0.356 N 
ATOM     68  C   UNL A   1      33.488  25.781  23.508  1.00  0.00     0.227 C 
ATOM     69  H   UNL A   1      33.303  24.358  22.226  1.00  0.00     0.163 HD
ATOM     70  O   UNL A   1      33.084  26.472  22.535  1.00  0.00    -0.275 OA
BRANCH  68  71
ATOM     71  C   UNL A   1      33.185  26.646  25.051  1.00  0.00     0.127 C 
ATOM     72  C   UNL A   1      32.017  26.113  25.891  1.00  0.00     0.127 C 
ATOM     73  C   UNL A   1      33.030  28.126  25.568  1.00  0.00     0.155 C 
ATOM     74  C   UNL A   1      31.177  27.324  26.329  1.00  0.00     0.155 C 
ATOM     75  C   UNL A   1      33.013  28.372  27.071  1.00  0.00     0.004 C 
ATOM     76  O   UNL A   1      31.599  28.311  25.373  1.00  0.00    -0.365 OA
ATOM     77  C   UNL A   1      31.826  27.942  27.519  1.00  0.00     0.004 C 
BRANCH  72  78
ATOM     78  C   UNL A   1      31.216  25.201  25.114  1.00  0.00     0.231 C 
ATOM     79  O   UNL A   1      30.371  25.637  24.326  1.00  0.00    -0.274 OA
ATOM     80  N   UNL A   1      31.416  23.884  25.175  1.00  0.00    -0.325 N 
ATOM     81  H   UNL A   1      30.745  23.456  24.594  1.00  0.00     0.169 HD
BRANCH  80  82
ATOM     82  C   UNL A   1      32.211  22.848  25.746  1.00  0.00     0.044 A 
ATOM     83  C   UNL A   1      32.804  23.555  26.862  1.00  0.00     0.026 A 
ATOM     84  C   UNL A   1      32.574  21.442  25.531  1.00  0.00    -0.020 A 
ATOM     85  C   UNL A   1      33.741  23.045  27.728  1.00  0.00     0.002 A 
ATOM     86  C   UNL A   1      33.489  20.962  26.545  1.00  0.00     0.006 A 
ATOM     87  C   UNL A   1      34.091  21.737  27.558  1.00  0.00     0.000 A 
BRANCH  84  88
ATOM     88  C   UNL A   1      32.305  20.128  24.418  1.00  0.00     0.073 C 
BRANCH  88  89
ATOM     89  C   UNL A   1      32.793  18.506  24.311  1.00  0.00    -0.044 A 
ATOM     90  C   UNL A   1      33.386  17.782  23.237  1.00  0.00     0.004 A 
ATOM     91  C   UNL A   1      32.569  17.646  25.403  1.00  0.00     0.004 A 
ATOM     92  C   UNL A   1      34.071  16.555  23.337  1.00  0.00     0.000 A 
ATOM     93  C   UNL A   1      33.166  16.351  25.496  1.00  0.00     0.000 A 
ATOM     94  C   UNL A   1      33.997  15.847  24.502  1.00  0.00     0.000 A 
ENDBRANCH  88  89
ENDBRANCH  84  88
ENDBRANCH  80  82
ENDBRANCH  72  78
ENDBRANCH  68  71
ENDBRANCH  66  67
ENDBRANCH  65  66
ENDBRANCH   1  65
TORSDOF 17
ENDMDL
MODEL 3
REMARK VINA RESULT:     -13.6      3.769      9.496
REMARK SMILES O=C(NCCCCCCNC(=O)[C@@H]1[C@H](C(=O)Nc2ccccc2Cc2ccccc2)[C@H]2C=C[C@@H]1O2)c1ccc(-c2c3nc(c(-c4c(F)cccc4F)c4ccc([nH]4)c(-c4c(F)cccc4F)c4nc(c(-c5c(F)cccc5F)c5ccc2[nH]5)C=C4)C=C3)cc1
REMARK SMILES IDX 7 1 6 2 5 3 4 4 3 5 1 6 2 7 36 9 37 10 89 11 38 12 88 13
REMARK SMILES IDX 39 14 40 15 41 16 82 17 42 18 87 19 81 20 83 21 43 22 86 23
REMARK SMILES IDX 80 24 79 25 44 27 70 28 53 29 69 30 54 31 57 32 68 33 84 34
REMARK SMILES IDX 55 35 56 36 67 38 85 39 58 40 45 41 46 42 51 43 47 44 48 45
REMARK SMILES IDX 50 46 52 47 49 48 71 49 72 50 77 51 73 52 74 53 76 54 78 55
REMARK SMILES IDX 75 56 59 57 60 58 65 59 61 60 62 61 64 62 66 63 63 64 8 65
REMARK SMILES IDX 9 66 10 67 11 68 12 70 13 71 14 72 34 73 31 74 33 75 35 76
REMARK SMILES IDX 32 77 15 78 16 79 17 80 18 82 19 83 23 84 20 85 22 86 21 87
REMARK SMILES IDX 24 88 25 89 26 90 30 91 27 92 29 93 28 94
REMARK H PARENT 3 8 83 26 57 37 10 69 17 81
REMARK Flexibility Score: inf
ROOT
ATOM      1  C   UNL A   1      32.380  29.853  26.919  1.00  0.00     0.002 C 
ENDROOT
BRANCH   1   2
ATOM      2  C   UNL A   1      31.370  30.782  26.229  1.00  0.00     0.002 C 
BRANCH   2   3
ATOM      3  C   UNL A   1      31.315  32.252  26.648  1.00  0.00     0.021 C 
BRANCH   3   4
ATOM      4  C   UNL A   1      32.619  32.939  27.047  1.00  0.00     0.116 C 
BRANCH   4   5
ATOM      5  N   UNL A   1      32.429  34.181  27.780  1.00  0.00    -0.352 N 
ATOM      6  O   UNL A   1      32.705  35.742  29.382  1.00  0.00    -0.269 OA
ATOM      7  C   UNL A   1      33.139  34.735  28.815  1.00  0.00     0.251 C 
ATOM      8  H   UNL A   1      31.659  34.716  27.482  1.00  0.00     0.163 HD
BRANCH   7   9
ATOM      9  C   UNL A   1      34.411  34.139  29.277  1.00  0.00     0.039 A 
ATOM     10  C   UNL A   1      35.617  34.436  28.642  1.00  0.00     0.014 A 
ATOM     11  C   UNL A   1      34.408  33.296  30.396  1.00  0.00     0.014 A 
ATOM     12  C   UNL A   1      36.780  33.773  29.014  1.00  0.00     0.010 A 
ATOM     13  C   UNL A   1      35.598  32.706  30.834  1.00  0.00     0.010 A 
ATOM     14  C   UNL A   1      36.791  32.912  30.125  1.00  0.00    -0.014 A 
BRANCH  14  15
ATOM     15  C   UNL A   1      38.074  32.295  30.553  1.00  0.00     0.031 A 
ATOM     16  C   UNL A   1      38.888  32.881  31.675  1.00  0.00     0.074 A 
ATOM     17  C   UNL A   1      38.486  31.168  29.937  1.00  0.00     0.049 A 
ATOM     18  N   UNL A   1      40.013  32.451  32.189  1.00  0.00    -0.248 NA
ATOM     19  C   UNL A   1      38.382  34.115  32.294  1.00  0.00     0.031 C 
ATOM     20  C   UNL A   1      37.789  30.515  28.826  1.00  0.00     0.029 A 
ATOM     21  N   UNL A   1      39.569  30.361  30.167  1.00  0.00    -0.354 N 
ATOM     22  C   UNL A   1      40.362  33.372  33.170  1.00  0.00     0.074 A 
ATOM     23  C   UNL A   1      39.342  34.399  33.162  1.00  0.00     0.031 C 
ATOM     24  C   UNL A   1      38.424  29.377  28.514  1.00  0.00     0.029 A 
ATOM     25  C   UNL A   1      39.613  29.258  29.348  1.00  0.00     0.049 A 
ATOM     26  H   UNL A   1      40.251  30.552  30.851  1.00  0.00     0.167 HD
ATOM     27  C   UNL A   1      41.433  33.358  34.002  1.00  0.00     0.037 A 
ATOM     28  C   UNL A   1      40.517  28.265  29.266  1.00  0.00     0.037 A 
ATOM     29  C   UNL A   1      42.435  32.321  34.011  1.00  0.00     0.049 A 
ATOM     30  C   UNL A   1      41.701  28.286  30.187  1.00  0.00     0.074 A 
ATOM     31  C   UNL A   1      43.536  32.192  34.841  1.00  0.00     0.029 A 
ATOM     32  N   UNL A   1      42.461  31.235  33.146  1.00  0.00    -0.354 N 
ATOM     33  N   UNL A   1      41.998  29.144  31.132  1.00  0.00    -0.248 NA
ATOM     34  C   UNL A   1      42.678  27.201  30.027  1.00  0.00     0.031 C 
ATOM     35  C   UNL A   1      44.257  31.062  34.443  1.00  0.00     0.029 A 
ATOM     36  C   UNL A   1      43.572  30.448  33.406  1.00  0.00     0.049 A 
ATOM     37  H   UNL A   1      41.789  31.053  32.451  1.00  0.00     0.167 HD
ATOM     38  C   UNL A   1      43.180  28.688  31.701  1.00  0.00     0.074 A 
ATOM     39  C   UNL A   1      43.533  27.468  31.003  1.00  0.00     0.031 C 
ATOM     40  C   UNL A   1      43.905  29.232  32.708  1.00  0.00     0.037 A 
BRANCH  27  41
ATOM     41  C   UNL A   1      41.596  34.512  34.951  1.00  0.00     0.057 A 
ATOM     42  C   UNL A   1      41.063  34.495  36.248  1.00  0.00     0.134 A 
ATOM     43  C   UNL A   1      42.330  35.645  34.575  1.00  0.00     0.134 A 
ATOM     44  F   UNL A   1      40.340  33.448  36.672  1.00  0.00    -0.206 F 
ATOM     45  C   UNL A   1      41.231  35.571  37.122  1.00  0.00     0.040 A 
ATOM     46  C   UNL A   1      42.530  36.714  35.450  1.00  0.00     0.040 A 
ATOM     47  F   UNL A   1      42.876  35.727  33.353  1.00  0.00    -0.206 F 
ATOM     48  C   UNL A   1      41.973  36.682  36.727  1.00  0.00     0.006 A 
ENDBRANCH  27  41
BRANCH  28  49
ATOM     49  C   UNL A   1      40.334  27.174  28.275  1.00  0.00     0.057 A 
ATOM     50  C   UNL A   1      40.925  27.240  27.008  1.00  0.00     0.134 A 
ATOM     51  C   UNL A   1      39.567  26.040  28.569  1.00  0.00     0.134 A 
ATOM     52  F   UNL A   1      41.660  28.307  26.660  1.00  0.00    -0.206 F 
ATOM     53  C   UNL A   1      40.746  26.227  26.064  1.00  0.00     0.040 A 
ATOM     54  C   UNL A   1      39.405  25.006  27.648  1.00  0.00     0.040 A 
ATOM     55  F   UNL A   1      38.982  25.911  29.770  1.00  0.00    -0.206 F 
ATOM     56  C   UNL A   1      39.987  25.103  26.386  1.00  0.00     0.006 A 
ENDBRANCH  28  49
BRANCH  40  57
ATOM     57  C   UNL A   1      45.126  28.476  33.149  1.00  0.00     0.057 A 
ATOM     58  C   UNL A   1      45.069  27.465  34.116  1.00  0.00     0.134 A 
ATOM     59  C   UNL A   1      46.377  28.762  32.586  1.00  0.00     0.134 A 
ATOM     60  F   UNL A   1      43.905  27.151  34.705  1.00  0.00    -0.206 F 
ATOM     61  C   UNL A   1      46.217  26.789  34.534  1.00  0.00     0.040 A 
ATOM     62  C   UNL A   1      47.526  28.072  32.972  1.00  0.00     0.040 A 
ATOM     63  F   UNL A   1      46.501  29.714  31.649  1.00  0.00    -0.206 F 
ATOM     64  C   UNL A   1      47.450  27.089  33.956  1.00  0.00     0.006 A 
ENDBRANCH  40  57
ENDBRANCH  14  15
ENDBRANCH   7   9
ENDBRANCH   4   5
ENDBRANCH   3   4
ENDBRANCH   2   3
ENDBRANCH   1   2
BRANCH   1  65
ATOM     65  C   UNL A   1      32.440  28.348  26.541  1.00  0.00     0.021 C 
BRANCH  65  66
ATOM     66  C   UNL A   1      31.235  27.415  26.898  1.00  0.00     0.116 C 
BRANCH  66  67
ATOM     67  N   UNL A   1      31.249  25.855  26.775  1.00  0.00    -0.356 N 
ATOM     68  C   UNL A   1      32.004  24.676  26.669  1.00  0.00     0.227 C 
ATOM     69  H   UNL A   1      30.305  25.575  26.768  1.00  0.00     0.163 HD
ATOM     70  O   UNL A   1      31.356  23.764  27.247  1.00  0.00    -0.275 OA
BRANCH  68  71
ATOM     71  C   UNL A   1      33.451  23.990  25.856  1.00  0.00     0.127 C 
ATOM     72  C   UNL A   1      33.340  23.826  24.335  1.00  0.00     0.127 C 
ATOM     73  C   UNL A   1      34.442  22.778  26.029  1.00  0.00     0.155 C 
ATOM     74  C   UNL A   1      33.844  22.415  23.989  1.00  0.00     0.155 C 
ATOM     75  C   UNL A   1      35.708  22.751  25.184  1.00  0.00     0.004 C 
ATOM     76  O   UNL A   1      33.733  21.763  25.264  1.00  0.00    -0.365 OA
ATOM     77  C   UNL A   1      35.332  22.446  23.935  1.00  0.00     0.004 C 
BRANCH  72  78
ATOM     78  C   UNL A   1      31.972  23.989  23.911  1.00  0.00     0.231 C 
ATOM     79  O   UNL A   1      31.179  23.048  24.006  1.00  0.00    -0.274 OA
ATOM     80  N   UNL A   1      31.520  25.167  23.477  1.00  0.00    -0.325 N 
ATOM     81  H   UNL A   1      30.579  25.043  23.215  1.00  0.00     0.169 HD
BRANCH  80  82
ATOM     82  C   UNL A   1      31.855  26.531  23.242  1.00  0.00     0.044 A 
ATOM     83  C   UNL A   1      33.283  26.420  23.028  1.00  0.00     0.026 A 
ATOM     84  C   UNL A   1      31.238  27.863  23.187  1.00  0.00    -0.020 A 
ATOM     85  C   UNL A   1      34.149  27.469  22.833  1.00  0.00     0.002 A 
ATOM     86  C   UNL A   1      32.208  28.893  22.880  1.00  0.00     0.006 A 
ATOM     87  C   UNL A   1      33.602  28.717  22.767  1.00  0.00     0.000 A 
BRANCH  84  88
ATOM     88  C   UNL A   1      29.701  28.653  23.411  1.00  0.00     0.073 C 
BRANCH  88  89
ATOM     89  C   UNL A   1      28.995  30.108  22.894  1.00  0.00    -0.044 A 
ATOM     90  C   UNL A   1      28.802  31.342  23.579  1.00  0.00     0.004 A 
ATOM     91  C   UNL A   1      28.439  30.183  21.604  1.00  0.00     0.004 A 
ATOM     92  C   UNL A   1      28.531  32.591  22.986  1.00  0.00     0.000 A 
ATOM     93  C   UNL A   1      28.058  31.422  21.003  1.00  0.00     0.000 A 
ATOM     94  C   UNL A   1      28.197  32.638  21.663  1.00  0.00     0.000 A 
ENDBRANCH  88  89
ENDBRANCH  84  88
ENDBRANCH  80  82
ENDBRANCH  72  78
ENDBRANCH  68  71
ENDBRANCH  66  67
ENDBRANCH  65  66
ENDBRANCH   1  65
TORSDOF 17
ENDMDL
