MODEL 1
REMARK VINA RESULT:      -9.7      0.000      0.000
REMARK SMILES C[C@H](Cc1cccs1)N(C)C(=O)[C@@H]([NH3+])CCC(=O)NCCCCCCNC(=O)c1ccc(-c2c3nc(c(-c4c(F)cccc4F)c4ccc([nH]4)c(-c4c(F)cccc4F)c4nc(c(-c5c(F)cccc5F)c5ccc2[nH]5)C=C4)C=C3)cc1
REMARK SMILES IDX 20 1 19 2 17 3 18 4 16 6 15 7 13 8 11 9 12 10 9 11 10 12
REMARK SMILES IDX 2 13 1 14 3 15 4 16 5 17 8 18 6 19 7 20 14 21 21 25 22 26
REMARK SMILES IDX 23 27 24 28 25 29 26 30 27 31 28 33 29 34 30 35 82 36 31 37
REMARK SMILES IDX 81 38 32 39 33 40 34 41 75 42 35 43 80 44 74 45 76 46 36 47
REMARK SMILES IDX 79 48 73 49 72 50 37 52 63 53 46 54 62 55 47 56 50 57 61 58
REMARK SMILES IDX 77 59 48 60 49 61 60 63 78 64 51 65 38 66 39 67 44 68 40 69
REMARK SMILES IDX 41 70 43 71 45 72 42 73 64 74 65 75 70 76 66 77 67 78 69 79
REMARK SMILES IDX 71 80 68 81 52 82 53 83 58 84 54 85 55 86 57 87 59 88 56 89
REMARK H PARENT 19 5 14 22 14 23 14 24 26 32 76 51 50 62
REMARK Flexibility Score: inf
ROOT
ATOM      1  C   UNL A   1      34.381  22.667  27.012  1.00  0.00     0.116 C 
ENDROOT
BRANCH   1   2
ATOM      2  N   UNL A   1      33.012  22.327  27.351  1.00  0.00    -0.356 N 
ATOM      3  C   UNL A   1      31.856  23.019  27.152  1.00  0.00     0.220 C 
ATOM      4  O   UNL A   1      30.812  22.542  27.603  1.00  0.00    -0.275 OA
ATOM      5  H   UNL A   1      32.900  21.456  27.797  1.00  0.00     0.163 HD
BRANCH   3   6
ATOM      6  C   UNL A   1      31.841  24.336  26.396  1.00  0.00     0.106 C 
BRANCH   6   7
ATOM      7  C   UNL A   1      30.624  24.500  25.474  1.00  0.00     0.085 C 
BRANCH   7   8
ATOM      8  C   UNL A   1      29.910  25.850  25.603  1.00  0.00     0.271 C 
BRANCH   8   9
ATOM      9  C   UNL A   1      30.853  26.999  26.074  1.00  0.00     0.280 C 
ATOM     10  O   UNL A   1      30.911  27.208  27.292  1.00  0.00    -0.268 OA
BRANCH   9  11
ATOM     11  N   UNL A   1      31.619  27.747  25.184  1.00  0.00    -0.338 N 
ATOM     12  C   UNL A   1      31.120  28.931  24.492  1.00  0.00     0.147 C 
BRANCH  11  13
ATOM     13  C   UNL A   1      33.081  27.511  25.087  1.00  0.00     0.087 C 
ATOM     14  C   UNL A   1      33.950  28.561  25.797  1.00  0.00     0.031 C 
BRANCH  13  15
ATOM     15  C   UNL A   1      33.587  27.161  23.666  1.00  0.00     0.071 C 
BRANCH  15  16
ATOM     16  C   UNL A   1      33.609  25.704  23.287  1.00  0.00     0.007 A 
ATOM     17  C   UNL A   1      34.345  24.678  23.851  1.00  0.00     0.015 A 
ATOM     18  S   UNL A   1      32.549  25.109  22.072  1.00  0.00    -0.149 S 
ATOM     19  C   UNL A   1      34.090  23.420  23.231  1.00  0.00     0.012 A 
ATOM     20  C   UNL A   1      33.160  23.523  22.223  1.00  0.00     0.065 A 
ENDBRANCH  15  16
ENDBRANCH  13  15
ENDBRANCH  11  13
ENDBRANCH   9  11
ENDBRANCH   8   9
BRANCH   8  21
ATOM     21  N   UNL A   1      29.157  26.190  24.377  1.00  0.00    -0.347 N 
ATOM     22  H   UNL A   1      29.805  26.277  23.593  1.00  0.00     0.345 HD
ATOM     23  H   UNL A   1      28.668  27.074  24.513  1.00  0.00     0.345 HD
ATOM     24  H   UNL A   1      28.481  25.453  24.179  1.00  0.00     0.345 HD
ENDBRANCH   8  21
ENDBRANCH   7   8
ENDBRANCH   6   7
ENDBRANCH   3   6
ENDBRANCH   1   2
BRANCH   1  25
ATOM     25  C   UNL A   1      35.083  21.488  26.331  1.00  0.00     0.021 C 
BRANCH  25  26
ATOM     26  C   UNL A   1      36.432  21.845  25.699  1.00  0.00     0.002 C 
BRANCH  26  27
ATOM     27  C   UNL A   1      36.902  20.903  24.582  1.00  0.00     0.002 C 
BRANCH  27  28
ATOM     28  C   UNL A   1      37.891  19.808  24.996  1.00  0.00     0.021 C 
BRANCH  28  29
ATOM     29  C   UNL A   1      39.062  20.269  25.864  1.00  0.00     0.116 C 
BRANCH  29  30
ATOM     30  N   UNL A   1      40.139  19.298  25.905  1.00  0.00    -0.352 N 
ATOM     31  C   UNL A   1      41.484  19.490  26.087  1.00  0.00     0.251 C 
ATOM     32  H   UNL A   1      39.863  18.361  25.782  1.00  0.00     0.163 HD
ATOM     33  O   UNL A   1      42.259  18.549  25.903  1.00  0.00    -0.269 OA
BRANCH  31  34
ATOM     34  C   UNL A   1      42.033  20.806  26.494  1.00  0.00     0.039 A 
ATOM     35  C   UNL A   1      42.084  21.110  27.860  1.00  0.00     0.014 A 
ATOM     36  C   UNL A   1      42.402  21.776  25.557  1.00  0.00     0.014 A 
ATOM     37  C   UNL A   1      42.516  22.371  28.285  1.00  0.00     0.010 A 
ATOM     38  C   UNL A   1      42.879  23.020  25.984  1.00  0.00     0.010 A 
ATOM     39  C   UNL A   1      42.918  23.338  27.351  1.00  0.00    -0.014 A 
BRANCH  39  40
ATOM     40  C   UNL A   1      43.317  24.700  27.796  1.00  0.00     0.031 A 
ATOM     41  C   UNL A   1      42.267  25.732  28.112  1.00  0.00     0.074 A 
ATOM     42  C   UNL A   1      44.620  25.025  27.907  1.00  0.00     0.049 A 
ATOM     43  N   UNL A   1      42.415  26.977  28.493  1.00  0.00    -0.248 NA
ATOM     44  C   UNL A   1      40.865  25.311  27.969  1.00  0.00     0.031 C 
ATOM     45  C   UNL A   1      45.742  24.133  27.616  1.00  0.00     0.029 A 
ATOM     46  N   UNL A   1      45.217  26.199  28.294  1.00  0.00    -0.354 N 
ATOM     47  C   UNL A   1      41.130  27.490  28.620  1.00  0.00     0.074 A 
ATOM     48  C   UNL A   1      40.216  26.435  28.237  1.00  0.00     0.031 C 
ATOM     49  C   UNL A   1      46.892  24.786  27.852  1.00  0.00     0.029 A 
ATOM     50  C   UNL A   1      46.590  26.148  28.286  1.00  0.00     0.049 A 
ATOM     51  H   UNL A   1      44.710  27.001  28.555  1.00  0.00     0.167 HD
ATOM     52  C   UNL A   1      40.742  28.720  29.034  1.00  0.00     0.037 A 
ATOM     53  C   UNL A   1      47.502  27.090  28.594  1.00  0.00     0.037 A 
ATOM     54  C   UNL A   1      41.641  29.768  29.442  1.00  0.00     0.049 A 
ATOM     55  C   UNL A   1      47.048  28.448  29.051  1.00  0.00     0.074 A 
ATOM     56  C   UNL A   1      41.336  31.034  29.912  1.00  0.00     0.029 A 
ATOM     57  N   UNL A   1      43.023  29.669  29.432  1.00  0.00    -0.354 N 
ATOM     58  N   UNL A   1      45.829  28.904  29.207  1.00  0.00    -0.248 NA
ATOM     59  C   UNL A   1      48.098  29.421  29.386  1.00  0.00     0.031 C 
ATOM     60  C   UNL A   1      42.534  31.712  30.159  1.00  0.00     0.029 A 
ATOM     61  C   UNL A   1      43.585  30.853  29.879  1.00  0.00     0.049 A 
ATOM     62  H   UNL A   1      43.531  28.874  29.150  1.00  0.00     0.167 HD
ATOM     63  C   UNL A   1      45.965  30.199  29.689  1.00  0.00     0.074 A 
ATOM     64  C   UNL A   1      47.385  30.457  29.805  1.00  0.00     0.031 C 
ATOM     65  C   UNL A   1      44.999  31.094  30.008  1.00  0.00     0.037 A 
BRANCH  52  66
ATOM     66  C   UNL A   1      39.267  29.000  29.069  1.00  0.00     0.057 A 
ATOM     67  C   UNL A   1      38.517  28.846  30.242  1.00  0.00     0.134 A 
ATOM     68  C   UNL A   1      38.598  29.456  27.927  1.00  0.00     0.134 A 
ATOM     69  F   UNL A   1      39.097  28.402  31.367  1.00  0.00    -0.206 F 
ATOM     70  C   UNL A   1      37.146  29.110  30.271  1.00  0.00     0.040 A 
ATOM     71  C   UNL A   1      37.232  29.747  27.950  1.00  0.00     0.040 A 
ATOM     72  F   UNL A   1      39.259  29.632  26.774  1.00  0.00    -0.206 F 
ATOM     73  C   UNL A   1      36.502  29.567  29.122  1.00  0.00     0.006 A 
ENDBRANCH  52  66
BRANCH  53  74
ATOM     74  C   UNL A   1      48.949  26.772  28.511  1.00  0.00     0.057 A 
ATOM     75  C   UNL A   1      49.663  26.974  27.325  1.00  0.00     0.134 A 
ATOM     76  C   UNL A   1      49.646  26.251  29.607  1.00  0.00     0.134 A 
ATOM     77  F   UNL A   1      49.042  27.450  26.237  1.00  0.00    -0.206 F 
ATOM     78  C   UNL A   1      51.018  26.654  27.225  1.00  0.00     0.040 A 
ATOM     79  C   UNL A   1      51.006  25.946  29.528  1.00  0.00     0.040 A 
ATOM     80  F   UNL A   1      49.017  26.038  30.772  1.00  0.00    -0.206 F 
ATOM     81  C   UNL A   1      51.694  26.143  28.331  1.00  0.00     0.006 A 
ENDBRANCH  53  74
BRANCH  65  82
ATOM     82  C   UNL A   1      45.441  32.417  30.560  1.00  0.00     0.057 A 
ATOM     83  C   UNL A   1      45.634  32.620  31.931  1.00  0.00     0.134 A 
ATOM     84  C   UNL A   1      45.709  33.490  29.701  1.00  0.00     0.134 A 
ATOM     85  F   UNL A   1      45.383  31.635  32.807  1.00  0.00    -0.206 F 
ATOM     86  C   UNL A   1      46.059  33.852  32.432  1.00  0.00     0.040 A 
ATOM     87  C   UNL A   1      46.154  34.720  30.189  1.00  0.00     0.040 A 
ATOM     88  F   UNL A   1      45.550  33.360  28.376  1.00  0.00    -0.206 F 
ATOM     89  C   UNL A   1      46.325  34.905  31.559  1.00  0.00     0.006 A 
ENDBRANCH  65  82
ENDBRANCH  39  40
ENDBRANCH  31  34
ENDBRANCH  29  30
ENDBRANCH  28  29
ENDBRANCH  27  28
ENDBRANCH  26  27
ENDBRANCH  25  26
ENDBRANCH   1  25
TORSDOF 21
ENDMDL
MODEL 2
REMARK VINA RESULT:      -9.6      5.485     10.270
REMARK SMILES C[C@H](Cc1cccs1)N(C)C(=O)[C@@H]([NH3+])CCC(=O)NCCCCCCNC(=O)c1ccc(-c2c3nc(c(-c4c(F)cccc4F)c4ccc([nH]4)c(-c4c(F)cccc4F)c4nc(c(-c5c(F)cccc5F)c5ccc2[nH]5)C=C4)C=C3)cc1
REMARK SMILES IDX 20 1 19 2 17 3 18 4 16 6 15 7 13 8 11 9 12 10 9 11 10 12
REMARK SMILES IDX 2 13 1 14 3 15 4 16 5 17 8 18 6 19 7 20 14 21 21 25 22 26
REMARK SMILES IDX 23 27 24 28 25 29 26 30 27 31 28 33 29 34 30 35 82 36 31 37
REMARK SMILES IDX 81 38 32 39 33 40 34 41 75 42 35 43 80 44 74 45 76 46 36 47
REMARK SMILES IDX 79 48 73 49 72 50 37 52 63 53 46 54 62 55 47 56 50 57 61 58
REMARK SMILES IDX 77 59 48 60 49 61 60 63 78 64 51 65 38 66 39 67 44 68 40 69
REMARK SMILES IDX 41 70 43 71 45 72 42 73 64 74 65 75 70 76 66 77 67 78 69 79
REMARK SMILES IDX 71 80 68 81 52 82 53 83 58 84 54 85 55 86 57 87 59 88 56 89
REMARK H PARENT 19 5 14 22 14 23 14 24 26 32 76 51 50 62
REMARK Flexibility Score: inf
ROOT
ATOM      1  C   UNL A   1      34.487  30.285  27.604  1.00  0.00     0.116 C 
ENDROOT
BRANCH   1   2
ATOM      2  N   UNL A   1      33.524  30.523  26.545  1.00  0.00    -0.356 N 
ATOM      3  C   UNL A   1      32.325  29.930  26.293  1.00  0.00     0.220 C 
ATOM      4  O   UNL A   1      31.719  30.263  25.272  1.00  0.00    -0.275 OA
ATOM      5  H   UNL A   1      33.779  31.227  25.904  1.00  0.00     0.163 HD
BRANCH   3   6
ATOM      6  C   UNL A   1      31.741  28.892  27.235  1.00  0.00     0.106 C 
BRANCH   6   7
ATOM      7  C   UNL A   1      32.269  27.471  26.986  1.00  0.00     0.085 C 
BRANCH   7   8
ATOM      8  C   UNL A   1      31.742  26.817  25.705  1.00  0.00     0.271 C 
BRANCH   8   9
ATOM      9  C   UNL A   1      31.745  25.259  25.766  1.00  0.00     0.280 C 
ATOM     10  O   UNL A   1      31.366  24.742  26.825  1.00  0.00    -0.268 OA
BRANCH   9  11
ATOM     11  N   UNL A   1      32.127  24.470  24.684  1.00  0.00    -0.338 N 
ATOM     12  C   UNL A   1      31.410  24.447  23.414  1.00  0.00     0.147 C 
BRANCH  11  13
ATOM     13  C   UNL A   1      33.446  23.791  24.694  1.00  0.00     0.087 C 
ATOM     14  C   UNL A   1      34.653  24.734  24.806  1.00  0.00     0.031 C 
BRANCH  13  15
ATOM     15  C   UNL A   1      33.621  22.703  23.605  1.00  0.00     0.071 C 
BRANCH  15  16
ATOM     16  C   UNL A   1      33.314  21.283  24.000  1.00  0.00     0.007 A 
ATOM     17  C   UNL A   1      32.422  20.401  23.419  1.00  0.00     0.015 A 
ATOM     18  S   UNL A   1      34.197  20.527  25.265  1.00  0.00    -0.149 S 
ATOM     19  C   UNL A   1      32.414  19.130  24.065  1.00  0.00     0.012 A 
ATOM     20  C   UNL A   1      33.307  19.079  25.109  1.00  0.00     0.065 A 
ENDBRANCH  15  16
ENDBRANCH  13  15
ENDBRANCH  11  13
ENDBRANCH   9  11
ENDBRANCH   8   9
BRANCH   8  21
ATOM     21  N   UNL A   1      30.431  27.374  25.306  1.00  0.00    -0.347 N 
ATOM     22  H   UNL A   1      30.077  27.975  26.051  1.00  0.00     0.345 HD
ATOM     23  H   UNL A   1      29.774  26.611  25.143  1.00  0.00     0.345 HD
ATOM     24  H   UNL A   1      30.540  27.918  24.451  1.00  0.00     0.345 HD
ENDBRANCH   8  21
ENDBRANCH   7   8
ENDBRANCH   6   7
ENDBRANCH   3   6
ENDBRANCH   1   2
BRANCH   1  25
ATOM     25  C   UNL A   1      35.204  31.583  27.990  1.00  0.00     0.021 C 
BRANCH  25  26
ATOM     26  C   UNL A   1      34.540  32.342  29.144  1.00  0.00     0.002 C 
BRANCH  26  27
ATOM     27  C   UNL A   1      34.633  33.872  29.060  1.00  0.00     0.002 C 
BRANCH  27  28
ATOM     28  C   UNL A   1      33.300  34.629  29.054  1.00  0.00     0.021 C 
BRANCH  28  29
ATOM     29  C   UNL A   1      33.346  36.054  29.602  1.00  0.00     0.116 C 
BRANCH  29  30
ATOM     30  N   UNL A   1      32.465  36.240  30.740  1.00  0.00    -0.352 N 
ATOM     31  C   UNL A   1      32.549  35.720  32.006  1.00  0.00     0.251 C 
ATOM     32  H   UNL A   1      31.691  36.826  30.579  1.00  0.00     0.163 HD
ATOM     33  O   UNL A   1      31.596  35.851  32.777  1.00  0.00    -0.269 OA
BRANCH  31  34
ATOM     34  C   UNL A   1      33.758  34.997  32.470  1.00  0.00     0.039 A 
ATOM     35  C   UNL A   1      34.999  35.634  32.354  1.00  0.00     0.014 A 
ATOM     36  C   UNL A   1      33.701  33.675  32.923  1.00  0.00     0.014 A 
ATOM     37  C   UNL A   1      36.173  34.958  32.703  1.00  0.00     0.010 A 
ATOM     38  C   UNL A   1      34.870  33.015  33.316  1.00  0.00     0.010 A 
ATOM     39  C   UNL A   1      36.120  33.643  33.188  1.00  0.00    -0.014 A 
BRANCH  39  40
ATOM     40  C   UNL A   1      37.370  32.899  33.498  1.00  0.00     0.031 A 
ATOM     41  C   UNL A   1      38.122  33.180  34.773  1.00  0.00     0.074 A 
ATOM     42  C   UNL A   1      37.846  31.979  32.637  1.00  0.00     0.049 A 
ATOM     43  N   UNL A   1      39.239  32.653  35.211  1.00  0.00    -0.248 NA
ATOM     44  C   UNL A   1      37.548  34.198  35.667  1.00  0.00     0.031 C 
ATOM     45  C   UNL A   1      37.232  31.619  31.360  1.00  0.00     0.029 A 
ATOM     46  N   UNL A   1      38.960  31.180  32.711  1.00  0.00    -0.354 N 
ATOM     47  C   UNL A   1      39.508  33.284  36.419  1.00  0.00     0.074 A 
ATOM     48  C   UNL A   1      38.459  34.260  36.626  1.00  0.00     0.031 C 
ATOM     49  C   UNL A   1      37.967  30.657  30.777  1.00  0.00     0.029 A 
ATOM     50  C   UNL A   1      39.116  30.351  31.626  1.00  0.00     0.049 A 
ATOM     51  H   UNL A   1      39.587  31.197  33.469  1.00  0.00     0.167 HD
ATOM     52  C   UNL A   1      40.522  33.060  37.288  1.00  0.00     0.037 A 
ATOM     53  C   UNL A   1      40.075  29.448  31.347  1.00  0.00     0.037 A 
ATOM     54  C   UNL A   1      41.555  32.075  37.105  1.00  0.00     0.049 A 
ATOM     55  C   UNL A   1      41.192  29.217  32.327  1.00  0.00     0.074 A 
ATOM     56  C   UNL A   1      42.604  31.753  37.951  1.00  0.00     0.029 A 
ATOM     57  N   UNL A   1      41.668  31.247  35.998  1.00  0.00    -0.354 N 
ATOM     58  N   UNL A   1      41.408  29.790  33.485  1.00  0.00    -0.248 NA
ATOM     59  C   UNL A   1      42.194  28.203  31.964  1.00  0.00     0.031 C 
ATOM     60  C   UNL A   1      43.367  30.750  37.343  1.00  0.00     0.029 A 
ATOM     61  C   UNL A   1      42.772  30.422  36.136  1.00  0.00     0.049 A 
ATOM     62  H   UNL A   1      41.054  31.246  35.229  1.00  0.00     0.167 HD
ATOM     63  C   UNL A   1      42.547  29.186  34.002  1.00  0.00     0.074 A 
ATOM     64  C   UNL A   1      42.974  28.197  33.035  1.00  0.00     0.031 C 
ATOM     65  C   UNL A   1      43.179  29.429  35.176  1.00  0.00     0.037 A 
BRANCH  52  66
ATOM     66  C   UNL A   1      40.564  33.904  38.529  1.00  0.00     0.057 A 
ATOM     67  C   UNL A   1      41.327  35.077  38.596  1.00  0.00     0.134 A 
ATOM     68  C   UNL A   1      39.811  33.556  39.657  1.00  0.00     0.134 A 
ATOM     69  F   UNL A   1      42.079  35.459  37.553  1.00  0.00    -0.206 F 
ATOM     70  C   UNL A   1      41.361  35.860  39.751  1.00  0.00     0.040 A 
ATOM     71  C   UNL A   1      39.817  34.345  40.810  1.00  0.00     0.040 A 
ATOM     72  F   UNL A   1      39.052  32.450  39.657  1.00  0.00    -0.206 F 
ATOM     73  C   UNL A   1      40.599  35.496  40.861  1.00  0.00     0.006 A 
ENDBRANCH  52  66
BRANCH  53  74
ATOM     74  C   UNL A   1      40.006  28.662  30.090  1.00  0.00     0.057 A 
ATOM     75  C   UNL A   1      40.665  29.094  28.935  1.00  0.00     0.134 A 
ATOM     76  C   UNL A   1      39.274  27.472  30.012  1.00  0.00     0.134 A 
ATOM     77  F   UNL A   1      41.363  30.239  28.945  1.00  0.00    -0.206 F 
ATOM     78  C   UNL A   1      40.587  28.379  27.738  1.00  0.00     0.040 A 
ATOM     79  C   UNL A   1      39.204  26.736  28.828  1.00  0.00     0.040 A 
ATOM     80  F   UNL A   1      38.623  27.004  31.088  1.00  0.00    -0.206 F 
ATOM     81  C   UNL A   1      39.858  27.193  27.685  1.00  0.00     0.006 A 
ENDBRANCH  53  74
BRANCH  65  82
ATOM     82  C   UNL A   1      44.371  28.579  35.504  1.00  0.00     0.057 A 
ATOM     83  C   UNL A   1      45.669  28.952  35.137  1.00  0.00     0.134 A 
ATOM     84  C   UNL A   1      44.217  27.389  36.226  1.00  0.00     0.134 A 
ATOM     85  F   UNL A   1      45.882  30.075  34.434  1.00  0.00    -0.206 F 
ATOM     86  C   UNL A   1      46.773  28.160  35.460  1.00  0.00     0.040 A 
ATOM     87  C   UNL A   1      45.316  26.600  36.572  1.00  0.00     0.040 A 
ATOM     88  F   UNL A   1      43.001  26.979  36.613  1.00  0.00    -0.206 F 
ATOM     89  C   UNL A   1      46.598  26.982  36.184  1.00  0.00     0.006 A 
ENDBRANCH  65  82
ENDBRANCH  39  40
ENDBRANCH  31  34
ENDBRANCH  29  30
ENDBRANCH  28  29
ENDBRANCH  27  28
ENDBRANCH  26  27
ENDBRANCH  25  26
ENDBRANCH   1  25
TORSDOF 21
ENDMDL
MODEL 3
REMARK VINA RESULT:      -9.5      3.553      8.795
REMARK SMILES C[C@H](Cc1cccs1)N(C)C(=O)[C@@H]([NH3+])CCC(=O)NCCCCCCNC(=O)c1ccc(-c2c3nc(c(-c4c(F)cccc4F)c4ccc([nH]4)c(-c4c(F)cccc4F)c4nc(c(-c5c(F)cccc5F)c5ccc2[nH]5)C=C4)C=C3)cc1
REMARK SMILES IDX 20 1 19 2 17 3 18 4 16 6 15 7 13 8 11 9 12 10 9 11 10 12
REMARK SMILES IDX 2 13 1 14 3 15 4 16 5 17 8 18 6 19 7 20 14 21 21 25 22 26
REMARK SMILES IDX 23 27 24 28 25 29 26 30 27 31 28 33 29 34 30 35 82 36 31 37
REMARK SMILES IDX 81 38 32 39 33 40 34 41 75 42 35 43 80 44 74 45 76 46 36 47
REMARK SMILES IDX 79 48 73 49 72 50 37 52 63 53 46 54 62 55 47 56 50 57 61 58
REMARK SMILES IDX 77 59 48 60 49 61 60 63 78 64 51 65 38 66 39 67 44 68 40 69
REMARK SMILES IDX 41 70 43 71 45 72 42 73 64 74 65 75 70 76 66 77 67 78 69 79
REMARK SMILES IDX 71 80 68 81 52 82 53 83 58 84 54 85 55 86 57 87 59 88 56 89
REMARK H PARENT 19 5 14 22 14 23 14 24 26 32 76 51 50 62
REMARK Flexibility Score: inf
ROOT
ATOM      1  C   UNL A   1      32.873  29.173  25.391  1.00  0.00     0.116 C 
ENDROOT
BRANCH   1   2
ATOM      2  N   UNL A   1      32.649  28.360  24.210  1.00  0.00    -0.356 N 
ATOM      3  C   UNL A   1      31.812  27.305  24.012  1.00  0.00     0.220 C 
ATOM      4  O   UNL A   1      31.859  26.726  22.924  1.00  0.00    -0.275 OA
ATOM      5  H   UNL A   1      33.189  28.611  23.425  1.00  0.00     0.163 HD
BRANCH   3   6
ATOM      6  C   UNL A   1      30.842  26.849  25.089  1.00  0.00     0.106 C 
BRANCH   6   7
ATOM      7  C   UNL A   1      31.432  25.797  26.039  1.00  0.00     0.085 C 
BRANCH   7   8
ATOM      8  C   UNL A   1      31.534  24.390  25.439  1.00  0.00     0.271 C 
BRANCH   8   9
ATOM      9  C   UNL A   1      31.667  23.271  26.518  1.00  0.00     0.280 C 
ATOM     10  O   UNL A   1      30.848  23.293  27.445  1.00  0.00    -0.268 OA
BRANCH   9  11
ATOM     11  N   UNL A   1      32.636  22.275  26.444  1.00  0.00    -0.338 N 
ATOM     12  C   UNL A   1      33.501  21.911  27.562  1.00  0.00     0.147 C 
BRANCH  11  13
ATOM     13  C   UNL A   1      32.664  21.355  25.280  1.00  0.00     0.087 C 
ATOM     14  C   UNL A   1      32.825  19.870  25.638  1.00  0.00     0.031 C 
BRANCH  13  15
ATOM     15  C   UNL A   1      33.587  21.807  24.121  1.00  0.00     0.071 C 
BRANCH  15  16
ATOM     16  C   UNL A   1      34.961  22.297  24.492  1.00  0.00     0.007 A 
ATOM     17  C   UNL A   1      35.405  23.599  24.625  1.00  0.00     0.015 A 
ATOM     18  S   UNL A   1      36.193  21.177  24.920  1.00  0.00    -0.149 S 
ATOM     19  C   UNL A   1      36.776  23.672  25.006  1.00  0.00     0.012 A 
ATOM     20  C   UNL A   1      37.333  22.424  25.162  1.00  0.00     0.065 A 
ENDBRANCH  15  16
ENDBRANCH  13  15
ENDBRANCH  11  13
ENDBRANCH   9  11
ENDBRANCH   8   9
BRANCH   8  21
ATOM     21  N   UNL A   1      30.447  24.129  24.471  1.00  0.00    -0.347 N 
ATOM     22  H   UNL A   1      30.714  24.488  23.555  1.00  0.00     0.345 HD
ATOM     23  H   UNL A   1      29.595  24.593  24.784  1.00  0.00     0.345 HD
ATOM     24  H   UNL A   1      30.284  23.124  24.408  1.00  0.00     0.345 HD
ENDBRANCH   8  21
ENDBRANCH   7   8
ENDBRANCH   6   7
ENDBRANCH   3   6
ENDBRANCH   1   2
BRANCH   1  25
ATOM     25  C   UNL A   1      34.016  28.602  26.236  1.00  0.00     0.021 C 
BRANCH  25  26
ATOM     26  C   UNL A   1      34.257  29.355  27.549  1.00  0.00     0.002 C 
BRANCH  26  27
ATOM     27  C   UNL A   1      34.372  30.880  27.417  1.00  0.00     0.002 C 
BRANCH  27  28
ATOM     28  C   UNL A   1      33.131  31.686  27.814  1.00  0.00     0.021 C 
BRANCH  28  29
ATOM     29  C   UNL A   1      32.870  32.947  26.991  1.00  0.00     0.116 C 
BRANCH  29  30
ATOM     30  N   UNL A   1      32.556  34.096  27.819  1.00  0.00    -0.352 N 
ATOM     31  C   UNL A   1      33.178  34.556  28.951  1.00  0.00     0.251 C 
ATOM     32  H   UNL A   1      31.779  34.624  27.526  1.00  0.00     0.163 HD
ATOM     33  O   UNL A   1      32.643  35.446  29.616  1.00  0.00    -0.269 OA
BRANCH  31  34
ATOM     34  C   UNL A   1      34.479  34.005  29.400  1.00  0.00     0.039 A 
ATOM     35  C   UNL A   1      35.615  34.262  28.622  1.00  0.00     0.014 A 
ATOM     36  C   UNL A   1      34.582  33.164  30.513  1.00  0.00     0.014 A 
ATOM     37  C   UNL A   1      36.846  33.693  28.963  1.00  0.00     0.010 A 
ATOM     38  C   UNL A   1      35.823  32.633  30.881  1.00  0.00     0.010 A 
ATOM     39  C   UNL A   1      36.962  32.874  30.096  1.00  0.00    -0.014 A 
BRANCH  39  40
ATOM     40  C   UNL A   1      38.256  32.216  30.425  1.00  0.00     0.031 A 
ATOM     41  C   UNL A   1      39.203  32.856  31.404  1.00  0.00     0.074 A 
ATOM     42  C   UNL A   1      38.593  31.050  29.841  1.00  0.00     0.049 A 
ATOM     43  N   UNL A   1      40.383  32.450  31.804  1.00  0.00    -0.248 NA
ATOM     44  C   UNL A   1      38.773  34.129  32.004  1.00  0.00     0.031 C 
ATOM     45  C   UNL A   1      37.781  30.328  28.863  1.00  0.00     0.029 A 
ATOM     46  N   UNL A   1      39.713  30.269  29.988  1.00  0.00    -0.354 N 
ATOM     47  C   UNL A   1      40.841  33.421  32.686  1.00  0.00     0.074 A 
ATOM     48  C   UNL A   1      39.830  34.455  32.734  1.00  0.00     0.031 C 
ATOM     49  C   UNL A   1      38.422  29.200  28.510  1.00  0.00     0.029 A 
ATOM     50  C   UNL A   1      39.698  29.133  29.217  1.00  0.00     0.049 A 
ATOM     51  H   UNL A   1      40.457  30.501  30.591  1.00  0.00     0.167 HD
ATOM     52  C   UNL A   1      41.987  33.443  33.407  1.00  0.00     0.037 A 
ATOM     53  C   UNL A   1      40.608  28.148  29.094  1.00  0.00     0.037 A 
ATOM     54  C   UNL A   1      42.987  32.408  33.387  1.00  0.00     0.049 A 
ATOM     55  C   UNL A   1      41.874  28.194  29.904  1.00  0.00     0.074 A 
ATOM     56  C   UNL A   1      44.164  32.328  34.113  1.00  0.00     0.029 A 
ATOM     57  N   UNL A   1      42.925  31.267  32.603  1.00  0.00    -0.354 N 
ATOM     58  N   UNL A   1      42.271  29.097  30.766  1.00  0.00    -0.248 NA
ATOM     59  C   UNL A   1      42.814  27.077  29.731  1.00  0.00     0.031 C 
ATOM     60  C   UNL A   1      44.828  31.154  33.746  1.00  0.00     0.029 A 
ATOM     61  C   UNL A   1      44.046  30.483  32.820  1.00  0.00     0.049 A 
ATOM     62  H   UNL A   1      42.193  31.046  31.983  1.00  0.00     0.167 HD
ATOM     63  C   UNL A   1      43.487  28.642  31.262  1.00  0.00     0.074 A 
ATOM     64  C   UNL A   1      43.760  27.379  30.608  1.00  0.00     0.031 C 
ATOM     65  C   UNL A   1      44.301  29.219  32.178  1.00  0.00     0.037 A 
BRANCH  52  66
ATOM     66  C   UNL A   1      42.223  34.636  34.288  1.00  0.00     0.057 A 
ATOM     67  C   UNL A   1      42.841  35.796  33.804  1.00  0.00     0.134 A 
ATOM     68  C   UNL A   1      41.801  34.635  35.622  1.00  0.00     0.134 A 
ATOM     69  F   UNL A   1      43.278  35.856  32.537  1.00  0.00    -0.206 F 
ATOM     70  C   UNL A   1      43.056  36.905  34.626  1.00  0.00     0.040 A 
ATOM     71  C   UNL A   1      41.989  35.746  36.448  1.00  0.00     0.040 A 
ATOM     72  F   UNL A   1      41.196  33.559  36.146  1.00  0.00    -0.206 F 
ATOM     73  C   UNL A   1      42.624  36.882  35.951  1.00  0.00     0.006 A 
ENDBRANCH  52  66
BRANCH  53  74
ATOM     74  C   UNL A   1      40.342  27.006  28.185  1.00  0.00     0.057 A 
ATOM     75  C   UNL A   1      39.550  25.929  28.596  1.00  0.00     0.134 A 
ATOM     76  C   UNL A   1      40.882  26.958  26.894  1.00  0.00     0.134 A 
ATOM     77  F   UNL A   1      39.026  25.909  29.829  1.00  0.00    -0.206 F 
ATOM     78  C   UNL A   1      39.315  24.834  27.761  1.00  0.00     0.040 A 
ATOM     79  C   UNL A   1      40.638  25.880  26.042  1.00  0.00     0.040 A 
ATOM     80  F   UNL A   1      41.648  27.962  26.442  1.00  0.00    -0.206 F 
ATOM     81  C   UNL A   1      39.856  24.812  26.478  1.00  0.00     0.006 A 
ENDBRANCH  53  74
BRANCH  65  82
ATOM     82  C   UNL A   1      45.540  28.469  32.566  1.00  0.00     0.057 A 
ATOM     83  C   UNL A   1      45.543  27.529  33.603  1.00  0.00     0.134 A 
ATOM     84  C   UNL A   1      46.738  28.668  31.868  1.00  0.00     0.134 A 
ATOM     85  F   UNL A   1      44.431  27.302  34.318  1.00  0.00    -0.206 F 
ATOM     86  C   UNL A   1      46.700  26.827  33.947  1.00  0.00     0.040 A 
ATOM     87  C   UNL A   1      47.896  27.956  32.189  1.00  0.00     0.040 A 
ATOM     88  F   UNL A   1      46.802  29.549  30.859  1.00  0.00    -0.206 F 
ATOM     89  C   UNL A   1      47.879  27.036  33.235  1.00  0.00     0.006 A 
ENDBRANCH  65  82
ENDBRANCH  39  40
ENDBRANCH  31  34
ENDBRANCH  29  30
ENDBRANCH  28  29
ENDBRANCH  27  28
ENDBRANCH  26  27
ENDBRANCH  25  26
ENDBRANCH   1  25
TORSDOF 21
ENDMDL
