MODEL 1
REMARK VINA RESULT:     -11.6      0.000      0.000
REMARK SMILES CC[C@@H]1CCC[C@@](Cc2cccc(O)c2)(C(=O)NCCCCCCNC(=O)c2ccc(-c3c4nc(c(-c5c(F)cccc5F)c5ccc([nH]5)c(-c5c(F)cccc5F)c5nc(c(-c6c(F)cccc6F)c6ccc3[nH]6)C=C5)C=C4)cc2)C1
REMARK SMILES IDX 21 1 20 2 19 3 18 4 16 5 17 6 7 8 3 9 4 10 82 11 5 12 6 13
REMARK SMILES IDX 2 14 1 15 8 16 9 17 10 18 15 19 11 20 13 21 12 22 14 23
REMARK SMILES IDX 22 25 23 26 24 27 25 28 26 29 27 31 28 32 29 33 81 34 30 35
REMARK SMILES IDX 80 36 31 37 32 38 33 39 74 40 34 41 79 42 73 43 75 44 35 45
REMARK SMILES IDX 78 46 72 47 71 48 36 50 62 51 45 52 61 53 46 54 49 55 60 56
REMARK SMILES IDX 76 57 47 58 48 59 59 61 77 62 50 63 37 64 38 65 43 66 39 67
REMARK SMILES IDX 40 68 42 69 44 70 41 71 63 72 64 73 69 74 65 75 66 76 68 77
REMARK SMILES IDX 70 78 67 79 51 80 52 81 57 82 53 83 54 84 56 85 58 86 55 87
REMARK H PARENT 18 7 14 24 25 30 75 49 49 60
REMARK Flexibility Score: inf
ROOT
ATOM      1  C   UNL A   1      32.600  30.011  27.245  1.00  0.00     0.002 C 
ENDROOT
BRANCH   1   2
ATOM      2  C   UNL A   1      33.773  29.469  26.422  1.00  0.00     0.021 C 
BRANCH   2   3
ATOM      3  C   UNL A   1      33.486  29.299  24.937  1.00  0.00     0.116 C 
BRANCH   3   4
ATOM      4  N   UNL A   1      33.845  28.000  24.415  1.00  0.00    -0.356 N 
ATOM      5  C   UNL A   1      33.108  27.040  23.796  1.00  0.00     0.226 C 
ATOM      6  O   UNL A   1      33.768  26.228  23.136  1.00  0.00    -0.274 OA
ATOM      7  H   UNL A   1      34.796  27.769  24.528  1.00  0.00     0.163 HD
BRANCH   5   8
ATOM      8  C   UNL A   1      31.557  26.942  23.855  1.00  0.00     0.053 C 
ATOM      9  C   UNL A   1      31.612  24.478  24.760  1.00  0.00    -0.010 C 
ATOM     10  C   UNL A   1      31.145  24.986  26.134  1.00  0.00     0.003 C 
ATOM     11  C   UNL A   1      31.175  25.430  23.625  1.00  0.00     0.020 C 
ATOM     12  C   UNL A   1      31.459  26.458  26.356  1.00  0.00     0.001 C 
ATOM     13  C   UNL A   1      30.917  27.310  25.211  1.00  0.00     0.017 C 
BRANCH   9  14
ATOM     14  C   UNL A   1      31.083  23.043  24.553  1.00  0.00     0.000 C 
ATOM     15  C   UNL A   1      31.041  22.203  25.820  1.00  0.00     0.004 C 
ENDBRANCH   9  14
BRANCH   8  16
ATOM     16  C   UNL A   1      30.926  27.706  22.647  1.00  0.00     0.052 C 
BRANCH  16  17
ATOM     17  C   UNL A   1      29.759  28.632  22.887  1.00  0.00    -0.043 A 
ATOM     18  C   UNL A   1      29.975  29.994  23.148  1.00  0.00     0.004 A 
ATOM     19  C   UNL A   1      28.442  28.154  22.852  1.00  0.00     0.049 A 
ATOM     20  C   UNL A   1      28.900  30.849  23.415  1.00  0.00     0.004 A 
ATOM     21  C   UNL A   1      27.379  29.011  23.124  1.00  0.00     0.115 A 
ATOM     22  C   UNL A   1      27.596  30.354  23.414  1.00  0.00     0.046 A 
BRANCH  21  23
ATOM     23  O   UNL A   1      26.122  28.482  23.114  1.00  0.00    -0.508 OA
ATOM     24  H   UNL A   1      25.772  28.091  23.891  1.00  0.00     0.293 HD
ENDBRANCH  21  23
ENDBRANCH  16  17
ENDBRANCH   8  16
ENDBRANCH   5   8
ENDBRANCH   3   4
ENDBRANCH   2   3
ENDBRANCH   1   2
BRANCH   1  25
ATOM     25  C   UNL A   1      31.487  30.713  26.456  1.00  0.00     0.002 C 
BRANCH  25  26
ATOM     26  C   UNL A   1      31.383  32.231  26.637  1.00  0.00     0.021 C 
BRANCH  26  27
ATOM     27  C   UNL A   1      32.694  32.945  26.940  1.00  0.00     0.116 C 
BRANCH  27  28
ATOM     28  N   UNL A   1      32.493  34.200  27.643  1.00  0.00    -0.352 N 
ATOM     29  C   UNL A   1      33.129  34.697  28.749  1.00  0.00     0.251 C 
ATOM     30  H   UNL A   1      31.793  34.781  27.267  1.00  0.00     0.163 HD
ATOM     31  O   UNL A   1      32.705  35.719  29.289  1.00  0.00    -0.269 OA
BRANCH  29  32
ATOM     32  C   UNL A   1      34.309  34.009  29.317  1.00  0.00     0.039 A 
ATOM     33  C   UNL A   1      34.103  32.992  30.254  1.00  0.00     0.014 A 
ATOM     34  C   UNL A   1      35.611  34.379  28.965  1.00  0.00     0.014 A 
ATOM     35  C   UNL A   1      35.195  32.316  30.800  1.00  0.00     0.010 A 
ATOM     36  C   UNL A   1      36.697  33.657  29.457  1.00  0.00     0.010 A 
ATOM     37  C   UNL A   1      36.500  32.626  30.388  1.00  0.00    -0.014 A 
BRANCH  37  38
ATOM     38  C   UNL A   1      37.670  31.888  30.930  1.00  0.00     0.031 A 
ATOM     39  C   UNL A   1      38.184  32.194  32.310  1.00  0.00     0.074 A 
ATOM     40  C   UNL A   1      38.300  30.981  30.161  1.00  0.00     0.049 A 
ATOM     41  N   UNL A   1      39.212  31.685  32.940  1.00  0.00    -0.248 NA
ATOM     42  C   UNL A   1      37.464  33.225  33.072  1.00  0.00     0.031 C 
ATOM     43  C   UNL A   1      37.922  30.624  28.791  1.00  0.00     0.029 A 
ATOM     44  N   UNL A   1      39.392  30.193  30.420  1.00  0.00    -0.354 N 
ATOM     45  C   UNL A   1      39.274  32.347  34.160  1.00  0.00     0.074 A 
ATOM     46  C   UNL A   1      38.209  33.326  34.162  1.00  0.00     0.031 C 
ATOM     47  C   UNL A   1      38.751  29.667  28.343  1.00  0.00     0.029 A 
ATOM     48  C   UNL A   1      39.735  29.368  29.377  1.00  0.00     0.049 A 
ATOM     49  H   UNL A   1      39.884  30.217  31.273  1.00  0.00     0.167 HD
ATOM     50  C   UNL A   1      40.127  32.143  35.192  1.00  0.00     0.037 A 
ATOM     51  C   UNL A   1      40.732  28.469  29.269  1.00  0.00     0.037 A 
ATOM     52  C   UNL A   1      41.163  31.144  35.201  1.00  0.00     0.049 A 
ATOM     53  C   UNL A   1      41.666  28.262  30.429  1.00  0.00     0.074 A 
ATOM     54  C   UNL A   1      42.027  30.806  36.228  1.00  0.00     0.029 A 
ATOM     55  N   UNL A   1      41.479  30.325  34.126  1.00  0.00    -0.354 N 
ATOM     56  N   UNL A   1      41.664  28.842  31.605  1.00  0.00    -0.248 NA
ATOM     57  C   UNL A   1      42.737  27.273  30.246  1.00  0.00     0.031 C 
ATOM     58  C   UNL A   1      42.894  29.812  35.760  1.00  0.00     0.029 A 
ATOM     59  C   UNL A   1      42.542  29.501  34.456  1.00  0.00     0.049 A 
ATOM     60  H   UNL A   1      41.015  30.330  33.258  1.00  0.00     0.167 HD
ATOM     61  C   UNL A   1      42.713  28.267  32.312  1.00  0.00     0.074 A 
ATOM     62  C   UNL A   1      43.320  27.287  31.436  1.00  0.00     0.031 C 
ATOM     63  C   UNL A   1      43.132  28.527  33.574  1.00  0.00     0.037 A 
BRANCH  50  64
ATOM     64  C   UNL A   1      39.975  33.024  36.399  1.00  0.00     0.057 A 
ATOM     65  C   UNL A   1      39.066  32.730  37.423  1.00  0.00     0.134 A 
ATOM     66  C   UNL A   1      40.767  34.170  36.549  1.00  0.00     0.134 A 
ATOM     67  F   UNL A   1      38.269  31.654  37.337  1.00  0.00    -0.206 F 
ATOM     68  C   UNL A   1      38.926  33.560  38.537  1.00  0.00     0.040 A 
ATOM     69  C   UNL A   1      40.655  34.993  37.671  1.00  0.00     0.040 A 
ATOM     70  F   UNL A   1      41.663  34.509  35.609  1.00  0.00    -0.206 F 
ATOM     71  C   UNL A   1      39.727  34.693  38.666  1.00  0.00     0.006 A 
ENDBRANCH  50  64
BRANCH  51  72
ATOM     72  C   UNL A   1      40.876  27.665  28.029  1.00  0.00     0.057 A 
ATOM     73  C   UNL A   1      40.250  26.419  27.907  1.00  0.00     0.134 A 
ATOM     74  C   UNL A   1      41.638  28.115  26.946  1.00  0.00     0.134 A 
ATOM     75  F   UNL A   1      39.520  25.928  28.919  1.00  0.00    -0.206 F 
ATOM     76  C   UNL A   1      40.391  25.640  26.757  1.00  0.00     0.040 A 
ATOM     77  C   UNL A   1      41.769  27.356  25.781  1.00  0.00     0.040 A 
ATOM     78  F   UNL A   1      42.255  29.304  26.999  1.00  0.00    -0.206 F 
ATOM     79  C   UNL A   1      41.149  26.112  25.688  1.00  0.00     0.006 A 
ENDBRANCH  51  72
BRANCH  63  80
ATOM     80  C   UNL A   1      44.282  27.714  34.094  1.00  0.00     0.057 A 
ATOM     81  C   UNL A   1      45.603  28.172  34.021  1.00  0.00     0.134 A 
ATOM     82  C   UNL A   1      44.060  26.473  34.703  1.00  0.00     0.134 A 
ATOM     83  F   UNL A   1      45.885  29.347  33.437  1.00  0.00    -0.206 F 
ATOM     84  C   UNL A   1      46.666  27.413  34.514  1.00  0.00     0.040 A 
ATOM     85  C   UNL A   1      45.110  25.716  35.223  1.00  0.00     0.040 A 
ATOM     86  F   UNL A   1      42.816  25.981  34.811  1.00  0.00    -0.206 F 
ATOM     87  C   UNL A   1      46.419  26.183  35.123  1.00  0.00     0.006 A 
ENDBRANCH  63  80
ENDBRANCH  37  38
ENDBRANCH  29  32
ENDBRANCH  27  28
ENDBRANCH  26  27
ENDBRANCH  25  26
ENDBRANCH   1  25
TORSDOF 17
ENDMDL
MODEL 2
REMARK VINA RESULT:     -11.3      3.863      6.129
REMARK SMILES CC[C@@H]1CCC[C@@](Cc2cccc(O)c2)(C(=O)NCCCCCCNC(=O)c2ccc(-c3c4nc(c(-c5c(F)cccc5F)c5ccc([nH]5)c(-c5c(F)cccc5F)c5nc(c(-c6c(F)cccc6F)c6ccc3[nH]6)C=C5)C=C4)cc2)C1
REMARK SMILES IDX 21 1 20 2 19 3 18 4 16 5 17 6 7 8 3 9 4 10 82 11 5 12 6 13
REMARK SMILES IDX 2 14 1 15 8 16 9 17 10 18 15 19 11 20 13 21 12 22 14 23
REMARK SMILES IDX 22 25 23 26 24 27 25 28 26 29 27 31 28 32 29 33 81 34 30 35
REMARK SMILES IDX 80 36 31 37 32 38 33 39 74 40 34 41 79 42 73 43 75 44 35 45
REMARK SMILES IDX 78 46 72 47 71 48 36 50 62 51 45 52 61 53 46 54 49 55 60 56
REMARK SMILES IDX 76 57 47 58 48 59 59 61 77 62 50 63 37 64 38 65 43 66 39 67
REMARK SMILES IDX 40 68 42 69 44 70 41 71 63 72 64 73 69 74 65 75 66 76 68 77
REMARK SMILES IDX 70 78 67 79 51 80 52 81 57 82 53 83 54 84 56 85 58 86 55 87
REMARK H PARENT 18 7 14 24 25 30 75 49 49 60
REMARK Flexibility Score: inf
ROOT
ATOM      1  C   UNL A   1      30.886  26.187  26.131  1.00  0.00     0.002 C 
ENDROOT
BRANCH   1   2
ATOM      2  C   UNL A   1      30.869  26.114  24.601  1.00  0.00     0.021 C 
BRANCH   2   3
ATOM      3  C   UNL A   1      30.681  24.716  24.031  1.00  0.00     0.116 C 
BRANCH   3   4
ATOM      4  N   UNL A   1      31.743  24.295  23.145  1.00  0.00    -0.356 N 
ATOM      5  C   UNL A   1      32.686  23.323  23.263  1.00  0.00     0.226 C 
ATOM      6  O   UNL A   1      33.191  22.962  22.193  1.00  0.00    -0.274 OA
ATOM      7  H   UNL A   1      31.790  24.805  22.303  1.00  0.00     0.163 HD
BRANCH   5   8
ATOM      8  C   UNL A   1      33.112  22.664  24.606  1.00  0.00     0.053 C 
ATOM      9  C   UNL A   1      35.671  22.899  24.066  1.00  0.00    -0.010 C 
ATOM     10  C   UNL A   1      35.781  23.999  25.134  1.00  0.00     0.003 C 
ATOM     11  C   UNL A   1      34.492  21.944  24.356  1.00  0.00     0.020 C 
ATOM     12  C   UNL A   1      34.449  24.673  25.426  1.00  0.00     0.001 C 
ATOM     13  C   UNL A   1      33.379  23.639  25.772  1.00  0.00     0.017 C 
BRANCH   9  14
ATOM     14  C   UNL A   1      37.018  22.152  23.978  1.00  0.00     0.000 C 
ATOM     15  C   UNL A   1      37.128  20.951  24.905  1.00  0.00     0.004 C 
ENDBRANCH   9  14
BRANCH   8  16
ATOM     16  C   UNL A   1      32.119  21.515  24.976  1.00  0.00     0.052 C 
BRANCH  16  17
ATOM     17  C   UNL A   1      32.406  20.111  24.505  1.00  0.00    -0.043 A 
ATOM     18  C   UNL A   1      32.988  19.175  25.375  1.00  0.00     0.004 A 
ATOM     19  C   UNL A   1      32.096  19.712  23.199  1.00  0.00     0.049 A 
ATOM     20  C   UNL A   1      33.298  17.885  24.931  1.00  0.00     0.004 A 
ATOM     21  C   UNL A   1      32.412  18.428  22.764  1.00  0.00     0.115 A 
ATOM     22  C   UNL A   1      33.018  17.511  23.617  1.00  0.00     0.046 A 
BRANCH  21  23
ATOM     23  O   UNL A   1      32.123  18.108  21.471  1.00  0.00    -0.508 OA
ATOM     24  H   UNL A   1      32.318  17.251  21.145  1.00  0.00     0.293 HD
ENDBRANCH  21  23
ENDBRANCH  16  17
ENDBRANCH   8  16
ENDBRANCH   5   8
ENDBRANCH   3   4
ENDBRANCH   2   3
ENDBRANCH   1   2
BRANCH   1  25
ATOM     25  C   UNL A   1      31.459  27.473  26.741  1.00  0.00     0.002 C 
BRANCH  25  26
ATOM     26  C   UNL A   1      32.742  28.013  26.102  1.00  0.00     0.021 C 
BRANCH  26  27
ATOM     27  C   UNL A   1      33.850  28.390  27.076  1.00  0.00     0.116 C 
BRANCH  27  28
ATOM     28  N   UNL A   1      33.721  29.751  27.565  1.00  0.00    -0.352 N 
ATOM     29  C   UNL A   1      34.617  30.523  28.256  1.00  0.00     0.251 C 
ATOM     30  H   UNL A   1      32.859  30.184  27.371  1.00  0.00     0.163 HD
ATOM     31  O   UNL A   1      34.259  31.606  28.720  1.00  0.00    -0.269 OA
BRANCH  29  32
ATOM     32  C   UNL A   1      36.006  30.062  28.470  1.00  0.00     0.039 A 
ATOM     33  C   UNL A   1      36.912  30.153  27.409  1.00  0.00     0.014 A 
ATOM     34  C   UNL A   1      36.413  29.507  29.688  1.00  0.00     0.014 A 
ATOM     35  C   UNL A   1      38.233  29.735  27.583  1.00  0.00     0.010 A 
ATOM     36  C   UNL A   1      37.748  29.156  29.882  1.00  0.00     0.010 A 
ATOM     37  C   UNL A   1      38.668  29.257  28.828  1.00  0.00    -0.014 A 
BRANCH  37  38
ATOM     38  C   UNL A   1      40.080  28.847  29.040  1.00  0.00     0.031 A 
ATOM     39  C   UNL A   1      41.055  29.793  29.683  1.00  0.00     0.074 A 
ATOM     40  C   UNL A   1      40.495  27.642  28.605  1.00  0.00     0.049 A 
ATOM     41  N   UNL A   1      42.333  29.631  29.917  1.00  0.00    -0.248 NA
ATOM     42  C   UNL A   1      40.531  31.105  30.095  1.00  0.00     0.031 C 
ATOM     43  C   UNL A   1      39.656  26.650  27.930  1.00  0.00     0.029 A 
ATOM     44  N   UNL A   1      41.730  27.048  28.665  1.00  0.00    -0.354 N 
ATOM     45  C   UNL A   1      42.768  30.824  30.482  1.00  0.00     0.074 A 
ATOM     46  C   UNL A   1      41.630  31.716  30.513  1.00  0.00     0.031 C 
ATOM     47  C   UNL A   1      40.393  25.559  27.666  1.00  0.00     0.029 A 
ATOM     48  C   UNL A   1      41.760  25.787  28.121  1.00  0.00     0.049 A 
ATOM     49  H   UNL A   1      42.520  27.483  29.060  1.00  0.00     0.167 HD
ATOM     50  C   UNL A   1      43.999  31.139  30.952  1.00  0.00     0.037 A 
ATOM     51  C   UNL A   1      42.777  24.912  28.005  1.00  0.00     0.037 A 
ATOM     52  C   UNL A   1      45.121  30.237  30.951  1.00  0.00     0.049 A 
ATOM     53  C   UNL A   1      44.134  25.286  28.533  1.00  0.00     0.074 A 
ATOM     54  C   UNL A   1      46.386  30.433  31.476  1.00  0.00     0.029 A 
ATOM     55  N   UNL A   1      45.112  28.967  30.393  1.00  0.00    -0.354 N 
ATOM     56  N   UNL A   1      44.512  26.389  29.134  1.00  0.00    -0.248 NA
ATOM     57  C   UNL A   1      45.204  24.293  28.369  1.00  0.00     0.031 C 
ATOM     58  C   UNL A   1      47.156  29.299  31.197  1.00  0.00     0.029 A 
ATOM     59  C   UNL A   1      46.357  28.378  30.537  1.00  0.00     0.049 A 
ATOM     60  H   UNL A   1      44.334  28.547  29.960  1.00  0.00     0.167 HD
ATOM     61  C   UNL A   1      45.854  26.209  29.447  1.00  0.00     0.074 A 
ATOM     62  C   UNL A   1      46.219  24.889  28.978  1.00  0.00     0.031 C 
ATOM     63  C   UNL A   1      46.705  27.061  30.069  1.00  0.00     0.037 A 
BRANCH  50  64
ATOM     64  C   UNL A   1      44.196  32.523  31.502  1.00  0.00     0.057 A 
ATOM     65  C   UNL A   1      43.982  32.821  32.854  1.00  0.00     0.134 A 
ATOM     66  C   UNL A   1      44.628  33.565  30.672  1.00  0.00     0.134 A 
ATOM     67  F   UNL A   1      43.557  31.871  33.701  1.00  0.00    -0.206 F 
ATOM     68  C   UNL A   1      44.159  34.111  33.355  1.00  0.00     0.040 A 
ATOM     69  C   UNL A   1      44.835  34.854  31.166  1.00  0.00     0.040 A 
ATOM     70  F   UNL A   1      44.858  33.349  29.368  1.00  0.00    -0.206 F 
ATOM     71  C   UNL A   1      44.593  35.132  32.511  1.00  0.00     0.006 A 
ENDBRANCH  50  64
BRANCH  51  72
ATOM     72  C   UNL A   1      42.544  23.578  27.397  1.00  0.00     0.057 A 
ATOM     73  C   UNL A   1      42.679  23.386  26.018  1.00  0.00     0.134 A 
ATOM     74  C   UNL A   1      42.180  22.471  28.171  1.00  0.00     0.134 A 
ATOM     75  F   UNL A   1      43.010  24.414  25.222  1.00  0.00    -0.206 F 
ATOM     76  C   UNL A   1      42.444  22.144  25.426  1.00  0.00     0.040 A 
ATOM     77  C   UNL A   1      41.963  21.217  27.595  1.00  0.00     0.040 A 
ATOM     78  F   UNL A   1      42.042  22.588  29.500  1.00  0.00    -0.206 F 
ATOM     79  C   UNL A   1      42.090  21.054  26.217  1.00  0.00     0.006 A 
ENDBRANCH  51  72
BRANCH  63  80
ATOM     80  C   UNL A   1      48.105  26.577  30.308  1.00  0.00     0.057 A 
ATOM     81  C   UNL A   1      49.134  26.811  29.389  1.00  0.00     0.134 A 
ATOM     82  C   UNL A   1      48.431  25.894  31.487  1.00  0.00     0.134 A 
ATOM     83  F   UNL A   1      48.885  27.447  28.235  1.00  0.00    -0.206 F 
ATOM     84  C   UNL A   1      50.436  26.363  29.624  1.00  0.00     0.040 A 
ATOM     85  C   UNL A   1      49.733  25.464  31.745  1.00  0.00     0.040 A 
ATOM     86  F   UNL A   1      47.491  25.644  32.411  1.00  0.00    -0.206 F 
ATOM     87  C   UNL A   1      50.738  25.693  30.808  1.00  0.00     0.006 A 
ENDBRANCH  63  80
ENDBRANCH  37  38
ENDBRANCH  29  32
ENDBRANCH  27  28
ENDBRANCH  26  27
ENDBRANCH  25  26
ENDBRANCH   1  25
TORSDOF 17
ENDMDL
MODEL 3
REMARK VINA RESULT:     -11.3      4.792      9.892
REMARK SMILES CC[C@@H]1CCC[C@@](Cc2cccc(O)c2)(C(=O)NCCCCCCNC(=O)c2ccc(-c3c4nc(c(-c5c(F)cccc5F)c5ccc([nH]5)c(-c5c(F)cccc5F)c5nc(c(-c6c(F)cccc6F)c6ccc3[nH]6)C=C5)C=C4)cc2)C1
REMARK SMILES IDX 21 1 20 2 19 3 18 4 16 5 17 6 7 8 3 9 4 10 82 11 5 12 6 13
REMARK SMILES IDX 2 14 1 15 8 16 9 17 10 18 15 19 11 20 13 21 12 22 14 23
REMARK SMILES IDX 22 25 23 26 24 27 25 28 26 29 27 31 28 32 29 33 81 34 30 35
REMARK SMILES IDX 80 36 31 37 32 38 33 39 74 40 34 41 79 42 73 43 75 44 35 45
REMARK SMILES IDX 78 46 72 47 71 48 36 50 62 51 45 52 61 53 46 54 49 55 60 56
REMARK SMILES IDX 76 57 47 58 48 59 59 61 77 62 50 63 37 64 38 65 43 66 39 67
REMARK SMILES IDX 40 68 42 69 44 70 41 71 63 72 64 73 69 74 65 75 66 76 68 77
REMARK SMILES IDX 70 78 67 79 51 80 52 81 57 82 53 83 54 84 56 85 58 86 55 87
REMARK H PARENT 18 7 14 24 25 30 75 49 49 60
REMARK Flexibility Score: inf
ROOT
ATOM      1  C   UNL A   1      37.766  21.790  24.802  1.00  0.00     0.002 C 
ENDROOT
BRANCH   1   2
ATOM      2  C   UNL A   1      36.981  22.683  25.769  1.00  0.00     0.021 C 
BRANCH   2   3
ATOM      3  C   UNL A   1      35.704  22.062  26.315  1.00  0.00     0.116 C 
BRANCH   3   4
ATOM      4  N   UNL A   1      34.635  23.012  26.530  1.00  0.00    -0.356 N 
ATOM      5  C   UNL A   1      33.376  23.084  26.024  1.00  0.00     0.226 C 
ATOM      6  O   UNL A   1      32.593  23.777  26.686  1.00  0.00    -0.274 OA
ATOM      7  H   UNL A   1      34.861  23.737  27.157  1.00  0.00     0.163 HD
BRANCH   5   8
ATOM      8  C   UNL A   1      32.896  22.353  24.738  1.00  0.00     0.053 C 
ATOM      9  C   UNL A   1      32.168  24.590  23.573  1.00  0.00    -0.010 C 
ATOM     10  C   UNL A   1      33.362  24.463  22.613  1.00  0.00     0.003 C 
ATOM     11  C   UNL A   1      31.730  23.212  24.118  1.00  0.00     0.020 C 
ATOM     12  C   UNL A   1      34.478  23.595  23.172  1.00  0.00     0.001 C 
ATOM     13  C   UNL A   1      33.943  22.233  23.610  1.00  0.00     0.017 C 
BRANCH   9  14
ATOM     14  C   UNL A   1      31.019  25.321  22.847  1.00  0.00     0.000 C 
ATOM     15  C   UNL A   1      31.479  26.383  21.860  1.00  0.00     0.004 C 
ENDBRANCH   9  14
BRANCH   8  16
ATOM     16  C   UNL A   1      32.235  20.987  25.115  1.00  0.00     0.052 C 
BRANCH  16  17
ATOM     17  C   UNL A   1      32.716  19.725  24.442  1.00  0.00    -0.043 A 
ATOM     18  C   UNL A   1      33.847  19.048  24.926  1.00  0.00     0.004 A 
ATOM     19  C   UNL A   1      32.045  19.202  23.329  1.00  0.00     0.049 A 
ATOM     20  C   UNL A   1      34.323  17.902  24.280  1.00  0.00     0.004 A 
ATOM     21  C   UNL A   1      32.529  18.064  22.689  1.00  0.00     0.115 A 
ATOM     22  C   UNL A   1      33.668  17.412  23.151  1.00  0.00     0.046 A 
BRANCH  21  23
ATOM     23  O   UNL A   1      31.858  17.623  21.587  1.00  0.00    -0.508 OA
ATOM     24  H   UNL A   1      32.020  18.016  20.752  1.00  0.00     0.293 HD
ENDBRANCH  21  23
ENDBRANCH  16  17
ENDBRANCH   8  16
ENDBRANCH   5   8
ENDBRANCH   3   4
ENDBRANCH   2   3
ENDBRANCH   1   2
BRANCH   1  25
ATOM     25  C   UNL A   1      37.280  20.340  24.672  1.00  0.00     0.002 C 
BRANCH  25  26
ATOM     26  C   UNL A   1      38.300  19.251  25.015  1.00  0.00     0.021 C 
BRANCH  26  27
ATOM     27  C   UNL A   1      39.304  19.612  26.103  1.00  0.00     0.116 C 
BRANCH  27  28
ATOM     28  N   UNL A   1      40.573  18.927  25.937  1.00  0.00    -0.352 N 
ATOM     29  C   UNL A   1      41.850  19.415  26.018  1.00  0.00     0.251 C 
ATOM     30  H   UNL A   1      40.505  17.966  25.734  1.00  0.00     0.163 HD
ATOM     31  O   UNL A   1      42.798  18.702  25.689  1.00  0.00    -0.269 OA
BRANCH  29  32
ATOM     32  C   UNL A   1      42.103  20.799  26.477  1.00  0.00     0.039 A 
ATOM     33  C   UNL A   1      42.080  21.062  27.850  1.00  0.00     0.014 A 
ATOM     34  C   UNL A   1      42.324  21.841  25.571  1.00  0.00     0.014 A 
ATOM     35  C   UNL A   1      42.325  22.355  28.316  1.00  0.00     0.010 A 
ATOM     36  C   UNL A   1      42.638  23.116  26.039  1.00  0.00     0.010 A 
ATOM     37  C   UNL A   1      42.631  23.388  27.415  1.00  0.00    -0.014 A 
BRANCH  37  38
ATOM     38  C   UNL A   1      42.933  24.759  27.898  1.00  0.00     0.031 A 
ATOM     39  C   UNL A   1      44.356  25.177  28.149  1.00  0.00     0.074 A 
ATOM     40  C   UNL A   1      41.924  25.611  28.160  1.00  0.00     0.049 A 
ATOM     41  N   UNL A   1      44.815  26.314  28.606  1.00  0.00    -0.248 NA
ATOM     42  C   UNL A   1      45.398  24.176  27.875  1.00  0.00     0.031 C 
ATOM     43  C   UNL A   1      40.500  25.312  27.995  1.00  0.00     0.029 A 
ATOM     44  N   UNL A   1      41.941  26.902  28.622  1.00  0.00    -0.354 N 
ATOM     45  C   UNL A   1      46.194  26.158  28.693  1.00  0.00     0.074 A 
ATOM     46  C   UNL A   1      46.490  24.802  28.287  1.00  0.00     0.031 C 
ATOM     47  C   UNL A   1      39.783  26.399  28.321  1.00  0.00     0.029 A 
ATOM     48  C   UNL A   1      40.691  27.457  28.749  1.00  0.00     0.049 A 
ATOM     49  H   UNL A   1      42.770  27.386  28.840  1.00  0.00     0.167 HD
ATOM     50  C   UNL A   1      47.127  27.069  29.059  1.00  0.00     0.037 A 
ATOM     51  C   UNL A   1      40.320  28.684  29.163  1.00  0.00     0.037 A 
ATOM     52  C   UNL A   1      46.831  28.428  29.429  1.00  0.00     0.049 A 
ATOM     53  C   UNL A   1      41.377  29.676  29.565  1.00  0.00     0.074 A 
ATOM     54  C   UNL A   1      47.712  29.449  29.738  1.00  0.00     0.029 A 
ATOM     55  N   UNL A   1      45.553  28.954  29.545  1.00  0.00    -0.354 N 
ATOM     56  N   UNL A   1      42.681  29.538  29.569  1.00  0.00    -0.248 NA
ATOM     57  C   UNL A   1      40.908  30.994  30.015  1.00  0.00     0.031 C 
ATOM     58  C   UNL A   1      46.966  30.581  30.083  1.00  0.00     0.029 A 
ATOM     59  C   UNL A   1      45.621  30.277  29.947  1.00  0.00     0.049 A 
ATOM     60  H   UNL A   1      44.721  28.458  29.367  1.00  0.00     0.167 HD
ATOM     61  C   UNL A   1      43.189  30.760  29.992  1.00  0.00     0.074 A 
ATOM     62  C   UNL A   1      42.053  31.628  30.224  1.00  0.00     0.031 C 
ATOM     63  C   UNL A   1      44.481  31.130  30.169  1.00  0.00     0.037 A 
BRANCH  50  64
ATOM     64  C   UNL A   1      48.560  26.619  29.080  1.00  0.00     0.057 A 
ATOM     65  C   UNL A   1      49.139  26.038  30.215  1.00  0.00     0.134 A 
ATOM     66  C   UNL A   1      49.365  26.748  27.940  1.00  0.00     0.134 A 
ATOM     67  F   UNL A   1      48.427  25.895  31.344  1.00  0.00    -0.206 F 
ATOM     68  C   UNL A   1      50.474  25.630  30.228  1.00  0.00     0.040 A 
ATOM     69  C   UNL A   1      50.693  26.319  27.932  1.00  0.00     0.040 A 
ATOM     70  F   UNL A   1      48.873  27.290  26.815  1.00  0.00    -0.206 F 
ATOM     71  C   UNL A   1      51.254  25.765  29.081  1.00  0.00     0.006 A 
ENDBRANCH  50  64
BRANCH  51  72
ATOM     72  C   UNL A   1      38.884  29.059  29.182  1.00  0.00     0.057 A 
ATOM     73  C   UNL A   1      38.258  29.553  28.033  1.00  0.00     0.134 A 
ATOM     74  C   UNL A   1      38.108  28.937  30.340  1.00  0.00     0.134 A 
ATOM     75  F   UNL A   1      38.955  29.708  26.898  1.00  0.00    -0.206 F 
ATOM     76  C   UNL A   1      36.914  29.930  28.038  1.00  0.00     0.040 A 
ATOM     77  C   UNL A   1      36.757  29.290  30.353  1.00  0.00     0.040 A 
ATOM     78  F   UNL A   1      38.648  28.462  31.472  1.00  0.00    -0.206 F 
ATOM     79  C   UNL A   1      36.159  29.793  29.200  1.00  0.00     0.006 A 
ENDBRANCH  51  72
BRANCH  63  80
ATOM     80  C   UNL A   1      44.735  32.543  30.604  1.00  0.00     0.057 A 
ATOM     81  C   UNL A   1      44.866  33.588  29.682  1.00  0.00     0.134 A 
ATOM     82  C   UNL A   1      44.818  32.866  31.965  1.00  0.00     0.134 A 
ATOM     83  F   UNL A   1      44.811  33.343  28.364  1.00  0.00    -0.206 F 
ATOM     84  C   UNL A   1      45.095  34.901  30.096  1.00  0.00     0.040 A 
ATOM     85  C   UNL A   1      45.020  34.179  32.392  1.00  0.00     0.040 A 
ATOM     86  F   UNL A   1      44.693  31.912  32.900  1.00  0.00    -0.206 F 
ATOM     87  C   UNL A   1      45.165  35.200  31.456  1.00  0.00     0.006 A 
ENDBRANCH  63  80
ENDBRANCH  37  38
ENDBRANCH  29  32
ENDBRANCH  27  28
ENDBRANCH  26  27
ENDBRANCH  25  26
ENDBRANCH   1  25
TORSDOF 17
ENDMDL
