MODEL 1
REMARK VINA RESULT:     -12.3      0.000      0.000
REMARK SMILES Cn1ccc(-c2n[nH]c(=O)n2-c2ccc(C(=O)NCCCCCCNC(=O)c3ccc(-c4c5nc(c(-c6c(F)cccc6F)c6ccc([nH]6)c(-c6c(F)cccc6F)c6nc(c(-c7c(F)cccc7F)c7ccc4[nH]7)C=C6)C=C5)cc3)cc2)n1
REMARK SMILES IDX 21 1 20 2 19 3 18 4 16 5 17 6 15 8 12 9 13 10 83 11 14 12
REMARK SMILES IDX 82 13 11 14 6 15 7 16 8 17 9 18 10 20 5 21 1 22 2 23 3 24
REMARK SMILES IDX 84 25 4 26 22 27 23 28 24 29 25 30 26 31 27 33 28 34 29 35
REMARK SMILES IDX 81 36 30 37 80 38 31 39 32 40 33 41 74 42 34 43 79 44 73 45
REMARK SMILES IDX 75 46 35 47 78 48 72 49 71 50 36 52 62 53 45 54 61 55 46 56
REMARK SMILES IDX 49 57 60 58 76 59 47 60 48 61 59 63 77 64 50 65 37 66 38 67
REMARK SMILES IDX 43 68 39 69 40 70 42 71 44 72 41 73 63 74 64 75 69 76 65 77
REMARK SMILES IDX 66 78 68 79 70 80 67 81 51 82 52 83 57 84 53 85 54 86 56 87
REMARK SMILES IDX 58 88 55 89
REMARK H PARENT 18 7 8 19 25 32 75 51 49 62
REMARK Flexibility Score: inf
ROOT
ATOM      1  C   UNL A   1      31.831  28.679  25.013  1.00  0.00     0.002 C 
ENDROOT
BRANCH   1   2
ATOM      2  C   UNL A   1      31.828  28.966  23.504  1.00  0.00     0.021 C 
BRANCH   2   3
ATOM      3  C   UNL A   1      31.020  27.943  22.702  1.00  0.00     0.116 C 
BRANCH   3   4
ATOM      4  N   UNL A   1      31.865  27.323  21.698  1.00  0.00    -0.352 N 
ATOM      5  C   UNL A   1      32.773  26.297  21.737  1.00  0.00     0.251 C 
ATOM      6  O   UNL A   1      33.358  26.024  20.688  1.00  0.00    -0.269 OA
ATOM      7  H   UNL A   1      31.765  27.723  20.804  1.00  0.00     0.163 HD
BRANCH   5   8
ATOM      8  C   UNL A   1      33.028  25.465  22.946  1.00  0.00     0.039 A 
ATOM      9  C   UNL A   1      33.228  23.859  25.249  1.00  0.00     0.052 A 
ATOM     10  C   UNL A   1      32.515  23.399  24.144  1.00  0.00     0.028 A 
ATOM     11  C   UNL A   1      33.914  25.074  25.167  1.00  0.00     0.028 A 
ATOM     12  C   UNL A   1      32.388  24.216  23.014  1.00  0.00     0.016 A 
ATOM     13  C   UNL A   1      33.864  25.837  23.999  1.00  0.00     0.016 A 
BRANCH   9  14
ATOM     14  N   UNL A   1      33.334  23.089  26.413  1.00  0.00    -0.242 N 
ATOM     15  C   UNL A   1      34.202  22.073  26.682  1.00  0.00     0.189 A 
ATOM     16  N   UNL A   1      33.849  21.296  27.671  1.00  0.00    -0.150 NA
ATOM     17  N   UNL A   1      32.681  21.855  28.117  1.00  0.00    -0.226 N 
ATOM     18  C   UNL A   1      32.340  22.972  27.354  1.00  0.00     0.348 A 
ATOM     19  H   UNL A   1      32.153  21.514  28.875  1.00  0.00     0.195 HD
ATOM     20  O   UNL A   1      31.308  23.620  27.483  1.00  0.00    -0.246 OA
BRANCH  15  21
ATOM     21  C   UNL A   1      35.464  21.896  25.984  1.00  0.00     0.130 A 
ATOM     22  C   UNL A   1      38.933  22.362  25.842  1.00  0.00     0.173 C 
ATOM     23  N   UNL A   1      37.552  22.022  25.590  1.00  0.00    -0.275 N 
ATOM     24  C   UNL A   1      37.079  21.172  24.635  1.00  0.00     0.109 A 
ATOM     25  N   UNL A   1      36.588  22.527  26.379  1.00  0.00    -0.170 NA
ATOM     26  C   UNL A   1      35.733  21.039  24.886  1.00  0.00     0.054 A 
ENDBRANCH  15  21
ENDBRANCH   9  14
ENDBRANCH   5   8
ENDBRANCH   3   4
ENDBRANCH   2   3
ENDBRANCH   1   2
BRANCH   1  27
ATOM     27  C   UNL A   1      32.933  29.394  25.810  1.00  0.00     0.002 C 
BRANCH  27  28
ATOM     28  C   UNL A   1      33.576  28.572  26.937  1.00  0.00     0.021 C 
BRANCH  28  29
ATOM     29  C   UNL A   1      35.033  28.938  27.185  1.00  0.00     0.116 C 
BRANCH  29  30
ATOM     30  N   UNL A   1      35.160  29.900  28.275  1.00  0.00    -0.352 N 
ATOM     31  C   UNL A   1      36.156  30.016  29.213  1.00  0.00     0.251 C 
ATOM     32  H   UNL A   1      34.429  30.556  28.349  1.00  0.00     0.163 HD
ATOM     33  O   UNL A   1      35.959  30.631  30.258  1.00  0.00    -0.269 OA
BRANCH  31  34
ATOM     34  C   UNL A   1      37.463  29.390  28.962  1.00  0.00     0.039 A 
ATOM     35  C   UNL A   1      38.185  29.717  27.810  1.00  0.00     0.014 A 
ATOM     36  C   UNL A   1      37.961  28.466  29.879  1.00  0.00     0.014 A 
ATOM     37  C   UNL A   1      39.449  29.167  27.625  1.00  0.00     0.010 A 
ATOM     38  C   UNL A   1      39.251  28.002  29.749  1.00  0.00     0.010 A 
ATOM     39  C   UNL A   1      39.986  28.326  28.610  1.00  0.00    -0.014 A 
BRANCH  39  40
ATOM     40  C   UNL A   1      41.381  27.901  28.526  1.00  0.00     0.031 A 
ATOM     41  C   UNL A   1      41.607  26.630  27.778  1.00  0.00     0.074 A 
ATOM     42  C   UNL A   1      42.410  28.700  28.878  1.00  0.00     0.049 A 
ATOM     43  N   UNL A   1      42.148  25.543  28.215  1.00  0.00    -0.248 NA
ATOM     44  C   UNL A   1      41.072  26.516  26.410  1.00  0.00     0.031 C 
ATOM     45  C   UNL A   1      42.355  30.084  29.357  1.00  0.00     0.029 A 
ATOM     46  N   UNL A   1      43.748  28.477  28.756  1.00  0.00    -0.354 N 
ATOM     47  C   UNL A   1      42.194  24.664  27.134  1.00  0.00     0.074 A 
ATOM     48  C   UNL A   1      41.381  25.255  26.103  1.00  0.00     0.031 C 
ATOM     49  C   UNL A   1      43.579  30.644  29.254  1.00  0.00     0.029 A 
ATOM     50  C   UNL A   1      44.528  29.625  28.844  1.00  0.00     0.049 A 
ATOM     51  H   UNL A   1      44.129  27.581  28.619  1.00  0.00     0.167 HD
ATOM     52  C   UNL A   1      43.079  23.627  27.105  1.00  0.00     0.037 A 
ATOM     53  C   UNL A   1      45.851  29.736  28.564  1.00  0.00     0.037 A 
ATOM     54  C   UNL A   1      43.604  23.361  28.421  1.00  0.00     0.049 A 
ATOM     55  C   UNL A   1      46.428  28.369  28.616  1.00  0.00     0.074 A 
ATOM     56  C   UNL A   1      43.047  23.027  29.641  1.00  0.00     0.029 A 
ATOM     57  N   UNL A   1      44.878  23.791  28.701  1.00  0.00    -0.354 N 
ATOM     58  N   UNL A   1      46.568  27.686  29.716  1.00  0.00    -0.248 NA
ATOM     59  C   UNL A   1      46.437  27.585  27.390  1.00  0.00     0.031 C 
ATOM     60  C   UNL A   1      43.815  23.742  30.603  1.00  0.00     0.029 A 
ATOM     61  C   UNL A   1      44.836  24.408  29.924  1.00  0.00     0.049 A 
ATOM     62  H   UNL A   1      45.673  23.679  28.131  1.00  0.00     0.167 HD
ATOM     63  C   UNL A   1      46.222  26.390  29.367  1.00  0.00     0.074 A 
ATOM     64  C   UNL A   1      46.260  26.365  27.906  1.00  0.00     0.031 C 
ATOM     65  C   UNL A   1      45.652  25.545  30.275  1.00  0.00     0.037 A 
BRANCH  52  66
ATOM     66  C   UNL A   1      43.757  23.101  25.861  1.00  0.00     0.057 A 
ATOM     67  C   UNL A   1      43.786  21.710  25.636  1.00  0.00     0.134 A 
ATOM     68  C   UNL A   1      44.639  23.850  25.056  1.00  0.00     0.134 A 
ATOM     69  F   UNL A   1      42.991  20.882  26.331  1.00  0.00    -0.206 F 
ATOM     70  C   UNL A   1      44.697  21.106  24.761  1.00  0.00     0.040 A 
ATOM     71  C   UNL A   1      45.517  23.260  24.142  1.00  0.00     0.040 A 
ATOM     72  F   UNL A   1      44.775  25.175  25.176  1.00  0.00    -0.206 F 
ATOM     73  C   UNL A   1      45.578  21.882  24.020  1.00  0.00     0.006 A 
ENDBRANCH  52  66
BRANCH  53  74
ATOM     74  C   UNL A   1      46.611  30.900  28.053  1.00  0.00     0.057 A 
ATOM     75  C   UNL A   1      46.186  31.601  26.914  1.00  0.00     0.134 A 
ATOM     76  C   UNL A   1      47.622  31.519  28.810  1.00  0.00     0.134 A 
ATOM     77  F   UNL A   1      45.204  31.117  26.142  1.00  0.00    -0.206 F 
ATOM     78  C   UNL A   1      46.711  32.854  26.567  1.00  0.00     0.040 A 
ATOM     79  C   UNL A   1      48.163  32.764  28.468  1.00  0.00     0.040 A 
ATOM     80  F   UNL A   1      48.061  30.982  29.957  1.00  0.00    -0.206 F 
ATOM     81  C   UNL A   1      47.695  33.445  27.353  1.00  0.00     0.006 A 
ENDBRANCH  53  74
BRANCH  65  82
ATOM     82  C   UNL A   1      45.643  25.959  31.720  1.00  0.00     0.057 A 
ATOM     83  C   UNL A   1      46.735  25.809  32.589  1.00  0.00     0.134 A 
ATOM     84  C   UNL A   1      44.546  26.679  32.205  1.00  0.00     0.134 A 
ATOM     85  F   UNL A   1      47.870  25.229  32.187  1.00  0.00    -0.206 F 
ATOM     86  C   UNL A   1      46.716  26.313  33.894  1.00  0.00     0.040 A 
ATOM     87  C   UNL A   1      44.528  27.218  33.493  1.00  0.00     0.040 A 
ATOM     88  F   UNL A   1      43.488  26.914  31.412  1.00  0.00    -0.206 F 
ATOM     89  C   UNL A   1      45.612  27.027  34.346  1.00  0.00     0.006 A 
ENDBRANCH  65  82
ENDBRANCH  39  40
ENDBRANCH  31  34
ENDBRANCH  29  30
ENDBRANCH  28  29
ENDBRANCH  27  28
ENDBRANCH   1  27
TORSDOF 15
ENDMDL
MODEL 2
REMARK VINA RESULT:     -12.3      2.631      7.513
REMARK SMILES Cn1ccc(-c2n[nH]c(=O)n2-c2ccc(C(=O)NCCCCCCNC(=O)c3ccc(-c4c5nc(c(-c6c(F)cccc6F)c6ccc([nH]6)c(-c6c(F)cccc6F)c6nc(c(-c7c(F)cccc7F)c7ccc4[nH]7)C=C6)C=C5)cc3)cc2)n1
REMARK SMILES IDX 21 1 20 2 19 3 18 4 16 5 17 6 15 8 12 9 13 10 83 11 14 12
REMARK SMILES IDX 82 13 11 14 6 15 7 16 8 17 9 18 10 20 5 21 1 22 2 23 3 24
REMARK SMILES IDX 84 25 4 26 22 27 23 28 24 29 25 30 26 31 27 33 28 34 29 35
REMARK SMILES IDX 81 36 30 37 80 38 31 39 32 40 33 41 74 42 34 43 79 44 73 45
REMARK SMILES IDX 75 46 35 47 78 48 72 49 71 50 36 52 62 53 45 54 61 55 46 56
REMARK SMILES IDX 49 57 60 58 76 59 47 60 48 61 59 63 77 64 50 65 37 66 38 67
REMARK SMILES IDX 43 68 39 69 40 70 42 71 44 72 41 73 63 74 64 75 69 76 65 77
REMARK SMILES IDX 66 78 68 79 70 80 67 81 51 82 52 83 57 84 53 85 54 86 56 87
REMARK SMILES IDX 58 88 55 89
REMARK H PARENT 18 7 8 19 25 32 75 51 49 62
REMARK Flexibility Score: inf
ROOT
ATOM      1  C   UNL A   1      39.278  21.801  26.119  1.00  0.00     0.002 C 
ENDROOT
BRANCH   1   2
ATOM      2  C   UNL A   1      38.974  23.249  26.529  1.00  0.00     0.021 C 
BRANCH   2   3
ATOM      3  C   UNL A   1      37.633  23.755  25.992  1.00  0.00     0.116 C 
BRANCH   3   4
ATOM      4  N   UNL A   1      37.500  23.408  24.590  1.00  0.00    -0.352 N 
ATOM      5  C   UNL A   1      36.425  23.304  23.746  1.00  0.00     0.251 C 
ATOM      6  O   UNL A   1      36.650  22.953  22.587  1.00  0.00    -0.269 OA
ATOM      7  H   UNL A   1      38.359  23.204  24.155  1.00  0.00     0.163 HD
BRANCH   5   8
ATOM      8  C   UNL A   1      35.031  23.660  24.135  1.00  0.00     0.039 A 
ATOM      9  C   UNL A   1      32.442  24.182  25.110  1.00  0.00     0.052 A 
ATOM     10  C   UNL A   1      33.552  24.460  25.907  1.00  0.00     0.028 A 
ATOM     11  C   UNL A   1      32.633  23.733  23.800  1.00  0.00     0.028 A 
ATOM     12  C   UNL A   1      34.835  24.166  25.432  1.00  0.00     0.016 A 
ATOM     13  C   UNL A   1      33.921  23.537  23.300  1.00  0.00     0.016 A 
BRANCH   9  14
ATOM     14  N   UNL A   1      31.143  24.418  25.572  1.00  0.00    -0.242 N 
ATOM     15  C   UNL A   1      30.497  25.610  25.717  1.00  0.00     0.189 A 
ATOM     16  N   UNL A   1      29.453  25.578  26.501  1.00  0.00    -0.150 NA
ATOM     17  N   UNL A   1      29.374  24.262  26.876  1.00  0.00    -0.226 N 
ATOM     18  C   UNL A   1      30.411  23.520  26.310  1.00  0.00     0.348 A 
ATOM     19  H   UNL A   1      28.679  23.891  27.466  1.00  0.00     0.195 HD
ATOM     20  O   UNL A   1      30.628  22.335  26.535  1.00  0.00    -0.246 OA
BRANCH  15  21
ATOM     21  C   UNL A   1      30.881  26.817  25.005  1.00  0.00     0.130 A 
ATOM     22  C   UNL A   1      30.288  29.139  22.451  1.00  0.00     0.173 C 
ATOM     23  N   UNL A   1      30.811  28.380  23.563  1.00  0.00    -0.275 N 
ATOM     24  C   UNL A   1      31.774  28.776  24.443  1.00  0.00     0.109 A 
ATOM     25  N   UNL A   1      30.300  27.169  23.841  1.00  0.00    -0.170 NA
ATOM     26  C   UNL A   1      31.818  27.802  25.413  1.00  0.00     0.054 A 
ENDBRANCH  15  21
ENDBRANCH   9  14
ENDBRANCH   5   8
ENDBRANCH   3   4
ENDBRANCH   2   3
ENDBRANCH   1   2
BRANCH   1  27
ATOM     27  C   UNL A   1      40.425  21.132  26.890  1.00  0.00     0.002 C 
BRANCH  27  28
ATOM     28  C   UNL A   1      41.100  19.947  26.181  1.00  0.00     0.021 C 
BRANCH  28  29
ATOM     29  C   UNL A   1      42.475  19.619  26.746  1.00  0.00     0.116 C 
BRANCH  29  30
ATOM     30  N   UNL A   1      43.475  19.525  25.687  1.00  0.00    -0.352 N 
ATOM     31  C   UNL A   1      44.068  20.532  24.967  1.00  0.00     0.251 C 
ATOM     32  H   UNL A   1      43.764  18.612  25.458  1.00  0.00     0.163 HD
ATOM     33  O   UNL A   1      44.614  20.292  23.894  1.00  0.00    -0.269 OA
BRANCH  31  34
ATOM     34  C   UNL A   1      44.036  21.908  25.486  1.00  0.00     0.039 A 
ATOM     35  C   UNL A   1      43.092  22.817  24.998  1.00  0.00     0.014 A 
ATOM     36  C   UNL A   1      44.962  22.291  26.454  1.00  0.00     0.014 A 
ATOM     37  C   UNL A   1      43.033  24.092  25.550  1.00  0.00     0.010 A 
ATOM     38  C   UNL A   1      44.838  23.515  27.071  1.00  0.00     0.010 A 
ATOM     39  C   UNL A   1      43.896  24.429  26.603  1.00  0.00    -0.014 A 
BRANCH  39  40
ATOM     40  C   UNL A   1      43.716  25.688  27.321  1.00  0.00     0.031 A 
ATOM     41  C   UNL A   1      44.694  26.758  26.970  1.00  0.00     0.074 A 
ATOM     42  C   UNL A   1      42.618  25.956  28.059  1.00  0.00     0.049 A 
ATOM     43  N   UNL A   1      45.517  27.363  27.759  1.00  0.00    -0.248 NA
ATOM     44  C   UNL A   1      44.854  27.127  25.553  1.00  0.00     0.031 C 
ATOM     45  C   UNL A   1      41.437  25.112  28.260  1.00  0.00     0.029 A 
ATOM     46  N   UNL A   1      42.273  27.111  28.691  1.00  0.00    -0.354 N 
ATOM     47  C   UNL A   1      46.173  28.319  26.985  1.00  0.00     0.074 A 
ATOM     48  C   UNL A   1      45.842  28.021  25.616  1.00  0.00     0.031 C 
ATOM     49  C   UNL A   1      40.427  25.861  28.750  1.00  0.00     0.029 A 
ATOM     50  C   UNL A   1      40.927  27.195  29.034  1.00  0.00     0.049 A 
ATOM     51  H   UNL A   1      42.919  27.826  28.889  1.00  0.00     0.167 HD
ATOM     52  C   UNL A   1      46.759  29.409  27.557  1.00  0.00     0.037 A 
ATOM     53  C   UNL A   1      40.265  28.290  29.482  1.00  0.00     0.037 A 
ATOM     54  C   UNL A   1      46.943  29.211  28.973  1.00  0.00     0.049 A 
ATOM     55  C   UNL A   1      41.283  29.237  30.001  1.00  0.00     0.074 A 
ATOM     56  C   UNL A   1      47.611  28.280  29.745  1.00  0.00     0.029 A 
ATOM     57  N   UNL A   1      46.076  29.847  29.827  1.00  0.00    -0.354 N 
ATOM     58  N   UNL A   1      41.976  29.031  31.085  1.00  0.00    -0.248 NA
ATOM     59  C   UNL A   1      41.851  30.205  29.074  1.00  0.00     0.031 C 
ATOM     60  C   UNL A   1      46.765  28.063  30.870  1.00  0.00     0.029 A 
ATOM     61  C   UNL A   1      45.673  28.924  30.755  1.00  0.00     0.049 A 
ATOM     62  H   UNL A   1      45.794  30.790  29.781  1.00  0.00     0.167 HD
ATOM     63  C   UNL A   1      43.252  29.471  30.771  1.00  0.00     0.074 A 
ATOM     64  C   UNL A   1      43.091  30.283  29.566  1.00  0.00     0.031 C 
ATOM     65  C   UNL A   1      44.354  28.898  31.338  1.00  0.00     0.037 A 
BRANCH  52  66
ATOM     66  C   UNL A   1      46.822  30.786  26.935  1.00  0.00     0.057 A 
ATOM     67  C   UNL A   1      48.041  31.492  26.966  1.00  0.00     0.134 A 
ATOM     68  C   UNL A   1      45.695  31.562  26.600  1.00  0.00     0.134 A 
ATOM     69  F   UNL A   1      49.192  30.871  27.264  1.00  0.00    -0.206 F 
ATOM     70  C   UNL A   1      48.114  32.879  26.787  1.00  0.00     0.040 A 
ATOM     71  C   UNL A   1      45.765  32.939  26.369  1.00  0.00     0.040 A 
ATOM     72  F   UNL A   1      44.456  31.060  26.575  1.00  0.00    -0.206 F 
ATOM     73  C   UNL A   1      46.969  33.610  26.502  1.00  0.00     0.006 A 
ENDBRANCH  52  66
BRANCH  53  74
ATOM     74  C   UNL A   1      38.844  28.669  29.309  1.00  0.00     0.057 A 
ATOM     75  C   UNL A   1      37.967  28.716  30.403  1.00  0.00     0.134 A 
ATOM     76  C   UNL A   1      38.367  29.247  28.119  1.00  0.00     0.134 A 
ATOM     77  F   UNL A   1      38.335  28.224  31.594  1.00  0.00    -0.206 F 
ATOM     78  C   UNL A   1      36.708  29.328  30.328  1.00  0.00     0.040 A 
ATOM     79  C   UNL A   1      37.108  29.851  28.027  1.00  0.00     0.040 A 
ATOM     80  F   UNL A   1      39.139  29.327  27.025  1.00  0.00    -0.206 F 
ATOM     81  C   UNL A   1      36.279  29.909  29.140  1.00  0.00     0.006 A 
ENDBRANCH  53  74
BRANCH  65  82
ATOM     82  C   UNL A   1      44.148  27.962  32.496  1.00  0.00     0.057 A 
ATOM     83  C   UNL A   1      43.926  28.379  33.817  1.00  0.00     0.134 A 
ATOM     84  C   UNL A   1      44.011  26.593  32.237  1.00  0.00     0.134 A 
ATOM     85  F   UNL A   1      43.930  29.675  34.148  1.00  0.00    -0.206 F 
ATOM     86  C   UNL A   1      43.628  27.473  34.839  1.00  0.00     0.040 A 
ATOM     87  C   UNL A   1      43.679  25.682  33.241  1.00  0.00     0.040 A 
ATOM     88  F   UNL A   1      44.151  26.126  30.985  1.00  0.00    -0.206 F 
ATOM     89  C   UNL A   1      43.496  26.119  34.550  1.00  0.00     0.006 A 
ENDBRANCH  65  82
ENDBRANCH  39  40
ENDBRANCH  31  34
ENDBRANCH  29  30
ENDBRANCH  28  29
ENDBRANCH  27  28
ENDBRANCH   1  27
TORSDOF 15
ENDMDL
MODEL 3
REMARK VINA RESULT:     -12.0      1.891      5.947
REMARK SMILES Cn1ccc(-c2n[nH]c(=O)n2-c2ccc(C(=O)NCCCCCCNC(=O)c3ccc(-c4c5nc(c(-c6c(F)cccc6F)c6ccc([nH]6)c(-c6c(F)cccc6F)c6nc(c(-c7c(F)cccc7F)c7ccc4[nH]7)C=C6)C=C5)cc3)cc2)n1
REMARK SMILES IDX 21 1 20 2 19 3 18 4 16 5 17 6 15 8 12 9 13 10 83 11 14 12
REMARK SMILES IDX 82 13 11 14 6 15 7 16 8 17 9 18 10 20 5 21 1 22 2 23 3 24
REMARK SMILES IDX 84 25 4 26 22 27 23 28 24 29 25 30 26 31 27 33 28 34 29 35
REMARK SMILES IDX 81 36 30 37 80 38 31 39 32 40 33 41 74 42 34 43 79 44 73 45
REMARK SMILES IDX 75 46 35 47 78 48 72 49 71 50 36 52 62 53 45 54 61 55 46 56
REMARK SMILES IDX 49 57 60 58 76 59 47 60 48 61 59 63 77 64 50 65 37 66 38 67
REMARK SMILES IDX 43 68 39 69 40 70 42 71 44 72 41 73 63 74 64 75 69 76 65 77
REMARK SMILES IDX 66 78 68 79 70 80 67 81 51 82 52 83 57 84 53 85 54 86 56 87
REMARK SMILES IDX 58 88 55 89
REMARK H PARENT 18 7 8 19 25 32 75 51 49 62
REMARK Flexibility Score: inf
ROOT
ATOM      1  C   UNL A   1      31.417  28.585  25.880  1.00  0.00     0.002 C 
ENDROOT
BRANCH   1   2
ATOM      2  C   UNL A   1      31.472  29.467  24.624  1.00  0.00     0.021 C 
BRANCH   2   3
ATOM      3  C   UNL A   1      31.010  28.738  23.360  1.00  0.00     0.116 C 
BRANCH   3   4
ATOM      4  N   UNL A   1      32.141  28.503  22.482  1.00  0.00    -0.352 N 
ATOM      5  C   UNL A   1      33.193  27.625  22.520  1.00  0.00     0.251 C 
ATOM      6  O   UNL A   1      34.021  27.700  21.612  1.00  0.00    -0.269 OA
ATOM      7  H   UNL A   1      32.156  29.097  21.698  1.00  0.00     0.163 HD
BRANCH   5   8
ATOM      8  C   UNL A   1      33.341  26.557  23.549  1.00  0.00     0.039 A 
ATOM      9  C   UNL A   1      33.342  24.493  25.462  1.00  0.00     0.052 A 
ATOM     10  C   UNL A   1      32.808  24.264  24.196  1.00  0.00     0.028 A 
ATOM     11  C   UNL A   1      33.956  25.719  25.737  1.00  0.00     0.028 A 
ATOM     12  C   UNL A   1      32.777  25.303  23.259  1.00  0.00     0.016 A 
ATOM     13  C   UNL A   1      34.010  26.717  24.763  1.00  0.00     0.016 A 
BRANCH   9  14
ATOM     14  N   UNL A   1      33.345  23.491  26.439  1.00  0.00    -0.242 N 
ATOM     15  C   UNL A   1      34.223  22.460  26.595  1.00  0.00     0.189 A 
ATOM     16  N   UNL A   1      33.793  21.479  27.342  1.00  0.00    -0.150 NA
ATOM     17  N   UNL A   1      32.553  21.902  27.744  1.00  0.00    -0.226 N 
ATOM     18  C   UNL A   1      32.253  23.151  27.199  1.00  0.00     0.348 A 
ATOM     19  H   UNL A   1      31.955  21.393  28.337  1.00  0.00     0.195 HD
ATOM     20  O   UNL A   1      31.182  23.733  27.330  1.00  0.00    -0.246 OA
BRANCH  15  21
ATOM     21  C   UNL A   1      35.567  22.466  26.042  1.00  0.00     0.130 A 
ATOM     22  C   UNL A   1      38.885  23.580  26.172  1.00  0.00     0.173 C 
ATOM     23  N   UNL A   1      37.627  22.957  25.832  1.00  0.00    -0.275 N 
ATOM     24  C   UNL A   1      37.429  21.946  24.941  1.00  0.00     0.109 A 
ATOM     25  N   UNL A   1      36.504  23.337  26.466  1.00  0.00    -0.170 NA
ATOM     26  C   UNL A   1      36.111  21.578  25.078  1.00  0.00     0.054 A 
ENDBRANCH  15  21
ENDBRANCH   9  14
ENDBRANCH   5   8
ENDBRANCH   3   4
ENDBRANCH   2   3
ENDBRANCH   1   2
BRANCH   1  27
ATOM     27  C   UNL A   1      32.125  29.165  27.114  1.00  0.00     0.002 C 
BRANCH  27  28
ATOM     28  C   UNL A   1      32.649  30.601  26.965  1.00  0.00     0.021 C 
BRANCH  28  29
ATOM     29  C   UNL A   1      34.073  30.771  27.474  1.00  0.00     0.116 C 
BRANCH  29  30
ATOM     30  N   UNL A   1      34.125  31.688  28.608  1.00  0.00    -0.352 N 
ATOM     31  C   UNL A   1      35.010  31.715  29.658  1.00  0.00     0.251 C 
ATOM     32  H   UNL A   1      33.428  32.384  28.623  1.00  0.00     0.163 HD
ATOM     33  O   UNL A   1      34.727  32.306  30.696  1.00  0.00    -0.269 OA
BRANCH  31  34
ATOM     34  C   UNL A   1      36.301  31.021  29.534  1.00  0.00     0.039 A 
ATOM     35  C   UNL A   1      37.456  31.744  29.221  1.00  0.00     0.014 A 
ATOM     36  C   UNL A   1      36.352  29.641  29.723  1.00  0.00     0.014 A 
ATOM     37  C   UNL A   1      38.678  31.081  29.176  1.00  0.00     0.010 A 
ATOM     38  C   UNL A   1      37.570  29.004  29.781  1.00  0.00     0.010 A 
ATOM     39  C   UNL A   1      38.732  29.713  29.479  1.00  0.00    -0.014 A 
BRANCH  39  40
ATOM     40  C   UNL A   1      40.024  29.049  29.629  1.00  0.00     0.031 A 
ATOM     41  C   UNL A   1      40.503  28.916  31.035  1.00  0.00     0.074 A 
ATOM     42  C   UNL A   1      40.628  28.391  28.617  1.00  0.00     0.049 A 
ATOM     43  N   UNL A   1      41.596  29.380  31.542  1.00  0.00    -0.248 NA
ATOM     44  C   UNL A   1      39.614  28.284  32.024  1.00  0.00     0.031 C 
ATOM     45  C   UNL A   1      40.136  28.188  27.251  1.00  0.00     0.029 A 
ATOM     46  N   UNL A   1      41.768  27.648  28.638  1.00  0.00    -0.354 N 
ATOM     47  C   UNL A   1      41.629  28.947  32.867  1.00  0.00     0.074 A 
ATOM     48  C   UNL A   1      40.321  28.417  33.148  1.00  0.00     0.031 C 
ATOM     49  C   UNL A   1      40.838  27.196  26.664  1.00  0.00     0.029 A 
ATOM     50  C   UNL A   1      41.916  26.796  27.550  1.00  0.00     0.049 A 
ATOM     51  H   UNL A   1      42.432  27.710  29.362  1.00  0.00     0.167 HD
ATOM     52  C   UNL A   1      42.805  28.862  33.552  1.00  0.00     0.037 A 
ATOM     53  C   UNL A   1      42.834  25.808  27.405  1.00  0.00     0.037 A 
ATOM     54  C   UNL A   1      43.840  29.622  32.895  1.00  0.00     0.049 A 
ATOM     55  C   UNL A   1      43.939  26.092  28.354  1.00  0.00     0.074 A 
ATOM     56  C   UNL A   1      43.992  30.946  32.532  1.00  0.00     0.029 A 
ATOM     57  N   UNL A   1      44.782  28.929  32.176  1.00  0.00    -0.354 N 
ATOM     58  N   UNL A   1      44.770  27.086  28.219  1.00  0.00    -0.248 NA
ATOM     59  C   UNL A   1      43.846  25.536  29.696  1.00  0.00     0.031 C 
ATOM     60  C   UNL A   1      44.649  30.906  31.269  1.00  0.00     0.029 A 
ATOM     61  C   UNL A   1      44.924  29.571  30.974  1.00  0.00     0.049 A 
ATOM     62  H   UNL A   1      45.267  28.123  32.467  1.00  0.00     0.167 HD
ATOM     63  C   UNL A   1      44.946  27.570  29.506  1.00  0.00     0.074 A 
ATOM     64  C   UNL A   1      44.445  26.513  30.383  1.00  0.00     0.031 C 
ATOM     65  C   UNL A   1      45.202  28.891  29.731  1.00  0.00     0.037 A 
BRANCH  52  66
ATOM     66  C   UNL A   1      43.131  27.811  34.589  1.00  0.00     0.057 A 
ATOM     67  C   UNL A   1      43.276  26.471  34.178  1.00  0.00     0.134 A 
ATOM     68  C   UNL A   1      42.997  27.994  35.980  1.00  0.00     0.134 A 
ATOM     69  F   UNL A   1      43.419  26.158  32.881  1.00  0.00    -0.206 F 
ATOM     70  C   UNL A   1      43.185  25.395  35.068  1.00  0.00     0.040 A 
ATOM     71  C   UNL A   1      42.956  26.928  36.883  1.00  0.00     0.040 A 
ATOM     72  F   UNL A   1      42.800  29.195  36.533  1.00  0.00    -0.206 F 
ATOM     73  C   UNL A   1      43.009  25.621  36.427  1.00  0.00     0.006 A 
ENDBRANCH  52  66
BRANCH  53  74
ATOM     74  C   UNL A   1      42.735  24.531  26.660  1.00  0.00     0.057 A 
ATOM     75  C   UNL A   1      43.328  24.379  25.398  1.00  0.00     0.134 A 
ATOM     76  C   UNL A   1      42.287  23.346  27.270  1.00  0.00     0.134 A 
ATOM     77  F   UNL A   1      43.821  25.440  24.743  1.00  0.00    -0.206 F 
ATOM     78  C   UNL A   1      43.494  23.125  24.794  1.00  0.00     0.040 A 
ATOM     79  C   UNL A   1      42.436  22.089  26.674  1.00  0.00     0.040 A 
ATOM     80  F   UNL A   1      41.768  23.353  28.507  1.00  0.00    -0.206 F 
ATOM     81  C   UNL A   1      43.058  21.972  25.438  1.00  0.00     0.006 A 
ENDBRANCH  53  74
BRANCH  65  82
ATOM     82  C   UNL A   1      45.545  29.758  28.552  1.00  0.00     0.057 A 
ATOM     83  C   UNL A   1      44.603  30.484  27.807  1.00  0.00     0.134 A 
ATOM     84  C   UNL A   1      46.894  29.990  28.260  1.00  0.00     0.134 A 
ATOM     85  F   UNL A   1      43.296  30.412  28.078  1.00  0.00    -0.206 F 
ATOM     86  C   UNL A   1      44.985  31.364  26.790  1.00  0.00     0.040 A 
ATOM     87  C   UNL A   1      47.290  30.893  27.271  1.00  0.00     0.040 A 
ATOM     88  F   UNL A   1      47.854  29.376  28.971  1.00  0.00    -0.206 F 
ATOM     89  C   UNL A   1      46.333  31.576  26.525  1.00  0.00     0.006 A 
ENDBRANCH  65  82
ENDBRANCH  39  40
ENDBRANCH  31  34
ENDBRANCH  29  30
ENDBRANCH  28  29
ENDBRANCH  27  28
ENDBRANCH   1  27
TORSDOF 15
ENDMDL
