MODEL 1
REMARK VINA RESULT:     -10.9      0.000      0.000
REMARK SMILES O=C(COc1ccc(Br)cc1/C=N/Nc1ncccc1[N+](=O)[O-])NCCCCCCNC(=O)c1ccc(-c2c3nc(c(-c4c(F)cccc4F)c4ccc([nH]4)c(-c4c(F)cccc4F)c4nc(c(-c5c(F)cccc5F)c5ccc2[nH]5)C=C4)C=C3)cc1
REMARK SMILES IDX 25 1 24 2 1 3 2 4 3 6 4 7 5 8 6 9 11 10 7 11 10 12 8 13 9 14
REMARK SMILES IDX 12 15 13 16 14 17 15 19 16 20 20 21 17 22 19 23 18 24 21 25
REMARK SMILES IDX 22 26 23 27 26 28 27 29 28 30 29 31 30 32 31 33 32 34 33 36
REMARK SMILES IDX 34 37 35 38 87 39 36 40 86 41 37 42 38 43 39 44 80 45 40 46
REMARK SMILES IDX 85 47 79 48 81 49 41 50 84 51 78 52 77 53 42 55 68 56 51 57
REMARK SMILES IDX 67 58 52 59 55 60 66 61 82 62 53 63 54 64 65 66 83 67 56 68
REMARK SMILES IDX 43 69 44 70 49 71 45 72 46 73 48 74 50 75 47 76 69 77 70 78
REMARK SMILES IDX 75 79 71 80 72 81 74 82 76 83 73 84 57 85 58 86 63 87 59 88
REMARK SMILES IDX 60 89 62 90 64 91 61 92
REMARK H PARENT 24 5 14 18 31 35 81 54 55 65
REMARK Flexibility Score: inf
ROOT
ATOM      1  C   UNL A   1      35.399  23.824  25.848  1.00  0.00     0.116 C 
ENDROOT
BRANCH   1   2
ATOM      2  N   UNL A   1      34.700  25.065  25.602  1.00  0.00    -0.353 N 
ATOM      3  O   UNL A   1      32.690  24.417  26.510  1.00  0.00    -0.271 OA
ATOM      4  C   UNL A   1      33.410  25.292  26.038  1.00  0.00     0.257 C 
ATOM      5  H   UNL A   1      35.161  25.778  25.103  1.00  0.00     0.163 HD
BRANCH   4   6
ATOM      6  C   UNL A   1      32.957  26.750  25.901  1.00  0.00     0.329 C 
BRANCH   6   7
ATOM      7  O   UNL A   1      32.991  27.272  24.567  1.00  0.00    -0.483 OA
BRANCH   7   8
ATOM      8  C   UNL A   1      31.811  27.847  24.167  1.00  0.00     0.129 A 
ATOM      9  C   UNL A   1      31.520  29.185  24.456  1.00  0.00     0.048 A 
ATOM     10  C   UNL A   1      30.917  27.119  23.371  1.00  0.00     0.038 A 
ATOM     11  C   UNL A   1      30.355  29.782  23.971  1.00  0.00     0.019 A 
ATOM     12  C   UNL A   1      29.740  27.713  22.893  1.00  0.00     0.029 A 
ATOM     13  C   UNL A   1      29.472  29.045  23.190  1.00  0.00     0.018 A 
ATOM     14  Br  UNL A   1      27.920  29.873  22.499  1.00  0.00    -0.051 Br
BRANCH  10  15
ATOM     15  C   UNL A   1      31.202  25.722  22.996  1.00  0.00     0.145 C 
ATOM     16  N   UNL A   1      30.653  24.735  23.637  1.00  0.00    -0.181 NA
BRANCH  16  17
ATOM     17  N   UNL A   1      30.923  23.481  23.203  1.00  0.00    -0.256 N 
ATOM     18  H   UNL A   1      30.387  23.153  22.444  1.00  0.00     0.192 HD
BRANCH  17  19
ATOM     19  C   UNL A   1      31.880  22.607  23.715  1.00  0.00     0.225 A 
ATOM     20  N   UNL A   1      31.413  21.809  24.710  1.00  0.00    -0.232 NA
ATOM     21  C   UNL A   1      33.177  22.444  23.248  1.00  0.00     0.313 A 
ATOM     22  C   UNL A   1      32.205  20.814  25.174  1.00  0.00     0.114 A 
ATOM     23  C   UNL A   1      33.986  21.402  23.720  1.00  0.00     0.091 A 
ATOM     24  C   UNL A   1      33.477  20.558  24.698  1.00  0.00     0.027 A 
BRANCH  21  25
ATOM     25  N   UNL A   1      33.755  23.368  22.305  1.00  0.00     0.066 N 
ATOM     26  O   UNL A   1      34.759  23.999  22.659  1.00  0.00    -0.258 OA
ATOM     27  O   UNL A   1      33.262  23.378  21.167  1.00  0.00    -0.258 OA
ENDBRANCH  21  25
ENDBRANCH  17  19
ENDBRANCH  16  17
ENDBRANCH  10  15
ENDBRANCH   7   8
ENDBRANCH   6   7
ENDBRANCH   4   6
ENDBRANCH   1   2
BRANCH   1  28
ATOM     28  C   UNL A   1      36.890  23.923  25.545  1.00  0.00     0.021 C 
BRANCH  28  29
ATOM     29  C   UNL A   1      37.655  22.601  25.684  1.00  0.00     0.002 C 
BRANCH  29  30
ATOM     30  C   UNL A   1      37.393  21.568  24.584  1.00  0.00     0.002 C 
BRANCH  30  31
ATOM     31  C   UNL A   1      38.083  20.215  24.777  1.00  0.00     0.021 C 
BRANCH  31  32
ATOM     32  C   UNL A   1      38.915  20.091  26.048  1.00  0.00     0.116 C 
BRANCH  32  33
ATOM     33  N   UNL A   1      40.071  19.224  25.877  1.00  0.00    -0.352 N 
ATOM     34  C   UNL A   1      41.406  19.516  26.000  1.00  0.00     0.251 C 
ATOM     35  H   UNL A   1      39.865  18.292  25.636  1.00  0.00     0.163 HD
ATOM     36  O   UNL A   1      42.252  18.694  25.654  1.00  0.00    -0.269 OA
BRANCH  34  37
ATOM     37  C   UNL A   1      41.833  20.831  26.524  1.00  0.00     0.039 A 
ATOM     38  C   UNL A   1      42.232  21.821  25.623  1.00  0.00     0.014 A 
ATOM     39  C   UNL A   1      41.842  21.089  27.898  1.00  0.00     0.014 A 
ATOM     40  C   UNL A   1      42.576  23.090  26.094  1.00  0.00     0.010 A 
ATOM     41  C   UNL A   1      42.111  22.375  28.360  1.00  0.00     0.010 A 
ATOM     42  C   UNL A   1      42.482  23.389  27.464  1.00  0.00    -0.014 A 
BRANCH  42  43
ATOM     43  C   UNL A   1      42.763  24.756  27.974  1.00  0.00     0.031 A 
ATOM     44  C   UNL A   1      44.160  25.145  28.377  1.00  0.00     0.074 A 
ATOM     45  C   UNL A   1      41.750  25.630  28.133  1.00  0.00     0.049 A 
ATOM     46  N   UNL A   1      44.588  26.265  28.901  1.00  0.00    -0.248 NA
ATOM     47  C   UNL A   1      45.210  24.132  28.187  1.00  0.00     0.031 C 
ATOM     48  C   UNL A   1      40.345  25.362  27.822  1.00  0.00     0.029 A 
ATOM     49  N   UNL A   1      41.744  26.919  28.607  1.00  0.00    -0.354 N 
ATOM     50  C   UNL A   1      45.949  26.088  29.114  1.00  0.00     0.074 A 
ATOM     51  C   UNL A   1      46.265  24.733  28.715  1.00  0.00     0.031 C 
ATOM     52  C   UNL A   1      39.617  26.458  28.089  1.00  0.00     0.029 A 
ATOM     53  C   UNL A   1      40.494  27.491  28.632  1.00  0.00     0.049 A 
ATOM     54  H   UNL A   1      42.557  27.389  28.901  1.00  0.00     0.167 HD
ATOM     55  C   UNL A   1      46.858  26.979  29.578  1.00  0.00     0.037 A 
ATOM     56  C   UNL A   1      40.098  28.707  29.053  1.00  0.00     0.037 A 
ATOM     57  C   UNL A   1      46.543  28.332  29.959  1.00  0.00     0.049 A 
ATOM     58  C   UNL A   1      41.124  29.670  29.586  1.00  0.00     0.074 A 
ATOM     59  C   UNL A   1      47.402  29.327  30.390  1.00  0.00     0.029 A 
ATOM     60  N   UNL A   1      45.268  28.876  29.963  1.00  0.00    -0.354 N 
ATOM     61  N   UNL A   1      42.419  29.513  29.715  1.00  0.00    -0.248 NA
ATOM     62  C   UNL A   1      40.633  30.984  30.025  1.00  0.00     0.031 C 
ATOM     63  C   UNL A   1      46.642  30.456  30.705  1.00  0.00     0.029 A 
ATOM     64  C   UNL A   1      45.314  30.185  30.415  1.00  0.00     0.049 A 
ATOM     65  H   UNL A   1      44.450  28.402  29.686  1.00  0.00     0.167 HD
ATOM     66  C   UNL A   1      42.900  30.714  30.221  1.00  0.00     0.074 A 
ATOM     67  C   UNL A   1      41.761  31.596  30.359  1.00  0.00     0.031 C 
ATOM     68  C   UNL A   1      44.172  31.056  30.540  1.00  0.00     0.037 A 
BRANCH  55  69
ATOM     69  C   UNL A   1      48.283  26.519  29.698  1.00  0.00     0.057 A 
ATOM     70  C   UNL A   1      48.753  25.855  30.839  1.00  0.00     0.134 A 
ATOM     71  C   UNL A   1      49.187  26.708  28.645  1.00  0.00     0.134 A 
ATOM     72  F   UNL A   1      47.942  25.651  31.889  1.00  0.00    -0.206 F 
ATOM     73  C   UNL A   1      50.075  25.420  30.941  1.00  0.00     0.040 A 
ATOM     74  C   UNL A   1      50.504  26.250  28.722  1.00  0.00     0.040 A 
ATOM     75  F   UNL A   1      48.803  27.328  27.519  1.00  0.00    -0.206 F 
ATOM     76  C   UNL A   1      50.954  25.610  29.876  1.00  0.00     0.006 A 
ENDBRANCH  55  69
BRANCH  56  77
ATOM     77  C   UNL A   1      38.665  29.093  28.977  1.00  0.00     0.057 A 
ATOM     78  C   UNL A   1      38.108  29.575  27.786  1.00  0.00     0.134 A 
ATOM     79  C   UNL A   1      37.824  29.007  30.092  1.00  0.00     0.134 A 
ATOM     80  F   UNL A   1      38.868  29.698  26.688  1.00  0.00    -0.206 F 
ATOM     81  C   UNL A   1      36.774  29.978  27.713  1.00  0.00     0.040 A 
ATOM     82  C   UNL A   1      36.481  29.381  30.026  1.00  0.00     0.040 A 
ATOM     83  F   UNL A   1      38.293  28.546  31.262  1.00  0.00    -0.206 F 
ATOM     84  C   UNL A   1      35.955  29.877  28.835  1.00  0.00     0.006 A 
ENDBRANCH  56  77
BRANCH  68  85
ATOM     85  C   UNL A   1      44.407  32.456  31.032  1.00  0.00     0.057 A 
ATOM     86  C   UNL A   1      44.651  33.521  30.155  1.00  0.00     0.134 A 
ATOM     87  C   UNL A   1      44.351  32.746  32.402  1.00  0.00     0.134 A 
ATOM     88  F   UNL A   1      44.730  33.310  28.833  1.00  0.00    -0.206 F 
ATOM     89  C   UNL A   1      44.855  34.820  30.625  1.00  0.00     0.040 A 
ATOM     90  C   UNL A   1      44.522  34.045  32.881  1.00  0.00     0.040 A 
ATOM     91  F   UNL A   1      44.112  31.775  33.295  1.00  0.00    -0.206 F 
ATOM     92  C   UNL A   1      44.783  35.086  31.992  1.00  0.00     0.006 A 
ENDBRANCH  68  85
ENDBRANCH  42  43
ENDBRANCH  34  37
ENDBRANCH  32  33
ENDBRANCH  31  32
ENDBRANCH  30  31
ENDBRANCH  29  30
ENDBRANCH  28  29
ENDBRANCH   1  28
TORSDOF 19
ENDMDL
MODEL 2
REMARK VINA RESULT:     -10.8      1.591      6.203
REMARK SMILES O=C(COc1ccc(Br)cc1/C=N/Nc1ncccc1[N+](=O)[O-])NCCCCCCNC(=O)c1ccc(-c2c3nc(c(-c4c(F)cccc4F)c4ccc([nH]4)c(-c4c(F)cccc4F)c4nc(c(-c5c(F)cccc5F)c5ccc2[nH]5)C=C4)C=C3)cc1
REMARK SMILES IDX 25 1 24 2 1 3 2 4 3 6 4 7 5 8 6 9 11 10 7 11 10 12 8 13 9 14
REMARK SMILES IDX 12 15 13 16 14 17 15 19 16 20 20 21 17 22 19 23 18 24 21 25
REMARK SMILES IDX 22 26 23 27 26 28 27 29 28 30 29 31 30 32 31 33 32 34 33 36
REMARK SMILES IDX 34 37 35 38 87 39 36 40 86 41 37 42 38 43 39 44 80 45 40 46
REMARK SMILES IDX 85 47 79 48 81 49 41 50 84 51 78 52 77 53 42 55 68 56 51 57
REMARK SMILES IDX 67 58 52 59 55 60 66 61 82 62 53 63 54 64 65 66 83 67 56 68
REMARK SMILES IDX 43 69 44 70 49 71 45 72 46 73 48 74 50 75 47 76 69 77 70 78
REMARK SMILES IDX 75 79 71 80 72 81 74 82 76 83 73 84 57 85 58 86 63 87 59 88
REMARK SMILES IDX 60 89 62 90 64 91 61 92
REMARK H PARENT 24 5 14 18 31 35 81 54 55 65
REMARK Flexibility Score: inf
ROOT
ATOM      1  C   UNL A   1      35.427  24.022  25.275  1.00  0.00     0.116 C 
ENDROOT
BRANCH   1   2
ATOM      2  N   UNL A   1      34.790  25.026  24.452  1.00  0.00    -0.353 N 
ATOM      3  O   UNL A   1      33.593  26.026  26.140  1.00  0.00    -0.271 OA
ATOM      4  C   UNL A   1      33.982  26.014  24.976  1.00  0.00     0.257 C 
ATOM      5  H   UNL A   1      34.939  25.006  23.479  1.00  0.00     0.163 HD
BRANCH   4   6
ATOM      6  C   UNL A   1      33.623  27.118  23.974  1.00  0.00     0.329 C 
BRANCH   6   7
ATOM      7  O   UNL A   1      32.718  26.722  22.935  1.00  0.00    -0.483 OA
BRANCH   7   8
ATOM      8  C   UNL A   1      31.466  27.274  23.051  1.00  0.00     0.129 A 
ATOM      9  C   UNL A   1      31.218  28.597  22.670  1.00  0.00     0.048 A 
ATOM     10  C   UNL A   1      30.391  26.477  23.467  1.00  0.00     0.038 A 
ATOM     11  C   UNL A   1      29.924  29.120  22.713  1.00  0.00     0.019 A 
ATOM     12  C   UNL A   1      29.093  27.005  23.523  1.00  0.00     0.029 A 
ATOM     13  C   UNL A   1      28.867  28.321  23.136  1.00  0.00     0.018 A 
ATOM     14  Br  UNL A   1      27.113  29.022  23.148  1.00  0.00    -0.051 Br
BRANCH  10  15
ATOM     15  C   UNL A   1      30.592  25.063  23.831  1.00  0.00     0.145 C 
ATOM     16  N   UNL A   1      30.535  24.680  25.071  1.00  0.00    -0.181 NA
BRANCH  16  17
ATOM     17  N   UNL A   1      30.680  23.357  25.322  1.00  0.00    -0.256 N 
ATOM     18  H   UNL A   1      29.926  22.776  25.068  1.00  0.00     0.192 HD
BRANCH  17  19
ATOM     19  C   UNL A   1      31.782  22.732  25.902  1.00  0.00     0.225 A 
ATOM     20  N   UNL A   1      32.066  23.178  27.154  1.00  0.00    -0.232 NA
ATOM     21  C   UNL A   1      32.514  21.686  25.357  1.00  0.00     0.313 A 
ATOM     22  C   UNL A   1      33.015  22.535  27.875  1.00  0.00     0.114 A 
ATOM     23  C   UNL A   1      33.482  21.014  26.114  1.00  0.00     0.091 A 
ATOM     24  C   UNL A   1      33.725  21.444  27.412  1.00  0.00     0.027 A 
BRANCH  21  25
ATOM     25  N   UNL A   1      32.344  21.291  23.982  1.00  0.00     0.066 N 
ATOM     26  O   UNL A   1      32.238  20.082  23.737  1.00  0.00    -0.258 OA
ATOM     27  O   UNL A   1      32.206  22.207  23.156  1.00  0.00    -0.258 OA
ENDBRANCH  21  25
ENDBRANCH  17  19
ENDBRANCH  16  17
ENDBRANCH  10  15
ENDBRANCH   7   8
ENDBRANCH   6   7
ENDBRANCH   4   6
ENDBRANCH   1   2
BRANCH   1  28
ATOM     28  C   UNL A   1      36.548  23.292  24.544  1.00  0.00     0.021 C 
BRANCH  28  29
ATOM     29  C   UNL A   1      37.212  22.173  25.356  1.00  0.00     0.002 C 
BRANCH  29  30
ATOM     30  C   UNL A   1      36.852  20.746  24.931  1.00  0.00     0.002 C 
BRANCH  30  31
ATOM     31  C   UNL A   1      38.003  19.739  24.973  1.00  0.00     0.021 C 
BRANCH  31  32
ATOM     32  C   UNL A   1      39.227  20.191  25.760  1.00  0.00     0.116 C 
BRANCH  32  33
ATOM     33  N   UNL A   1      40.240  19.151  25.866  1.00  0.00    -0.352 N 
ATOM     34  C   UNL A   1      41.582  19.264  26.129  1.00  0.00     0.251 C 
ATOM     35  H   UNL A   1      39.914  18.233  25.729  1.00  0.00     0.163 HD
ATOM     36  O   UNL A   1      42.317  18.285  26.015  1.00  0.00    -0.269 OA
BRANCH  34  37
ATOM     37  C   UNL A   1      42.154  20.569  26.523  1.00  0.00     0.039 A 
ATOM     38  C   UNL A   1      42.665  21.410  25.532  1.00  0.00     0.014 A 
ATOM     39  C   UNL A   1      42.189  20.964  27.863  1.00  0.00     0.014 A 
ATOM     40  C   UNL A   1      43.151  22.674  25.877  1.00  0.00     0.010 A 
ATOM     41  C   UNL A   1      42.601  22.252  28.197  1.00  0.00     0.010 A 
ATOM     42  C   UNL A   1      43.088  23.120  27.208  1.00  0.00    -0.014 A 
BRANCH  42  43
ATOM     43  C   UNL A   1      43.521  24.491  27.581  1.00  0.00     0.031 A 
ATOM     44  C   UNL A   1      42.503  25.534  27.956  1.00  0.00     0.074 A 
ATOM     45  C   UNL A   1      44.827  24.818  27.521  1.00  0.00     0.049 A 
ATOM     46  N   UNL A   1      42.683  26.797  28.249  1.00  0.00    -0.248 NA
ATOM     47  C   UNL A   1      41.096  25.106  27.984  1.00  0.00     0.031 C 
ATOM     48  C   UNL A   1      45.908  23.912  27.130  1.00  0.00     0.029 A 
ATOM     49  N   UNL A   1      45.467  26.004  27.781  1.00  0.00    -0.354 N 
ATOM     50  C   UNL A   1      41.415  27.315  28.483  1.00  0.00     0.074 A 
ATOM     51  C   UNL A   1      40.471  26.245  28.243  1.00  0.00     0.031 C 
ATOM     52  C   UNL A   1      47.079  24.567  27.198  1.00  0.00     0.029 A 
ATOM     53  C   UNL A   1      46.828  25.949  27.594  1.00  0.00     0.049 A 
ATOM     54  H   UNL A   1      44.996  26.818  28.073  1.00  0.00     0.167 HD
ATOM     55  C   UNL A   1      41.069  28.563  28.884  1.00  0.00     0.037 A 
ATOM     56  C   UNL A   1      47.767  26.906  27.719  1.00  0.00     0.037 A 
ATOM     57  C   UNL A   1      42.012  29.621  29.136  1.00  0.00     0.049 A 
ATOM     58  C   UNL A   1      47.354  28.290  28.143  1.00  0.00     0.074 A 
ATOM     59  C   UNL A   1      41.765  30.903  29.597  1.00  0.00     0.029 A 
ATOM     60  N   UNL A   1      43.382  29.524  28.944  1.00  0.00    -0.354 N 
ATOM     61  N   UNL A   1      46.159  28.746  28.428  1.00  0.00    -0.248 NA
ATOM     62  C   UNL A   1      48.423  29.290  28.268  1.00  0.00     0.031 C 
ATOM     63  C   UNL A   1      42.977  31.598  29.632  1.00  0.00     0.029 A 
ATOM     64  C   UNL A   1      43.989  30.731  29.250  1.00  0.00     0.049 A 
ATOM     65  H   UNL A   1      43.853  28.717  28.634  1.00  0.00     0.167 HD
ATOM     66  C   UNL A   1      46.336  30.074  28.796  1.00  0.00     0.074 A 
ATOM     67  C   UNL A   1      47.755  30.346  28.712  1.00  0.00     0.031 C 
ATOM     68  C   UNL A   1      45.405  30.986  29.170  1.00  0.00     0.037 A 
BRANCH  55  69
ATOM     69  C   UNL A   1      39.607  28.851  29.074  1.00  0.00     0.057 A 
ATOM     70  C   UNL A   1      38.788  29.255  28.012  1.00  0.00     0.134 A 
ATOM     71  C   UNL A   1      39.002  28.684  30.327  1.00  0.00     0.134 A 
ATOM     72  F   UNL A   1      39.305  29.444  26.788  1.00  0.00    -0.206 F 
ATOM     73  C   UNL A   1      37.427  29.511  28.193  1.00  0.00     0.040 A 
ATOM     74  C   UNL A   1      37.637  28.907  30.514  1.00  0.00     0.040 A 
ATOM     75  F   UNL A   1      39.725  28.291  31.386  1.00  0.00    -0.206 F 
ATOM     76  C   UNL A   1      36.846  29.329  29.446  1.00  0.00     0.006 A 
ENDBRANCH  55  69
BRANCH  56  77
ATOM     77  C   UNL A   1      49.194  26.590  27.454  1.00  0.00     0.057 A 
ATOM     78  C   UNL A   1      50.060  26.228  28.493  1.00  0.00     0.134 A 
ATOM     79  C   UNL A   1      49.731  26.659  26.164  1.00  0.00     0.134 A 
ATOM     80  F   UNL A   1      49.609  26.163  29.755  1.00  0.00    -0.206 F 
ATOM     81  C   UNL A   1      51.412  25.969  28.263  1.00  0.00     0.040 A 
ATOM     82  C   UNL A   1      51.075  26.374  25.914  1.00  0.00     0.040 A 
ATOM     83  F   UNL A   1      48.955  26.992  25.122  1.00  0.00    -0.206 F 
ATOM     84  C   UNL A   1      51.921  26.037  26.968  1.00  0.00     0.006 A 
ENDBRANCH  56  77
BRANCH  68  85
ATOM     85  C   UNL A   1      45.896  32.352  29.557  1.00  0.00     0.057 A 
ATOM     86  C   UNL A   1      46.002  33.395  28.627  1.00  0.00     0.134 A 
ATOM     87  C   UNL A   1      46.231  32.636  30.888  1.00  0.00     0.134 A 
ATOM     88  F   UNL A   1      45.709  33.187  27.335  1.00  0.00    -0.206 F 
ATOM     89  C   UNL A   1      46.447  34.664  29.003  1.00  0.00     0.040 A 
ATOM     90  C   UNL A   1      46.648  33.908  31.281  1.00  0.00     0.040 A 
ATOM     91  F   UNL A   1      46.143  31.686  31.830  1.00  0.00    -0.206 F 
ATOM     92  C   UNL A   1      46.764  34.925  30.335  1.00  0.00     0.006 A 
ENDBRANCH  68  85
ENDBRANCH  42  43
ENDBRANCH  34  37
ENDBRANCH  32  33
ENDBRANCH  31  32
ENDBRANCH  30  31
ENDBRANCH  29  30
ENDBRANCH  28  29
ENDBRANCH   1  28
TORSDOF 19
ENDMDL
MODEL 3
REMARK VINA RESULT:     -10.5      1.514      6.185
REMARK SMILES O=C(COc1ccc(Br)cc1/C=N/Nc1ncccc1[N+](=O)[O-])NCCCCCCNC(=O)c1ccc(-c2c3nc(c(-c4c(F)cccc4F)c4ccc([nH]4)c(-c4c(F)cccc4F)c4nc(c(-c5c(F)cccc5F)c5ccc2[nH]5)C=C4)C=C3)cc1
REMARK SMILES IDX 25 1 24 2 1 3 2 4 3 6 4 7 5 8 6 9 11 10 7 11 10 12 8 13 9 14
REMARK SMILES IDX 12 15 13 16 14 17 15 19 16 20 20 21 17 22 19 23 18 24 21 25
REMARK SMILES IDX 22 26 23 27 26 28 27 29 28 30 29 31 30 32 31 33 32 34 33 36
REMARK SMILES IDX 34 37 35 38 87 39 36 40 86 41 37 42 38 43 39 44 80 45 40 46
REMARK SMILES IDX 85 47 79 48 81 49 41 50 84 51 78 52 77 53 42 55 68 56 51 57
REMARK SMILES IDX 67 58 52 59 55 60 66 61 82 62 53 63 54 64 65 66 83 67 56 68
REMARK SMILES IDX 43 69 44 70 49 71 45 72 46 73 48 74 50 75 47 76 69 77 70 78
REMARK SMILES IDX 75 79 71 80 72 81 74 82 76 83 73 84 57 85 58 86 63 87 59 88
REMARK SMILES IDX 60 89 62 90 64 91 61 92
REMARK H PARENT 24 5 14 18 31 35 81 54 55 65
REMARK Flexibility Score: inf
ROOT
ATOM      1  C   UNL A   1      35.048  23.283  23.509  1.00  0.00     0.116 C 
ENDROOT
BRANCH   1   2
ATOM      2  N   UNL A   1      34.917  24.448  24.356  1.00  0.00    -0.353 N 
ATOM      3  O   UNL A   1      33.607  25.671  22.917  1.00  0.00    -0.271 OA
ATOM      4  C   UNL A   1      34.123  25.526  24.021  1.00  0.00     0.257 C 
ATOM      5  H   UNL A   1      35.413  24.474  25.206  1.00  0.00     0.163 HD
BRANCH   4   6
ATOM      6  C   UNL A   1      33.924  26.528  25.164  1.00  0.00     0.329 C 
BRANCH   6   7
ATOM      7  O   UNL A   1      32.637  26.480  25.794  1.00  0.00    -0.483 OA
BRANCH   7   8
ATOM      8  C   UNL A   1      31.656  27.142  25.100  1.00  0.00     0.129 A 
ATOM      9  C   UNL A   1      31.839  28.457  24.658  1.00  0.00     0.048 A 
ATOM     10  C   UNL A   1      30.483  26.465  24.738  1.00  0.00     0.038 A 
ATOM     11  C   UNL A   1      30.868  29.090  23.881  1.00  0.00     0.019 A 
ATOM     12  C   UNL A   1      29.501  27.104  23.967  1.00  0.00     0.029 A 
ATOM     13  C   UNL A   1      29.705  28.410  23.536  1.00  0.00     0.018 A 
ATOM     14  Br  UNL A   1      28.416  29.257  22.445  1.00  0.00    -0.051 Br
BRANCH  10  15
ATOM     15  C   UNL A   1      30.265  25.063  25.135  1.00  0.00     0.145 C 
ATOM     16  N   UNL A   1      31.021  24.114  24.672  1.00  0.00    -0.181 NA
BRANCH  16  17
ATOM     17  N   UNL A   1      30.791  22.858  25.122  1.00  0.00    -0.256 N 
ATOM     18  H   UNL A   1      29.866  22.646  25.384  1.00  0.00     0.192 HD
BRANCH  17  19
ATOM     19  C   UNL A   1      31.727  21.833  25.254  1.00  0.00     0.225 A 
ATOM     20  N   UNL A   1      31.536  20.805  24.387  1.00  0.00    -0.232 NA
ATOM     21  C   UNL A   1      32.826  21.829  26.102  1.00  0.00     0.313 A 
ATOM     22  C   UNL A   1      32.473  19.830  24.316  1.00  0.00     0.114 A 
ATOM     23  C   UNL A   1      33.800  20.826  26.012  1.00  0.00     0.091 A 
ATOM     24  C   UNL A   1      33.622  19.810  25.082  1.00  0.00     0.027 A 
BRANCH  21  25
ATOM     25  N   UNL A   1      32.977  22.820  27.137  1.00  0.00     0.066 N 
ATOM     26  O   UNL A   1      33.962  23.566  27.082  1.00  0.00    -0.258 OA
ATOM     27  O   UNL A   1      32.042  22.920  27.947  1.00  0.00    -0.258 OA
ENDBRANCH  21  25
ENDBRANCH  17  19
ENDBRANCH  16  17
ENDBRANCH  10  15
ENDBRANCH   7   8
ENDBRANCH   6   7
ENDBRANCH   4   6
ENDBRANCH   1   2
BRANCH   1  28
ATOM     28  C   UNL A   1      36.500  22.880  23.288  1.00  0.00     0.021 C 
BRANCH  28  29
ATOM     29  C   UNL A   1      37.235  22.429  24.555  1.00  0.00     0.002 C 
BRANCH  29  30
ATOM     30  C   UNL A   1      37.027  20.965  24.955  1.00  0.00     0.002 C 
BRANCH  30  31
ATOM     31  C   UNL A   1      38.264  20.071  24.843  1.00  0.00     0.021 C 
BRANCH  31  32
ATOM     32  C   UNL A   1      39.196  20.107  26.049  1.00  0.00     0.116 C 
BRANCH  32  33
ATOM     33  N   UNL A   1      40.253  19.111  25.967  1.00  0.00    -0.352 N 
ATOM     34  C   UNL A   1      41.613  19.271  26.069  1.00  0.00     0.251 C 
ATOM     35  H   UNL A   1      39.950  18.187  25.815  1.00  0.00     0.163 HD
ATOM     36  O   UNL A   1      42.366  18.336  25.807  1.00  0.00    -0.269 OA
BRANCH  34  37
ATOM     37  C   UNL A   1      42.177  20.578  26.468  1.00  0.00     0.039 A 
ATOM     38  C   UNL A   1      42.622  21.454  25.475  1.00  0.00     0.014 A 
ATOM     39  C   UNL A   1      42.271  20.940  27.815  1.00  0.00     0.014 A 
ATOM     40  C   UNL A   1      43.099  22.718  25.828  1.00  0.00     0.010 A 
ATOM     41  C   UNL A   1      42.674  22.227  28.160  1.00  0.00     0.010 A 
ATOM     42  C   UNL A   1      43.093  23.130  27.171  1.00  0.00    -0.014 A 
BRANCH  42  43
ATOM     43  C   UNL A   1      43.517  24.501  27.558  1.00  0.00     0.031 A 
ATOM     44  C   UNL A   1      42.494  25.530  27.951  1.00  0.00     0.074 A 
ATOM     45  C   UNL A   1      44.821  24.838  27.495  1.00  0.00     0.049 A 
ATOM     46  N   UNL A   1      42.664  26.792  28.257  1.00  0.00    -0.248 NA
ATOM     47  C   UNL A   1      41.090  25.091  27.981  1.00  0.00     0.031 C 
ATOM     48  C   UNL A   1      45.907  23.946  27.087  1.00  0.00     0.029 A 
ATOM     49  N   UNL A   1      45.453  26.027  27.765  1.00  0.00    -0.354 N 
ATOM     50  C   UNL A   1      41.394  27.297  28.503  1.00  0.00     0.074 A 
ATOM     51  C   UNL A   1      40.457  26.221  28.257  1.00  0.00     0.031 C 
ATOM     52  C   UNL A   1      47.072  24.610  27.156  1.00  0.00     0.029 A 
ATOM     53  C   UNL A   1      46.813  25.985  27.570  1.00  0.00     0.049 A 
ATOM     54  H   UNL A   1      44.977  26.833  28.069  1.00  0.00     0.167 HD
ATOM     55  C   UNL A   1      41.040  28.536  28.921  1.00  0.00     0.037 A 
ATOM     56  C   UNL A   1      47.744  26.949  27.701  1.00  0.00     0.037 A 
ATOM     57  C   UNL A   1      41.975  29.600  29.180  1.00  0.00     0.049 A 
ATOM     58  C   UNL A   1      47.323  28.324  28.143  1.00  0.00     0.074 A 
ATOM     59  C   UNL A   1      41.720  30.874  29.657  1.00  0.00     0.029 A 
ATOM     60  N   UNL A   1      43.345  29.516  28.979  1.00  0.00    -0.354 N 
ATOM     61  N   UNL A   1      46.125  28.767  28.440  1.00  0.00    -0.248 NA
ATOM     62  C   UNL A   1      48.384  29.331  28.273  1.00  0.00     0.031 C 
ATOM     63  C   UNL A   1      42.927  31.578  29.693  1.00  0.00     0.029 A 
ATOM     64  C   UNL A   1      43.944  30.725  29.296  1.00  0.00     0.049 A 
ATOM     65  H   UNL A   1      43.821  28.716  28.657  1.00  0.00     0.167 HD
ATOM     66  C   UNL A   1      46.293  30.092  28.821  1.00  0.00     0.074 A 
ATOM     67  C   UNL A   1      47.710  30.376  28.733  1.00  0.00     0.031 C 
ATOM     68  C   UNL A   1      45.358  30.992  29.211  1.00  0.00     0.037 A 
BRANCH  55  69
ATOM     69  C   UNL A   1      39.576  28.810  29.122  1.00  0.00     0.057 A 
ATOM     70  C   UNL A   1      38.956  28.643  30.367  1.00  0.00     0.134 A 
ATOM     71  C   UNL A   1      38.786  29.284  28.066  1.00  0.00     0.134 A 
ATOM     72  F   UNL A   1      39.652  28.182  31.417  1.00  0.00    -0.206 F 
ATOM     73  C   UNL A   1      37.598  28.909  30.549  1.00  0.00     0.040 A 
ATOM     74  C   UNL A   1      37.434  29.583  28.244  1.00  0.00     0.040 A 
ATOM     75  F   UNL A   1      39.316  29.475  26.849  1.00  0.00    -0.206 F 
ATOM     76  C   UNL A   1      36.834  29.388  29.487  1.00  0.00     0.006 A 
ENDBRANCH  55  69
BRANCH  56  77
ATOM     77  C   UNL A   1      49.173  26.647  27.425  1.00  0.00     0.057 A 
ATOM     78  C   UNL A   1      49.710  26.802  26.141  1.00  0.00     0.134 A 
ATOM     79  C   UNL A   1      50.029  26.182  28.429  1.00  0.00     0.134 A 
ATOM     80  F   UNL A   1      48.935  27.227  25.133  1.00  0.00    -0.206 F 
ATOM     81  C   UNL A   1      51.040  26.484  25.861  1.00  0.00     0.040 A 
ATOM     82  C   UNL A   1      51.369  25.887  28.170  1.00  0.00     0.040 A 
ATOM     83  F   UNL A   1      49.580  26.019  29.683  1.00  0.00    -0.206 F 
ATOM     84  C   UNL A   1      51.874  26.029  26.879  1.00  0.00     0.006 A 
ENDBRANCH  56  77
BRANCH  68  85
ATOM     85  C   UNL A   1      45.839  32.358  29.611  1.00  0.00     0.057 A 
ATOM     86  C   UNL A   1      46.243  32.650  30.920  1.00  0.00     0.134 A 
ATOM     87  C   UNL A   1      45.935  33.383  28.661  1.00  0.00     0.134 A 
ATOM     88  F   UNL A   1      46.164  31.718  31.881  1.00  0.00    -0.206 F 
ATOM     89  C   UNL A   1      46.700  33.921  31.276  1.00  0.00     0.040 A 
ATOM     90  C   UNL A   1      46.420  34.648  28.997  1.00  0.00     0.040 A 
ATOM     91  F   UNL A   1      45.575  33.168  27.387  1.00  0.00    -0.206 F 
ATOM     92  C   UNL A   1      46.797  34.921  30.310  1.00  0.00     0.006 A 
ENDBRANCH  68  85
ENDBRANCH  42  43
ENDBRANCH  34  37
ENDBRANCH  32  33
ENDBRANCH  31  32
ENDBRANCH  30  31
ENDBRANCH  29  30
ENDBRANCH  28  29
ENDBRANCH   1  28
TORSDOF 19
ENDMDL
