MODEL 1
REMARK VINA RESULT:     -13.1      0.000      0.000
REMARK SMILES Cc1ccc(S(=O)(=O)n2cc(C(=O)C(=O)NCC(=O)NCCCCCCNC(=O)c3ccc(-c4c5nc(c(-c6c(F)cccc6F)c6ccc([nH]6)c(-c6c(F)cccc6F)c6nc(c(-c7c(F)cccc7F)c7ccc4[nH]7)C=C6)C=C5)cc3)c3ccccc32)cc1
REMARK SMILES IDX 22 1 21 2 20 3 18 4 19 5 17 7 16 8 14 9 15 10 12 12 13 13
REMARK SMILES IDX 11 14 9 15 10 16 89 17 84 18 88 19 85 20 87 21 86 22 6 23
REMARK SMILES IDX 7 24 8 25 5 26 1 27 2 28 3 29 91 30 4 31 90 32 23 33 24 34
REMARK SMILES IDX 25 35 26 36 27 37 28 38 29 40 30 41 31 42 83 43 32 44 82 45
REMARK SMILES IDX 33 46 34 47 35 48 76 49 36 50 81 51 75 52 77 53 37 54 80 55
REMARK SMILES IDX 74 56 73 57 38 59 64 60 47 61 63 62 48 63 51 64 62 65 78 66
REMARK SMILES IDX 49 67 50 68 61 70 79 71 52 72 39 73 40 74 45 75 41 76 42 77
REMARK SMILES IDX 44 78 46 79 43 80 65 81 66 82 71 83 67 84 68 85 70 86 72 87
REMARK SMILES IDX 69 88 53 89 54 90 59 91 55 92 56 93 58 94 60 95 57 96
REMARK H PARENT 20 6 16 11 27 39 77 58 51 69
REMARK Flexibility Score: inf
ROOT
ATOM      1  C   UNL A   1      39.691  21.212  26.362  1.00  0.00     0.021 C 
ENDROOT
BRANCH   1   2
ATOM      2  C   UNL A   1      38.454  21.338  25.473  1.00  0.00     0.116 C 
BRANCH   2   3
ATOM      3  N   UNL A   1      37.520  22.302  26.008  1.00  0.00    -0.355 N 
ATOM      4  C   UNL A   1      36.202  22.487  25.717  1.00  0.00     0.239 C 
ATOM      5  O   UNL A   1      35.582  23.333  26.365  1.00  0.00    -0.273 OA
ATOM      6  H   UNL A   1      37.891  22.915  26.683  1.00  0.00     0.163 HD
BRANCH   4   7
ATOM      7  C   UNL A   1      35.482  21.565  24.726  1.00  0.00     0.216 C 
BRANCH   7   8
ATOM      8  N   UNL A   1      34.562  20.612  25.342  1.00  0.00    -0.340 N 
ATOM      9  C   UNL A   1      33.285  20.223  24.996  1.00  0.00     0.292 C 
ATOM     10  O   UNL A   1      32.736  19.361  25.676  1.00  0.00    -0.265 OA
ATOM     11  H   UNL A   1      34.918  20.169  26.146  1.00  0.00     0.164 HD
BRANCH   9  12
ATOM     12  C   UNL A   1      32.530  20.883  23.809  1.00  0.00     0.252 C 
ATOM     13  O   UNL A   1      32.235  20.183  22.845  1.00  0.00    -0.283 OA
BRANCH  12  14
ATOM     14  C   UNL A   1      32.183  22.316  23.803  1.00  0.00     0.054 A 
ATOM     15  N   UNL A   1      32.083  24.491  23.294  1.00  0.00    -0.240 N 
ATOM     16  C   UNL A   1      32.580  23.278  22.891  1.00  0.00     0.117 A 
ATOM     17  C   UNL A   1      31.332  24.367  24.443  1.00  0.00     0.065 A 
ATOM     18  C   UNL A   1      31.382  23.009  24.787  1.00  0.00     0.012 A 
ATOM     19  C   UNL A   1      30.651  25.311  25.234  1.00  0.00     0.028 A 
ATOM     20  C   UNL A   1      30.704  22.592  25.955  1.00  0.00     0.011 A 
ATOM     21  C   UNL A   1      30.014  24.870  26.396  1.00  0.00     0.002 A 
ATOM     22  C   UNL A   1      30.034  23.527  26.751  1.00  0.00     0.001 A 
BRANCH  15  23
ATOM     23  S   UNL A   1      32.454  25.968  22.527  1.00  0.00     0.268 S 
ATOM     24  O   UNL A   1      31.217  26.392  21.905  1.00  0.00    -0.201 OA
ATOM     25  O   UNL A   1      33.656  25.715  21.751  1.00  0.00    -0.201 OA
BRANCH  23  26
ATOM     26  C   UNL A   1      32.871  27.151  23.780  1.00  0.00     0.088 A 
ATOM     27  C   UNL A   1      33.524  30.085  26.861  1.00  0.00     0.044 C 
ATOM     28  C   UNL A   1      33.315  29.066  25.779  1.00  0.00    -0.051 A 
ATOM     29  C   UNL A   1      32.400  29.318  24.749  1.00  0.00     0.005 A 
ATOM     30  C   UNL A   1      34.026  27.859  25.779  1.00  0.00     0.005 A 
ATOM     31  C   UNL A   1      32.174  28.364  23.756  1.00  0.00     0.022 A 
ATOM     32  C   UNL A   1      33.816  26.907  24.778  1.00  0.00     0.022 A 
ENDBRANCH  23  26
ENDBRANCH  15  23
ENDBRANCH  12  14
ENDBRANCH   9  12
ENDBRANCH   7   8
ENDBRANCH   4   7
ENDBRANCH   2   3
ENDBRANCH   1   2
BRANCH   1  33
ATOM     33  C   UNL A   1      40.463  19.898  26.175  1.00  0.00     0.002 C 
BRANCH  33  34
ATOM     34  C   UNL A   1      41.668  19.697  27.105  1.00  0.00     0.002 C 
BRANCH  34  35
ATOM     35  C   UNL A   1      42.790  18.833  26.533  1.00  0.00     0.021 C 
BRANCH  35  36
ATOM     36  C   UNL A   1      43.379  19.371  25.240  1.00  0.00     0.116 C 
BRANCH  36  37
ATOM     37  N   UNL A   1      44.708  19.943  25.437  1.00  0.00    -0.352 N 
ATOM     38  C   UNL A   1      45.175  21.235  25.290  1.00  0.00     0.251 C 
ATOM     39  H   UNL A   1      45.390  19.295  25.725  1.00  0.00     0.163 HD
ATOM     40  O   UNL A   1      46.370  21.465  25.460  1.00  0.00    -0.269 OA
BRANCH  38  41
ATOM     41  C   UNL A   1      44.224  22.365  25.157  1.00  0.00     0.039 A 
ATOM     42  C   UNL A   1      44.734  23.485  24.484  1.00  0.00     0.014 A 
ATOM     43  C   UNL A   1      43.173  22.500  26.050  1.00  0.00     0.014 A 
ATOM     44  C   UNL A   1      44.485  24.742  25.004  1.00  0.00     0.010 A 
ATOM     45  C   UNL A   1      43.040  23.715  26.668  1.00  0.00     0.010 A 
ATOM     46  C   UNL A   1      43.774  24.806  26.192  1.00  0.00    -0.014 A 
BRANCH  46  47
ATOM     47  C   UNL A   1      43.690  25.984  27.021  1.00  0.00     0.031 A 
ATOM     48  C   UNL A   1      42.394  26.667  27.060  1.00  0.00     0.074 A 
ATOM     49  C   UNL A   1      44.725  26.260  27.843  1.00  0.00     0.049 A 
ATOM     50  N   UNL A   1      42.199  27.837  27.542  1.00  0.00    -0.248 NA
ATOM     51  C   UNL A   1      41.189  26.072  26.487  1.00  0.00     0.031 C 
ATOM     52  C   UNL A   1      44.759  27.147  28.999  1.00  0.00     0.029 A 
ATOM     53  N   UNL A   1      46.066  25.905  27.644  1.00  0.00    -0.354 N 
ATOM     54  C   UNL A   1      40.836  28.024  27.634  1.00  0.00     0.074 A 
ATOM     55  C   UNL A   1      40.261  26.951  26.868  1.00  0.00     0.031 C 
ATOM     56  C   UNL A   1      46.033  27.513  29.228  1.00  0.00     0.029 A 
ATOM     57  C   UNL A   1      46.823  26.999  28.120  1.00  0.00     0.049 A 
ATOM     58  H   UNL A   1      46.410  25.069  27.254  1.00  0.00     0.167 HD
ATOM     59  C   UNL A   1      40.390  28.986  28.489  1.00  0.00     0.037 A 
ATOM     60  C   UNL A   1      47.519  27.779  27.239  1.00  0.00     0.037 A 
ATOM     61  C   UNL A   1      41.532  29.774  28.966  1.00  0.00     0.049 A 
ATOM     62  C   UNL A   1      46.996  29.200  27.194  1.00  0.00     0.074 A 
ATOM     63  C   UNL A   1      42.307  29.701  30.112  1.00  0.00     0.029 A 
ATOM     64  N   UNL A   1      42.268  30.509  28.040  1.00  0.00    -0.354 N 
ATOM     65  N   UNL A   1      45.771  29.544  27.499  1.00  0.00    -0.248 NA
ATOM     66  C   UNL A   1      47.833  30.348  26.862  1.00  0.00     0.031 C 
ATOM     67  C   UNL A   1      43.555  30.324  29.833  1.00  0.00     0.029 A 
ATOM     68  C   UNL A   1      43.525  30.801  28.532  1.00  0.00     0.049 A 
ATOM     69  H   UNL A   1      41.937  30.783  27.154  1.00  0.00     0.167 HD
ATOM     70  C   UNL A   1      45.648  30.910  27.439  1.00  0.00     0.074 A 
ATOM     71  C   UNL A   1      46.971  31.363  27.044  1.00  0.00     0.031 C 
ATOM     72  C   UNL A   1      44.480  31.561  27.731  1.00  0.00     0.037 A 
BRANCH  59  73
ATOM     73  C   UNL A   1      39.008  29.039  29.110  1.00  0.00     0.057 A 
ATOM     74  C   UNL A   1      37.915  29.509  28.352  1.00  0.00     0.134 A 
ATOM     75  C   UNL A   1      38.678  28.725  30.442  1.00  0.00     0.134 A 
ATOM     76  F   UNL A   1      38.035  29.796  27.048  1.00  0.00    -0.206 F 
ATOM     77  C   UNL A   1      36.638  29.720  28.890  1.00  0.00     0.040 A 
ATOM     78  C   UNL A   1      37.411  28.955  31.002  1.00  0.00     0.040 A 
ATOM     79  F   UNL A   1      39.536  28.138  31.277  1.00  0.00    -0.206 F 
ATOM     80  C   UNL A   1      36.385  29.464  30.228  1.00  0.00     0.006 A 
ENDBRANCH  59  73
BRANCH  60  81
ATOM     81  C   UNL A   1      48.044  26.988  26.085  1.00  0.00     0.057 A 
ATOM     82  C   UNL A   1      47.407  27.155  24.838  1.00  0.00     0.134 A 
ATOM     83  C   UNL A   1      49.352  26.496  26.062  1.00  0.00     0.134 A 
ATOM     84  F   UNL A   1      46.140  27.599  24.785  1.00  0.00    -0.206 F 
ATOM     85  C   UNL A   1      48.097  27.024  23.630  1.00  0.00     0.040 A 
ATOM     86  C   UNL A   1      50.042  26.328  24.852  1.00  0.00     0.040 A 
ATOM     87  F   UNL A   1      50.029  26.299  27.202  1.00  0.00    -0.206 F 
ATOM     88  C   UNL A   1      49.436  26.653  23.639  1.00  0.00     0.006 A 
ENDBRANCH  60  81
BRANCH  72  89
ATOM     89  C   UNL A   1      44.140  32.998  27.379  1.00  0.00     0.057 A 
ATOM     90  C   UNL A   1      43.942  33.475  26.075  1.00  0.00     0.134 A 
ATOM     91  C   UNL A   1      43.843  33.943  28.394  1.00  0.00     0.134 A 
ATOM     92  F   UNL A   1      44.042  32.677  25.005  1.00  0.00    -0.206 F 
ATOM     93  C   UNL A   1      43.560  34.796  25.800  1.00  0.00     0.040 A 
ATOM     94  C   UNL A   1      43.386  35.237  28.133  1.00  0.00     0.040 A 
ATOM     95  F   UNL A   1      43.952  33.648  29.699  1.00  0.00    -0.206 F 
ATOM     96  C   UNL A   1      43.265  35.679  26.828  1.00  0.00     0.006 A 
ENDBRANCH  72  89
ENDBRANCH  46  47
ENDBRANCH  38  41
ENDBRANCH  36  37
ENDBRANCH  35  36
ENDBRANCH  34  35
ENDBRANCH  33  34
ENDBRANCH   1  33
TORSDOF 18
ENDMDL
MODEL 2
REMARK VINA RESULT:     -13.0      1.390      1.849
REMARK SMILES Cc1ccc(S(=O)(=O)n2cc(C(=O)C(=O)NCC(=O)NCCCCCCNC(=O)c3ccc(-c4c5nc(c(-c6c(F)cccc6F)c6ccc([nH]6)c(-c6c(F)cccc6F)c6nc(c(-c7c(F)cccc7F)c7ccc4[nH]7)C=C6)C=C5)cc3)c3ccccc32)cc1
REMARK SMILES IDX 22 1 21 2 20 3 18 4 19 5 17 7 16 8 14 9 15 10 12 12 13 13
REMARK SMILES IDX 11 14 9 15 10 16 89 17 84 18 88 19 85 20 87 21 86 22 6 23
REMARK SMILES IDX 7 24 8 25 5 26 1 27 2 28 3 29 91 30 4 31 90 32 23 33 24 34
REMARK SMILES IDX 25 35 26 36 27 37 28 38 29 40 30 41 31 42 83 43 32 44 82 45
REMARK SMILES IDX 33 46 34 47 35 48 76 49 36 50 81 51 75 52 77 53 37 54 80 55
REMARK SMILES IDX 74 56 73 57 38 59 64 60 47 61 63 62 48 63 51 64 62 65 78 66
REMARK SMILES IDX 49 67 50 68 61 70 79 71 52 72 39 73 40 74 45 75 41 76 42 77
REMARK SMILES IDX 44 78 46 79 43 80 65 81 66 82 71 83 67 84 68 85 70 86 72 87
REMARK SMILES IDX 69 88 53 89 54 90 59 91 55 92 56 93 58 94 60 95 57 96
REMARK H PARENT 20 6 16 11 27 39 77 58 51 69
REMARK Flexibility Score: inf
ROOT
ATOM      1  C   UNL A   1      39.444  21.662  26.329  1.00  0.00     0.021 C 
ENDROOT
BRANCH   1   2
ATOM      2  C   UNL A   1      38.221  21.739  25.416  1.00  0.00     0.116 C 
BRANCH   2   3
ATOM      3  N   UNL A   1      37.051  22.178  26.142  1.00  0.00    -0.355 N 
ATOM      4  C   UNL A   1      35.750  21.799  26.001  1.00  0.00     0.239 C 
ATOM      5  O   UNL A   1      34.927  22.260  26.796  1.00  0.00    -0.273 OA
ATOM      6  H   UNL A   1      37.220  22.850  26.841  1.00  0.00     0.163 HD
BRANCH   4   7
ATOM      7  C   UNL A   1      35.354  20.719  24.988  1.00  0.00     0.216 C 
BRANCH   7   8
ATOM      8  N   UNL A   1      34.258  19.855  25.420  1.00  0.00    -0.340 N 
ATOM      9  C   UNL A   1      32.971  19.708  24.944  1.00  0.00     0.292 C 
ATOM     10  O   UNL A   1      32.248  18.870  25.474  1.00  0.00    -0.265 OA
ATOM     11  H   UNL A   1      34.477  19.276  26.185  1.00  0.00     0.164 HD
BRANCH   9  12
ATOM     12  C   UNL A   1      32.422  20.605  23.800  1.00  0.00     0.252 C 
ATOM     13  O   UNL A   1      32.212  20.090  22.706  1.00  0.00    -0.283 OA
BRANCH  12  14
ATOM     14  C   UNL A   1      32.170  22.045  23.988  1.00  0.00     0.054 A 
ATOM     15  N   UNL A   1      31.503  24.009  24.824  1.00  0.00    -0.240 N 
ATOM     16  C   UNL A   1      31.612  22.669  25.091  1.00  0.00     0.117 A 
ATOM     17  C   UNL A   1      32.005  24.313  23.576  1.00  0.00     0.065 A 
ATOM     18  C   UNL A   1      32.428  23.094  23.028  1.00  0.00     0.012 A 
ATOM     19  C   UNL A   1      32.093  25.522  22.862  1.00  0.00     0.028 A 
ATOM     20  C   UNL A   1      32.975  23.105  21.725  1.00  0.00     0.011 A 
ATOM     21  C   UNL A   1      32.614  25.492  21.567  1.00  0.00     0.002 A 
ATOM     22  C   UNL A   1      33.055  24.301  21.005  1.00  0.00     0.001 A 
BRANCH  15  23
ATOM     23  S   UNL A   1      30.737  25.122  25.864  1.00  0.00     0.268 S 
ATOM     24  O   UNL A   1      30.468  24.382  27.079  1.00  0.00    -0.201 OA
ATOM     25  O   UNL A   1      29.672  25.723  25.079  1.00  0.00    -0.201 OA
BRANCH  23  26
ATOM     26  C   UNL A   1      31.899  26.406  26.250  1.00  0.00     0.088 A 
ATOM     27  C   UNL A   1      34.556  29.544  27.516  1.00  0.00     0.044 C 
ATOM     28  C   UNL A   1      33.633  28.455  27.055  1.00  0.00    -0.051 A 
ATOM     29  C   UNL A   1      32.258  28.554  27.304  1.00  0.00     0.005 A 
ATOM     30  C   UNL A   1      34.123  27.336  26.372  1.00  0.00     0.005 A 
ATOM     31  C   UNL A   1      31.394  27.532  26.908  1.00  0.00     0.022 A 
ATOM     32  C   UNL A   1      33.261  26.317  25.958  1.00  0.00     0.022 A 
ENDBRANCH  23  26
ENDBRANCH  15  23
ENDBRANCH  12  14
ENDBRANCH   9  12
ENDBRANCH   7   8
ENDBRANCH   4   7
ENDBRANCH   2   3
ENDBRANCH   1   2
BRANCH   1  33
ATOM     33  C   UNL A   1      40.418  20.529  25.974  1.00  0.00     0.002 C 
BRANCH  33  34
ATOM     34  C   UNL A   1      41.086  19.829  27.167  1.00  0.00     0.002 C 
BRANCH  34  35
ATOM     35  C   UNL A   1      42.428  19.168  26.860  1.00  0.00     0.021 C 
BRANCH  35  36
ATOM     36  C   UNL A   1      43.075  19.662  25.578  1.00  0.00     0.116 C 
BRANCH  36  37
ATOM     37  N   UNL A   1      44.314  20.392  25.833  1.00  0.00    -0.352 N 
ATOM     38  C   UNL A   1      44.553  21.737  26.046  1.00  0.00     0.251 C 
ATOM     39  H   UNL A   1      45.120  19.828  25.859  1.00  0.00     0.163 HD
ATOM     40  O   UNL A   1      45.709  22.128  26.183  1.00  0.00    -0.269 OA
BRANCH  38  41
ATOM     41  C   UNL A   1      43.428  22.660  26.333  1.00  0.00     0.039 A 
ATOM     42  C   UNL A   1      43.324  23.748  25.453  1.00  0.00     0.014 A 
ATOM     43  C   UNL A   1      42.898  22.737  27.611  1.00  0.00     0.014 A 
ATOM     44  C   UNL A   1      43.077  25.004  25.977  1.00  0.00     0.010 A 
ATOM     45  C   UNL A   1      42.805  23.985  28.167  1.00  0.00     0.010 A 
ATOM     46  C   UNL A   1      42.990  25.108  27.356  1.00  0.00    -0.014 A 
BRANCH  46  47
ATOM     47  C   UNL A   1      43.043  26.358  28.077  1.00  0.00     0.031 A 
ATOM     48  C   UNL A   1      41.804  27.139  28.126  1.00  0.00     0.074 A 
ATOM     49  C   UNL A   1      44.145  26.625  28.810  1.00  0.00     0.049 A 
ATOM     50  N   UNL A   1      41.725  28.359  28.509  1.00  0.00    -0.248 NA
ATOM     51  C   UNL A   1      40.526  26.591  27.680  1.00  0.00     0.031 C 
ATOM     52  C   UNL A   1      44.316  27.604  29.875  1.00  0.00     0.029 A 
ATOM     53  N   UNL A   1      45.443  26.151  28.569  1.00  0.00    -0.354 N 
ATOM     54  C   UNL A   1      40.388  28.657  28.661  1.00  0.00     0.074 A 
ATOM     55  C   UNL A   1      39.689  27.569  28.030  1.00  0.00     0.031 C 
ATOM     56  C   UNL A   1      45.626  27.889  29.997  1.00  0.00     0.029 A 
ATOM     57  C   UNL A   1      46.305  27.221  28.898  1.00  0.00     0.049 A 
ATOM     58  H   UNL A   1      45.700  25.260  28.238  1.00  0.00     0.167 HD
ATOM     59  C   UNL A   1      40.067  29.722  29.447  1.00  0.00     0.037 A 
ATOM     60  C   UNL A   1      46.997  27.865  27.911  1.00  0.00     0.037 A 
ATOM     61  C   UNL A   1      41.290  30.458  29.784  1.00  0.00     0.049 A 
ATOM     62  C   UNL A   1      46.575  29.313  27.765  1.00  0.00     0.074 A 
ATOM     63  C   UNL A   1      42.129  30.427  30.886  1.00  0.00     0.029 A 
ATOM     64  N   UNL A   1      42.017  31.051  28.754  1.00  0.00    -0.354 N 
ATOM     65  N   UNL A   1      45.400  29.775  28.106  1.00  0.00    -0.248 NA
ATOM     66  C   UNL A   1      47.469  30.359  27.282  1.00  0.00     0.031 C 
ATOM     67  C   UNL A   1      43.399  30.924  30.481  1.00  0.00     0.029 A 
ATOM     68  C   UNL A   1      43.320  31.287  29.145  1.00  0.00     0.049 A 
ATOM     69  H   UNL A   1      41.651  31.271  27.867  1.00  0.00     0.167 HD
ATOM     70  C   UNL A   1      45.372  31.136  27.927  1.00  0.00     0.074 A 
ATOM     71  C   UNL A   1      46.695  31.450  27.418  1.00  0.00     0.031 C 
ATOM     72  C   UNL A   1      44.274  31.898  28.225  1.00  0.00     0.037 A 
BRANCH  59  73
ATOM     73  C   UNL A   1      38.734  29.935  30.138  1.00  0.00     0.057 A 
ATOM     74  C   UNL A   1      37.926  31.035  29.782  1.00  0.00     0.134 A 
ATOM     75  C   UNL A   1      38.209  29.168  31.196  1.00  0.00     0.134 A 
ATOM     76  F   UNL A   1      38.241  31.836  28.755  1.00  0.00    -0.206 F 
ATOM     77  C   UNL A   1      36.751  31.381  30.465  1.00  0.00     0.040 A 
ATOM     78  C   UNL A   1      37.049  29.517  31.905  1.00  0.00     0.040 A 
ATOM     79  F   UNL A   1      38.752  28.014  31.586  1.00  0.00    -0.206 F 
ATOM     80  C   UNL A   1      36.318  30.633  31.547  1.00  0.00     0.006 A 
ENDBRANCH  59  73
BRANCH  60  81
ATOM     81  C   UNL A   1      47.390  26.938  26.806  1.00  0.00     0.057 A 
ATOM     82  C   UNL A   1      46.668  27.023  25.598  1.00  0.00     0.134 A 
ATOM     83  C   UNL A   1      48.665  26.370  26.739  1.00  0.00     0.134 A 
ATOM     84  F   UNL A   1      45.425  27.534  25.592  1.00  0.00    -0.206 F 
ATOM     85  C   UNL A   1      47.254  26.737  24.362  1.00  0.00     0.040 A 
ATOM     86  C   UNL A   1      49.249  26.046  25.505  1.00  0.00     0.040 A 
ATOM     87  F   UNL A   1      49.416  26.243  27.841  1.00  0.00    -0.206 F 
ATOM     88  C   UNL A   1      48.570  26.290  24.312  1.00  0.00     0.006 A 
ENDBRANCH  60  81
BRANCH  72  89
ATOM     89  C   UNL A   1      44.016  33.321  27.761  1.00  0.00     0.057 A 
ATOM     90  C   UNL A   1      43.827  33.704  26.426  1.00  0.00     0.134 A 
ATOM     91  C   UNL A   1      43.792  34.360  28.701  1.00  0.00     0.134 A 
ATOM     92  F   UNL A   1      43.862  32.818  25.422  1.00  0.00    -0.206 F 
ATOM     93  C   UNL A   1      43.520  35.020  26.049  1.00  0.00     0.040 A 
ATOM     94  C   UNL A   1      43.410  35.655  28.341  1.00  0.00     0.040 A 
ATOM     95  F   UNL A   1      43.903  34.164  30.024  1.00  0.00    -0.206 F 
ATOM     96  C   UNL A   1      43.296  35.997  27.006  1.00  0.00     0.006 A 
ENDBRANCH  72  89
ENDBRANCH  46  47
ENDBRANCH  38  41
ENDBRANCH  36  37
ENDBRANCH  35  36
ENDBRANCH  34  35
ENDBRANCH  33  34
ENDBRANCH   1  33
TORSDOF 18
ENDMDL
MODEL 3
REMARK VINA RESULT:     -12.8      1.381      2.194
REMARK SMILES Cc1ccc(S(=O)(=O)n2cc(C(=O)C(=O)NCC(=O)NCCCCCCNC(=O)c3ccc(-c4c5nc(c(-c6c(F)cccc6F)c6ccc([nH]6)c(-c6c(F)cccc6F)c6nc(c(-c7c(F)cccc7F)c7ccc4[nH]7)C=C6)C=C5)cc3)c3ccccc32)cc1
REMARK SMILES IDX 22 1 21 2 20 3 18 4 19 5 17 7 16 8 14 9 15 10 12 12 13 13
REMARK SMILES IDX 11 14 9 15 10 16 89 17 84 18 88 19 85 20 87 21 86 22 6 23
REMARK SMILES IDX 7 24 8 25 5 26 1 27 2 28 3 29 91 30 4 31 90 32 23 33 24 34
REMARK SMILES IDX 25 35 26 36 27 37 28 38 29 40 30 41 31 42 83 43 32 44 82 45
REMARK SMILES IDX 33 46 34 47 35 48 76 49 36 50 81 51 75 52 77 53 37 54 80 55
REMARK SMILES IDX 74 56 73 57 38 59 64 60 47 61 63 62 48 63 51 64 62 65 78 66
REMARK SMILES IDX 49 67 50 68 61 70 79 71 52 72 39 73 40 74 45 75 41 76 42 77
REMARK SMILES IDX 44 78 46 79 43 80 65 81 66 82 71 83 67 84 68 85 70 86 72 87
REMARK SMILES IDX 69 88 53 89 54 90 59 91 55 92 56 93 58 94 60 95 57 96
REMARK H PARENT 20 6 16 11 27 39 77 58 51 69
REMARK Flexibility Score: inf
ROOT
ATOM      1  C   UNL A   1      38.732  21.880  26.024  1.00  0.00     0.021 C 
ENDROOT
BRANCH   1   2
ATOM      2  C   UNL A   1      37.544  22.511  25.300  1.00  0.00     0.116 C 
BRANCH   2   3
ATOM      3  N   UNL A   1      36.361  22.506  26.131  1.00  0.00    -0.355 N 
ATOM      4  C   UNL A   1      35.256  21.711  26.064  1.00  0.00     0.239 C 
ATOM      5  O   UNL A   1      34.398  21.843  26.939  1.00  0.00    -0.273 OA
ATOM      6  H   UNL A   1      36.353  23.177  26.851  1.00  0.00     0.163 HD
BRANCH   4   7
ATOM      7  C   UNL A   1      35.162  20.587  25.025  1.00  0.00     0.216 C 
BRANCH   7   8
ATOM      8  N   UNL A   1      34.048  19.665  25.229  1.00  0.00    -0.340 N 
ATOM      9  C   UNL A   1      32.826  19.558  24.599  1.00  0.00     0.292 C 
ATOM     10  O   UNL A   1      32.071  18.654  24.944  1.00  0.00    -0.265 OA
ATOM     11  H   UNL A   1      34.198  19.002  25.941  1.00  0.00     0.164 HD
BRANCH   9  12
ATOM     12  C   UNL A   1      32.382  20.576  23.512  1.00  0.00     0.252 C 
ATOM     13  O   UNL A   1      32.091  20.150  22.399  1.00  0.00    -0.283 OA
BRANCH  12  14
ATOM     14  C   UNL A   1      32.324  22.025  23.777  1.00  0.00     0.054 A 
ATOM     15  N   UNL A   1      32.694  24.230  23.707  1.00  0.00    -0.240 N 
ATOM     16  C   UNL A   1      32.976  23.037  23.092  1.00  0.00     0.117 A 
ATOM     17  C   UNL A   1      31.838  24.053  24.773  1.00  0.00     0.065 A 
ATOM     18  C   UNL A   1      31.593  22.675  24.842  1.00  0.00     0.012 A 
ATOM     19  C   UNL A   1      31.290  24.955  25.705  1.00  0.00     0.028 A 
ATOM     20  C   UNL A   1      30.751  22.198  25.872  1.00  0.00     0.011 A 
ATOM     21  C   UNL A   1      30.485  24.447  26.726  1.00  0.00     0.002 A 
ATOM     22  C   UNL A   1      30.212  23.088  26.807  1.00  0.00     0.001 A 
BRANCH  15  23
ATOM     23  S   UNL A   1      33.409  25.713  23.266  1.00  0.00     0.268 S 
ATOM     24  O   UNL A   1      33.822  25.540  21.889  1.00  0.00    -0.201 OA
ATOM     25  O   UNL A   1      34.360  26.018  24.321  1.00  0.00    -0.201 OA
BRANCH  23  26
ATOM     26  C   UNL A   1      32.153  26.965  23.308  1.00  0.00     0.088 A 
ATOM     27  C   UNL A   1      29.376  30.251  23.416  1.00  0.00     0.044 C 
ATOM     28  C   UNL A   1      30.330  29.093  23.387  1.00  0.00    -0.051 A 
ATOM     29  C   UNL A   1      31.446  29.087  24.233  1.00  0.00     0.005 A 
ATOM     30  C   UNL A   1      30.122  28.009  22.526  1.00  0.00     0.005 A 
ATOM     31  C   UNL A   1      32.358  28.031  24.191  1.00  0.00     0.022 A 
ATOM     32  C   UNL A   1      31.021  26.940  22.492  1.00  0.00     0.022 A 
ENDBRANCH  23  26
ENDBRANCH  15  23
ENDBRANCH  12  14
ENDBRANCH   9  12
ENDBRANCH   7   8
ENDBRANCH   4   7
ENDBRANCH   2   3
ENDBRANCH   1   2
BRANCH   1  33
ATOM     33  C   UNL A   1      39.645  22.896  26.727  1.00  0.00     0.002 C 
BRANCH  33  34
ATOM     34  C   UNL A   1      40.629  22.308  27.750  1.00  0.00     0.002 C 
BRANCH  34  35
ATOM     35  C   UNL A   1      42.105  22.478  27.400  1.00  0.00     0.021 C 
BRANCH  35  36
ATOM     36  C   UNL A   1      42.343  23.085  26.028  1.00  0.00     0.116 C 
BRANCH  36  37
ATOM     37  N   UNL A   1      43.099  22.192  25.154  1.00  0.00    -0.352 N 
ATOM     38  C   UNL A   1      44.398  22.254  24.688  1.00  0.00     0.251 C 
ATOM     39  H   UNL A   1      42.594  21.406  24.843  1.00  0.00     0.163 HD
ATOM     40  O   UNL A   1      44.797  21.399  23.903  1.00  0.00    -0.269 OA
BRANCH  38  41
ATOM     41  C   UNL A   1      45.366  23.199  25.297  1.00  0.00     0.039 A 
ATOM     42  C   UNL A   1      45.597  23.000  26.667  1.00  0.00     0.014 A 
ATOM     43  C   UNL A   1      45.587  24.439  24.721  1.00  0.00     0.014 A 
ATOM     44  C   UNL A   1      45.637  24.103  27.500  1.00  0.00     0.010 A 
ATOM     45  C   UNL A   1      45.470  25.531  25.539  1.00  0.00     0.010 A 
ATOM     46  C   UNL A   1      45.403  25.341  26.923  1.00  0.00    -0.014 A 
BRANCH  46  47
ATOM     47  C   UNL A   1      45.107  26.539  27.672  1.00  0.00     0.031 A 
ATOM     48  C   UNL A   1      43.702  26.958  27.710  1.00  0.00     0.074 A 
ATOM     49  C   UNL A   1      46.084  27.071  28.436  1.00  0.00     0.049 A 
ATOM     50  N   UNL A   1      43.292  28.100  28.117  1.00  0.00    -0.248 NA
ATOM     51  C   UNL A   1      42.627  26.099  27.222  1.00  0.00     0.031 C 
ATOM     52  C   UNL A   1      45.968  28.031  29.526  1.00  0.00     0.029 A 
ATOM     53  N   UNL A   1      47.465  26.971  28.214  1.00  0.00    -0.354 N 
ATOM     54  C   UNL A   1      41.921  28.024  28.244  1.00  0.00     0.074 A 
ATOM     55  C   UNL A   1      41.552  26.807  27.574  1.00  0.00     0.031 C 
ATOM     56  C   UNL A   1      47.150  28.654  29.684  1.00  0.00     0.029 A 
ATOM     57  C   UNL A   1      48.002  28.222  28.587  1.00  0.00     0.049 A 
ATOM     58  H   UNL A   1      47.958  26.191  27.870  1.00  0.00     0.167 HD
ATOM     59  C   UNL A   1      41.314  28.943  29.047  1.00  0.00     0.037 A 
ATOM     60  C   UNL A   1      48.512  29.055  27.630  1.00  0.00     0.037 A 
ATOM     61  C   UNL A   1      42.288  29.970  29.427  1.00  0.00     0.049 A 
ATOM     62  C   UNL A   1      47.719  30.341  27.507  1.00  0.00     0.074 A 
ATOM     63  C   UNL A   1      43.086  30.135  30.548  1.00  0.00     0.029 A 
ATOM     64  N   UNL A   1      42.846  30.764  28.428  1.00  0.00    -0.354 N 
ATOM     65  N   UNL A   1      46.457  30.461  27.831  1.00  0.00    -0.248 NA
ATOM     66  C   UNL A   1      48.306  31.601  27.068  1.00  0.00     0.031 C 
ATOM     67  C   UNL A   1      44.182  30.966  30.183  1.00  0.00     0.029 A 
ATOM     68  C   UNL A   1      44.031  31.331  28.855  1.00  0.00     0.049 A 
ATOM     69  H   UNL A   1      42.448  30.902  27.538  1.00  0.00     0.167 HD
ATOM     70  C   UNL A   1      46.067  31.769  27.682  1.00  0.00     0.074 A 
ATOM     71  C   UNL A   1      47.266  32.440  27.211  1.00  0.00     0.031 C 
ATOM     72  C   UNL A   1      44.800  32.200  27.970  1.00  0.00     0.037 A 
BRANCH  59  73
ATOM     73  C   UNL A   1      39.961  28.771  29.711  1.00  0.00     0.057 A 
ATOM     74  C   UNL A   1      38.784  29.083  28.999  1.00  0.00     0.134 A 
ATOM     75  C   UNL A   1      39.728  28.385  31.045  1.00  0.00     0.134 A 
ATOM     76  F   UNL A   1      38.814  29.408  27.699  1.00  0.00    -0.206 F 
ATOM     77  C   UNL A   1      37.509  29.085  29.581  1.00  0.00     0.040 A 
ATOM     78  C   UNL A   1      38.461  28.408  31.649  1.00  0.00     0.040 A 
ATOM     79  F   UNL A   1      40.695  27.921  31.838  1.00  0.00    -0.206 F 
ATOM     80  C   UNL A   1      37.344  28.768  30.919  1.00  0.00     0.006 A 
ENDBRANCH  59  73
BRANCH  60  81
ATOM     81  C   UNL A   1      49.157  28.299  26.515  1.00  0.00     0.057 A 
ATOM     82  C   UNL A   1      50.407  27.698  26.774  1.00  0.00     0.134 A 
ATOM     83  C   UNL A   1      48.415  27.775  25.453  1.00  0.00     0.134 A 
ATOM     84  F   UNL A   1      51.186  28.168  27.762  1.00  0.00    -0.206 F 
ATOM     85  C   UNL A   1      50.810  26.521  26.138  1.00  0.00     0.040 A 
ATOM     86  C   UNL A   1      48.829  26.612  24.785  1.00  0.00     0.040 A 
ATOM     87  F   UNL A   1      47.220  28.290  25.133  1.00  0.00    -0.206 F 
ATOM     88  C   UNL A   1      49.993  25.948  25.169  1.00  0.00     0.006 A 
ENDBRANCH  60  81
BRANCH  72  89
ATOM     89  C   UNL A   1      44.177  33.514  27.533  1.00  0.00     0.057 A 
ATOM     90  C   UNL A   1      44.036  34.643  28.352  1.00  0.00     0.134 A 
ATOM     91  C   UNL A   1      43.827  33.734  26.176  1.00  0.00     0.134 A 
ATOM     92  F   UNL A   1      44.451  34.652  29.626  1.00  0.00    -0.206 F 
ATOM     93  C   UNL A   1      43.519  35.860  27.886  1.00  0.00     0.040 A 
ATOM     94  C   UNL A   1      43.385  34.965  25.684  1.00  0.00     0.040 A 
ATOM     95  F   UNL A   1      43.926  32.770  25.247  1.00  0.00    -0.206 F 
ATOM     96  C   UNL A   1      43.205  36.031  26.546  1.00  0.00     0.006 A 
ENDBRANCH  72  89
ENDBRANCH  46  47
ENDBRANCH  38  41
ENDBRANCH  36  37
ENDBRANCH  35  36
ENDBRANCH  34  35
ENDBRANCH  33  34
ENDBRANCH   1  33
TORSDOF 18
ENDMDL
