MODEL 1
REMARK VINA RESULT:     -11.1      0.000      0.000
REMARK SMILES COCC[C@@]1(C(=O)NCCCCCCNC(=O)c2ccc(-c3c4nc(c(-c5c(F)cccc5F)c5ccc([nH]5)c(-c5c(F)cccc5F)c5nc(c(-c6c(F)cccc6F)c6ccc3[nH]6)C=C5)C=C4)cc2)CCCN(C(=O)NCc2ccc(OC)cc2)C1
REMARK SMILES IDX 10 1 9 2 8 3 6 4 7 5 5 7 72 8 88 9 73 10 75 11 74 12 4 13
REMARK SMILES IDX 3 14 2 15 1 16 76 17 77 18 78 19 79 21 80 22 81 23 87 24
REMARK SMILES IDX 82 25 86 26 83 27 84 28 85 29 11 30 12 31 13 32 14 33 15 34
REMARK SMILES IDX 16 35 17 37 18 38 19 39 71 40 20 41 70 42 21 43 22 44 23 45
REMARK SMILES IDX 64 46 24 47 69 48 63 49 65 50 25 51 68 52 62 53 61 54 26 56
REMARK SMILES IDX 52 57 35 58 51 59 36 60 39 61 50 62 66 63 37 64 38 65 49 67
REMARK SMILES IDX 67 68 40 69 27 70 28 71 33 72 29 73 30 74 32 75 34 76 31 77
REMARK SMILES IDX 53 78 54 79 59 80 55 81 56 82 58 83 60 84 57 85 41 86 42 87
REMARK SMILES IDX 47 88 43 89 44 90 46 91 48 92 45 93
REMARK H PARENT 8 6 78 20 15 36 65 55 39 66
REMARK Flexibility Score: inf
ROOT
ATOM      1  C   UNL A   1      35.882  23.117  24.541  1.00  0.00     0.021 C 
ENDROOT
BRANCH   1   2
ATOM      2  C   UNL A   1      35.431  24.302  25.396  1.00  0.00     0.116 C 
BRANCH   2   3
ATOM      3  N   UNL A   1      34.085  24.091  25.882  1.00  0.00    -0.356 N 
ATOM      4  C   UNL A   1      32.995  24.890  25.995  1.00  0.00     0.228 C 
ATOM      5  O   UNL A   1      32.048  24.376  26.595  1.00  0.00    -0.274 OA
ATOM      6  H   UNL A   1      33.926  23.172  26.200  1.00  0.00     0.163 HD
BRANCH   4   7
ATOM      7  C   UNL A   1      32.885  26.282  25.331  1.00  0.00     0.069 C 
ATOM      8  C   UNL A   1      31.449  26.877  25.346  1.00  0.00     0.021 C 
ATOM      9  C   UNL A   1      33.338  26.179  23.845  1.00  0.00     0.138 C 
ATOM     10  C   UNL A   1      30.493  26.197  24.357  1.00  0.00     0.023 C 
ATOM     11  N   UNL A   1      32.358  25.553  22.954  1.00  0.00    -0.324 N 
ATOM     12  C   UNL A   1      31.079  26.240  22.954  1.00  0.00     0.121 C 
BRANCH   7  13
ATOM     13  C   UNL A   1      33.866  27.250  26.071  1.00  0.00     0.047 C 
BRANCH  13  14
ATOM     14  C   UNL A   1      33.573  28.753  25.910  1.00  0.00     0.161 C 
BRANCH  14  15
ATOM     15  O   UNL A   1      33.143  29.343  27.139  1.00  0.00    -0.385 OA
ATOM     16  C   UNL A   1      32.922  30.746  27.077  1.00  0.00     0.194 C 
ENDBRANCH  14  15
ENDBRANCH  13  14
ENDBRANCH   7  13
BRANCH  11  17
ATOM     17  C   UNL A   1      32.768  24.455  22.259  1.00  0.00     0.317 C 
ATOM     18  O   UNL A   1      33.456  24.547  21.234  1.00  0.00    -0.249 OA
ATOM     19  N   UNL A   1      32.487  23.195  22.601  1.00  0.00    -0.334 N 
ATOM     20  H   UNL A   1      32.992  22.560  22.042  1.00  0.00     0.165 HD
BRANCH  19  21
ATOM     21  C   UNL A   1      31.659  22.492  23.552  1.00  0.00     0.153 C 
BRANCH  21  22
ATOM     22  C   UNL A   1      32.169  21.094  23.820  1.00  0.00    -0.028 A 
ATOM     23  C   UNL A   1      32.163  20.120  22.815  1.00  0.00     0.009 A 
ATOM     24  C   UNL A   1      32.575  20.712  25.110  1.00  0.00     0.009 A 
ATOM     25  C   UNL A   1      32.546  18.804  23.101  1.00  0.00     0.047 A 
ATOM     26  C   UNL A   1      32.959  19.398  25.393  1.00  0.00     0.047 A 
ATOM     27  C   UNL A   1      32.931  18.433  24.392  1.00  0.00     0.118 A 
BRANCH  27  28
ATOM     28  O   UNL A   1      33.248  17.110  24.548  1.00  0.00    -0.497 OA
ATOM     29  C   UNL A   1      34.036  16.520  23.521  1.00  0.00     0.278 C 
ENDBRANCH  27  28
ENDBRANCH  21  22
ENDBRANCH  19  21
ENDBRANCH  11  17
ENDBRANCH   4   7
ENDBRANCH   2   3
ENDBRANCH   1   2
BRANCH   1  30
ATOM     30  C   UNL A   1      36.681  22.060  25.315  1.00  0.00     0.002 C 
BRANCH  30  31
ATOM     31  C   UNL A   1      36.380  20.608  24.929  1.00  0.00     0.002 C 
BRANCH  31  32
ATOM     32  C   UNL A   1      37.596  19.679  24.927  1.00  0.00     0.021 C 
BRANCH  32  33
ATOM     33  C   UNL A   1      38.836  20.270  25.584  1.00  0.00     0.116 C 
BRANCH  33  34
ATOM     34  N   UNL A   1      39.896  19.286  25.727  1.00  0.00    -0.352 N 
ATOM     35  C   UNL A   1      41.211  19.477  26.068  1.00  0.00     0.251 C 
ATOM     36  H   UNL A   1      39.634  18.353  25.554  1.00  0.00     0.163 HD
ATOM     37  O   UNL A   1      42.025  18.571  25.939  1.00  0.00    -0.269 OA
BRANCH  35  38
ATOM     38  C   UNL A   1      41.644  20.795  26.579  1.00  0.00     0.039 A 
ATOM     39  C   UNL A   1      42.101  21.755  25.674  1.00  0.00     0.014 A 
ATOM     40  C   UNL A   1      41.596  21.080  27.947  1.00  0.00     0.014 A 
ATOM     41  C   UNL A   1      42.458  23.022  26.135  1.00  0.00     0.010 A 
ATOM     42  C   UNL A   1      41.878  22.366  28.396  1.00  0.00     0.010 A 
ATOM     43  C   UNL A   1      42.319  23.348  27.495  1.00  0.00    -0.014 A 
BRANCH  43  44
ATOM     44  C   UNL A   1      42.637  24.709  27.995  1.00  0.00     0.031 A 
ATOM     45  C   UNL A   1      44.051  25.072  28.351  1.00  0.00     0.074 A 
ATOM     46  C   UNL A   1      41.642  25.598  28.181  1.00  0.00     0.049 A 
ATOM     47  N   UNL A   1      44.516  26.185  28.858  1.00  0.00    -0.248 NA
ATOM     48  C   UNL A   1      45.076  24.038  28.134  1.00  0.00     0.031 C 
ATOM     49  C   UNL A   1      40.224  25.352  27.912  1.00  0.00     0.029 A 
ATOM     50  N   UNL A   1      41.672  26.888  28.647  1.00  0.00    -0.354 N 
ATOM     51  C   UNL A   1      45.880  25.982  29.027  1.00  0.00     0.074 A 
ATOM     52  C   UNL A   1      46.159  24.620  28.626  1.00  0.00     0.031 C 
ATOM     53  C   UNL A   1      39.525  26.463  28.192  1.00  0.00     0.029 A 
ATOM     54  C   UNL A   1      40.436  27.485  28.697  1.00  0.00     0.049 A 
ATOM     55  H   UNL A   1      42.502  27.344  28.919  1.00  0.00     0.167 HD
ATOM     56  C   UNL A   1      46.821  26.859  29.453  1.00  0.00     0.037 A 
ATOM     57  C   UNL A   1      40.076  28.714  29.110  1.00  0.00     0.037 A 
ATOM     58  C   UNL A   1      46.543  28.219  29.834  1.00  0.00     0.049 A 
ATOM     59  C   UNL A   1      41.137  29.662  29.601  1.00  0.00     0.074 A 
ATOM     60  C   UNL A   1      47.432  29.201  30.233  1.00  0.00     0.029 A 
ATOM     61  N   UNL A   1      45.278  28.787  29.867  1.00  0.00    -0.354 N 
ATOM     62  N   UNL A   1      42.431  29.477  29.697  1.00  0.00    -0.248 NA
ATOM     63  C   UNL A   1      40.686  30.991  30.036  1.00  0.00     0.031 C 
ATOM     64  C   UNL A   1      46.700  30.348  30.556  1.00  0.00     0.029 A 
ATOM     65  C   UNL A   1      45.361  30.099  30.302  1.00  0.00     0.049 A 
ATOM     66  H   UNL A   1      44.445  28.326  29.617  1.00  0.00     0.167 HD
ATOM     67  C   UNL A   1      42.952  30.674  30.171  1.00  0.00     0.074 A 
ATOM     68  C   UNL A   1      41.835  31.581  30.330  1.00  0.00     0.031 C 
ATOM     69  C   UNL A   1      44.241  30.994  30.448  1.00  0.00     0.037 A 
BRANCH  56  70
ATOM     70  C   UNL A   1      48.240  26.372  29.525  1.00  0.00     0.057 A 
ATOM     71  C   UNL A   1      49.124  26.510  28.446  1.00  0.00     0.134 A 
ATOM     72  C   UNL A   1      48.739  25.789  30.696  1.00  0.00     0.134 A 
ATOM     73  F   UNL A   1      48.708  27.048  27.290  1.00  0.00    -0.206 F 
ATOM     74  C   UNL A   1      50.444  26.059  28.519  1.00  0.00     0.040 A 
ATOM     75  C   UNL A   1      50.065  25.362  30.792  1.00  0.00     0.040 A 
ATOM     76  F   UNL A   1      47.950  25.632  31.770  1.00  0.00    -0.206 F 
ATOM     77  C   UNL A   1      50.919  25.491  29.698  1.00  0.00     0.006 A 
ENDBRANCH  56  70
BRANCH  57  78
ATOM     78  C   UNL A   1      38.652  29.132  29.059  1.00  0.00     0.057 A 
ATOM     79  C   UNL A   1      37.828  29.029  30.186  1.00  0.00     0.134 A 
ATOM     80  C   UNL A   1      38.076  29.632  27.884  1.00  0.00     0.134 A 
ATOM     81  F   UNL A   1      38.317  28.541  31.336  1.00  0.00    -0.206 F 
ATOM     82  C   UNL A   1      36.480  29.386  30.143  1.00  0.00     0.040 A 
ATOM     83  C   UNL A   1      36.736  30.019  27.833  1.00  0.00     0.040 A 
ATOM     84  F   UNL A   1      38.813  29.763  26.772  1.00  0.00    -0.206 F 
ATOM     85  C   UNL A   1      35.932  29.888  28.964  1.00  0.00     0.006 A 
ENDBRANCH  57  78
BRANCH  69  86
ATOM     86  C   UNL A   1      44.517  32.395  30.914  1.00  0.00     0.057 A 
ATOM     87  C   UNL A   1      44.557  32.731  32.272  1.00  0.00     0.134 A 
ATOM     88  C   UNL A   1      44.785  33.410  29.987  1.00  0.00     0.134 A 
ATOM     89  F   UNL A   1      44.297  31.808  33.210  1.00  0.00    -0.206 F 
ATOM     90  C   UNL A   1      44.829  34.034  32.691  1.00  0.00     0.040 A 
ATOM     91  C   UNL A   1      45.088  34.709  30.395  1.00  0.00     0.040 A 
ATOM     92  F   UNL A   1      44.773  33.153  28.670  1.00  0.00    -0.206 F 
ATOM     93  C   UNL A   1      45.103  35.026  31.752  1.00  0.00     0.006 A 
ENDBRANCH  69  86
ENDBRANCH  43  44
ENDBRANCH  35  38
ENDBRANCH  33  34
ENDBRANCH  32  33
ENDBRANCH  31  32
ENDBRANCH  30  31
ENDBRANCH   1  30
TORSDOF 20
ENDMDL
MODEL 2
REMARK VINA RESULT:     -11.0      4.017      9.394
REMARK SMILES COCC[C@@]1(C(=O)NCCCCCCNC(=O)c2ccc(-c3c4nc(c(-c5c(F)cccc5F)c5ccc([nH]5)c(-c5c(F)cccc5F)c5nc(c(-c6c(F)cccc6F)c6ccc3[nH]6)C=C5)C=C4)cc2)CCCN(C(=O)NCc2ccc(OC)cc2)C1
REMARK SMILES IDX 10 1 9 2 8 3 6 4 7 5 5 7 72 8 88 9 73 10 75 11 74 12 4 13
REMARK SMILES IDX 3 14 2 15 1 16 76 17 77 18 78 19 79 21 80 22 81 23 87 24
REMARK SMILES IDX 82 25 86 26 83 27 84 28 85 29 11 30 12 31 13 32 14 33 15 34
REMARK SMILES IDX 16 35 17 37 18 38 19 39 71 40 20 41 70 42 21 43 22 44 23 45
REMARK SMILES IDX 64 46 24 47 69 48 63 49 65 50 25 51 68 52 62 53 61 54 26 56
REMARK SMILES IDX 52 57 35 58 51 59 36 60 39 61 50 62 66 63 37 64 38 65 49 67
REMARK SMILES IDX 67 68 40 69 27 70 28 71 33 72 29 73 30 74 32 75 34 76 31 77
REMARK SMILES IDX 53 78 54 79 59 80 55 81 56 82 58 83 60 84 57 85 41 86 42 87
REMARK SMILES IDX 47 88 43 89 44 90 46 91 48 92 45 93
REMARK H PARENT 8 6 78 20 15 36 65 55 39 66
REMARK Flexibility Score: inf
ROOT
ATOM      1  C   UNL A   1      31.938  27.908  26.384  1.00  0.00     0.021 C 
ENDROOT
BRANCH   1   2
ATOM      2  C   UNL A   1      33.234  27.130  26.151  1.00  0.00     0.116 C 
BRANCH   2   3
ATOM      3  N   UNL A   1      33.360  26.763  24.758  1.00  0.00    -0.356 N 
ATOM      4  C   UNL A   1      33.813  25.655  24.119  1.00  0.00     0.228 C 
ATOM      5  O   UNL A   1      33.891  25.772  22.894  1.00  0.00    -0.274 OA
ATOM      6  H   UNL A   1      33.053  27.467  24.142  1.00  0.00     0.163 HD
BRANCH   4   7
ATOM      7  C   UNL A   1      34.097  24.314  24.835  1.00  0.00     0.069 C 
ATOM      8  C   UNL A   1      34.085  23.080  23.890  1.00  0.00     0.021 C 
ATOM      9  C   UNL A   1      33.018  24.079  25.932  1.00  0.00     0.138 C 
ATOM     10  C   UNL A   1      32.680  22.675  23.429  1.00  0.00     0.023 C 
ATOM     11  N   UNL A   1      31.712  23.658  25.418  1.00  0.00    -0.324 N 
ATOM     12  C   UNL A   1      31.784  22.437  24.635  1.00  0.00     0.121 C 
BRANCH   7  13
ATOM     13  C   UNL A   1      35.489  24.427  25.540  1.00  0.00     0.047 C 
BRANCH  13  14
ATOM     14  C   UNL A   1      36.653  23.698  24.844  1.00  0.00     0.161 C 
BRANCH  14  15
ATOM     15  O   UNL A   1      37.334  22.815  25.738  1.00  0.00    -0.385 OA
ATOM     16  C   UNL A   1      37.592  21.521  25.210  1.00  0.00     0.194 C 
ENDBRANCH  14  15
ENDBRANCH  13  14
ENDBRANCH   7  13
BRANCH  11  17
ATOM     17  C   UNL A   1      30.640  24.434  25.744  1.00  0.00     0.317 C 
ATOM     18  O   UNL A   1      30.143  24.422  26.877  1.00  0.00    -0.249 OA
ATOM     19  N   UNL A   1      30.032  25.273  24.903  1.00  0.00    -0.334 N 
ATOM     20  H   UNL A   1      29.373  25.829  25.379  1.00  0.00     0.165 HD
BRANCH  19  21
ATOM     21  C   UNL A   1      30.058  25.604  23.497  1.00  0.00     0.153 C 
BRANCH  21  22
ATOM     22  C   UNL A   1      29.868  27.086  23.263  1.00  0.00    -0.028 A 
ATOM     23  C   UNL A   1      28.630  27.699  23.486  1.00  0.00     0.009 A 
ATOM     24  C   UNL A   1      30.906  27.866  22.726  1.00  0.00     0.009 A 
ATOM     25  C   UNL A   1      28.442  29.050  23.173  1.00  0.00     0.047 A 
ATOM     26  C   UNL A   1      30.716  29.216  22.415  1.00  0.00     0.047 A 
ATOM     27  C   UNL A   1      29.476  29.811  22.623  1.00  0.00     0.118 A 
BRANCH  27  28
ATOM     28  O   UNL A   1      29.153  31.108  22.328  1.00  0.00    -0.497 OA
ATOM     29  C   UNL A   1      27.838  31.529  22.674  1.00  0.00     0.278 C 
ENDBRANCH  27  28
ENDBRANCH  21  22
ENDBRANCH  19  21
ENDBRANCH  11  17
ENDBRANCH   4   7
ENDBRANCH   2   3
ENDBRANCH   1   2
BRANCH   1  30
ATOM     30  C   UNL A   1      32.155  29.366  26.810  1.00  0.00     0.002 C 
BRANCH  30  31
ATOM     31  C   UNL A   1      31.524  30.413  25.887  1.00  0.00     0.002 C 
BRANCH  31  32
ATOM     32  C   UNL A   1      31.383  31.808  26.500  1.00  0.00     0.021 C 
BRANCH  32  33
ATOM     33  C   UNL A   1      32.705  32.462  26.879  1.00  0.00     0.116 C 
BRANCH  33  34
ATOM     34  N   UNL A   1      32.523  33.829  27.335  1.00  0.00    -0.352 N 
ATOM     35  C   UNL A   1      33.128  34.478  28.382  1.00  0.00     0.251 C 
ATOM     36  H   UNL A   1      31.876  34.365  26.822  1.00  0.00     0.163 HD
ATOM     37  O   UNL A   1      32.710  35.564  28.767  1.00  0.00    -0.269 OA
BRANCH  35  38
ATOM     38  C   UNL A   1      34.281  33.847  29.058  1.00  0.00     0.039 A 
ATOM     39  C   UNL A   1      34.045  32.905  30.062  1.00  0.00     0.014 A 
ATOM     40  C   UNL A   1      35.590  34.183  28.699  1.00  0.00     0.014 A 
ATOM     41  C   UNL A   1      35.123  32.259  30.668  1.00  0.00     0.010 A 
ATOM     42  C   UNL A   1      36.659  33.484  29.248  1.00  0.00     0.010 A 
ATOM     43  C   UNL A   1      36.437  32.520  30.243  1.00  0.00    -0.014 A 
BRANCH  43  44
ATOM     44  C   UNL A   1      37.592  31.798  30.833  1.00  0.00     0.031 A 
ATOM     45  C   UNL A   1      38.077  32.150  32.212  1.00  0.00     0.074 A 
ATOM     46  C   UNL A   1      38.238  30.867  30.105  1.00  0.00     0.049 A 
ATOM     47  N   UNL A   1      39.103  31.677  32.873  1.00  0.00    -0.248 NA
ATOM     48  C   UNL A   1      37.327  33.189  32.934  1.00  0.00     0.031 C 
ATOM     49  C   UNL A   1      37.889  30.467  28.741  1.00  0.00     0.029 A 
ATOM     50  N   UNL A   1      39.328  30.092  30.410  1.00  0.00    -0.354 N 
ATOM     51  C   UNL A   1      39.125  32.365  34.079  1.00  0.00     0.074 A 
ATOM     52  C   UNL A   1      38.048  33.330  34.036  1.00  0.00     0.031 C 
ATOM     53  C   UNL A   1      38.731  29.502  28.337  1.00  0.00     0.029 A 
ATOM     54  C   UNL A   1      39.703  29.245  29.395  1.00  0.00     0.049 A 
ATOM     55  H   UNL A   1      39.798  30.137  31.274  1.00  0.00     0.167 HD
ATOM     56  C   UNL A   1      39.951  32.191  35.139  1.00  0.00     0.037 A 
ATOM     57  C   UNL A   1      40.718  28.365  29.323  1.00  0.00     0.037 A 
ATOM     58  C   UNL A   1      41.010  31.217  35.186  1.00  0.00     0.049 A 
ATOM     59  C   UNL A   1      41.636  28.207  30.505  1.00  0.00     0.074 A 
ATOM     60  C   UNL A   1      41.871  30.929  36.230  1.00  0.00     0.029 A 
ATOM     61  N   UNL A   1      41.355  30.374  34.139  1.00  0.00    -0.354 N 
ATOM     62  N   UNL A   1      41.607  28.820  31.662  1.00  0.00    -0.248 NA
ATOM     63  C   UNL A   1      42.726  27.230  30.370  1.00  0.00     0.031 C 
ATOM     64  C   UNL A   1      42.769  29.948  35.798  1.00  0.00     0.029 A 
ATOM     65  C   UNL A   1      42.431  29.583  34.505  1.00  0.00     0.049 A 
ATOM     66  H   UNL A   1      40.902  30.344  33.266  1.00  0.00     0.167 HD
ATOM     67  C   UNL A   1      42.650  28.282  32.405  1.00  0.00     0.074 A 
ATOM     68  C   UNL A   1      43.284  27.283  31.570  1.00  0.00     0.031 C 
ATOM     69  C   UNL A   1      43.047  28.587  33.666  1.00  0.00     0.037 A 
BRANCH  56  70
ATOM     70  C   UNL A   1      39.736  33.072  36.336  1.00  0.00     0.057 A 
ATOM     71  C   UNL A   1      40.425  34.283  36.496  1.00  0.00     0.134 A 
ATOM     72  C   UNL A   1      38.807  32.725  37.325  1.00  0.00     0.134 A 
ATOM     73  F   UNL A   1      41.338  34.670  35.592  1.00  0.00    -0.206 F 
ATOM     74  C   UNL A   1      40.218  35.101  37.608  1.00  0.00     0.040 A 
ATOM     75  C   UNL A   1      38.570  33.549  38.426  1.00  0.00     0.040 A 
ATOM     76  F   UNL A   1      38.109  31.583  37.233  1.00  0.00    -0.206 F 
ATOM     77  C   UNL A   1      39.282  34.738  38.573  1.00  0.00     0.006 A 
ENDBRANCH  56  70
BRANCH  57  78
ATOM     78  C   UNL A   1      40.912  27.547  28.099  1.00  0.00     0.057 A 
ATOM     79  C   UNL A   1      41.703  28.010  27.040  1.00  0.00     0.134 A 
ATOM     80  C   UNL A   1      40.306  26.294  27.950  1.00  0.00     0.134 A 
ATOM     81  F   UNL A   1      42.295  29.210  27.115  1.00  0.00    -0.206 F 
ATOM     82  C   UNL A   1      41.866  27.267  25.870  1.00  0.00     0.040 A 
ATOM     83  C   UNL A   1      40.482  25.528  26.797  1.00  0.00     0.040 A 
ATOM     84  F   UNL A   1      39.543  25.791  28.931  1.00  0.00    -0.206 F 
ATOM     85  C   UNL A   1      41.258  26.019  25.748  1.00  0.00     0.006 A 
ENDBRANCH  57  78
BRANCH  69  86
ATOM     86  C   UNL A   1      44.194  27.802  34.234  1.00  0.00     0.057 A 
ATOM     87  C   UNL A   1      44.007  26.573  34.878  1.00  0.00     0.134 A 
ATOM     88  C   UNL A   1      45.508  28.267  34.096  1.00  0.00     0.134 A 
ATOM     89  F   UNL A   1      42.772  26.078  35.053  1.00  0.00    -0.206 F 
ATOM     90  C   UNL A   1      45.084  25.847  35.389  1.00  0.00     0.040 A 
ATOM     91  C   UNL A   1      46.595  27.536  34.576  1.00  0.00     0.040 A 
ATOM     92  F   UNL A   1      45.760  29.432  33.480  1.00  0.00    -0.206 F 
ATOM     93  C   UNL A   1      46.384  26.325  35.231  1.00  0.00     0.006 A 
ENDBRANCH  69  86
ENDBRANCH  43  44
ENDBRANCH  35  38
ENDBRANCH  33  34
ENDBRANCH  32  33
ENDBRANCH  31  32
ENDBRANCH  30  31
ENDBRANCH   1  30
TORSDOF 20
ENDMDL
MODEL 3
REMARK VINA RESULT:     -10.8      1.858      4.658
REMARK SMILES COCC[C@@]1(C(=O)NCCCCCCNC(=O)c2ccc(-c3c4nc(c(-c5c(F)cccc5F)c5ccc([nH]5)c(-c5c(F)cccc5F)c5nc(c(-c6c(F)cccc6F)c6ccc3[nH]6)C=C5)C=C4)cc2)CCCN(C(=O)NCc2ccc(OC)cc2)C1
REMARK SMILES IDX 10 1 9 2 8 3 6 4 7 5 5 7 72 8 88 9 73 10 75 11 74 12 4 13
REMARK SMILES IDX 3 14 2 15 1 16 76 17 77 18 78 19 79 21 80 22 81 23 87 24
REMARK SMILES IDX 82 25 86 26 83 27 84 28 85 29 11 30 12 31 13 32 14 33 15 34
REMARK SMILES IDX 16 35 17 37 18 38 19 39 71 40 20 41 70 42 21 43 22 44 23 45
REMARK SMILES IDX 64 46 24 47 69 48 63 49 65 50 25 51 68 52 62 53 61 54 26 56
REMARK SMILES IDX 52 57 35 58 51 59 36 60 39 61 50 62 66 63 37 64 38 65 49 67
REMARK SMILES IDX 67 68 40 69 27 70 28 71 33 72 29 73 30 74 32 75 34 76 31 77
REMARK SMILES IDX 53 78 54 79 59 80 55 81 56 82 58 83 60 84 57 85 41 86 42 87
REMARK SMILES IDX 47 88 43 89 44 90 46 91 48 92 45 93
REMARK H PARENT 8 6 78 20 15 36 65 55 39 66
REMARK Flexibility Score: inf
ROOT
ATOM      1  C   UNL A   1      37.295  23.471  24.957  1.00  0.00     0.021 C 
ENDROOT
BRANCH   1   2
ATOM      2  C   UNL A   1      35.807  23.803  24.835  1.00  0.00     0.116 C 
BRANCH   2   3
ATOM      3  N   UNL A   1      35.118  23.492  26.068  1.00  0.00    -0.356 N 
ATOM      4  C   UNL A   1      33.992  22.793  26.360  1.00  0.00     0.228 C 
ATOM      5  O   UNL A   1      33.643  22.864  27.541  1.00  0.00    -0.274 OA
ATOM      6  H   UNL A   1      35.559  23.867  26.865  1.00  0.00     0.163 HD
BRANCH   4   7
ATOM      7  C   UNL A   1      33.264  21.884  25.343  1.00  0.00     0.069 C 
ATOM      8  C   UNL A   1      33.337  22.394  23.876  1.00  0.00     0.021 C 
ATOM      9  C   UNL A   1      31.761  21.778  25.732  1.00  0.00     0.138 C 
ATOM     10  C   UNL A   1      32.446  23.613  23.606  1.00  0.00     0.023 C 
ATOM     11  N   UNL A   1      30.966  22.966  25.409  1.00  0.00    -0.324 N 
ATOM     12  C   UNL A   1      31.008  23.304  23.998  1.00  0.00     0.121 C 
BRANCH   7  13
ATOM     13  C   UNL A   1      33.892  20.454  25.436  1.00  0.00     0.047 C 
BRANCH  13  14
ATOM     14  C   UNL A   1      32.897  19.280  25.380  1.00  0.00     0.161 C 
BRANCH  14  15
ATOM     15  O   UNL A   1      33.261  18.327  24.379  1.00  0.00    -0.385 OA
ATOM     16  C   UNL A   1      34.638  17.976  24.370  1.00  0.00     0.194 C 
ENDBRANCH  14  15
ENDBRANCH  13  14
ENDBRANCH   7  13
BRANCH  11  17
ATOM     17  C   UNL A   1      30.304  23.565  26.439  1.00  0.00     0.317 C 
ATOM     18  O   UNL A   1      29.904  22.927  27.421  1.00  0.00    -0.249 OA
ATOM     19  N   UNL A   1      30.030  24.870  26.503  1.00  0.00    -0.334 N 
ATOM     20  H   UNL A   1      29.669  25.108  27.388  1.00  0.00     0.165 HD
BRANCH  19  21
ATOM     21  C   UNL A   1      30.107  26.035  25.654  1.00  0.00     0.153 C 
BRANCH  21  22
ATOM     22  C   UNL A   1      31.267  26.930  26.027  1.00  0.00    -0.028 A 
ATOM     23  C   UNL A   1      32.478  26.871  25.329  1.00  0.00     0.009 A 
ATOM     24  C   UNL A   1      31.188  27.779  27.145  1.00  0.00     0.009 A 
ATOM     25  C   UNL A   1      33.575  27.635  25.746  1.00  0.00     0.047 A 
ATOM     26  C   UNL A   1      32.283  28.542  27.558  1.00  0.00     0.047 A 
ATOM     27  C   UNL A   1      33.489  28.461  26.869  1.00  0.00     0.118 A 
BRANCH  27  28
ATOM     28  O   UNL A   1      34.640  29.127  27.192  1.00  0.00    -0.497 OA
ATOM     29  C   UNL A   1      34.540  30.540  27.330  1.00  0.00     0.278 C 
ENDBRANCH  27  28
ENDBRANCH  21  22
ENDBRANCH  19  21
ENDBRANCH  11  17
ENDBRANCH   4   7
ENDBRANCH   2   3
ENDBRANCH   1   2
BRANCH   1  30
ATOM     30  C   UNL A   1      37.578  22.109  25.606  1.00  0.00     0.002 C 
BRANCH  30  31
ATOM     31  C   UNL A   1      37.368  20.899  24.691  1.00  0.00     0.002 C 
BRANCH  31  32
ATOM     32  C   UNL A   1      38.335  19.737  24.932  1.00  0.00     0.021 C 
BRANCH  32  33
ATOM     33  C   UNL A   1      39.296  19.954  26.093  1.00  0.00     0.116 C 
BRANCH  33  34
ATOM     34  N   UNL A   1      40.427  19.043  26.038  1.00  0.00    -0.352 N 
ATOM     35  C   UNL A   1      41.769  19.332  26.046  1.00  0.00     0.251 C 
ATOM     36  H   UNL A   1      40.200  18.087  25.988  1.00  0.00     0.163 HD
ATOM     37  O   UNL A   1      42.593  18.465  25.781  1.00  0.00    -0.269 OA
BRANCH  35  38
ATOM     38  C   UNL A   1      42.214  20.706  26.362  1.00  0.00     0.039 A 
ATOM     39  C   UNL A   1      42.398  21.614  25.317  1.00  0.00     0.014 A 
ATOM     40  C   UNL A   1      42.446  21.094  27.684  1.00  0.00     0.014 A 
ATOM     41  C   UNL A   1      42.762  22.930  25.604  1.00  0.00     0.010 A 
ATOM     42  C   UNL A   1      42.732  22.424  27.974  1.00  0.00     0.010 A 
ATOM     43  C   UNL A   1      42.901  23.354  26.936  1.00  0.00    -0.014 A 
BRANCH  43  44
ATOM     44  C   UNL A   1      43.228  24.764  27.263  1.00  0.00     0.031 A 
ATOM     45  C   UNL A   1      44.615  25.292  27.026  1.00  0.00     0.074 A 
ATOM     46  C   UNL A   1      42.290  25.551  27.826  1.00  0.00     0.049 A 
ATOM     47  N   UNL A   1      45.109  26.472  27.302  1.00  0.00    -0.248 NA
ATOM     48  C   UNL A   1      45.584  24.363  26.423  1.00  0.00     0.031 C 
ATOM     49  C   UNL A   1      40.921  25.142  28.144  1.00  0.00     0.029 A 
ATOM     50  N   UNL A   1      42.351  26.859  28.237  1.00  0.00    -0.354 N 
ATOM     51  C   UNL A   1      46.442  26.424  26.915  1.00  0.00     0.074 A 
ATOM     52  C   UNL A   1      46.697  25.081  26.442  1.00  0.00     0.031 C 
ATOM     53  C   UNL A   1      40.264  26.186  28.675  1.00  0.00     0.029 A 
ATOM     54  C   UNL A   1      41.174  27.323  28.772  1.00  0.00     0.049 A 
ATOM     55  H   UNL A   1      43.161  27.413  28.155  1.00  0.00     0.167 HD
ATOM     56  C   UNL A   1      47.364  27.416  26.928  1.00  0.00     0.037 A 
ATOM     57  C   UNL A   1      40.865  28.526  29.289  1.00  0.00     0.037 A 
ATOM     58  C   UNL A   1      47.102  28.756  27.383  1.00  0.00     0.049 A 
ATOM     59  C   UNL A   1      41.914  29.604  29.314  1.00  0.00     0.074 A 
ATOM     60  C   UNL A   1      47.955  29.845  27.392  1.00  0.00     0.029 A 
ATOM     61  N   UNL A   1      45.896  29.188  27.914  1.00  0.00    -0.354 N 
ATOM     62  N   UNL A   1      43.153  29.563  28.888  1.00  0.00    -0.248 NA
ATOM     63  C   UNL A   1      41.520  30.898  29.888  1.00  0.00     0.031 C 
ATOM     64  C   UNL A   1      47.281  30.923  27.975  1.00  0.00     0.029 A 
ATOM     65  C   UNL A   1      45.990  30.522  28.275  1.00  0.00     0.049 A 
ATOM     66  H   UNL A   1      45.092  28.629  28.018  1.00  0.00     0.167 HD
ATOM     67  C   UNL A   1      43.675  30.830  29.111  1.00  0.00     0.074 A 
ATOM     68  C   UNL A   1      42.613  31.621  29.698  1.00  0.00     0.031 C 
ATOM     69  C   UNL A   1      44.921  31.298  28.852  1.00  0.00     0.037 A 
BRANCH  56  70
ATOM     70  C   UNL A   1      48.743  27.086  26.431  1.00  0.00     0.057 A 
ATOM     71  C   UNL A   1      49.757  26.652  27.297  1.00  0.00     0.134 A 
ATOM     72  C   UNL A   1      49.053  27.169  25.068  1.00  0.00     0.134 A 
ATOM     73  F   UNL A   1      49.532  26.562  28.616  1.00  0.00    -0.206 F 
ATOM     74  C   UNL A   1      51.035  26.343  26.829  1.00  0.00     0.040 A 
ATOM     75  C   UNL A   1      50.318  26.833  24.584  1.00  0.00     0.040 A 
ATOM     76  F   UNL A   1      48.128  27.571  24.182  1.00  0.00    -0.206 F 
ATOM     77  C   UNL A   1      51.316  26.426  25.468  1.00  0.00     0.006 A 
ENDBRANCH  56  70
BRANCH  57  78
ATOM     78  C   UNL A   1      39.498  28.787  29.807  1.00  0.00     0.057 A 
ATOM     79  C   UNL A   1      38.503  29.323  28.979  1.00  0.00     0.134 A 
ATOM     80  C   UNL A   1      39.154  28.522  31.138  1.00  0.00     0.134 A 
ATOM     81  F   UNL A   1      38.776  29.615  27.700  1.00  0.00    -0.206 F 
ATOM     82  C   UNL A   1      37.224  29.604  29.461  1.00  0.00     0.040 A 
ATOM     83  C   UNL A   1      37.871  28.773  31.626  1.00  0.00     0.040 A 
ATOM     84  F   UNL A   1      40.059  28.002  31.980  1.00  0.00    -0.206 F 
ATOM     85  C   UNL A   1      36.904  29.325  30.788  1.00  0.00     0.006 A 
ENDBRANCH  57  78
BRANCH  69  86
ATOM     86  C   UNL A   1      45.192  32.742  29.163  1.00  0.00     0.057 A 
ATOM     87  C   UNL A   1      44.910  33.764  28.249  1.00  0.00     0.134 A 
ATOM     88  C   UNL A   1      45.704  33.115  30.412  1.00  0.00     0.134 A 
ATOM     89  F   UNL A   1      44.429  33.474  27.030  1.00  0.00    -0.206 F 
ATOM     90  C   UNL A   1      45.153  35.104  28.557  1.00  0.00     0.040 A 
ATOM     91  C   UNL A   1      45.923  34.452  30.743  1.00  0.00     0.040 A 
ATOM     92  F   UNL A   1      45.987  32.186  31.339  1.00  0.00    -0.206 F 
ATOM     93  C   UNL A   1      45.654  35.452  29.809  1.00  0.00     0.006 A 
ENDBRANCH  69  86
ENDBRANCH  43  44
ENDBRANCH  35  38
ENDBRANCH  33  34
ENDBRANCH  32  33
ENDBRANCH  31  32
ENDBRANCH  30  31
ENDBRANCH   1  30
TORSDOF 20
ENDMDL
