MODEL 1
REMARK VINA RESULT:     -11.2      0.000      0.000
REMARK SMILES CCc1cc(OC(F)(F)F)cc2c1O[C@@H](C(F)(F)F)C(C(=O)NCCCCCCNC(=O)c1ccc(-c3c4nc(c(-c5c(F)cccc5F)c5ccc([nH]5)c(-c5c(F)cccc5F)c5nc(c(-c6c(F)cccc6F)c6ccc3[nH]6)C=C5)C=C4)cc1)=C2
REMARK SMILES IDX 26 1 25 2 24 3 23 4 21 5 22 6 20 8 3 9 4 10 13 11 5 12 12 13
REMARK SMILES IDX 14 14 11 15 87 16 15 17 2 18 1 19 6 20 7 21 8 22 9 23 10 24
REMARK SMILES IDX 16 25 17 26 18 27 19 28 27 29 28 30 29 31 30 32 31 33 32 35
REMARK SMILES IDX 33 36 34 37 86 38 35 39 85 40 36 41 37 42 38 43 79 44 39 45
REMARK SMILES IDX 84 46 78 47 80 48 40 49 83 50 77 51 76 52 41 54 67 55 50 56
REMARK SMILES IDX 66 57 51 58 54 59 65 60 81 61 52 62 53 63 64 65 82 66 55 67
REMARK SMILES IDX 42 68 43 69 48 70 44 71 45 72 47 73 49 74 46 75 68 76 69 77
REMARK SMILES IDX 74 78 70 79 71 80 73 81 75 82 72 83 56 84 57 85 62 86 58 87
REMARK SMILES IDX 59 88 61 89 63 90 60 91
REMARK H PARENT 23 7 30 34 80 53 54 64
REMARK Flexibility Score: inf
ROOT
ATOM      1  C   UNL A   1      38.128  22.164  25.752  1.00  0.00     0.002 C 
ENDROOT
BRANCH   1   2
ATOM      2  C   UNL A   1      37.260  23.430  25.749  1.00  0.00     0.021 C 
BRANCH   2   3
ATOM      3  C   UNL A   1      35.983  23.277  24.913  1.00  0.00     0.116 C 
BRANCH   3   4
ATOM      4  N   UNL A   1      34.976  22.589  25.701  1.00  0.00    -0.352 N 
ATOM      5  C   UNL A   1      33.795  22.989  26.237  1.00  0.00     0.251 C 
ATOM      6  O   UNL A   1      33.270  22.266  27.079  1.00  0.00    -0.270 OA
ATOM      7  H   UNL A   1      35.194  21.645  25.883  1.00  0.00     0.163 HD
BRANCH   5   8
ATOM      8  C   UNL A   1      33.073  24.204  25.778  1.00  0.00     0.067 C 
ATOM      9  C   UNL A   1      31.103  27.471  24.009  1.00  0.00    -0.002 A 
ATOM     10  C   UNL A   1      31.489  28.777  24.366  1.00  0.00     0.054 A 
ATOM     11  C   UNL A   1      31.730  26.375  24.623  1.00  0.00     0.131 A 
ATOM     12  C   UNL A   1      32.487  28.989  25.317  1.00  0.00     0.130 A 
ATOM     13  C   UNL A   1      32.711  26.580  25.590  1.00  0.00     0.021 A 
ATOM     14  O   UNL A   1      31.378  25.132  24.188  1.00  0.00    -0.475 OA
ATOM     15  C   UNL A   1      33.087  27.884  25.929  1.00  0.00     0.058 A 
ATOM     16  C   UNL A   1      33.398  25.441  26.178  1.00  0.00     0.025 C 
ATOM     17  C   UNL A   1      31.828  23.963  24.928  1.00  0.00     0.314 C 
BRANCH   9  18
ATOM     18  C   UNL A   1      29.981  27.277  23.016  1.00  0.00     0.036 C 
ATOM     19  C   UNL A   1      29.090  28.510  22.956  1.00  0.00     0.009 C 
ENDBRANCH   9  18
BRANCH  12  20
ATOM     20  O   UNL A   1      32.974  30.194  25.732  1.00  0.00    -0.406 OA
BRANCH  20  21
ATOM     21  C   UNL A   1      32.289  30.862  26.779  1.00  0.00     0.573 C 
ATOM     22  F   UNL A   1      31.446  31.798  26.292  1.00  0.00    -0.132 F 
ATOM     23  F   UNL A   1      31.601  29.988  27.542  1.00  0.00    -0.132 F 
ATOM     24  F   UNL A   1      33.197  31.483  27.563  1.00  0.00    -0.132 F 
ENDBRANCH  20  21
ENDBRANCH  12  20
BRANCH  17  25
ATOM     25  C   UNL A   1      31.885  22.788  23.924  1.00  0.00     0.429 C 
ATOM     26  F   UNL A   1      31.757  21.581  24.518  1.00  0.00    -0.167 F 
ATOM     27  F   UNL A   1      30.856  22.860  23.035  1.00  0.00    -0.167 F 
ATOM     28  F   UNL A   1      33.025  22.784  23.196  1.00  0.00    -0.167 F 
ENDBRANCH  17  25
ENDBRANCH   5   8
ENDBRANCH   3   4
ENDBRANCH   2   3
ENDBRANCH   1   2
BRANCH   1  29
ATOM     29  C   UNL A   1      37.794  21.159  24.643  1.00  0.00     0.002 C 
BRANCH  29  30
ATOM     30  C   UNL A   1      38.389  19.764  24.841  1.00  0.00     0.021 C 
BRANCH  30  31
ATOM     31  C   UNL A   1      39.175  19.597  26.138  1.00  0.00     0.116 C 
BRANCH  31  32
ATOM     32  N   UNL A   1      40.466  18.969  25.902  1.00  0.00    -0.352 N 
ATOM     33  C   UNL A   1      41.716  19.534  25.896  1.00  0.00     0.251 C 
ATOM     34  H   UNL A   1      40.438  18.002  25.721  1.00  0.00     0.163 HD
ATOM     35  O   UNL A   1      42.672  18.915  25.444  1.00  0.00    -0.269 OA
BRANCH  33  36
ATOM     36  C   UNL A   1      41.906  20.898  26.431  1.00  0.00     0.039 A 
ATOM     37  C   UNL A   1      41.834  21.101  27.811  1.00  0.00     0.014 A 
ATOM     38  C   UNL A   1      42.134  21.976  25.570  1.00  0.00     0.014 A 
ATOM     39  C   UNL A   1      42.041  22.379  28.333  1.00  0.00     0.010 A 
ATOM     40  C   UNL A   1      42.407  23.236  26.096  1.00  0.00     0.010 A 
ATOM     41  C   UNL A   1      42.357  23.451  27.480  1.00  0.00    -0.014 A 
BRANCH  41  42
ATOM     42  C   UNL A   1      42.632  24.806  28.021  1.00  0.00     0.031 A 
ATOM     43  C   UNL A   1      44.018  25.168  28.483  1.00  0.00     0.074 A 
ATOM     44  C   UNL A   1      41.621  25.686  28.159  1.00  0.00     0.049 A 
ATOM     45  N   UNL A   1      44.437  26.269  29.053  1.00  0.00    -0.248 NA
ATOM     46  C   UNL A   1      45.064  24.148  28.306  1.00  0.00     0.031 C 
ATOM     47  C   UNL A   1      40.224  25.436  27.796  1.00  0.00     0.029 A 
ATOM     48  N   UNL A   1      41.609  26.965  28.656  1.00  0.00    -0.354 N 
ATOM     49  C   UNL A   1      45.786  26.068  29.318  1.00  0.00     0.074 A 
ATOM     50  C   UNL A   1      46.106  24.724  28.887  1.00  0.00     0.031 C 
ATOM     51  C   UNL A   1      39.495  26.530  28.069  1.00  0.00     0.029 A 
ATOM     52  C   UNL A   1      40.362  27.543  28.660  1.00  0.00     0.049 A 
ATOM     53  H   UNL A   1      42.417  27.425  28.980  1.00  0.00     0.167 HD
ATOM     54  C   UNL A   1      46.679  26.933  29.853  1.00  0.00     0.037 A 
ATOM     55  C   UNL A   1      39.962  28.751  29.101  1.00  0.00     0.037 A 
ATOM     56  C   UNL A   1      46.365  28.281  30.244  1.00  0.00     0.049 A 
ATOM     57  C   UNL A   1      40.981  29.695  29.680  1.00  0.00     0.074 A 
ATOM     58  C   UNL A   1      47.220  29.259  30.724  1.00  0.00     0.029 A 
ATOM     59  N   UNL A   1      45.098  28.842  30.200  1.00  0.00    -0.354 N 
ATOM     60  N   UNL A   1      42.268  29.518  29.851  1.00  0.00    -0.248 NA
ATOM     61  C   UNL A   1      40.492  31.010  30.122  1.00  0.00     0.031 C 
ATOM     62  C   UNL A   1      46.462  30.397  31.014  1.00  0.00     0.029 A 
ATOM     63  C   UNL A   1      45.144  30.145  30.668  1.00  0.00     0.049 A 
ATOM     64  H   UNL A   1      44.287  28.382  29.884  1.00  0.00     0.167 HD
ATOM     65  C   UNL A   1      42.747  30.706  30.389  1.00  0.00     0.074 A 
ATOM     66  C   UNL A   1      41.615  31.601  30.501  1.00  0.00     0.031 C 
ATOM     67  C   UNL A   1      44.010  31.027  30.758  1.00  0.00     0.037 A 
BRANCH  54  68
ATOM     68  C   UNL A   1      48.090  26.457  30.041  1.00  0.00     0.057 A 
ATOM     69  C   UNL A   1      48.492  25.776  31.199  1.00  0.00     0.134 A 
ATOM     70  C   UNL A   1      49.040  26.619  29.024  1.00  0.00     0.134 A 
ATOM     71  F   UNL A   1      47.634  25.597  32.214  1.00  0.00    -0.206 F 
ATOM     72  C   UNL A   1      49.791  25.288  31.342  1.00  0.00     0.040 A 
ATOM     73  C   UNL A   1      50.334  26.113  29.147  1.00  0.00     0.040 A 
ATOM     74  F   UNL A   1      48.719  27.257  27.889  1.00  0.00    -0.206 F 
ATOM     75  C   UNL A   1      50.714  25.446  30.311  1.00  0.00     0.006 A 
ENDBRANCH  54  68
BRANCH  55  76
ATOM     76  C   UNL A   1      38.534  29.147  29.010  1.00  0.00     0.057 A 
ATOM     77  C   UNL A   1      37.997  29.660  27.823  1.00  0.00     0.134 A 
ATOM     78  C   UNL A   1      37.679  29.055  30.115  1.00  0.00     0.134 A 
ATOM     79  F   UNL A   1      38.771  29.790  26.735  1.00  0.00    -0.206 F 
ATOM     80  C   UNL A   1      36.674  30.095  27.745  1.00  0.00     0.040 A 
ATOM     81  C   UNL A   1      36.345  29.460  30.044  1.00  0.00     0.040 A 
ATOM     82  F   UNL A   1      38.127  28.564  31.280  1.00  0.00    -0.206 F 
ATOM     83  C   UNL A   1      35.842  29.993  28.858  1.00  0.00     0.006 A 
ENDBRANCH  55  76
BRANCH  67  84
ATOM     84  C   UNL A   1      44.243  32.415  31.279  1.00  0.00     0.057 A 
ATOM     85  C   UNL A   1      44.192  32.710  32.648  1.00  0.00     0.134 A 
ATOM     86  C   UNL A   1      44.563  33.459  30.402  1.00  0.00     0.134 A 
ATOM     87  F   UNL A   1      43.879  31.756  33.537  1.00  0.00    -0.206 F 
ATOM     88  C   UNL A   1      44.428  34.001  33.123  1.00  0.00     0.040 A 
ATOM     89  C   UNL A   1      44.828  34.747  30.868  1.00  0.00     0.040 A 
ATOM     90  F   UNL A   1      44.638  33.241  29.081  1.00  0.00    -0.206 F 
ATOM     91  C   UNL A   1      44.754  35.022  32.231  1.00  0.00     0.006 A 
ENDBRANCH  67  84
ENDBRANCH  41  42
ENDBRANCH  33  36
ENDBRANCH  31  32
ENDBRANCH  30  31
ENDBRANCH  29  30
ENDBRANCH   1  29
TORSDOF 17
ENDMDL
MODEL 2
REMARK VINA RESULT:     -11.2      1.632      2.461
REMARK SMILES CCc1cc(OC(F)(F)F)cc2c1O[C@@H](C(F)(F)F)C(C(=O)NCCCCCCNC(=O)c1ccc(-c3c4nc(c(-c5c(F)cccc5F)c5ccc([nH]5)c(-c5c(F)cccc5F)c5nc(c(-c6c(F)cccc6F)c6ccc3[nH]6)C=C5)C=C4)cc1)=C2
REMARK SMILES IDX 26 1 25 2 24 3 23 4 21 5 22 6 20 8 3 9 4 10 13 11 5 12 12 13
REMARK SMILES IDX 14 14 11 15 87 16 15 17 2 18 1 19 6 20 7 21 8 22 9 23 10 24
REMARK SMILES IDX 16 25 17 26 18 27 19 28 27 29 28 30 29 31 30 32 31 33 32 35
REMARK SMILES IDX 33 36 34 37 86 38 35 39 85 40 36 41 37 42 38 43 79 44 39 45
REMARK SMILES IDX 84 46 78 47 80 48 40 49 83 50 77 51 76 52 41 54 67 55 50 56
REMARK SMILES IDX 66 57 51 58 54 59 65 60 81 61 52 62 53 63 64 65 82 66 55 67
REMARK SMILES IDX 42 68 43 69 48 70 44 71 45 72 47 73 49 74 46 75 68 76 69 77
REMARK SMILES IDX 74 78 70 79 71 80 73 81 75 82 72 83 56 84 57 85 62 86 58 87
REMARK SMILES IDX 59 88 61 89 63 90 60 91
REMARK H PARENT 23 7 30 34 80 53 54 64
REMARK Flexibility Score: inf
ROOT
ATOM      1  C   UNL A   1      36.663  21.851  24.966  1.00  0.00     0.002 C 
ENDROOT
BRANCH   1   2
ATOM      2  C   UNL A   1      36.677  22.480  23.566  1.00  0.00     0.021 C 
BRANCH   2   3
ATOM      3  C   UNL A   1      35.624  23.582  23.395  1.00  0.00     0.116 C 
BRANCH   3   4
ATOM      4  N   UNL A   1      34.363  22.980  22.999  1.00  0.00    -0.352 N 
ATOM      5  C   UNL A   1      33.071  23.363  23.159  1.00  0.00     0.251 C 
ATOM      6  O   UNL A   1      32.193  22.529  22.952  1.00  0.00    -0.270 OA
ATOM      7  H   UNL A   1      34.466  22.125  22.520  1.00  0.00     0.163 HD
BRANCH   5   8
ATOM      8  C   UNL A   1      32.678  24.761  23.475  1.00  0.00     0.067 C 
ATOM      9  C   UNL A   1      31.344  28.528  24.783  1.00  0.00    -0.002 A 
ATOM     10  C   UNL A   1      30.630  29.349  23.889  1.00  0.00     0.054 A 
ATOM     11  C   UNL A   1      31.825  27.285  24.343  1.00  0.00     0.131 A 
ATOM     12  C   UNL A   1      30.396  28.937  22.577  1.00  0.00     0.130 A 
ATOM     13  C   UNL A   1      31.615  26.878  23.028  1.00  0.00     0.021 A 
ATOM     14  O   UNL A   1      32.441  26.493  25.266  1.00  0.00    -0.475 OA
ATOM     15  C   UNL A   1      30.899  27.703  22.153  1.00  0.00     0.058 A 
ATOM     16  C   UNL A   1      32.064  25.564  22.595  1.00  0.00     0.025 C 
ATOM     17  C   UNL A   1      33.146  25.299  24.825  1.00  0.00     0.314 C 
BRANCH   9  18
ATOM     18  C   UNL A   1      31.627  29.028  26.181  1.00  0.00     0.036 C 
ATOM     19  C   UNL A   1      32.821  29.972  26.188  1.00  0.00     0.009 C 
ENDBRANCH   9  18
BRANCH  12  20
ATOM     20  O   UNL A   1      29.700  29.618  21.622  1.00  0.00    -0.406 OA
BRANCH  20  21
ATOM     21  C   UNL A   1      28.353  29.963  21.902  1.00  0.00     0.573 C 
ATOM     22  F   UNL A   1      28.284  30.963  22.806  1.00  0.00    -0.132 F 
ATOM     23  F   UNL A   1      27.702  30.324  20.777  1.00  0.00    -0.132 F 
ATOM     24  F   UNL A   1      27.729  28.883  22.423  1.00  0.00    -0.132 F 
ENDBRANCH  20  21
ENDBRANCH  12  20
BRANCH  17  25
ATOM     25  C   UNL A   1      33.140  24.307  26.012  1.00  0.00     0.429 C 
ATOM     26  F   UNL A   1      34.374  24.081  26.514  1.00  0.00    -0.167 F 
ATOM     27  F   UNL A   1      32.415  24.802  27.053  1.00  0.00    -0.167 F 
ATOM     28  F   UNL A   1      32.588  23.116  25.687  1.00  0.00    -0.167 F 
ENDBRANCH  17  25
ENDBRANCH   5   8
ENDBRANCH   3   4
ENDBRANCH   2   3
ENDBRANCH   1   2
BRANCH   1  29
ATOM     29  C   UNL A   1      36.459  20.331  24.980  1.00  0.00     0.002 C 
BRANCH  29  30
ATOM     30  C   UNL A   1      37.749  19.510  24.942  1.00  0.00     0.021 C 
BRANCH  30  31
ATOM     31  C   UNL A   1      38.928  20.163  25.657  1.00  0.00     0.116 C 
BRANCH  31  32
ATOM     32  N   UNL A   1      40.052  19.248  25.777  1.00  0.00    -0.352 N 
ATOM     33  C   UNL A   1      41.363  19.522  26.073  1.00  0.00     0.251 C 
ATOM     34  H   UNL A   1      39.842  18.298  25.626  1.00  0.00     0.163 HD
ATOM     35  O   UNL A   1      42.228  18.670  25.898  1.00  0.00    -0.269 OA
BRANCH  33  36
ATOM     36  C   UNL A   1      41.734  20.853  26.596  1.00  0.00     0.039 A 
ATOM     37  C   UNL A   1      42.252  21.807  25.716  1.00  0.00     0.014 A 
ATOM     38  C   UNL A   1      41.589  21.152  27.954  1.00  0.00     0.014 A 
ATOM     39  C   UNL A   1      42.579  23.078  26.190  1.00  0.00     0.010 A 
ATOM     40  C   UNL A   1      41.852  22.439  28.412  1.00  0.00     0.010 A 
ATOM     41  C   UNL A   1      42.355  23.413  27.537  1.00  0.00    -0.014 A 
BRANCH  41  42
ATOM     42  C   UNL A   1      42.647  24.776  28.047  1.00  0.00     0.031 A 
ATOM     43  C   UNL A   1      44.039  25.133  28.494  1.00  0.00     0.074 A 
ATOM     44  C   UNL A   1      41.645  25.669  28.171  1.00  0.00     0.049 A 
ATOM     45  N   UNL A   1      44.472  26.243  29.038  1.00  0.00    -0.248 NA
ATOM     46  C   UNL A   1      45.074  24.100  28.333  1.00  0.00     0.031 C 
ATOM     47  C   UNL A   1      40.244  25.425  27.820  1.00  0.00     0.029 A 
ATOM     48  N   UNL A   1      41.649  26.958  28.641  1.00  0.00    -0.354 N 
ATOM     49  C   UNL A   1      45.820  26.034  29.300  1.00  0.00     0.074 A 
ATOM     50  C   UNL A   1      46.125  24.678  28.897  1.00  0.00     0.031 C 
ATOM     51  C   UNL A   1      39.527  26.532  28.074  1.00  0.00     0.029 A 
ATOM     52  C   UNL A   1      40.408  27.549  28.639  1.00  0.00     0.049 A 
ATOM     53  H   UNL A   1      42.463  27.417  28.950  1.00  0.00     0.167 HD
ATOM     54  C   UNL A   1      46.725  26.900  29.812  1.00  0.00     0.037 A 
ATOM     55  C   UNL A   1      40.022  28.770  29.056  1.00  0.00     0.037 A 
ATOM     56  C   UNL A   1      46.426  28.260  30.177  1.00  0.00     0.049 A 
ATOM     57  C   UNL A   1      41.053  29.715  29.610  1.00  0.00     0.074 A 
ATOM     58  C   UNL A   1      47.293  29.239  30.631  1.00  0.00     0.029 A 
ATOM     59  N   UNL A   1      45.164  28.833  30.127  1.00  0.00    -0.354 N 
ATOM     60  N   UNL A   1      42.339  29.529  29.778  1.00  0.00    -0.248 NA
ATOM     61  C   UNL A   1      40.579  31.044  30.025  1.00  0.00     0.031 C 
ATOM     62  C   UNL A   1      46.548  30.391  30.901  1.00  0.00     0.029 A 
ATOM     63  C   UNL A   1      45.225  30.144  30.566  1.00  0.00     0.049 A 
ATOM     64  H   UNL A   1      44.347  28.374  29.825  1.00  0.00     0.167 HD
ATOM     65  C   UNL A   1      42.832  30.723  30.288  1.00  0.00     0.074 A 
ATOM     66  C   UNL A   1      41.710  31.632  30.386  1.00  0.00     0.031 C 
ATOM     67  C   UNL A   1      44.101  31.040  30.644  1.00  0.00     0.037 A 
BRANCH  54  68
ATOM     68  C   UNL A   1      48.131  26.415  30.004  1.00  0.00     0.057 A 
ATOM     69  C   UNL A   1      48.532  25.750  31.171  1.00  0.00     0.134 A 
ATOM     70  C   UNL A   1      49.079  26.551  28.981  1.00  0.00     0.134 A 
ATOM     71  F   UNL A   1      47.676  25.596  32.192  1.00  0.00    -0.206 F 
ATOM     72  C   UNL A   1      49.826  25.252  31.319  1.00  0.00     0.040 A 
ATOM     73  C   UNL A   1      50.369  26.035  29.107  1.00  0.00     0.040 A 
ATOM     74  F   UNL A   1      48.760  27.172  27.836  1.00  0.00    -0.206 F 
ATOM     75  C   UNL A   1      50.747  25.384  30.281  1.00  0.00     0.006 A 
ENDBRANCH  54  68
BRANCH  55  76
ATOM     76  C   UNL A   1      38.597  29.178  28.964  1.00  0.00     0.057 A 
ATOM     77  C   UNL A   1      37.746  29.099  30.074  1.00  0.00     0.134 A 
ATOM     78  C   UNL A   1      38.043  29.625  27.759  1.00  0.00     0.134 A 
ATOM     79  F   UNL A   1      38.214  28.660  31.252  1.00  0.00    -0.206 F 
ATOM     80  C   UNL A   1      36.391  29.419  29.982  1.00  0.00     0.040 A 
ATOM     81  C   UNL A   1      36.695  29.975  27.659  1.00  0.00     0.040 A 
ATOM     82  F   UNL A   1      38.804  29.733  26.661  1.00  0.00    -0.206 F 
ATOM     83  C   UNL A   1      35.862  29.861  28.771  1.00  0.00     0.006 A 
ENDBRANCH  55  76
BRANCH  67  84
ATOM     84  C   UNL A   1      44.350  32.436  31.134  1.00  0.00     0.057 A 
ATOM     85  C   UNL A   1      44.299  32.763  32.495  1.00  0.00     0.134 A 
ATOM     86  C   UNL A   1      44.686  33.456  30.234  1.00  0.00     0.134 A 
ATOM     87  F   UNL A   1      43.972  31.833  33.405  1.00  0.00    -0.206 F 
ATOM     88  C   UNL A   1      44.550  34.061  32.942  1.00  0.00     0.040 A 
ATOM     89  C   UNL A   1      44.966  34.751  30.672  1.00  0.00     0.040 A 
ATOM     90  F   UNL A   1      44.761  33.207  28.918  1.00  0.00    -0.206 F 
ATOM     91  C   UNL A   1      44.892  35.058  32.028  1.00  0.00     0.006 A 
ENDBRANCH  67  84
ENDBRANCH  41  42
ENDBRANCH  33  36
ENDBRANCH  31  32
ENDBRANCH  30  31
ENDBRANCH  29  30
ENDBRANCH   1  29
TORSDOF 17
ENDMDL
MODEL 3
REMARK VINA RESULT:     -11.1      1.686      6.423
REMARK SMILES CCc1cc(OC(F)(F)F)cc2c1O[C@@H](C(F)(F)F)C(C(=O)NCCCCCCNC(=O)c1ccc(-c3c4nc(c(-c5c(F)cccc5F)c5ccc([nH]5)c(-c5c(F)cccc5F)c5nc(c(-c6c(F)cccc6F)c6ccc3[nH]6)C=C5)C=C4)cc1)=C2
REMARK SMILES IDX 26 1 25 2 24 3 23 4 21 5 22 6 20 8 3 9 4 10 13 11 5 12 12 13
REMARK SMILES IDX 14 14 11 15 87 16 15 17 2 18 1 19 6 20 7 21 8 22 9 23 10 24
REMARK SMILES IDX 16 25 17 26 18 27 19 28 27 29 28 30 29 31 30 32 31 33 32 35
REMARK SMILES IDX 33 36 34 37 86 38 35 39 85 40 36 41 37 42 38 43 79 44 39 45
REMARK SMILES IDX 84 46 78 47 80 48 40 49 83 50 77 51 76 52 41 54 67 55 50 56
REMARK SMILES IDX 66 57 51 58 54 59 65 60 81 61 52 62 53 63 64 65 82 66 55 67
REMARK SMILES IDX 42 68 43 69 48 70 44 71 45 72 47 73 49 74 46 75 68 76 69 77
REMARK SMILES IDX 74 78 70 79 71 80 73 81 75 82 72 83 56 84 57 85 62 86 58 87
REMARK SMILES IDX 59 88 61 89 63 90 60 91
REMARK H PARENT 23 7 30 34 80 53 54 64
REMARK Flexibility Score: inf
ROOT
ATOM      1  C   UNL A   1      36.590  21.742  24.937  1.00  0.00     0.002 C 
ENDROOT
BRANCH   1   2
ATOM      2  C   UNL A   1      36.642  22.415  23.559  1.00  0.00     0.021 C 
BRANCH   2   3
ATOM      3  C   UNL A   1      35.599  23.528  23.397  1.00  0.00     0.116 C 
BRANCH   3   4
ATOM      4  N   UNL A   1      34.333  22.940  22.995  1.00  0.00    -0.352 N 
ATOM      5  C   UNL A   1      33.043  23.330  23.162  1.00  0.00     0.251 C 
ATOM      6  O   UNL A   1      32.160  22.505  22.946  1.00  0.00    -0.270 OA
ATOM      7  H   UNL A   1      34.429  22.090  22.505  1.00  0.00     0.163 HD
BRANCH   5   8
ATOM      8  C   UNL A   1      32.661  24.726  23.498  1.00  0.00     0.067 C 
ATOM      9  C   UNL A   1      31.352  28.484  24.856  1.00  0.00    -0.002 A 
ATOM     10  C   UNL A   1      30.653  29.326  23.970  1.00  0.00     0.054 A 
ATOM     11  C   UNL A   1      31.825  27.244  24.399  1.00  0.00     0.131 A 
ATOM     12  C   UNL A   1      30.426  28.937  22.650  1.00  0.00     0.130 A 
ATOM     13  C   UNL A   1      31.621  26.860  23.077  1.00  0.00     0.021 A 
ATOM     14  O   UNL A   1      32.426  26.432  25.314  1.00  0.00    -0.475 OA
ATOM     15  C   UNL A   1      30.920  27.705  22.210  1.00  0.00     0.058 A 
ATOM     16  C   UNL A   1      32.061  25.549  22.627  1.00  0.00     0.025 C 
ATOM     17  C   UNL A   1      33.124  25.238  24.860  1.00  0.00     0.314 C 
BRANCH   9  18
ATOM     18  C   UNL A   1      31.628  28.959  26.264  1.00  0.00     0.036 C 
ATOM     19  C   UNL A   1      32.888  29.812  26.311  1.00  0.00     0.009 C 
ENDBRANCH   9  18
BRANCH  12  20
ATOM     20  O   UNL A   1      29.743  29.640  21.700  1.00  0.00    -0.406 OA
BRANCH  20  21
ATOM     21  C   UNL A   1      28.365  29.890  21.923  1.00  0.00     0.573 C 
ATOM     22  F   UNL A   1      27.761  28.825  22.492  1.00  0.00    -0.132 F 
ATOM     23  F   UNL A   1      28.190  30.979  22.700  1.00  0.00    -0.132 F 
ATOM     24  F   UNL A   1      27.770  30.122  20.731  1.00  0.00    -0.132 F 
ENDBRANCH  20  21
ENDBRANCH  12  20
BRANCH  17  25
ATOM     25  C   UNL A   1      33.099  24.227  26.031  1.00  0.00     0.429 C 
ATOM     26  F   UNL A   1      34.335  23.859  26.434  1.00  0.00    -0.167 F 
ATOM     27  F   UNL A   1      32.512  24.774  27.131  1.00  0.00    -0.167 F 
ATOM     28  F   UNL A   1      32.399  23.109  25.734  1.00  0.00    -0.167 F 
ENDBRANCH  17  25
ENDBRANCH   5   8
ENDBRANCH   3   4
ENDBRANCH   2   3
ENDBRANCH   1   2
BRANCH   1  29
ATOM     29  C   UNL A   1      36.441  20.216  24.896  1.00  0.00     0.002 C 
BRANCH  29  30
ATOM     30  C   UNL A   1      37.761  19.442  24.884  1.00  0.00     0.021 C 
BRANCH  30  31
ATOM     31  C   UNL A   1      38.889  20.119  25.658  1.00  0.00     0.116 C 
BRANCH  31  32
ATOM     32  N   UNL A   1      40.050  19.251  25.774  1.00  0.00    -0.352 N 
ATOM     33  C   UNL A   1      41.348  19.577  26.075  1.00  0.00     0.251 C 
ATOM     34  H   UNL A   1      39.881  18.294  25.615  1.00  0.00     0.163 HD
ATOM     35  O   UNL A   1      42.248  18.764  25.896  1.00  0.00    -0.269 OA
BRANCH  33  36
ATOM     36  C   UNL A   1      41.662  20.919  26.608  1.00  0.00     0.039 A 
ATOM     37  C   UNL A   1      41.647  21.120  27.990  1.00  0.00     0.014 A 
ATOM     38  C   UNL A   1      41.950  21.981  25.744  1.00  0.00     0.014 A 
ATOM     39  C   UNL A   1      41.970  22.374  28.509  1.00  0.00     0.010 A 
ATOM     40  C   UNL A   1      42.336  23.212  26.265  1.00  0.00     0.010 A 
ATOM     41  C   UNL A   1      42.344  23.423  27.652  1.00  0.00    -0.014 A 
BRANCH  41  42
ATOM     42  C   UNL A   1      42.743  24.749  28.189  1.00  0.00     0.031 A 
ATOM     43  C   UNL A   1      41.705  25.816  28.411  1.00  0.00     0.074 A 
ATOM     44  C   UNL A   1      44.045  25.012  28.411  1.00  0.00     0.049 A 
ATOM     45  N   UNL A   1      41.867  27.056  28.798  1.00  0.00    -0.248 NA
ATOM     46  C   UNL A   1      40.307  25.450  28.136  1.00  0.00     0.031 C 
ATOM     47  C   UNL A   1      45.150  24.078  28.185  1.00  0.00     0.029 A 
ATOM     48  N   UNL A   1      44.663  26.152  28.863  1.00  0.00    -0.354 N 
ATOM     49  C   UNL A   1      40.597  27.621  28.796  1.00  0.00     0.074 A 
ATOM     50  C   UNL A   1      39.682  26.603  28.327  1.00  0.00     0.031 C 
ATOM     51  C   UNL A   1      46.307  24.676  28.513  1.00  0.00     0.029 A 
ATOM     52  C   UNL A   1      46.031  26.045  28.935  1.00  0.00     0.049 A 
ATOM     53  H   UNL A   1      44.172  26.968  29.113  1.00  0.00     0.167 HD
ATOM     54  C   UNL A   1      40.228  28.868  29.170  1.00  0.00     0.037 A 
ATOM     55  C   UNL A   1      46.959  26.954  29.290  1.00  0.00     0.037 A 
ATOM     56  C   UNL A   1      41.136  29.864  29.672  1.00  0.00     0.049 A 
ATOM     57  C   UNL A   1      46.516  28.328  29.712  1.00  0.00     0.074 A 
ATOM     58  C   UNL A   1      40.845  31.131  30.150  1.00  0.00     0.029 A 
ATOM     59  N   UNL A   1      42.510  29.707  29.763  1.00  0.00    -0.354 N 
ATOM     60  N   UNL A   1      45.304  28.822  29.780  1.00  0.00    -0.248 NA
ATOM     61  C   UNL A   1      47.571  29.271  30.115  1.00  0.00     0.031 C 
ATOM     62  C   UNL A   1      42.049  31.758  30.486  1.00  0.00     0.029 A 
ATOM     63  C   UNL A   1      43.084  30.863  30.266  1.00  0.00     0.049 A 
ATOM     64  H   UNL A   1      43.004  28.894  29.508  1.00  0.00     0.167 HD
ATOM     65  C   UNL A   1      45.447  30.117  30.260  1.00  0.00     0.074 A 
ATOM     66  C   UNL A   1      46.862  30.328  30.482  1.00  0.00     0.031 C 
ATOM     67  C   UNL A   1      44.493  31.050  30.495  1.00  0.00     0.037 A 
BRANCH  54  68
ATOM     68  C   UNL A   1      38.776  29.231  29.062  1.00  0.00     0.057 A 
ATOM     69  C   UNL A   1      38.195  29.603  27.842  1.00  0.00     0.134 A 
ATOM     70  C   UNL A   1      37.933  29.142  30.178  1.00  0.00     0.134 A 
ATOM     71  F   UNL A   1      38.949  29.718  26.738  1.00  0.00    -0.206 F 
ATOM     72  C   UNL A   1      36.833  29.884  27.739  1.00  0.00     0.040 A 
ATOM     73  C   UNL A   1      36.565  29.397  30.081  1.00  0.00     0.040 A 
ATOM     74  F   UNL A   1      38.423  28.787  31.375  1.00  0.00    -0.206 F 
ATOM     75  C   UNL A   1      36.010  29.772  28.858  1.00  0.00     0.006 A 
ENDBRANCH  54  68
BRANCH  55  76
ATOM     76  C   UNL A   1      48.401  26.599  29.271  1.00  0.00     0.057 A 
ATOM     77  C   UNL A   1      49.178  26.780  28.120  1.00  0.00     0.134 A 
ATOM     78  C   UNL A   1      49.030  26.041  30.391  1.00  0.00     0.134 A 
ATOM     79  F   UNL A   1      48.628  27.293  27.009  1.00  0.00    -0.206 F 
ATOM     80  C   UNL A   1      50.517  26.391  28.072  1.00  0.00     0.040 A 
ATOM     81  C   UNL A   1      50.376  25.673  30.366  1.00  0.00     0.040 A 
ATOM     82  F   UNL A   1      48.346  25.850  31.528  1.00  0.00    -0.206 F 
ATOM     83  C   UNL A   1      51.121  25.837  29.199  1.00  0.00     0.006 A 
ENDBRANCH  55  76
BRANCH  67  84
ATOM     84  C   UNL A   1      44.941  32.367  31.057  1.00  0.00     0.057 A 
ATOM     85  C   UNL A   1      45.238  33.461  30.234  1.00  0.00     0.134 A 
ATOM     86  C   UNL A   1      45.038  32.553  32.442  1.00  0.00     0.134 A 
ATOM     87  F   UNL A   1      45.177  33.343  28.899  1.00  0.00    -0.206 F 
ATOM     88  C   UNL A   1      45.638  34.687  30.769  1.00  0.00     0.040 A 
ATOM     89  C   UNL A   1      45.409  33.781  32.989  1.00  0.00     0.040 A 
ATOM     90  F   UNL A   1      44.758  31.548  33.286  1.00  0.00    -0.206 F 
ATOM     91  C   UNL A   1      45.717  34.850  32.151  1.00  0.00     0.006 A 
ENDBRANCH  67  84
ENDBRANCH  41  42
ENDBRANCH  33  36
ENDBRANCH  31  32
ENDBRANCH  30  31
ENDBRANCH  29  30
ENDBRANCH   1  29
TORSDOF 17
ENDMDL
