MODEL 1
REMARK VINA RESULT:     -10.4      0.000      0.000
REMARK SMILES CCC(CC)(CC)NC(=O)NC[C@@H]1CC[C@H](C(=O)NCCCCCCNC(=O)c2ccc(-c3c4nc(c(-c5c(F)cccc5F)c5ccc([nH]5)c(-c5c(F)cccc5F)c5nc(c(-c6c(F)cccc6F)c6ccc3[nH]6)C=C5)C=C4)cc2)O1
REMARK SMILES IDX 21 1 20 2 19 3 17 4 18 5 16 7 13 8 14 9 83 10 15 11 12 12
REMARK SMILES IDX 11 13 8 14 9 15 10 17 3 19 2 20 1 21 4 22 5 23 6 24 7 25
REMARK SMILES IDX 22 26 23 27 24 28 25 29 26 30 27 31 28 33 29 34 30 35 82 36
REMARK SMILES IDX 31 37 81 38 32 39 33 40 34 41 75 42 35 43 80 44 74 45 76 46
REMARK SMILES IDX 36 47 79 48 73 49 72 50 37 52 63 53 46 54 62 55 47 56 50 57
REMARK SMILES IDX 61 58 77 59 48 60 49 61 60 63 78 64 51 65 38 66 39 67 44 68
REMARK SMILES IDX 40 69 41 70 43 71 45 72 42 73 64 74 65 75 70 76 66 77 67 78
REMARK SMILES IDX 69 79 71 80 68 81 52 82 53 83 58 84 54 85 55 86 57 87 59 88
REMARK SMILES IDX 56 89
REMARK H PARENT 19 6 8 16 11 18 26 32 76 51 50 62
REMARK Flexibility Score: inf
ROOT
ATOM      1  C   UNL A   1      34.219  31.265  28.001  1.00  0.00     0.021 C 
ENDROOT
BRANCH   1   2
ATOM      2  C   UNL A   1      33.223  30.674  27.004  1.00  0.00     0.116 C 
BRANCH   2   3
ATOM      3  N   UNL A   1      32.274  29.779  27.623  1.00  0.00    -0.354 N 
ATOM      4  C   UNL A   1      31.920  28.514  27.251  1.00  0.00     0.249 C 
ATOM      5  O   UNL A   1      31.163  27.891  28.003  1.00  0.00    -0.272 OA
ATOM      6  H   UNL A   1      31.819  30.130  28.422  1.00  0.00     0.163 HD
BRANCH   4   7
ATOM      7  C   UNL A   1      32.417  27.879  25.929  1.00  0.00     0.207 C 
ATOM      8  C   UNL A   1      31.995  25.944  24.682  1.00  0.00     0.138 C 
ATOM      9  C   UNL A   1      33.201  25.628  25.551  1.00  0.00     0.037 C 
ATOM     10  O   UNL A   1      31.427  27.125  25.238  1.00  0.00    -0.363 OA
ATOM     11  C   UNL A   1      33.645  26.993  26.058  1.00  0.00     0.045 C 
BRANCH   8  12
ATOM     12  C   UNL A   1      30.925  24.835  24.484  1.00  0.00     0.149 C 
BRANCH  12  13
ATOM     13  N   UNL A   1      30.507  24.067  25.659  1.00  0.00    -0.336 N 
ATOM     14  N   UNL A   1      31.373  21.828  25.955  1.00  0.00    -0.333 N 
ATOM     15  C   UNL A   1      30.648  22.891  26.250  1.00  0.00     0.315 C 
ATOM     16  H   UNL A   1      30.916  21.036  26.316  1.00  0.00     0.165 HD
ATOM     17  O   UNL A   1      29.951  22.738  27.264  1.00  0.00    -0.249 OA
ATOM     18  H   UNL A   1      29.907  24.625  26.205  1.00  0.00     0.165 HD
BRANCH  14  19
ATOM     19  C   UNL A   1      32.623  21.375  25.282  1.00  0.00     0.041 C 
BRANCH  19  20
ATOM     20  C   UNL A   1      33.905  22.005  25.844  1.00  0.00     0.025 C 
ATOM     21  C   UNL A   1      34.004  21.898  27.360  1.00  0.00     0.006 C 
ENDBRANCH  19  20
BRANCH  19  22
ATOM     22  C   UNL A   1      32.480  21.797  23.766  1.00  0.00     0.025 C 
ATOM     23  C   UNL A   1      33.596  22.679  23.205  1.00  0.00     0.006 C 
ENDBRANCH  19  22
BRANCH  19  24
ATOM     24  C   UNL A   1      32.699  19.813  25.310  1.00  0.00     0.025 C 
ATOM     25  C   UNL A   1      33.898  19.173  24.622  1.00  0.00     0.006 C 
ENDBRANCH  19  24
ENDBRANCH  14  19
ENDBRANCH  12  13
ENDBRANCH   8  12
ENDBRANCH   4   7
ENDBRANCH   2   3
ENDBRANCH   1   2
BRANCH   1  26
ATOM     26  C   UNL A   1      34.481  32.760  27.805  1.00  0.00     0.002 C 
BRANCH  26  27
ATOM     27  C   UNL A   1      34.153  33.654  29.009  1.00  0.00     0.002 C 
BRANCH  27  28
ATOM     28  C   UNL A   1      33.042  34.682  28.789  1.00  0.00     0.021 C 
BRANCH  28  29
ATOM     29  C   UNL A   1      33.242  36.034  29.452  1.00  0.00     0.116 C 
BRANCH  29  30
ATOM     30  N   UNL A   1      32.423  36.198  30.638  1.00  0.00    -0.352 N 
ATOM     31  C   UNL A   1      32.589  35.703  31.909  1.00  0.00     0.251 C 
ATOM     32  H   UNL A   1      31.620  36.753  30.514  1.00  0.00     0.163 HD
ATOM     33  O   UNL A   1      31.678  35.813  32.723  1.00  0.00    -0.269 OA
BRANCH  31  34
ATOM     34  C   UNL A   1      33.846  35.026  32.311  1.00  0.00     0.039 A 
ATOM     35  C   UNL A   1      33.765  33.743  32.864  1.00  0.00     0.014 A 
ATOM     36  C   UNL A   1      35.090  35.653  32.204  1.00  0.00     0.014 A 
ATOM     37  C   UNL A   1      34.927  33.078  33.265  1.00  0.00     0.010 A 
ATOM     38  C   UNL A   1      36.255  34.957  32.528  1.00  0.00     0.010 A 
ATOM     39  C   UNL A   1      36.186  33.668  33.076  1.00  0.00    -0.014 A 
BRANCH  39  40
ATOM     40  C   UNL A   1      37.435  32.968  33.476  1.00  0.00     0.031 A 
ATOM     41  C   UNL A   1      38.030  31.915  32.580  1.00  0.00     0.074 A 
ATOM     42  C   UNL A   1      38.006  33.240  34.665  1.00  0.00     0.049 A 
ATOM     43  N   UNL A   1      39.069  31.145  32.786  1.00  0.00    -0.248 NA
ATOM     44  C   UNL A   1      37.354  31.678  31.295  1.00  0.00     0.031 C 
ATOM     45  C   UNL A   1      37.507  34.208  35.643  1.00  0.00     0.029 A 
ATOM     46  N   UNL A   1      39.129  32.718  35.257  1.00  0.00    -0.354 N 
ATOM     47  C   UNL A   1      39.157  30.323  31.668  1.00  0.00     0.074 A 
ATOM     48  C   UNL A   1      38.040  30.653  30.812  1.00  0.00     0.031 C 
ATOM     49  C   UNL A   1      38.332  34.228  36.703  1.00  0.00     0.029 A 
ATOM     50  C   UNL A   1      39.395  33.249  36.496  1.00  0.00     0.049 A 
ATOM     51  H   UNL A   1      39.690  32.029  34.835  1.00  0.00     0.167 HD
ATOM     52  C   UNL A   1      40.097  29.394  31.372  1.00  0.00     0.037 A 
ATOM     53  C   UNL A   1      40.384  32.974  37.370  1.00  0.00     0.037 A 
ATOM     54  C   UNL A   1      41.230  29.090  32.205  1.00  0.00     0.049 A 
ATOM     55  C   UNL A   1      41.416  31.941  37.014  1.00  0.00     0.074 A 
ATOM     56  C   UNL A   1      42.270  28.210  31.961  1.00  0.00     0.029 A 
ATOM     57  N   UNL A   1      41.474  29.663  33.443  1.00  0.00    -0.354 N 
ATOM     58  N   UNL A   1      41.517  31.212  35.930  1.00  0.00    -0.248 NA
ATOM     59  C   UNL A   1      42.474  31.694  38.004  1.00  0.00     0.031 C 
ATOM     60  C   UNL A   1      43.124  28.223  33.068  1.00  0.00     0.029 A 
ATOM     61  C   UNL A   1      42.638  29.142  33.983  1.00  0.00     0.049 A 
ATOM     62  H   UNL A   1      40.904  30.341  33.875  1.00  0.00     0.167 HD
ATOM     63  C   UNL A   1      42.659  30.440  36.095  1.00  0.00     0.074 A 
ATOM     64  C   UNL A   1      43.226  30.800  37.378  1.00  0.00     0.031 C 
ATOM     65  C   UNL A   1      43.191  29.516  35.260  1.00  0.00     0.037 A 
BRANCH  52  66
ATOM     66  C   UNL A   1      39.943  28.641  30.082  1.00  0.00     0.057 A 
ATOM     67  C   UNL A   1      39.157  27.485  29.992  1.00  0.00     0.134 A 
ATOM     68  C   UNL A   1      40.557  29.099  28.909  1.00  0.00     0.134 A 
ATOM     69  F   UNL A   1      38.552  26.988  31.081  1.00  0.00    -0.206 F 
ATOM     70  C   UNL A   1      39.007  26.797  28.787  1.00  0.00     0.040 A 
ATOM     71  C   UNL A   1      40.393  28.432  27.692  1.00  0.00     0.040 A 
ATOM     72  F   UNL A   1      41.319  30.203  28.923  1.00  0.00    -0.206 F 
ATOM     73  C   UNL A   1      39.621  27.274  27.631  1.00  0.00     0.006 A 
ENDBRANCH  52  66
BRANCH  53  74
ATOM     74  C   UNL A   1      40.458  33.704  38.661  1.00  0.00     0.057 A 
ATOM     75  C   UNL A   1      39.662  33.327  39.748  1.00  0.00     0.134 A 
ATOM     76  C   UNL A   1      41.311  34.800  38.834  1.00  0.00     0.134 A 
ATOM     77  F   UNL A   1      38.810  32.297  39.635  1.00  0.00    -0.206 F 
ATOM     78  C   UNL A   1      39.698  34.023  40.957  1.00  0.00     0.040 A 
ATOM     79  C   UNL A   1      41.375  35.491  40.045  1.00  0.00     0.040 A 
ATOM     80  F   UNL A   1      42.102  35.208  37.830  1.00  0.00    -0.206 F 
ATOM     81  C   UNL A   1      40.560  35.107  41.108  1.00  0.00     0.006 A 
ENDBRANCH  53  74
BRANCH  65  82
ATOM     82  C   UNL A   1      44.463  28.850  35.694  1.00  0.00     0.057 A 
ATOM     83  C   UNL A   1      44.457  27.661  36.432  1.00  0.00     0.134 A 
ATOM     84  C   UNL A   1      45.707  29.386  35.335  1.00  0.00     0.134 A 
ATOM     85  F   UNL A   1      43.299  27.105  36.817  1.00  0.00    -0.206 F 
ATOM     86  C   UNL A   1      45.645  27.037  36.816  1.00  0.00     0.040 A 
ATOM     87  C   UNL A   1      46.901  28.758  35.694  1.00  0.00     0.040 A 
ATOM     88  F   UNL A   1      45.781  30.519  34.622  1.00  0.00    -0.206 F 
ATOM     89  C   UNL A   1      46.872  27.582  36.440  1.00  0.00     0.006 A 
ENDBRANCH  65  82
ENDBRANCH  39  40
ENDBRANCH  31  34
ENDBRANCH  29  30
ENDBRANCH  28  29
ENDBRANCH  27  28
ENDBRANCH  26  27
ENDBRANCH   1  26
TORSDOF 19
ENDMDL
MODEL 2
REMARK VINA RESULT:     -10.4      2.704      6.827
REMARK SMILES CCC(CC)(CC)NC(=O)NC[C@@H]1CC[C@H](C(=O)NCCCCCCNC(=O)c2ccc(-c3c4nc(c(-c5c(F)cccc5F)c5ccc([nH]5)c(-c5c(F)cccc5F)c5nc(c(-c6c(F)cccc6F)c6ccc3[nH]6)C=C5)C=C4)cc2)O1
REMARK SMILES IDX 21 1 20 2 19 3 17 4 18 5 16 7 13 8 14 9 83 10 15 11 12 12
REMARK SMILES IDX 11 13 8 14 9 15 10 17 3 19 2 20 1 21 4 22 5 23 6 24 7 25
REMARK SMILES IDX 22 26 23 27 24 28 25 29 26 30 27 31 28 33 29 34 30 35 82 36
REMARK SMILES IDX 31 37 81 38 32 39 33 40 34 41 75 42 35 43 80 44 74 45 76 46
REMARK SMILES IDX 36 47 79 48 73 49 72 50 37 52 63 53 46 54 62 55 47 56 50 57
REMARK SMILES IDX 61 58 77 59 48 60 49 61 60 63 78 64 51 65 38 66 39 67 44 68
REMARK SMILES IDX 40 69 41 70 43 71 45 72 42 73 64 74 65 75 70 76 66 77 67 78
REMARK SMILES IDX 69 79 71 80 68 81 52 82 53 83 58 84 54 85 55 86 57 87 59 88
REMARK SMILES IDX 56 89
REMARK H PARENT 19 6 8 16 11 18 26 32 76 51 50 62
REMARK Flexibility Score: inf
ROOT
ATOM      1  C   UNL A   1      34.562  29.121  27.255  1.00  0.00     0.021 C 
ENDROOT
BRANCH   1   2
ATOM      2  C   UNL A   1      34.041  28.101  26.243  1.00  0.00     0.116 C 
BRANCH   2   3
ATOM      3  N   UNL A   1      34.247  28.514  24.875  1.00  0.00    -0.354 N 
ATOM      4  C   UNL A   1      33.319  28.845  23.930  1.00  0.00     0.249 C 
ATOM      5  O   UNL A   1      33.735  29.279  22.851  1.00  0.00    -0.272 OA
ATOM      6  H   UNL A   1      35.186  28.562  24.583  1.00  0.00     0.163 HD
BRANCH   4   7
ATOM      7  C   UNL A   1      31.800  28.663  24.174  1.00  0.00     0.207 C 
ATOM      8  C   UNL A   1      30.233  26.928  24.068  1.00  0.00     0.138 C 
ATOM      9  C   UNL A   1      30.162  27.640  22.726  1.00  0.00     0.037 C 
ATOM     10  O   UNL A   1      31.440  27.379  24.671  1.00  0.00    -0.363 OA
ATOM     11  C   UNL A   1      30.913  28.941  22.971  1.00  0.00     0.045 C 
BRANCH   8  12
ATOM     12  C   UNL A   1      30.134  25.377  24.078  1.00  0.00     0.149 C 
BRANCH  12  13
ATOM     13  N   UNL A   1      30.166  24.697  25.375  1.00  0.00    -0.336 N 
ATOM     14  N   UNL A   1      31.855  23.010  25.764  1.00  0.00    -0.333 N 
ATOM     15  C   UNL A   1      30.809  23.761  26.055  1.00  0.00     0.315 C 
ATOM     16  H   UNL A   1      31.778  22.169  26.269  1.00  0.00     0.165 HD
ATOM     17  O   UNL A   1      30.330  23.516  27.172  1.00  0.00    -0.249 OA
ATOM     18  H   UNL A   1      29.455  25.069  25.945  1.00  0.00     0.165 HD
BRANCH  14  19
ATOM     19  C   UNL A   1      33.108  22.954  24.961  1.00  0.00     0.041 C 
BRANCH  19  20
ATOM     20  C   UNL A   1      32.916  22.439  23.527  1.00  0.00     0.025 C 
ATOM     21  C   UNL A   1      33.121  23.521  22.475  1.00  0.00     0.006 C 
ENDBRANCH  19  20
BRANCH  19  22
ATOM     22  C   UNL A   1      34.072  21.962  25.725  1.00  0.00     0.025 C 
ATOM     23  C   UNL A   1      34.312  20.608  25.055  1.00  0.00     0.006 C 
ENDBRANCH  19  22
BRANCH  19  24
ATOM     24  C   UNL A   1      33.802  24.355  24.972  1.00  0.00     0.025 C 
ATOM     25  C   UNL A   1      35.250  24.400  25.446  1.00  0.00     0.006 C 
ENDBRANCH  19  24
ENDBRANCH  14  19
ENDBRANCH  12  13
ENDBRANCH   8  12
ENDBRANCH   4   7
ENDBRANCH   2   3
ENDBRANCH   1   2
BRANCH   1  26
ATOM     26  C   UNL A   1      33.883  30.490  27.162  1.00  0.00     0.002 C 
BRANCH  26  27
ATOM     27  C   UNL A   1      32.348  30.469  27.152  1.00  0.00     0.002 C 
BRANCH  27  28
ATOM     28  C   UNL A   1      31.667  31.838  27.089  1.00  0.00     0.021 C 
BRANCH  28  29
ATOM     29  C   UNL A   1      32.566  33.017  26.762  1.00  0.00     0.116 C 
BRANCH  29  30
ATOM     30  N   UNL A   1      32.350  34.143  27.650  1.00  0.00    -0.352 N 
ATOM     31  C   UNL A   1      33.051  34.548  28.760  1.00  0.00     0.251 C 
ATOM     32  H   UNL A   1      31.578  34.709  27.422  1.00  0.00     0.163 HD
ATOM     33  O   UNL A   1      32.588  35.429  29.478  1.00  0.00    -0.269 OA
BRANCH  31  34
ATOM     34  C   UNL A   1      34.352  33.929  29.114  1.00  0.00     0.039 A 
ATOM     35  C   UNL A   1      34.437  33.187  30.297  1.00  0.00     0.014 A 
ATOM     36  C   UNL A   1      35.496  34.116  28.333  1.00  0.00     0.014 A 
ATOM     37  C   UNL A   1      35.649  32.598  30.669  1.00  0.00     0.010 A 
ATOM     38  C   UNL A   1      36.683  33.461  28.662  1.00  0.00     0.010 A 
ATOM     39  C   UNL A   1      36.777  32.708  29.841  1.00  0.00    -0.014 A 
BRANCH  39  40
ATOM     40  C   UNL A   1      38.068  32.071  30.209  1.00  0.00     0.031 A 
ATOM     41  C   UNL A   1      39.015  32.769  31.148  1.00  0.00     0.074 A 
ATOM     42  C   UNL A   1      38.415  30.890  29.661  1.00  0.00     0.049 A 
ATOM     43  N   UNL A   1      40.215  32.411  31.531  1.00  0.00    -0.248 NA
ATOM     44  C   UNL A   1      38.565  34.051  31.711  1.00  0.00     0.031 C 
ATOM     45  C   UNL A   1      37.607  30.130  28.706  1.00  0.00     0.029 A 
ATOM     46  N   UNL A   1      39.545  30.127  29.822  1.00  0.00    -0.354 N 
ATOM     47  C   UNL A   1      40.667  33.431  32.361  1.00  0.00     0.074 A 
ATOM     48  C   UNL A   1      39.635  34.443  32.387  1.00  0.00     0.031 C 
ATOM     49  C   UNL A   1      38.255  28.998  28.384  1.00  0.00     0.029 A 
ATOM     50  C   UNL A   1      39.539  28.971  29.079  1.00  0.00     0.049 A 
ATOM     51  H   UNL A   1      40.288  30.383  30.414  1.00  0.00     0.167 HD
ATOM     52  C   UNL A   1      41.827  33.506  33.057  1.00  0.00     0.037 A 
ATOM     53  C   UNL A   1      40.467  28.000  28.968  1.00  0.00     0.037 A 
ATOM     54  C   UNL A   1      42.838  32.482  33.062  1.00  0.00     0.049 A 
ATOM     55  C   UNL A   1      41.743  28.106  29.754  1.00  0.00     0.074 A 
ATOM     56  C   UNL A   1      44.019  32.439  33.784  1.00  0.00     0.029 A 
ATOM     57  N   UNL A   1      42.786  31.319  32.311  1.00  0.00    -0.354 N 
ATOM     58  N   UNL A   1      42.132  29.049  30.577  1.00  0.00    -0.248 NA
ATOM     59  C   UNL A   1      42.711  27.010  29.598  1.00  0.00     0.031 C 
ATOM     60  C   UNL A   1      44.698  31.266  33.442  1.00  0.00     0.029 A 
ATOM     61  C   UNL A   1      43.921  30.559  32.538  1.00  0.00     0.049 A 
ATOM     62  H   UNL A   1      42.050  31.068  31.706  1.00  0.00     0.167 HD
ATOM     63  C   UNL A   1      43.373  28.651  31.055  1.00  0.00     0.074 A 
ATOM     64  C   UNL A   1      43.667  27.373  30.441  1.00  0.00     0.031 C 
ATOM     65  C   UNL A   1      44.196  29.286  31.923  1.00  0.00     0.037 A 
BRANCH  52  66
ATOM     66  C   UNL A   1      42.060  34.738  33.882  1.00  0.00     0.057 A 
ATOM     67  C   UNL A   1      41.697  34.799  35.234  1.00  0.00     0.134 A 
ATOM     68  C   UNL A   1      42.686  35.862  33.329  1.00  0.00     0.134 A 
ATOM     69  F   UNL A   1      41.083  33.762  35.821  1.00  0.00    -0.206 F 
ATOM     70  C   UNL A   1      41.927  35.943  36.000  1.00  0.00     0.040 A 
ATOM     71  C   UNL A   1      42.944  37.003  34.093  1.00  0.00     0.040 A 
ATOM     72  F   UNL A   1      43.064  35.868  32.042  1.00  0.00    -0.206 F 
ATOM     73  C   UNL A   1      42.559  37.047  35.430  1.00  0.00     0.006 A 
ENDBRANCH  52  66
BRANCH  53  74
ATOM     74  C   UNL A   1      40.214  26.829  28.091  1.00  0.00     0.057 A 
ATOM     75  C   UNL A   1      39.427  25.757  28.530  1.00  0.00     0.134 A 
ATOM     76  C   UNL A   1      40.763  26.744  26.807  1.00  0.00     0.134 A 
ATOM     77  F   UNL A   1      38.893  25.773  29.759  1.00  0.00    -0.206 F 
ATOM     78  C   UNL A   1      39.208  24.636  27.729  1.00  0.00     0.040 A 
ATOM     79  C   UNL A   1      40.532  25.639  25.985  1.00  0.00     0.040 A 
ATOM     80  F   UNL A   1      41.523  27.740  26.327  1.00  0.00    -0.206 F 
ATOM     81  C   UNL A   1      39.758  24.577  26.450  1.00  0.00     0.006 A 
ENDBRANCH  53  74
BRANCH  65  82
ATOM     82  C   UNL A   1      45.478  28.596  32.282  1.00  0.00     0.057 A 
ATOM     83  C   UNL A   1      45.554  27.685  33.342  1.00  0.00     0.134 A 
ATOM     84  C   UNL A   1      46.640  28.817  31.532  1.00  0.00     0.134 A 
ATOM     85  F   UNL A   1      44.479  27.439  34.106  1.00  0.00    -0.206 F 
ATOM     86  C   UNL A   1      46.747  27.033  33.658  1.00  0.00     0.040 A 
ATOM     87  C   UNL A   1      47.833  28.153  31.823  1.00  0.00     0.040 A 
ATOM     88  F   UNL A   1      46.633  29.672  30.498  1.00  0.00    -0.206 F 
ATOM     89  C   UNL A   1      47.889  27.261  32.892  1.00  0.00     0.006 A 
ENDBRANCH  65  82
ENDBRANCH  39  40
ENDBRANCH  31  34
ENDBRANCH  29  30
ENDBRANCH  28  29
ENDBRANCH  27  28
ENDBRANCH  26  27
ENDBRANCH   1  26
TORSDOF 19
ENDMDL
MODEL 3
REMARK VINA RESULT:     -10.3      2.025      6.784
REMARK SMILES CCC(CC)(CC)NC(=O)NC[C@@H]1CC[C@H](C(=O)NCCCCCCNC(=O)c2ccc(-c3c4nc(c(-c5c(F)cccc5F)c5ccc([nH]5)c(-c5c(F)cccc5F)c5nc(c(-c6c(F)cccc6F)c6ccc3[nH]6)C=C5)C=C4)cc2)O1
REMARK SMILES IDX 21 1 20 2 19 3 17 4 18 5 16 7 13 8 14 9 83 10 15 11 12 12
REMARK SMILES IDX 11 13 8 14 9 15 10 17 3 19 2 20 1 21 4 22 5 23 6 24 7 25
REMARK SMILES IDX 22 26 23 27 24 28 25 29 26 30 27 31 28 33 29 34 30 35 82 36
REMARK SMILES IDX 31 37 81 38 32 39 33 40 34 41 75 42 35 43 80 44 74 45 76 46
REMARK SMILES IDX 36 47 79 48 73 49 72 50 37 52 63 53 46 54 62 55 47 56 50 57
REMARK SMILES IDX 61 58 77 59 48 60 49 61 60 63 78 64 51 65 38 66 39 67 44 68
REMARK SMILES IDX 40 69 41 70 43 71 45 72 42 73 64 74 65 75 70 76 66 77 67 78
REMARK SMILES IDX 69 79 71 80 68 81 52 82 53 83 58 84 54 85 55 86 57 87 59 88
REMARK SMILES IDX 56 89
REMARK H PARENT 19 6 8 16 11 18 26 32 76 51 50 62
REMARK Flexibility Score: inf
ROOT
ATOM      1  C   UNL A   1      34.690  29.238  27.330  1.00  0.00     0.021 C 
ENDROOT
BRANCH   1   2
ATOM      2  C   UNL A   1      34.079  28.228  26.359  1.00  0.00     0.116 C 
BRANCH   2   3
ATOM      3  N   UNL A   1      34.156  28.657  24.982  1.00  0.00    -0.354 N 
ATOM      4  C   UNL A   1      33.156  28.759  24.059  1.00  0.00     0.249 C 
ATOM      5  O   UNL A   1      33.439  29.261  22.966  1.00  0.00    -0.272 OA
ATOM      6  H   UNL A   1      35.053  28.909  24.666  1.00  0.00     0.163 HD
BRANCH   4   7
ATOM      7  C   UNL A   1      31.722  28.248  24.344  1.00  0.00     0.207 C 
ATOM      8  C   UNL A   1      30.445  26.345  23.867  1.00  0.00     0.138 C 
ATOM      9  C   UNL A   1      30.111  27.357  22.782  1.00  0.00     0.037 C 
ATOM     10  O   UNL A   1      31.626  26.835  24.490  1.00  0.00    -0.363 OA
ATOM     11  C   UNL A   1      30.672  28.663  23.326  1.00  0.00     0.045 C 
BRANCH   8  12
ATOM     12  C   UNL A   1      30.592  24.854  23.456  1.00  0.00     0.149 C 
BRANCH  12  13
ATOM     13  N   UNL A   1      31.608  24.515  22.456  1.00  0.00    -0.336 N 
ATOM     14  N   UNL A   1      33.622  23.387  23.178  1.00  0.00    -0.333 N 
ATOM     15  C   UNL A   1      32.802  23.962  22.317  1.00  0.00     0.315 C 
ATOM     16  H   UNL A   1      34.541  23.502  22.849  1.00  0.00     0.165 HD
ATOM     17  O   UNL A   1      33.261  24.011  21.166  1.00  0.00    -0.249 OA
ATOM     18  H   UNL A   1      31.287  24.801  21.570  1.00  0.00     0.165 HD
BRANCH  14  19
ATOM     19  C   UNL A   1      33.680  22.628  24.458  1.00  0.00     0.041 C 
BRANCH  19  20
ATOM     20  C   UNL A   1      34.931  21.751  24.615  1.00  0.00     0.025 C 
ATOM     21  C   UNL A   1      36.209  22.459  24.187  1.00  0.00     0.006 C 
ENDBRANCH  19  20
BRANCH  19  22
ATOM     22  C   UNL A   1      32.407  21.691  24.468  1.00  0.00     0.025 C 
ATOM     23  C   UNL A   1      32.471  20.459  23.566  1.00  0.00     0.006 C 
ENDBRANCH  19  22
BRANCH  19  24
ATOM     24  C   UNL A   1      33.524  23.614  25.662  1.00  0.00     0.025 C 
ATOM     25  C   UNL A   1      32.462  23.268  26.698  1.00  0.00     0.006 C 
ENDBRANCH  19  24
ENDBRANCH  14  19
ENDBRANCH  12  13
ENDBRANCH   8  12
ENDBRANCH   4   7
ENDBRANCH   2   3
ENDBRANCH   1   2
BRANCH   1  26
ATOM     26  C   UNL A   1      34.030  30.619  27.285  1.00  0.00     0.002 C 
BRANCH  26  27
ATOM     27  C   UNL A   1      32.496  30.620  27.262  1.00  0.00     0.002 C 
BRANCH  27  28
ATOM     28  C   UNL A   1      31.833  31.999  27.252  1.00  0.00     0.021 C 
BRANCH  28  29
ATOM     29  C   UNL A   1      32.710  33.158  26.811  1.00  0.00     0.116 C 
BRANCH  29  30
ATOM     30  N   UNL A   1      32.523  34.340  27.631  1.00  0.00    -0.352 N 
ATOM     31  C   UNL A   1      33.117  34.705  28.814  1.00  0.00     0.251 C 
ATOM     32  H   UNL A   1      31.865  34.985  27.284  1.00  0.00     0.163 HD
ATOM     33  O   UNL A   1      32.679  35.666  29.437  1.00  0.00    -0.269 OA
BRANCH  31  34
ATOM     34  C   UNL A   1      34.272  33.949  29.358  1.00  0.00     0.039 A 
ATOM     35  C   UNL A   1      35.559  34.317  28.953  1.00  0.00     0.014 A 
ATOM     36  C   UNL A   1      34.104  32.856  30.212  1.00  0.00     0.014 A 
ATOM     37  C   UNL A   1      36.672  33.622  29.436  1.00  0.00     0.010 A 
ATOM     38  C   UNL A   1      35.216  32.215  30.757  1.00  0.00     0.010 A 
ATOM     39  C   UNL A   1      36.512  32.581  30.364  1.00  0.00    -0.014 A 
BRANCH  39  40
ATOM     40  C   UNL A   1      37.683  31.844  30.906  1.00  0.00     0.031 A 
ATOM     41  C   UNL A   1      38.215  32.172  32.275  1.00  0.00     0.074 A 
ATOM     42  C   UNL A   1      38.301  30.915  30.150  1.00  0.00     0.049 A 
ATOM     43  N   UNL A   1      39.267  31.694  32.891  1.00  0.00    -0.248 NA
ATOM     44  C   UNL A   1      37.484  33.192  33.043  1.00  0.00     0.031 C 
ATOM     45  C   UNL A   1      37.911  30.532  28.792  1.00  0.00     0.029 A 
ATOM     46  N   UNL A   1      39.396  30.131  30.416  1.00  0.00    -0.354 N 
ATOM     47  C   UNL A   1      39.333  32.367  34.105  1.00  0.00     0.074 A 
ATOM     48  C   UNL A   1      38.246  33.321  34.119  1.00  0.00     0.031 C 
ATOM     49  C   UNL A   1      38.739  29.570  28.352  1.00  0.00     0.029 A 
ATOM     50  C   UNL A   1      39.739  29.296  29.380  1.00  0.00     0.049 A 
ATOM     51  H   UNL A   1      39.889  30.165  31.266  1.00  0.00     0.167 HD
ATOM     52  C   UNL A   1      40.205  32.190  35.127  1.00  0.00     0.037 A 
ATOM     53  C   UNL A   1      40.749  28.411  29.269  1.00  0.00     0.037 A 
ATOM     54  C   UNL A   1      41.264  31.215  35.130  1.00  0.00     0.049 A 
ATOM     55  C   UNL A   1      41.701  28.232  30.419  1.00  0.00     0.074 A 
ATOM     56  C   UNL A   1      42.159  30.918  36.143  1.00  0.00     0.029 A 
ATOM     57  N   UNL A   1      41.566  30.376  34.070  1.00  0.00    -0.354 N 
ATOM     58  N   UNL A   1      41.717  28.836  31.582  1.00  0.00    -0.248 NA
ATOM     59  C   UNL A   1      42.776  27.244  30.242  1.00  0.00     0.031 C 
ATOM     60  C   UNL A   1      43.027  29.924  35.681  1.00  0.00     0.029 A 
ATOM     61  C   UNL A   1      42.646  29.573  34.396  1.00  0.00     0.049 A 
ATOM     62  H   UNL A   1      41.084  30.353  33.211  1.00  0.00     0.167 HD
ATOM     63  C   UNL A   1      42.782  28.286  32.282  1.00  0.00     0.074 A 
ATOM     64  C   UNL A   1      43.381  27.290  31.420  1.00  0.00     0.031 C 
ATOM     65  C   UNL A   1      43.225  28.581  33.528  1.00  0.00     0.037 A 
BRANCH  52  66
ATOM     66  C   UNL A   1      40.044  33.067  36.334  1.00  0.00     0.057 A 
ATOM     67  C   UNL A   1      40.784  34.246  36.493  1.00  0.00     0.134 A 
ATOM     68  C   UNL A   1      39.112  32.749  37.331  1.00  0.00     0.134 A 
ATOM     69  F   UNL A   1      41.700  34.601  35.581  1.00  0.00    -0.206 F 
ATOM     70  C   UNL A   1      40.620  35.065  37.612  1.00  0.00     0.040 A 
ATOM     71  C   UNL A   1      38.922  33.574  38.442  1.00  0.00     0.040 A 
ATOM     72  F   UNL A   1      38.366  31.638  37.238  1.00  0.00    -0.206 F 
ATOM     73  C   UNL A   1      39.682  34.733  38.587  1.00  0.00     0.006 A 
ENDBRANCH  52  66
BRANCH  53  74
ATOM     74  C   UNL A   1      40.902  27.609  28.030  1.00  0.00     0.057 A 
ATOM     75  C   UNL A   1      41.654  28.088  26.950  1.00  0.00     0.134 A 
ATOM     76  C   UNL A   1      40.291  26.358  27.887  1.00  0.00     0.134 A 
ATOM     77  F   UNL A   1      42.245  29.290  27.022  1.00  0.00    -0.206 F 
ATOM     78  C   UNL A   1      41.780  27.360  25.767  1.00  0.00     0.040 A 
ATOM     79  C   UNL A   1      40.428  25.608  26.717  1.00  0.00     0.040 A 
ATOM     80  F   UNL A   1      39.560  25.842  28.887  1.00  0.00    -0.206 F 
ATOM     81  C   UNL A   1      41.169  26.113  25.650  1.00  0.00     0.006 A 
ENDBRANCH  53  74
BRANCH  65  82
ATOM     82  C   UNL A   1      44.396  27.797  34.042  1.00  0.00     0.057 A 
ATOM     83  C   UNL A   1      44.234  26.564  34.684  1.00  0.00     0.134 A 
ATOM     84  C   UNL A   1      45.704  28.265  33.856  1.00  0.00     0.134 A 
ATOM     85  F   UNL A   1      43.007  26.069  34.903  1.00  0.00    -0.206 F 
ATOM     86  C   UNL A   1      45.330  25.832  35.143  1.00  0.00     0.040 A 
ATOM     87  C   UNL A   1      46.809  27.530  34.289  1.00  0.00     0.040 A 
ATOM     88  F   UNL A   1      45.928  29.435  33.241  1.00  0.00    -0.206 F 
ATOM     89  C   UNL A   1      46.623  26.312  34.939  1.00  0.00     0.006 A 
ENDBRANCH  65  82
ENDBRANCH  39  40
ENDBRANCH  31  34
ENDBRANCH  29  30
ENDBRANCH  28  29
ENDBRANCH  27  28
ENDBRANCH  26  27
ENDBRANCH   1  26
TORSDOF 19
ENDMDL
