MODEL 1
REMARK VINA RESULT:      -9.7      0.000      0.000
REMARK SMILES C[C@@H](CC(=O)NCCCCCCNC(=O)c1ccc(-c2c3nc(c(-c4c(F)cccc4F)c4ccc([nH]4)c(-c4c(F)cccc4F)c4nc(c(-c5c(F)cccc5F)c5ccc2[nH]5)C=C4)C=C3)cc1)CC(=O)N(C)C[C@H]1CCC[N@H+]1C
REMARK SMILES IDX 7 1 6 2 4 3 5 4 3 6 2 7 1 8 70 9 71 10 72 11 73 12 74 13
REMARK SMILES IDX 75 14 76 15 77 16 80 17 78 18 79 19 81 20 8 22 9 23 10 24
REMARK SMILES IDX 11 25 12 26 13 27 14 28 15 30 16 31 17 32 69 33 18 34 68 35
REMARK SMILES IDX 19 36 20 37 21 38 62 39 22 40 67 41 61 42 63 43 23 44 66 45
REMARK SMILES IDX 60 46 59 47 24 49 50 50 33 51 49 52 34 53 37 54 48 55 64 56
REMARK SMILES IDX 35 57 36 58 47 60 65 61 38 62 25 63 26 64 31 65 27 66 28 67
REMARK SMILES IDX 30 68 32 69 29 70 51 71 52 72 57 73 53 74 54 75 56 76 58 77
REMARK SMILES IDX 55 78 39 79 40 80 45 81 41 82 42 83 44 84 46 85 43 86
REMARK H PARENT 6 5 80 21 13 29 63 48 37 59
REMARK Flexibility Score: inf
ROOT
ATOM      1  C   UNL A   1      39.558  21.723  26.286  1.00  0.00     0.116 C 
ENDROOT
BRANCH   1   2
ATOM      2  N   UNL A   1      38.686  22.773  25.799  1.00  0.00    -0.356 N 
ATOM      3  C   UNL A   1      37.376  22.729  25.435  1.00  0.00     0.220 C 
ATOM      4  O   UNL A   1      36.886  23.734  24.916  1.00  0.00    -0.275 OA
ATOM      5  H   UNL A   1      39.107  23.659  25.720  1.00  0.00     0.163 HD
BRANCH   3   6
ATOM      6  C   UNL A   1      36.537  21.481  25.658  1.00  0.00     0.103 C 
BRANCH   6   7
ATOM      7  C   UNL A   1      34.998  21.651  25.684  1.00  0.00     0.004 C 
ATOM      8  C   UNL A   1      34.467  21.668  27.119  1.00  0.00     0.009 C 
BRANCH   7   9
ATOM      9  C   UNL A   1      34.266  20.666  24.752  1.00  0.00     0.104 C 
BRANCH   9  10
ATOM     10  C   UNL A   1      32.770  20.930  24.613  1.00  0.00     0.222 C 
ATOM     11  O   UNL A   1      31.974  20.096  25.050  1.00  0.00    -0.275 OA
BRANCH  10  12
ATOM     12  N   UNL A   1      32.341  22.075  23.950  1.00  0.00    -0.340 N 
ATOM     13  C   UNL A   1      32.962  22.609  22.748  1.00  0.00     0.147 C 
BRANCH  12  14
ATOM     14  C   UNL A   1      31.343  22.937  24.596  1.00  0.00     0.184 C 
BRANCH  14  15
ATOM     15  C   UNL A   1      31.764  23.601  25.944  1.00  0.00     0.203 C 
ATOM     16  C   UNL A   1      32.479  24.946  25.812  1.00  0.00     0.073 C 
ATOM     17  N   UNL A   1      30.628  24.070  26.770  1.00  0.00    -0.333 N 
ATOM     18  C   UNL A   1      31.355  25.935  25.525  1.00  0.00     0.068 C 
ATOM     19  C   UNL A   1      30.109  25.273  26.110  1.00  0.00     0.262 C 
ATOM     20  C   UNL A   1      29.602  23.093  27.079  1.00  0.00     0.333 C 
ATOM     21  H   UNL A   1      30.974  24.272  27.708  1.00  0.00     0.348 HD
ENDBRANCH  14  15
ENDBRANCH  12  14
ENDBRANCH  10  12
ENDBRANCH   9  10
ENDBRANCH   7   9
ENDBRANCH   6   7
ENDBRANCH   3   6
ENDBRANCH   1   2
BRANCH   1  22
ATOM     22  C   UNL A   1      40.622  22.307  27.214  1.00  0.00     0.021 C 
BRANCH  22  23
ATOM     23  C   UNL A   1      41.926  21.508  27.287  1.00  0.00     0.002 C 
BRANCH  23  24
ATOM     24  C   UNL A   1      41.758  20.036  27.671  1.00  0.00     0.002 C 
BRANCH  24  25
ATOM     25  C   UNL A   1      42.527  19.033  26.804  1.00  0.00     0.021 C 
BRANCH  25  26
ATOM     26  C   UNL A   1      42.529  19.333  25.305  1.00  0.00     0.116 C 
BRANCH  26  27
ATOM     27  N   UNL A   1      43.749  18.883  24.657  1.00  0.00    -0.352 N 
ATOM     28  C   UNL A   1      44.869  19.591  24.296  1.00  0.00     0.251 C 
ATOM     29  H   UNL A   1      43.777  17.922  24.444  1.00  0.00     0.163 HD
ATOM     30  O   UNL A   1      45.707  19.073  23.565  1.00  0.00    -0.269 OA
BRANCH  28  31
ATOM     31  C   UNL A   1      45.070  20.978  24.771  1.00  0.00     0.039 A 
ATOM     32  C   UNL A   1      44.858  22.030  23.875  1.00  0.00     0.014 A 
ATOM     33  C   UNL A   1      45.511  21.247  26.069  1.00  0.00     0.014 A 
ATOM     34  C   UNL A   1      45.036  23.350  24.296  1.00  0.00     0.010 A 
ATOM     35  C   UNL A   1      45.628  22.565  26.508  1.00  0.00     0.010 A 
ATOM     36  C   UNL A   1      45.397  23.630  25.624  1.00  0.00    -0.014 A 
BRANCH  36  37
ATOM     37  C   UNL A   1      45.527  25.033  26.095  1.00  0.00     0.031 A 
ATOM     38  C   UNL A   1      46.857  25.734  26.060  1.00  0.00     0.074 A 
ATOM     39  C   UNL A   1      44.450  25.664  26.601  1.00  0.00     0.049 A 
ATOM     40  N   UNL A   1      47.161  26.950  26.439  1.00  0.00    -0.248 NA
ATOM     41  C   UNL A   1      48.002  24.960  25.558  1.00  0.00     0.031 C 
ATOM     42  C   UNL A   1      43.118  25.075  26.748  1.00  0.00     0.029 A 
ATOM     43  N   UNL A   1      44.307  26.938  27.090  1.00  0.00    -0.354 N 
ATOM     44  C   UNL A   1      48.528  27.082  26.234  1.00  0.00     0.074 A 
ATOM     45  C   UNL A   1      49.004  25.807  25.744  1.00  0.00     0.031 C 
ATOM     46  C   UNL A   1      42.287  25.993  27.267  1.00  0.00     0.029 A 
ATOM     47  C   UNL A   1      43.032  27.224  27.513  1.00  0.00     0.049 A 
ATOM     48  H   UNL A   1      45.047  27.585  27.134  1.00  0.00     0.167 HD
ATOM     49  C   UNL A   1      49.312  28.172  26.417  1.00  0.00     0.037 A 
ATOM     50  C   UNL A   1      42.518  28.353  28.036  1.00  0.00     0.037 A 
ATOM     51  C   UNL A   1      48.833  29.449  26.878  1.00  0.00     0.049 A 
ATOM     52  C   UNL A   1      43.401  29.558  28.201  1.00  0.00     0.074 A 
ATOM     53  C   UNL A   1      49.536  30.633  27.026  1.00  0.00     0.029 A 
ATOM     54  N   UNL A   1      47.529  29.709  27.272  1.00  0.00    -0.354 N 
ATOM     55  N   UNL A   1      44.675  29.692  27.926  1.00  0.00    -0.248 NA
ATOM     56  C   UNL A   1      42.769  30.771  28.738  1.00  0.00     0.031 C 
ATOM     57  C   UNL A   1      48.666  31.599  27.544  1.00  0.00     0.029 A 
ATOM     58  C   UNL A   1      47.410  31.028  27.680  1.00  0.00     0.049 A 
ATOM     59  H   UNL A   1      46.795  29.052  27.263  1.00  0.00     0.167 HD
ATOM     60  C   UNL A   1      44.995  31.006  28.238  1.00  0.00     0.074 A 
ATOM     61  C   UNL A   1      43.776  31.634  28.703  1.00  0.00     0.031 C 
ATOM     62  C   UNL A   1      46.192  31.638  28.147  1.00  0.00     0.037 A 
BRANCH  49  63
ATOM     63  C   UNL A   1      50.774  28.029  26.110  1.00  0.00     0.057 A 
ATOM     64  C   UNL A   1      51.270  28.147  24.805  1.00  0.00     0.134 A 
ATOM     65  C   UNL A   1      51.702  27.800  27.135  1.00  0.00     0.134 A 
ATOM     66  F   UNL A   1      50.434  28.355  23.776  1.00  0.00    -0.206 F 
ATOM     67  C   UNL A   1      52.631  28.014  24.525  1.00  0.00     0.040 A 
ATOM     68  C   UNL A   1      53.069  27.690  26.870  1.00  0.00     0.040 A 
ATOM     69  F   UNL A   1      51.296  27.683  28.408  1.00  0.00    -0.206 F 
ATOM     70  C   UNL A   1      53.536  27.792  25.561  1.00  0.00     0.006 A 
ENDBRANCH  49  63
BRANCH  50  71
ATOM     71  C   UNL A   1      41.083  28.409  28.406  1.00  0.00     0.057 A 
ATOM     72  C   UNL A   1      40.649  27.999  29.671  1.00  0.00     0.134 A 
ATOM     73  C   UNL A   1      40.115  28.875  27.508  1.00  0.00     0.134 A 
ATOM     74  F   UNL A   1      41.528  27.527  30.566  1.00  0.00    -0.206 F 
ATOM     75  C   UNL A   1      39.300  28.036  30.028  1.00  0.00     0.040 A 
ATOM     76  C   UNL A   1      38.765  28.939  27.859  1.00  0.00     0.040 A 
ATOM     77  F   UNL A   1      40.470  29.291  26.284  1.00  0.00    -0.206 F 
ATOM     78  C   UNL A   1      38.354  28.512  29.122  1.00  0.00     0.006 A 
ENDBRANCH  50  71
BRANCH  62  79
ATOM     79  C   UNL A   1      46.231  33.082  28.546  1.00  0.00     0.057 A 
ATOM     80  C   UNL A   1      46.049  34.110  27.611  1.00  0.00     0.134 A 
ATOM     81  C   UNL A   1      46.435  33.451  29.882  1.00  0.00     0.134 A 
ATOM     82  F   UNL A   1      45.864  33.824  26.314  1.00  0.00    -0.206 F 
ATOM     83  C   UNL A   1      46.098  35.454  27.988  1.00  0.00     0.040 A 
ATOM     84  C   UNL A   1      46.459  34.790  30.274  1.00  0.00     0.040 A 
ATOM     85  F   UNL A   1      46.607  32.515  30.827  1.00  0.00    -0.206 F 
ATOM     86  C   UNL A   1      46.298  35.796  29.324  1.00  0.00     0.006 A 
ENDBRANCH  62  79
ENDBRANCH  36  37
ENDBRANCH  28  31
ENDBRANCH  26  27
ENDBRANCH  25  26
ENDBRANCH  24  25
ENDBRANCH  23  24
ENDBRANCH  22  23
ENDBRANCH   1  22
TORSDOF 19
ENDMDL
MODEL 2
REMARK VINA RESULT:      -9.3      5.986      9.976
REMARK SMILES C[C@@H](CC(=O)NCCCCCCNC(=O)c1ccc(-c2c3nc(c(-c4c(F)cccc4F)c4ccc([nH]4)c(-c4c(F)cccc4F)c4nc(c(-c5c(F)cccc5F)c5ccc2[nH]5)C=C4)C=C3)cc1)CC(=O)N(C)C[C@H]1CCC[N@H+]1C
REMARK SMILES IDX 7 1 6 2 4 3 5 4 3 6 2 7 1 8 70 9 71 10 72 11 73 12 74 13
REMARK SMILES IDX 75 14 76 15 77 16 80 17 78 18 79 19 81 20 8 22 9 23 10 24
REMARK SMILES IDX 11 25 12 26 13 27 14 28 15 30 16 31 17 32 69 33 18 34 68 35
REMARK SMILES IDX 19 36 20 37 21 38 62 39 22 40 67 41 61 42 63 43 23 44 66 45
REMARK SMILES IDX 60 46 59 47 24 49 50 50 33 51 49 52 34 53 37 54 48 55 64 56
REMARK SMILES IDX 35 57 36 58 47 60 65 61 38 62 25 63 26 64 31 65 27 66 28 67
REMARK SMILES IDX 30 68 32 69 29 70 51 71 52 72 57 73 53 74 54 75 56 76 58 77
REMARK SMILES IDX 55 78 39 79 40 80 45 81 41 82 42 83 44 84 46 85 43 86
REMARK H PARENT 6 5 80 21 13 29 63 48 37 59
REMARK Flexibility Score: inf
ROOT
ATOM      1  C   UNL A   1      32.557  22.351  26.121  1.00  0.00     0.116 C 
ENDROOT
BRANCH   1   2
ATOM      2  N   UNL A   1      31.515  23.087  25.433  1.00  0.00    -0.356 N 
ATOM      3  C   UNL A   1      31.378  23.390  24.114  1.00  0.00     0.220 C 
ATOM      4  O   UNL A   1      30.467  24.153  23.789  1.00  0.00    -0.275 OA
ATOM      5  H   UNL A   1      30.791  23.419  26.011  1.00  0.00     0.163 HD
BRANCH   3   6
ATOM      6  C   UNL A   1      32.315  22.806  23.069  1.00  0.00     0.103 C 
BRANCH   6   7
ATOM      7  C   UNL A   1      33.589  23.616  22.721  1.00  0.00     0.004 C 
ATOM      8  C   UNL A   1      34.851  22.777  22.929  1.00  0.00     0.009 C 
BRANCH   7   9
ATOM      9  C   UNL A   1      33.631  24.998  23.403  1.00  0.00     0.104 C 
BRANCH   9  10
ATOM     10  C   UNL A   1      33.485  26.174  22.443  1.00  0.00     0.222 C 
ATOM     11  O   UNL A   1      33.290  25.947  21.246  1.00  0.00    -0.275 OA
BRANCH  10  12
ATOM     12  N   UNL A   1      33.628  27.470  22.928  1.00  0.00    -0.340 N 
ATOM     13  C   UNL A   1      34.278  28.550  22.202  1.00  0.00     0.147 C 
BRANCH  12  14
ATOM     14  C   UNL A   1      33.310  27.739  24.336  1.00  0.00     0.184 C 
BRANCH  14  15
ATOM     15  C   UNL A   1      31.880  28.288  24.633  1.00  0.00     0.203 C 
ATOM     16  C   UNL A   1      30.804  27.223  24.844  1.00  0.00     0.073 C 
ATOM     17  N   UNL A   1      31.748  28.955  25.949  1.00  0.00    -0.333 N 
ATOM     18  C   UNL A   1      31.051  26.725  26.264  1.00  0.00     0.068 C 
ATOM     19  C   UNL A   1      31.763  27.887  26.954  1.00  0.00     0.262 C 
ATOM     20  C   UNL A   1      32.682  30.027  26.232  1.00  0.00     0.333 C 
ATOM     21  H   UNL A   1      30.869  29.474  25.960  1.00  0.00     0.348 HD
ENDBRANCH  14  15
ENDBRANCH  12  14
ENDBRANCH  10  12
ENDBRANCH   9  10
ENDBRANCH   7   9
ENDBRANCH   6   7
ENDBRANCH   3   6
ENDBRANCH   1   2
BRANCH   1  22
ATOM     22  C   UNL A   1      33.607  23.312  26.676  1.00  0.00     0.021 C 
BRANCH  22  23
ATOM     23  C   UNL A   1      35.057  22.850  26.513  1.00  0.00     0.002 C 
BRANCH  23  24
ATOM     24  C   UNL A   1      36.006  23.902  25.932  1.00  0.00     0.002 C 
BRANCH  24  25
ATOM     25  C   UNL A   1      37.447  23.436  25.698  1.00  0.00     0.021 C 
BRANCH  25  26
ATOM     26  C   UNL A   1      38.466  23.923  26.728  1.00  0.00     0.116 C 
BRANCH  26  27
ATOM     27  N   UNL A   1      39.807  24.005  26.177  1.00  0.00    -0.352 N 
ATOM     28  C   UNL A   1      40.777  24.961  26.355  1.00  0.00     0.251 C 
ATOM     29  H   UNL A   1      40.060  23.260  25.584  1.00  0.00     0.163 HD
ATOM     30  O   UNL A   1      41.770  24.963  25.633  1.00  0.00    -0.269 OA
BRANCH  28  31
ATOM     31  C   UNL A   1      40.631  25.998  27.401  1.00  0.00     0.039 A 
ATOM     32  C   UNL A   1      39.778  25.747  28.479  1.00  0.00     0.014 A 
ATOM     33  C   UNL A   1      41.287  27.228  27.303  1.00  0.00     0.014 A 
ATOM     34  C   UNL A   1      39.624  26.705  29.483  1.00  0.00     0.010 A 
ATOM     35  C   UNL A   1      41.183  28.158  28.336  1.00  0.00     0.010 A 
ATOM     36  C   UNL A   1      40.346  27.909  29.434  1.00  0.00    -0.014 A 
BRANCH  36  37
ATOM     37  C   UNL A   1      40.235  28.905  30.530  1.00  0.00     0.031 A 
ATOM     38  C   UNL A   1      39.194  29.990  30.479  1.00  0.00     0.074 A 
ATOM     39  C   UNL A   1      41.106  28.861  31.556  1.00  0.00     0.049 A 
ATOM     40  N   UNL A   1      38.958  30.950  31.337  1.00  0.00    -0.248 NA
ATOM     41  C   UNL A   1      38.321  30.016  29.295  1.00  0.00     0.031 C 
ATOM     42  C   UNL A   1      42.201  27.898  31.694  1.00  0.00     0.029 A 
ATOM     43  N   UNL A   1      41.213  29.648  32.675  1.00  0.00    -0.354 N 
ATOM     44  C   UNL A   1      37.922  31.699  30.795  1.00  0.00     0.074 A 
ATOM     45  C   UNL A   1      37.608  31.113  29.510  1.00  0.00     0.031 C 
ATOM     46  C   UNL A   1      42.852  28.135  32.844  1.00  0.00     0.029 A 
ATOM     47  C   UNL A   1      42.239  29.280  33.510  1.00  0.00     0.049 A 
ATOM     48  H   UNL A   1      40.612  30.405  32.861  1.00  0.00     0.167 HD
ATOM     49  C   UNL A   1      37.277  32.765  31.326  1.00  0.00     0.037 A 
ATOM     50  C   UNL A   1      42.639  29.803  34.684  1.00  0.00     0.037 A 
ATOM     51  C   UNL A   1      37.571  33.332  32.617  1.00  0.00     0.049 A 
ATOM     52  C   UNL A   1      41.889  30.967  35.268  1.00  0.00     0.074 A 
ATOM     53  C   UNL A   1      36.925  34.366  33.274  1.00  0.00     0.029 A 
ATOM     54  N   UNL A   1      38.601  32.915  33.447  1.00  0.00    -0.354 N 
ATOM     55  N   UNL A   1      40.859  31.614  34.780  1.00  0.00    -0.248 NA
ATOM     56  C   UNL A   1      42.351  31.464  36.571  1.00  0.00     0.031 C 
ATOM     57  C   UNL A   1      37.587  34.599  34.484  1.00  0.00     0.029 A 
ATOM     58  C   UNL A   1      38.621  33.683  34.600  1.00  0.00     0.049 A 
ATOM     59  H   UNL A   1      39.226  32.182  33.246  1.00  0.00     0.167 HD
ATOM     60  C   UNL A   1      40.537  32.581  35.722  1.00  0.00     0.074 A 
ATOM     61  C   UNL A   1      41.468  32.422  36.820  1.00  0.00     0.031 C 
ATOM     62  C   UNL A   1      39.558  33.518  35.682  1.00  0.00     0.037 A 
BRANCH  49  63
ATOM     63  C   UNL A   1      36.181  33.386  30.510  1.00  0.00     0.057 A 
ATOM     64  C   UNL A   1      36.454  34.191  29.396  1.00  0.00     0.134 A 
ATOM     65  C   UNL A   1      34.836  33.155  30.825  1.00  0.00     0.134 A 
ATOM     66  F   UNL A   1      37.721  34.460  29.046  1.00  0.00    -0.206 F 
ATOM     67  C   UNL A   1      35.430  34.765  28.640  1.00  0.00     0.040 A 
ATOM     68  C   UNL A   1      33.803  33.704  30.062  1.00  0.00     0.040 A 
ATOM     69  F   UNL A   1      34.503  32.390  31.876  1.00  0.00    -0.206 F 
ATOM     70  C   UNL A   1      34.100  34.516  28.969  1.00  0.00     0.006 A 
ENDBRANCH  49  63
BRANCH  50  71
ATOM     71  C   UNL A   1      43.789  29.203  35.405  1.00  0.00     0.057 A 
ATOM     72  C   UNL A   1      43.592  28.233  36.394  1.00  0.00     0.134 A 
ATOM     73  C   UNL A   1      45.107  29.581  35.121  1.00  0.00     0.134 A 
ATOM     74  F   UNL A   1      42.352  27.844  36.721  1.00  0.00    -0.206 F 
ATOM     75  C   UNL A   1      44.665  27.669  37.087  1.00  0.00     0.040 A 
ATOM     76  C   UNL A   1      46.190  29.009  35.790  1.00  0.00     0.040 A 
ATOM     77  F   UNL A   1      45.360  30.499  34.177  1.00  0.00    -0.206 F 
ATOM     78  C   UNL A   1      45.969  28.054  36.782  1.00  0.00     0.006 A 
ENDBRANCH  50  71
BRANCH  62  79
ATOM     79  C   UNL A   1      39.438  34.428  36.867  1.00  0.00     0.057 A 
ATOM     80  C   UNL A   1      38.782  34.031  38.039  1.00  0.00     0.134 A 
ATOM     81  C   UNL A   1      40.001  35.711  36.843  1.00  0.00     0.134 A 
ATOM     82  F   UNL A   1      38.210  32.821  38.121  1.00  0.00    -0.206 F 
ATOM     83  C   UNL A   1      38.665  34.888  39.135  1.00  0.00     0.040 A 
ATOM     84  C   UNL A   1      39.913  36.567  37.942  1.00  0.00     0.040 A 
ATOM     85  F   UNL A   1      40.651  36.149  35.754  1.00  0.00    -0.206 F 
ATOM     86  C   UNL A   1      39.237  36.159  39.090  1.00  0.00     0.006 A 
ENDBRANCH  62  79
ENDBRANCH  36  37
ENDBRANCH  28  31
ENDBRANCH  26  27
ENDBRANCH  25  26
ENDBRANCH  24  25
ENDBRANCH  23  24
ENDBRANCH  22  23
ENDBRANCH   1  22
TORSDOF 19
ENDMDL
MODEL 3
REMARK VINA RESULT:      -9.3      2.659      7.215
REMARK SMILES C[C@@H](CC(=O)NCCCCCCNC(=O)c1ccc(-c2c3nc(c(-c4c(F)cccc4F)c4ccc([nH]4)c(-c4c(F)cccc4F)c4nc(c(-c5c(F)cccc5F)c5ccc2[nH]5)C=C4)C=C3)cc1)CC(=O)N(C)C[C@H]1CCC[N@H+]1C
REMARK SMILES IDX 7 1 6 2 4 3 5 4 3 6 2 7 1 8 70 9 71 10 72 11 73 12 74 13
REMARK SMILES IDX 75 14 76 15 77 16 80 17 78 18 79 19 81 20 8 22 9 23 10 24
REMARK SMILES IDX 11 25 12 26 13 27 14 28 15 30 16 31 17 32 69 33 18 34 68 35
REMARK SMILES IDX 19 36 20 37 21 38 62 39 22 40 67 41 61 42 63 43 23 44 66 45
REMARK SMILES IDX 60 46 59 47 24 49 50 50 33 51 49 52 34 53 37 54 48 55 64 56
REMARK SMILES IDX 35 57 36 58 47 60 65 61 38 62 25 63 26 64 31 65 27 66 28 67
REMARK SMILES IDX 30 68 32 69 29 70 51 71 52 72 57 73 53 74 54 75 56 76 58 77
REMARK SMILES IDX 55 78 39 79 40 80 45 81 41 82 42 83 44 84 46 85 43 86
REMARK H PARENT 6 5 80 21 13 29 63 48 37 59
REMARK Flexibility Score: inf
ROOT
ATOM      1  C   UNL A   1      34.380  21.511  27.253  1.00  0.00     0.116 C 
ENDROOT
BRANCH   1   2
ATOM      2  N   UNL A   1      33.339  22.473  27.556  1.00  0.00    -0.356 N 
ATOM      3  C   UNL A   1      32.190  22.764  26.889  1.00  0.00     0.220 C 
ATOM      4  O   UNL A   1      31.527  23.729  27.273  1.00  0.00    -0.275 OA
ATOM      5  H   UNL A   1      33.486  22.999  28.375  1.00  0.00     0.163 HD
BRANCH   3   6
ATOM      6  C   UNL A   1      31.732  21.928  25.705  1.00  0.00     0.103 C 
BRANCH   6   7
ATOM      7  C   UNL A   1      31.929  22.526  24.290  1.00  0.00     0.004 C 
ATOM      8  C   UNL A   1      32.518  21.491  23.329  1.00  0.00     0.009 C 
BRANCH   7   9
ATOM      9  C   UNL A   1      32.678  23.873  24.302  1.00  0.00     0.104 C 
BRANCH   9  10
ATOM     10  C   UNL A   1      31.893  25.031  23.695  1.00  0.00     0.222 C 
ATOM     11  O   UNL A   1      30.673  24.913  23.549  1.00  0.00    -0.275 OA
BRANCH  10  12
ATOM     12  N   UNL A   1      32.575  26.167  23.273  1.00  0.00    -0.340 N 
ATOM     13  C   UNL A   1      33.459  26.211  22.118  1.00  0.00     0.147 C 
BRANCH  12  14
ATOM     14  C   UNL A   1      32.594  27.349  24.144  1.00  0.00     0.184 C 
BRANCH  14  15
ATOM     15  C   UNL A   1      33.033  27.116  25.623  1.00  0.00     0.203 C 
ATOM     16  C   UNL A   1      34.145  28.037  26.125  1.00  0.00     0.073 C 
ATOM     17  N   UNL A   1      32.009  27.489  26.626  1.00  0.00    -0.333 N 
ATOM     18  C   UNL A   1      33.434  29.356  26.407  1.00  0.00     0.068 C 
ATOM     19  C   UNL A   1      31.981  28.956  26.656  1.00  0.00     0.262 C 
ATOM     20  C   UNL A   1      30.699  26.890  26.472  1.00  0.00     0.333 C 
ATOM     21  H   UNL A   1      32.283  27.097  27.527  1.00  0.00     0.348 HD
ENDBRANCH  14  15
ENDBRANCH  12  14
ENDBRANCH  10  12
ENDBRANCH   9  10
ENDBRANCH   7   9
ENDBRANCH   6   7
ENDBRANCH   3   6
ENDBRANCH   1   2
BRANCH   1  22
ATOM     22  C   UNL A   1      35.263  22.026  26.118  1.00  0.00     0.021 C 
BRANCH  22  23
ATOM     23  C   UNL A   1      35.748  20.954  25.138  1.00  0.00     0.002 C 
BRANCH  23  24
ATOM     24  C   UNL A   1      37.150  21.190  24.570  1.00  0.00     0.002 C 
BRANCH  24  25
ATOM     25  C   UNL A   1      38.117  20.006  24.682  1.00  0.00     0.021 C 
BRANCH  25  26
ATOM     26  C   UNL A   1      38.837  19.875  26.023  1.00  0.00     0.116 C 
BRANCH  26  27
ATOM     27  N   UNL A   1      40.068  19.111  25.913  1.00  0.00    -0.352 N 
ATOM     28  C   UNL A   1      41.374  19.521  26.020  1.00  0.00     0.251 C 
ATOM     29  H   UNL A   1      39.946  18.150  25.735  1.00  0.00     0.163 HD
ATOM     30  O   UNL A   1      42.279  18.764  25.684  1.00  0.00    -0.269 OA
BRANCH  28  31
ATOM     31  C   UNL A   1      41.701  20.872  26.526  1.00  0.00     0.039 A 
ATOM     32  C   UNL A   1      41.686  21.093  27.906  1.00  0.00     0.014 A 
ATOM     33  C   UNL A   1      41.973  21.930  25.654  1.00  0.00     0.014 A 
ATOM     34  C   UNL A   1      41.995  22.357  28.413  1.00  0.00     0.010 A 
ATOM     35  C   UNL A   1      42.342  23.175  26.161  1.00  0.00     0.010 A 
ATOM     36  C   UNL A   1      42.352  23.403  27.545  1.00  0.00    -0.014 A 
BRANCH  36  37
ATOM     37  C   UNL A   1      42.742  24.733  28.081  1.00  0.00     0.031 A 
ATOM     38  C   UNL A   1      41.705  25.791  28.338  1.00  0.00     0.074 A 
ATOM     39  C   UNL A   1      44.044  25.005  28.293  1.00  0.00     0.049 A 
ATOM     40  N   UNL A   1      41.862  27.009  28.791  1.00  0.00    -0.248 NA
ATOM     41  C   UNL A   1      40.311  25.446  28.019  1.00  0.00     0.031 C 
ATOM     42  C   UNL A   1      45.153  24.087  28.025  1.00  0.00     0.029 A 
ATOM     43  N   UNL A   1      44.655  26.134  28.777  1.00  0.00    -0.354 N 
ATOM     44  C   UNL A   1      40.595  27.578  28.801  1.00  0.00     0.074 A 
ATOM     45  C   UNL A   1      39.687  26.590  28.261  1.00  0.00     0.031 C 
ATOM     46  C   UNL A   1      46.307  24.680  28.372  1.00  0.00     0.029 A 
ATOM     47  C   UNL A   1      46.022  26.026  28.860  1.00  0.00     0.049 A 
ATOM     48  H   UNL A   1      44.162  26.944  29.039  1.00  0.00     0.167 HD
ATOM     49  C   UNL A   1      40.219  28.804  29.238  1.00  0.00     0.037 A 
ATOM     50  C   UNL A   1      46.943  26.910  29.288  1.00  0.00     0.037 A 
ATOM     51  C   UNL A   1      41.118  29.777  29.801  1.00  0.00     0.049 A 
ATOM     52  C   UNL A   1      46.497  28.252  29.797  1.00  0.00     0.074 A 
ATOM     53  C   UNL A   1      40.821  31.018  30.340  1.00  0.00     0.029 A 
ATOM     54  N   UNL A   1      42.492  29.622  29.894  1.00  0.00    -0.354 N 
ATOM     55  N   UNL A   1      45.286  28.745  29.875  1.00  0.00    -0.248 NA
ATOM     56  C   UNL A   1      47.548  29.154  30.288  1.00  0.00     0.031 C 
ATOM     57  C   UNL A   1      42.020  31.628  30.724  1.00  0.00     0.029 A 
ATOM     58  C   UNL A   1      43.060  30.751  30.464  1.00  0.00     0.049 A 
ATOM     59  H   UNL A   1      42.992  28.826  29.600  1.00  0.00     0.167 HD
ATOM     60  C   UNL A   1      45.424  30.005  30.439  1.00  0.00     0.074 A 
ATOM     61  C   UNL A   1      46.835  30.193  30.703  1.00  0.00     0.031 C 
ATOM     62  C   UNL A   1      44.468  30.926  30.714  1.00  0.00     0.037 A 
BRANCH  49  63
ATOM     63  C   UNL A   1      38.764  29.158  29.130  1.00  0.00     0.057 A 
ATOM     64  C   UNL A   1      37.896  29.061  30.225  1.00  0.00     0.134 A 
ATOM     65  C   UNL A   1      38.230  29.629  27.923  1.00  0.00     0.134 A 
ATOM     66  F   UNL A   1      38.341  28.606  31.406  1.00  0.00    -0.206 F 
ATOM     67  C   UNL A   1      36.544  29.393  30.119  1.00  0.00     0.040 A 
ATOM     68  C   UNL A   1      36.885  29.988  27.811  1.00  0.00     0.040 A 
ATOM     69  F   UNL A   1      39.006  29.753  26.836  1.00  0.00    -0.206 F 
ATOM     70  C   UNL A   1      36.037  29.864  28.910  1.00  0.00     0.006 A 
ENDBRANCH  49  63
BRANCH  50  71
ATOM     71  C   UNL A   1      48.379  26.537  29.289  1.00  0.00     0.057 A 
ATOM     72  C   UNL A   1      48.944  25.850  30.368  1.00  0.00     0.134 A 
ATOM     73  C   UNL A   1      49.216  26.854  28.212  1.00  0.00     0.134 A 
ATOM     74  F   UNL A   1      48.196  25.534  31.434  1.00  0.00    -0.206 F 
ATOM     75  C   UNL A   1      50.296  25.503  30.385  1.00  0.00     0.040 A 
ATOM     76  C   UNL A   1      50.564  26.494  28.206  1.00  0.00     0.040 A 
ATOM     77  F   UNL A   1      48.730  27.504  27.144  1.00  0.00    -0.206 F 
ATOM     78  C   UNL A   1      51.109  25.821  29.299  1.00  0.00     0.006 A 
ENDBRANCH  50  71
BRANCH  62  79
ATOM     79  C   UNL A   1      44.920  32.209  31.346  1.00  0.00     0.057 A 
ATOM     80  C   UNL A   1      45.015  32.352  32.736  1.00  0.00     0.134 A 
ATOM     81  C   UNL A   1      45.280  33.307  30.555  1.00  0.00     0.134 A 
ATOM     82  F   UNL A   1      44.671  31.343  33.549  1.00  0.00    -0.206 F 
ATOM     83  C   UNL A   1      45.427  33.553  33.318  1.00  0.00     0.040 A 
ATOM     84  C   UNL A   1      45.718  34.504  31.124  1.00  0.00     0.040 A 
ATOM     85  F   UNL A   1      45.220  33.232  29.217  1.00  0.00    -0.206 F 
ATOM     86  C   UNL A   1      45.784  34.632  32.511  1.00  0.00     0.006 A 
ENDBRANCH  62  79
ENDBRANCH  36  37
ENDBRANCH  28  31
ENDBRANCH  26  27
ENDBRANCH  25  26
ENDBRANCH  24  25
ENDBRANCH  23  24
ENDBRANCH  22  23
ENDBRANCH   1  22
TORSDOF 19
ENDMDL
