MODEL 1
REMARK VINA RESULT:     -11.6      0.000      0.000
REMARK SMILES O=C(C[C@@H]1COc2ccccc2N1Cc1ccccc1)NCCCCCCNC(=O)c1ccc(-c2c3nc(c(-c4c(F)cccc4F)c4ccc([nH]4)c(-c4c(F)cccc4F)c4nc(c(-c5c(F)cccc5F)c5ccc2[nH]5)C=C4)C=C3)cc1
REMARK SMILES IDX 24 1 23 2 22 3 21 4 1 5 2 6 3 8 4 9 5 10 13 11 6 12 12 13
REMARK SMILES IDX 7 14 11 15 8 16 10 17 9 18 14 19 15 20 16 21 20 22 17 23
REMARK SMILES IDX 19 24 18 25 25 26 26 27 27 28 28 29 29 30 30 32 31 33 32 34
REMARK SMILES IDX 84 35 33 36 83 37 34 38 35 39 36 40 77 41 37 42 82 43 76 44
REMARK SMILES IDX 78 45 38 46 81 47 75 48 74 49 39 51 65 52 48 53 64 54 49 55
REMARK SMILES IDX 52 56 63 57 79 58 50 59 51 60 62 62 80 63 53 64 40 65 41 66
REMARK SMILES IDX 46 67 42 68 43 69 45 70 47 71 44 72 66 73 67 74 72 75 68 76
REMARK SMILES IDX 69 77 71 78 73 79 70 80 54 81 55 82 60 83 56 84 57 85 59 86
REMARK SMILES IDX 61 87 58 88
REMARK H PARENT 21 7 28 31 78 50 52 61
REMARK Flexibility Score: inf
ROOT
ATOM      1  C   UNL A   1      36.832  22.512  25.221  1.00  0.00     0.002 C 
ENDROOT
BRANCH   1   2
ATOM      2  C   UNL A   1      35.684  23.520  25.075  1.00  0.00     0.021 C 
BRANCH   2   3
ATOM      3  C   UNL A   1      35.104  23.655  23.665  1.00  0.00     0.116 C 
BRANCH   3   4
ATOM      4  N   UNL A   1      34.308  24.850  23.521  1.00  0.00    -0.356 N 
ATOM      5  O   UNL A   1      33.257  24.289  21.545  1.00  0.00    -0.275 OA
ATOM      6  C   UNL A   1      33.416  25.051  22.493  1.00  0.00     0.222 C 
ATOM      7  H   UNL A   1      34.408  25.561  24.194  1.00  0.00     0.163 HD
BRANCH   6   8
ATOM      8  C   UNL A   1      32.701  26.374  22.591  1.00  0.00     0.128 C 
BRANCH   8   9
ATOM      9  C   UNL A   1      31.297  26.354  23.217  1.00  0.00     0.129 C 
ATOM     10  C   UNL A   1      30.564  27.661  22.855  1.00  0.00     0.255 C 
ATOM     11  N   UNL A   1      31.262  26.205  24.688  1.00  0.00    -0.357 N 
ATOM     12  O   UNL A   1      31.232  28.804  23.418  1.00  0.00    -0.489 OA
ATOM     13  C   UNL A   1      31.421  27.393  25.413  1.00  0.00     0.080 A 
ATOM     14  C   UNL A   1      31.455  28.648  24.768  1.00  0.00     0.142 A 
ATOM     15  C   UNL A   1      31.600  27.401  26.801  1.00  0.00     0.030 A 
ATOM     16  C   UNL A   1      31.725  29.828  25.470  1.00  0.00     0.048 A 
ATOM     17  C   UNL A   1      31.819  28.583  27.517  1.00  0.00     0.002 A 
ATOM     18  C   UNL A   1      31.904  29.796  26.849  1.00  0.00     0.004 A 
BRANCH  11  19
ATOM     19  C   UNL A   1      30.495  25.084  25.261  1.00  0.00     0.152 C 
BRANCH  19  20
ATOM     20  C   UNL A   1      31.330  23.857  25.560  1.00  0.00    -0.029 A 
ATOM     21  C   UNL A   1      31.441  22.816  24.627  1.00  0.00     0.005 A 
ATOM     22  C   UNL A   1      31.975  23.701  26.799  1.00  0.00     0.005 A 
ATOM     23  C   UNL A   1      32.189  21.671  24.917  1.00  0.00     0.000 A 
ATOM     24  C   UNL A   1      32.748  22.572  27.077  1.00  0.00     0.000 A 
ATOM     25  C   UNL A   1      32.854  21.554  26.135  1.00  0.00     0.000 A 
ENDBRANCH  19  20
ENDBRANCH  11  19
ENDBRANCH   8   9
ENDBRANCH   6   8
ENDBRANCH   3   4
ENDBRANCH   2   3
ENDBRANCH   1   2
BRANCH   1  26
ATOM     26  C   UNL A   1      36.445  21.052  24.986  1.00  0.00     0.002 C 
BRANCH  26  27
ATOM     27  C   UNL A   1      37.599  20.063  24.914  1.00  0.00     0.021 C 
BRANCH  27  28
ATOM     28  C   UNL A   1      38.822  20.462  25.725  1.00  0.00     0.116 C 
BRANCH  28  29
ATOM     29  N   UNL A   1      39.876  19.451  25.731  1.00  0.00    -0.352 N 
ATOM     30  C   UNL A   1      41.200  19.585  26.075  1.00  0.00     0.251 C 
ATOM     31  H   UNL A   1      39.600  18.550  25.450  1.00  0.00     0.163 HD
ATOM     32  O   UNL A   1      41.985  18.654  25.923  1.00  0.00    -0.269 OA
BRANCH  30  33
ATOM     33  C   UNL A   1      41.682  20.883  26.594  1.00  0.00     0.039 A 
ATOM     34  C   UNL A   1      42.172  21.840  25.701  1.00  0.00     0.014 A 
ATOM     35  C   UNL A   1      41.588  21.174  27.956  1.00  0.00     0.014 A 
ATOM     36  C   UNL A   1      42.491  23.117  26.168  1.00  0.00     0.010 A 
ATOM     37  C   UNL A   1      41.799  22.473  28.397  1.00  0.00     0.010 A 
ATOM     38  C   UNL A   1      42.264  23.457  27.511  1.00  0.00    -0.014 A 
BRANCH  38  39
ATOM     39  C   UNL A   1      42.545  24.818  28.037  1.00  0.00     0.031 A 
ATOM     40  C   UNL A   1      43.941  25.161  28.486  1.00  0.00     0.074 A 
ATOM     41  C   UNL A   1      41.545  25.708  28.190  1.00  0.00     0.049 A 
ATOM     42  N   UNL A   1      44.374  26.226  29.110  1.00  0.00    -0.248 NA
ATOM     43  C   UNL A   1      44.982  24.147  28.242  1.00  0.00     0.031 C 
ATOM     44  C   UNL A   1      40.139  25.479  27.852  1.00  0.00     0.029 A 
ATOM     45  N   UNL A   1      41.559  26.987  28.689  1.00  0.00    -0.354 N 
ATOM     46  C   UNL A   1      45.722  25.996  29.355  1.00  0.00     0.074 A 
ATOM     47  C   UNL A   1      46.020  24.665  28.876  1.00  0.00     0.031 C 
ATOM     48  C   UNL A   1      39.432  26.588  28.130  1.00  0.00     0.029 A 
ATOM     49  C   UNL A   1      40.325  27.591  28.700  1.00  0.00     0.049 A 
ATOM     50  H   UNL A   1      42.378  27.430  29.010  1.00  0.00     0.167 HD
ATOM     51  C   UNL A   1      46.641  26.832  29.894  1.00  0.00     0.037 A 
ATOM     52  C   UNL A   1      39.958  28.814  29.126  1.00  0.00     0.037 A 
ATOM     53  C   UNL A   1      46.354  28.173  30.321  1.00  0.00     0.049 A 
ATOM     54  C   UNL A   1      41.007  29.739  29.682  1.00  0.00     0.074 A 
ATOM     55  C   UNL A   1      47.218  29.115  30.851  1.00  0.00     0.029 A 
ATOM     56  N   UNL A   1      45.106  28.772  30.241  1.00  0.00    -0.354 N 
ATOM     57  N   UNL A   1      42.287  29.521  29.870  1.00  0.00    -0.248 NA
ATOM     58  C   UNL A   1      40.565  31.087  30.070  1.00  0.00     0.031 C 
ATOM     59  C   UNL A   1      46.488  30.281  31.105  1.00  0.00     0.029 A 
ATOM     60  C   UNL A   1      45.179  30.075  30.700  1.00  0.00     0.049 A 
ATOM     61  H   UNL A   1      44.290  28.335  29.907  1.00  0.00     0.167 HD
ATOM     62  C   UNL A   1      42.807  30.711  30.361  1.00  0.00     0.074 A 
ATOM     63  C   UNL A   1      41.709  31.652  30.430  1.00  0.00     0.031 C 
ATOM     64  C   UNL A   1      44.080  31.002  30.725  1.00  0.00     0.037 A 
BRANCH  51  65
ATOM     65  C   UNL A   1      48.047  26.323  30.017  1.00  0.00     0.057 A 
ATOM     66  C   UNL A   1      48.507  25.720  31.197  1.00  0.00     0.134 A 
ATOM     67  C   UNL A   1      48.943  26.411  28.945  1.00  0.00     0.134 A 
ATOM     68  F   UNL A   1      47.703  25.621  32.266  1.00  0.00    -0.206 F 
ATOM     69  C   UNL A   1      49.814  25.248  31.314  1.00  0.00     0.040 A 
ATOM     70  C   UNL A   1      50.245  25.916  29.041  1.00  0.00     0.040 A 
ATOM     71  F   UNL A   1      48.567  26.974  27.787  1.00  0.00    -0.206 F 
ATOM     72  C   UNL A   1      50.685  25.338  30.230  1.00  0.00     0.006 A 
ENDBRANCH  51  65
BRANCH  52  73
ATOM     73  C   UNL A   1      38.544  29.258  29.020  1.00  0.00     0.057 A 
ATOM     74  C   UNL A   1      37.688  29.209  30.128  1.00  0.00     0.134 A 
ATOM     75  C   UNL A   1      38.004  29.704  27.810  1.00  0.00     0.134 A 
ATOM     76  F   UNL A   1      38.143  28.775  31.314  1.00  0.00    -0.206 F 
ATOM     77  C   UNL A   1      36.339  29.554  30.029  1.00  0.00     0.040 A 
ATOM     78  C   UNL A   1      36.663  30.076  27.701  1.00  0.00     0.040 A 
ATOM     79  F   UNL A   1      38.772  29.784  26.713  1.00  0.00    -0.206 F 
ATOM     80  C   UNL A   1      35.824  29.990  28.810  1.00  0.00     0.006 A 
ENDBRANCH  52  73
BRANCH  64  81
ATOM     81  C   UNL A   1      44.364  32.407  31.164  1.00  0.00     0.057 A 
ATOM     82  C   UNL A   1      44.708  33.413  30.255  1.00  0.00     0.134 A 
ATOM     83  C   UNL A   1      44.250  32.761  32.515  1.00  0.00     0.134 A 
ATOM     84  F   UNL A   1      44.844  33.134  28.949  1.00  0.00    -0.206 F 
ATOM     85  C   UNL A   1      44.952  34.721  30.677  1.00  0.00     0.040 A 
ATOM     86  C   UNL A   1      44.466  34.071  32.945  1.00  0.00     0.040 A 
ATOM     87  F   UNL A   1      43.913  31.844  33.434  1.00  0.00    -0.206 F 
ATOM     88  C   UNL A   1      44.825  35.054  32.025  1.00  0.00     0.006 A 
ENDBRANCH  64  81
ENDBRANCH  38  39
ENDBRANCH  30  33
ENDBRANCH  28  29
ENDBRANCH  27  28
ENDBRANCH  26  27
ENDBRANCH   1  26
TORSDOF 16
ENDMDL
MODEL 2
REMARK VINA RESULT:     -11.6      3.724      9.032
REMARK SMILES O=C(C[C@@H]1COc2ccccc2N1Cc1ccccc1)NCCCCCCNC(=O)c1ccc(-c2c3nc(c(-c4c(F)cccc4F)c4ccc([nH]4)c(-c4c(F)cccc4F)c4nc(c(-c5c(F)cccc5F)c5ccc2[nH]5)C=C4)C=C3)cc1
REMARK SMILES IDX 24 1 23 2 22 3 21 4 1 5 2 6 3 8 4 9 5 10 13 11 6 12 12 13
REMARK SMILES IDX 7 14 11 15 8 16 10 17 9 18 14 19 15 20 16 21 20 22 17 23
REMARK SMILES IDX 19 24 18 25 25 26 26 27 27 28 28 29 29 30 30 32 31 33 32 34
REMARK SMILES IDX 84 35 33 36 83 37 34 38 35 39 36 40 77 41 37 42 82 43 76 44
REMARK SMILES IDX 78 45 38 46 81 47 75 48 74 49 39 51 65 52 48 53 64 54 49 55
REMARK SMILES IDX 52 56 63 57 79 58 50 59 51 60 62 62 80 63 53 64 40 65 41 66
REMARK SMILES IDX 46 67 42 68 43 69 45 70 47 71 44 72 66 73 67 74 72 75 68 76
REMARK SMILES IDX 69 77 71 78 73 79 70 80 54 81 55 82 60 83 56 84 57 85 59 86
REMARK SMILES IDX 61 87 58 88
REMARK H PARENT 21 7 28 31 78 50 52 61
REMARK Flexibility Score: inf
ROOT
ATOM      1  C   UNL A   1      32.168  29.450  27.186  1.00  0.00     0.002 C 
ENDROOT
BRANCH   1   2
ATOM      2  C   UNL A   1      32.629  28.073  26.689  1.00  0.00     0.021 C 
BRANCH   2   3
ATOM      3  C   UNL A   1      31.512  27.056  26.441  1.00  0.00     0.116 C 
BRANCH   3   4
ATOM      4  N   UNL A   1      32.026  25.715  26.293  1.00  0.00    -0.356 N 
ATOM      5  O   UNL A   1      30.067  24.580  26.735  1.00  0.00    -0.275 OA
ATOM      6  C   UNL A   1      31.249  24.586  26.410  1.00  0.00     0.222 C 
ATOM      7  H   UNL A   1      32.984  25.603  26.097  1.00  0.00     0.163 HD
BRANCH   6   8
ATOM      8  C   UNL A   1      32.030  23.316  26.190  1.00  0.00     0.128 C 
BRANCH   8   9
ATOM      9  C   UNL A   1      32.058  22.764  24.755  1.00  0.00     0.129 C 
ATOM     10  C   UNL A   1      32.248  21.235  24.806  1.00  0.00     0.255 C 
ATOM     11  N   UNL A   1      33.111  23.324  23.881  1.00  0.00    -0.357 N 
ATOM     12  O   UNL A   1      33.516  20.888  25.388  1.00  0.00    -0.489 OA
ATOM     13  C   UNL A   1      34.368  22.717  23.995  1.00  0.00     0.080 A 
ATOM     14  C   UNL A   1      34.555  21.557  24.778  1.00  0.00     0.142 A 
ATOM     15  C   UNL A   1      35.511  23.246  23.384  1.00  0.00     0.030 A 
ATOM     16  C   UNL A   1      35.825  21.008  24.988  1.00  0.00     0.048 A 
ATOM     17  C   UNL A   1      36.776  22.672  23.547  1.00  0.00     0.002 A 
ATOM     18  C   UNL A   1      36.939  21.565  24.368  1.00  0.00     0.004 A 
BRANCH  11  19
ATOM     19  C   UNL A   1      32.706  23.958  22.613  1.00  0.00     0.152 C 
BRANCH  19  20
ATOM     20  C   UNL A   1      32.486  25.453  22.716  1.00  0.00    -0.029 A 
ATOM     21  C   UNL A   1      33.565  26.329  22.895  1.00  0.00     0.005 A 
ATOM     22  C   UNL A   1      31.192  26.000  22.689  1.00  0.00     0.005 A 
ATOM     23  C   UNL A   1      33.358  27.706  23.019  1.00  0.00     0.000 A 
ATOM     24  C   UNL A   1      30.986  27.378  22.780  1.00  0.00     0.000 A 
ATOM     25  C   UNL A   1      32.070  28.233  22.948  1.00  0.00     0.000 A 
ENDBRANCH  19  20
ENDBRANCH  11  19
ENDBRANCH   8   9
ENDBRANCH   6   8
ENDBRANCH   3   4
ENDBRANCH   2   3
ENDBRANCH   1   2
BRANCH   1  26
ATOM     26  C   UNL A   1      31.599  30.370  26.105  1.00  0.00     0.002 C 
BRANCH  26  27
ATOM     27  C   UNL A   1      31.426  31.829  26.500  1.00  0.00     0.021 C 
BRANCH  27  28
ATOM     28  C   UNL A   1      32.651  32.456  27.146  1.00  0.00     0.116 C 
BRANCH  28  29
ATOM     29  N   UNL A   1      32.458  33.850  27.537  1.00  0.00    -0.352 N 
ATOM     30  C   UNL A   1      33.143  34.588  28.472  1.00  0.00     0.251 C 
ATOM     31  H   UNL A   1      31.737  34.326  27.067  1.00  0.00     0.163 HD
ATOM     32  O   UNL A   1      32.785  35.726  28.759  1.00  0.00    -0.269 OA
BRANCH  30  33
ATOM     33  C   UNL A   1      34.300  33.980  29.163  1.00  0.00     0.039 A 
ATOM     34  C   UNL A   1      34.080  33.082  30.210  1.00  0.00     0.014 A 
ATOM     35  C   UNL A   1      35.600  34.252  28.730  1.00  0.00     0.014 A 
ATOM     36  C   UNL A   1      35.160  32.396  30.768  1.00  0.00     0.010 A 
ATOM     37  C   UNL A   1      36.656  33.489  29.208  1.00  0.00     0.010 A 
ATOM     38  C   UNL A   1      36.452  32.560  30.241  1.00  0.00    -0.014 A 
BRANCH  38  39
ATOM     39  C   UNL A   1      37.621  31.813  30.773  1.00  0.00     0.031 A 
ATOM     40  C   UNL A   1      38.158  32.160  32.137  1.00  0.00     0.074 A 
ATOM     41  C   UNL A   1      38.246  30.895  30.011  1.00  0.00     0.049 A 
ATOM     42  N   UNL A   1      39.248  31.746  32.729  1.00  0.00    -0.248 NA
ATOM     43  C   UNL A   1      37.388  33.143  32.920  1.00  0.00     0.031 C 
ATOM     44  C   UNL A   1      37.863  30.511  28.651  1.00  0.00     0.029 A 
ATOM     45  N   UNL A   1      39.353  30.126  30.271  1.00  0.00    -0.354 N 
ATOM     46  C   UNL A   1      39.307  32.435  33.933  1.00  0.00     0.074 A 
ATOM     47  C   UNL A   1      38.183  33.345  33.958  1.00  0.00     0.031 C 
ATOM     48  C   UNL A   1      38.706  29.563  28.207  1.00  0.00     0.029 A 
ATOM     49  C   UNL A   1      39.709  29.299  29.233  1.00  0.00     0.049 A 
ATOM     50  H   UNL A   1      39.847  30.164  31.122  1.00  0.00     0.167 HD
ATOM     51  C   UNL A   1      40.193  32.298  34.948  1.00  0.00     0.037 A 
ATOM     52  C   UNL A   1      40.732  28.430  29.123  1.00  0.00     0.037 A 
ATOM     53  C   UNL A   1      41.278  31.357  34.944  1.00  0.00     0.049 A 
ATOM     54  C   UNL A   1      41.678  28.266  30.282  1.00  0.00     0.074 A 
ATOM     55  C   UNL A   1      42.215  31.114  35.933  1.00  0.00     0.029 A 
ATOM     56  N   UNL A   1      41.555  30.483  33.904  1.00  0.00    -0.354 N 
ATOM     57  N   UNL A   1      41.696  28.897  31.431  1.00  0.00    -0.248 NA
ATOM     58  C   UNL A   1      42.737  27.256  30.136  1.00  0.00     0.031 C 
ATOM     59  C   UNL A   1      43.068  30.101  35.484  1.00  0.00     0.029 A 
ATOM     60  C   UNL A   1      42.641  29.690  34.232  1.00  0.00     0.049 A 
ATOM     61  H   UNL A   1      41.054  30.435  33.058  1.00  0.00     0.167 HD
ATOM     62  C   UNL A   1      42.739  28.337  32.157  1.00  0.00     0.074 A 
ATOM     63  C   UNL A   1      43.322  27.307  31.324  1.00  0.00     0.031 C 
ATOM     64  C   UNL A   1      43.179  28.647  33.400  1.00  0.00     0.037 A 
BRANCH  51  65
ATOM     65  C   UNL A   1      39.998  33.166  36.156  1.00  0.00     0.057 A 
ATOM     66  C   UNL A   1      39.141  32.786  37.199  1.00  0.00     0.134 A 
ATOM     67  C   UNL A   1      40.687  34.377  36.294  1.00  0.00     0.134 A 
ATOM     68  F   UNL A   1      38.439  31.646  37.120  1.00  0.00    -0.206 F 
ATOM     69  C   UNL A   1      38.958  33.592  38.324  1.00  0.00     0.040 A 
ATOM     70  C   UNL A   1      40.532  35.177  37.428  1.00  0.00     0.040 A 
ATOM     71  F   UNL A   1      41.524  34.799  35.335  1.00  0.00    -0.206 F 
ATOM     72  C   UNL A   1      39.661  34.788  38.443  1.00  0.00     0.006 A 
ENDBRANCH  51  65
BRANCH  52  73
ATOM     73  C   UNL A   1      40.907  27.622  27.889  1.00  0.00     0.057 A 
ATOM     74  C   UNL A   1      40.320  26.356  27.767  1.00  0.00     0.134 A 
ATOM     75  C   UNL A   1      41.690  28.073  26.821  1.00  0.00     0.134 A 
ATOM     76  F   UNL A   1      39.571  25.860  28.764  1.00  0.00    -0.206 F 
ATOM     77  C   UNL A   1      40.533  25.554  26.644  1.00  0.00     0.040 A 
ATOM     78  C   UNL A   1      41.890  27.293  25.681  1.00  0.00     0.040 A 
ATOM     79  F   UNL A   1      42.271  29.281  26.870  1.00  0.00    -0.206 F 
ATOM     80  C   UNL A   1      41.321  26.025  25.596  1.00  0.00     0.006 A 
ENDBRANCH  52  73
BRANCH  64  81
ATOM     81  C   UNL A   1      44.299  27.821  33.959  1.00  0.00     0.057 A 
ATOM     82  C   UNL A   1      45.635  28.224  33.867  1.00  0.00     0.134 A 
ATOM     83  C   UNL A   1      44.024  26.625  34.634  1.00  0.00     0.134 A 
ATOM     84  F   UNL A   1      45.963  29.355  33.223  1.00  0.00    -0.206 F 
ATOM     85  C   UNL A   1      46.665  27.454  34.409  1.00  0.00     0.040 A 
ATOM     86  C   UNL A   1      45.043  25.859  35.202  1.00  0.00     0.040 A 
ATOM     87  F   UNL A   1      42.762  26.189  34.765  1.00  0.00    -0.206 F 
ATOM     88  C   UNL A   1      46.369  26.270  35.084  1.00  0.00     0.006 A 
ENDBRANCH  64  81
ENDBRANCH  38  39
ENDBRANCH  30  33
ENDBRANCH  28  29
ENDBRANCH  27  28
ENDBRANCH  26  27
ENDBRANCH   1  26
TORSDOF 16
ENDMDL
MODEL 3
REMARK VINA RESULT:     -11.5      1.990      7.457
REMARK SMILES O=C(C[C@@H]1COc2ccccc2N1Cc1ccccc1)NCCCCCCNC(=O)c1ccc(-c2c3nc(c(-c4c(F)cccc4F)c4ccc([nH]4)c(-c4c(F)cccc4F)c4nc(c(-c5c(F)cccc5F)c5ccc2[nH]5)C=C4)C=C3)cc1
REMARK SMILES IDX 24 1 23 2 22 3 21 4 1 5 2 6 3 8 4 9 5 10 13 11 6 12 12 13
REMARK SMILES IDX 7 14 11 15 8 16 10 17 9 18 14 19 15 20 16 21 20 22 17 23
REMARK SMILES IDX 19 24 18 25 25 26 26 27 27 28 28 29 29 30 30 32 31 33 32 34
REMARK SMILES IDX 84 35 33 36 83 37 34 38 35 39 36 40 77 41 37 42 82 43 76 44
REMARK SMILES IDX 78 45 38 46 81 47 75 48 74 49 39 51 65 52 48 53 64 54 49 55
REMARK SMILES IDX 52 56 63 57 79 58 50 59 51 60 62 62 80 63 53 64 40 65 41 66
REMARK SMILES IDX 46 67 42 68 43 69 45 70 47 71 44 72 66 73 67 74 72 75 68 76
REMARK SMILES IDX 69 77 71 78 73 79 70 80 54 81 55 82 60 83 56 84 57 85 59 86
REMARK SMILES IDX 61 87 58 88
REMARK H PARENT 21 7 28 31 78 50 52 61
REMARK Flexibility Score: inf
ROOT
ATOM      1  C   UNL A   1      30.829  27.396  25.164  1.00  0.00     0.002 C 
ENDROOT
BRANCH   1   2
ATOM      2  C   UNL A   1      30.066  26.142  24.716  1.00  0.00     0.021 C 
BRANCH   2   3
ATOM      3  C   UNL A   1      30.485  25.567  23.360  1.00  0.00     0.116 C 
BRANCH   3   4
ATOM      4  N   UNL A   1      31.468  24.520  23.498  1.00  0.00    -0.356 N 
ATOM      5  O   UNL A   1      33.284  25.688  22.687  1.00  0.00    -0.275 OA
ATOM      6  C   UNL A   1      32.799  24.681  23.190  1.00  0.00     0.222 C 
ATOM      7  H   UNL A   1      31.171  23.643  23.831  1.00  0.00     0.163 HD
BRANCH   6   8
ATOM      8  C   UNL A   1      33.611  23.437  23.445  1.00  0.00     0.128 C 
BRANCH   8   9
ATOM      9  C   UNL A   1      33.614  22.900  24.886  1.00  0.00     0.129 C 
ATOM     10  C   UNL A   1      34.059  24.023  25.843  1.00  0.00     0.255 C 
ATOM     11  N   UNL A   1      34.486  21.729  25.123  1.00  0.00    -0.357 N 
ATOM     12  O   UNL A   1      35.410  24.433  25.571  1.00  0.00    -0.489 OA
ATOM     13  C   UNL A   1      35.831  22.026  25.374  1.00  0.00     0.080 A 
ATOM     14  C   UNL A   1      36.271  23.357  25.538  1.00  0.00     0.142 A 
ATOM     15  C   UNL A   1      36.817  21.034  25.430  1.00  0.00     0.030 A 
ATOM     16  C   UNL A   1      37.627  23.673  25.678  1.00  0.00     0.048 A 
ATOM     17  C   UNL A   1      38.169  21.337  25.621  1.00  0.00     0.002 A 
ATOM     18  C   UNL A   1      38.579  22.659  25.723  1.00  0.00     0.004 A 
BRANCH  11  19
ATOM     19  C   UNL A   1      33.880  20.506  25.680  1.00  0.00     0.152 C 
BRANCH  19  20
ATOM     20  C   UNL A   1      33.604  19.431  24.649  1.00  0.00    -0.029 A 
ATOM     21  C   UNL A   1      34.411  18.287  24.568  1.00  0.00     0.005 A 
ATOM     22  C   UNL A   1      32.569  19.573  23.711  1.00  0.00     0.005 A 
ATOM     23  C   UNL A   1      34.172  17.310  23.597  1.00  0.00     0.000 A 
ATOM     24  C   UNL A   1      32.310  18.583  22.761  1.00  0.00     0.000 A 
ATOM     25  C   UNL A   1      33.114  17.450  22.702  1.00  0.00     0.000 A 
ENDBRANCH  19  20
ENDBRANCH  11  19
ENDBRANCH   8   9
ENDBRANCH   6   8
ENDBRANCH   3   4
ENDBRANCH   2   3
ENDBRANCH   1   2
BRANCH   1  26
ATOM     26  C   UNL A   1      31.980  27.140  26.137  1.00  0.00     0.002 C 
BRANCH  26  27
ATOM     27  C   UNL A   1      33.345  27.647  25.698  1.00  0.00     0.021 C 
BRANCH  27  28
ATOM     28  C   UNL A   1      34.217  28.170  26.830  1.00  0.00     0.116 C 
BRANCH  28  29
ATOM     29  N   UNL A   1      33.820  29.490  27.313  1.00  0.00    -0.352 N 
ATOM     30  C   UNL A   1      34.548  30.398  28.043  1.00  0.00     0.251 C 
ATOM     31  H   UNL A   1      32.903  29.767  27.085  1.00  0.00     0.163 HD
ATOM     32  O   UNL A   1      34.028  31.427  28.463  1.00  0.00    -0.269 OA
BRANCH  30  33
ATOM     33  C   UNL A   1      35.964  30.103  28.354  1.00  0.00     0.039 A 
ATOM     34  C   UNL A   1      36.293  29.558  29.598  1.00  0.00     0.014 A 
ATOM     35  C   UNL A   1      36.952  30.306  27.389  1.00  0.00     0.014 A 
ATOM     36  C   UNL A   1      37.604  29.143  29.841  1.00  0.00     0.010 A 
ATOM     37  C   UNL A   1      38.225  29.793  27.593  1.00  0.00     0.010 A 
ATOM     38  C   UNL A   1      38.570  29.215  28.825  1.00  0.00    -0.014 A 
BRANCH  38  39
ATOM     39  C   UNL A   1      39.964  28.741  29.028  1.00  0.00     0.031 A 
ATOM     40  C   UNL A   1      40.979  29.673  29.636  1.00  0.00     0.074 A 
ATOM     41  C   UNL A   1      40.337  27.521  28.595  1.00  0.00     0.049 A 
ATOM     42  N   UNL A   1      42.272  29.521  29.765  1.00  0.00    -0.248 NA
ATOM     43  C   UNL A   1      40.477  30.970  30.122  1.00  0.00     0.031 C 
ATOM     44  C   UNL A   1      39.466  26.546  27.934  1.00  0.00     0.029 A 
ATOM     45  N   UNL A   1      41.559  26.897  28.632  1.00  0.00    -0.354 N 
ATOM     46  C   UNL A   1      42.736  30.709  30.316  1.00  0.00     0.074 A 
ATOM     47  C   UNL A   1      41.600  31.596  30.434  1.00  0.00     0.031 C 
ATOM     48  C   UNL A   1      40.175  25.440  27.652  1.00  0.00     0.029 A 
ATOM     49  C   UNL A   1      41.557  25.641  28.075  1.00  0.00     0.049 A 
ATOM     50  H   UNL A   1      42.363  27.311  29.022  1.00  0.00     0.167 HD
ATOM     51  C   UNL A   1      43.987  31.022  30.727  1.00  0.00     0.037 A 
ATOM     52  C   UNL A   1      42.560  24.755  27.923  1.00  0.00     0.037 A 
ATOM     53  C   UNL A   1      45.104  30.120  30.658  1.00  0.00     0.049 A 
ATOM     54  C   UNL A   1      43.932  25.111  28.426  1.00  0.00     0.074 A 
ATOM     55  C   UNL A   1      46.407  30.325  31.075  1.00  0.00     0.029 A 
ATOM     56  N   UNL A   1      45.039  28.829  30.158  1.00  0.00    -0.354 N 
ATOM     57  N   UNL A   1      44.347  26.224  28.983  1.00  0.00    -0.248 NA
ATOM     58  C   UNL A   1      44.974  24.082  28.295  1.00  0.00     0.031 C 
ATOM     59  C   UNL A   1      47.136  29.160  30.815  1.00  0.00     0.029 A 
ATOM     60  C   UNL A   1      46.277  28.219  30.269  1.00  0.00     0.049 A 
ATOM     61  H   UNL A   1      44.233  28.408  29.782  1.00  0.00     0.167 HD
ATOM     62  C   UNL A   1      45.682  26.015  29.301  1.00  0.00     0.074 A 
ATOM     63  C   UNL A   1      46.006  24.667  28.887  1.00  0.00     0.031 C 
ATOM     64  C   UNL A   1      46.564  26.864  29.882  1.00  0.00     0.037 A 
BRANCH  51  65
ATOM     65  C   UNL A   1      44.199  32.385  31.317  1.00  0.00     0.057 A 
ATOM     66  C   UNL A   1      44.110  32.606  32.699  1.00  0.00     0.134 A 
ATOM     67  C   UNL A   1      44.518  33.480  30.506  1.00  0.00     0.134 A 
ATOM     68  F   UNL A   1      43.791  31.601  33.528  1.00  0.00    -0.206 F 
ATOM     69  C   UNL A   1      44.306  33.873  33.250  1.00  0.00     0.040 A 
ATOM     70  C   UNL A   1      44.744  34.747  31.050  1.00  0.00     0.040 A 
ATOM     71  F   UNL A   1      44.621  33.338  29.177  1.00  0.00    -0.206 F 
ATOM     72  C   UNL A   1      44.632  34.946  32.424  1.00  0.00     0.006 A 
ENDBRANCH  51  65
BRANCH  52  73
ATOM     73  C   UNL A   1      42.308  23.432  27.295  1.00  0.00     0.057 A 
ATOM     74  C   UNL A   1      41.882  22.339  28.061  1.00  0.00     0.134 A 
ATOM     75  C   UNL A   1      42.521  23.216  25.929  1.00  0.00     0.134 A 
ATOM     76  F   UNL A   1      41.677  22.479  29.379  1.00  0.00    -0.206 F 
ATOM     77  C   UNL A   1      41.711  21.073  27.499  1.00  0.00     0.040 A 
ATOM     78  C   UNL A   1      42.328  21.960  25.349  1.00  0.00     0.040 A 
ATOM     79  F   UNL A   1      42.919  24.223  25.137  1.00  0.00    -0.206 F 
ATOM     80  C   UNL A   1      41.934  20.882  26.137  1.00  0.00     0.006 A 
ENDBRANCH  52  73
BRANCH  64  81
ATOM     81  C   UNL A   1      47.939  26.337  30.165  1.00  0.00     0.057 A 
ATOM     82  C   UNL A   1      48.963  26.385  29.212  1.00  0.00     0.134 A 
ATOM     83  C   UNL A   1      48.249  25.812  31.427  1.00  0.00     0.134 A 
ATOM     84  F   UNL A   1      48.725  26.866  27.982  1.00  0.00    -0.206 F 
ATOM     85  C   UNL A   1      50.243  25.908  29.496  1.00  0.00     0.040 A 
ATOM     86  C   UNL A   1      49.531  25.356  31.730  1.00  0.00     0.040 A 
ATOM     87  F   UNL A   1      47.314  25.748  32.387  1.00  0.00    -0.206 F 
ATOM     88  C   UNL A   1      50.531  25.397  30.761  1.00  0.00     0.006 A 
ENDBRANCH  64  81
ENDBRANCH  38  39
ENDBRANCH  30  33
ENDBRANCH  28  29
ENDBRANCH  27  28
ENDBRANCH  26  27
ENDBRANCH   1  26
TORSDOF 16
ENDMDL
