MODEL 1
REMARK VINA RESULT:     -12.8      0.000      0.000
REMARK SMILES Cc1nc(-c2ccccc2)sc1C(=O)N[C@@H](CC1=c2ccccc2=NC1)C(=O)NCCCCCCNC(=O)c1ccc(-c2c3nc(c(-c4c(F)cccc4F)c4ccc([nH]4)c(-c4c(F)cccc4F)c4nc(c(-c5c(F)cccc5F)c5ccc2[nH]5)C=C4)C=C3)cc1
REMARK SMILES IDX 32 1 31 2 30 3 29 4 27 5 28 6 16 8 15 9 13 10 14 11 12 13
REMARK SMILES IDX 1 14 2 15 3 16 4 17 11 18 5 19 6 20 10 21 7 22 9 23 8 24
REMARK SMILES IDX 17 25 18 26 19 27 26 28 20 29 24 30 25 31 21 32 23 33 22 34
REMARK SMILES IDX 33 35 34 36 35 37 36 38 37 39 38 41 39 42 40 43 92 44 41 45
REMARK SMILES IDX 91 46 42 47 43 48 44 49 85 50 45 51 90 52 84 53 86 54 46 55
REMARK SMILES IDX 89 56 83 57 82 58 47 60 73 61 56 62 72 63 57 64 60 65 71 66
REMARK SMILES IDX 87 67 58 68 59 69 70 71 88 72 61 73 48 74 49 75 54 76 50 77
REMARK SMILES IDX 51 78 53 79 55 80 52 81 74 82 75 83 80 84 76 85 77 86 79 87
REMARK SMILES IDX 81 88 78 89 62 90 63 91 68 92 64 93 65 94 67 95 69 96 66 97
REMARK H PARENT 29 7 15 12 36 40 86 59 60 70
REMARK Flexibility Score: inf
ROOT
ATOM      1  C   UNL A   1      32.132  29.834  25.970  1.00  0.00     0.002 C 
ENDROOT
BRANCH   1   2
ATOM      2  C   UNL A   1      32.872  29.048  24.888  1.00  0.00     0.021 C 
BRANCH   2   3
ATOM      3  C   UNL A   1      32.878  27.547  25.099  1.00  0.00     0.116 C 
BRANCH   3   4
ATOM      4  N   UNL A   1      31.869  27.087  26.015  1.00  0.00    -0.354 N 
ATOM      5  C   UNL A   1      30.767  26.341  25.763  1.00  0.00     0.242 C 
ATOM      6  O   UNL A   1      30.237  25.783  26.731  1.00  0.00    -0.273 OA
ATOM      7  H   UNL A   1      31.998  27.351  26.955  1.00  0.00     0.163 HD
BRANCH   5   8
ATOM      8  C   UNL A   1      30.202  26.112  24.347  1.00  0.00     0.175 C 
BRANCH   8   9
ATOM      9  N   UNL A   1      30.074  24.731  23.925  1.00  0.00    -0.339 N 
ATOM     10  C   UNL A   1      30.970  23.815  23.444  1.00  0.00     0.263 C 
ATOM     11  O   UNL A   1      30.410  22.772  23.077  1.00  0.00    -0.268 OA
ATOM     12  H   UNL A   1      29.156  24.381  23.999  1.00  0.00     0.164 HD
BRANCH  10  13
ATOM     13  C   UNL A   1      32.422  23.992  23.376  1.00  0.00     0.115 A 
ATOM     14  C   UNL A   1      33.294  25.897  21.731  1.00  0.00     0.068 C 
ATOM     15  C   UNL A   1      33.363  24.810  22.743  1.00  0.00     0.062 A 
ATOM     16  N   UNL A   1      34.671  24.594  23.126  1.00  0.00    -0.241 NA
ATOM     17  C   UNL A   1      34.780  23.591  23.952  1.00  0.00     0.124 A 
ATOM     18  S   UNL A   1      33.322  22.840  24.368  1.00  0.00    -0.108 S 
BRANCH  17  19
ATOM     19  C   UNL A   1      36.075  23.186  24.473  1.00  0.00     0.010 A 
ATOM     20  C   UNL A   1      36.540  21.900  24.158  1.00  0.00     0.011 A 
ATOM     21  C   UNL A   1      36.746  23.949  25.432  1.00  0.00     0.011 A 
ATOM     22  C   UNL A   1      37.646  21.370  24.815  1.00  0.00     0.001 A 
ATOM     23  C   UNL A   1      37.851  23.412  26.095  1.00  0.00     0.001 A 
ATOM     24  C   UNL A   1      38.291  22.121  25.793  1.00  0.00     0.000 A 
ENDBRANCH  17  19
ENDBRANCH  10  13
ENDBRANCH   8   9
BRANCH   8  25
ATOM     25  C   UNL A   1      28.991  26.991  23.932  1.00  0.00     0.068 C 
BRANCH  25  26
ATOM     26  C   UNL A   1      29.244  28.186  23.066  1.00  0.00    -0.037 C 
ATOM     27  C   UNL A   1      28.588  29.344  23.016  1.00  0.00     0.001 A 
ATOM     28  C   UNL A   1      30.419  28.212  22.131  1.00  0.00     0.174 C 
ATOM     29  C   UNL A   1      27.427  29.884  23.643  1.00  0.00     0.010 A 
ATOM     30  C   UNL A   1      29.511  30.194  22.242  1.00  0.00     0.065 A 
ATOM     31  N   UNL A   1      30.546  29.625  21.702  1.00  0.00    -0.280 NA
ATOM     32  C   UNL A   1      27.243  31.214  23.629  1.00  0.00     0.001 A 
ATOM     33  C   UNL A   1      29.239  31.648  22.266  1.00  0.00     0.028 A 
ATOM     34  C   UNL A   1      28.185  32.100  22.967  1.00  0.00     0.002 A 
ENDBRANCH  25  26
ENDBRANCH   8  25
ENDBRANCH   5   8
ENDBRANCH   3   4
ENDBRANCH   2   3
ENDBRANCH   1   2
BRANCH   1  35
ATOM     35  C   UNL A   1      31.068  30.817  25.472  1.00  0.00     0.002 C 
BRANCH  35  36
ATOM     36  C   UNL A   1      31.046  32.183  26.162  1.00  0.00     0.021 C 
BRANCH  36  37
ATOM     37  C   UNL A   1      32.294  32.516  26.968  1.00  0.00     0.116 C 
BRANCH  37  38
ATOM     38  N   UNL A   1      32.280  33.881  27.462  1.00  0.00    -0.352 N 
ATOM     39  C   UNL A   1      33.101  34.478  28.386  1.00  0.00     0.251 C 
ATOM     40  H   UNL A   1      31.583  34.463  27.079  1.00  0.00     0.163 HD
ATOM     41  O   UNL A   1      32.841  35.587  28.829  1.00  0.00    -0.269 OA
BRANCH  39  42
ATOM     42  C   UNL A   1      34.294  33.749  28.857  1.00  0.00     0.039 A 
ATOM     43  C   UNL A   1      35.554  34.307  28.638  1.00  0.00     0.014 A 
ATOM     44  C   UNL A   1      34.161  32.535  29.537  1.00  0.00     0.014 A 
ATOM     45  C   UNL A   1      36.683  33.682  29.167  1.00  0.00     0.010 A 
ATOM     46  C   UNL A   1      35.277  31.952  30.125  1.00  0.00     0.010 A 
ATOM     47  C   UNL A   1      36.547  32.524  29.950  1.00  0.00    -0.014 A 
BRANCH  47  48
ATOM     48  C   UNL A   1      37.716  31.905  30.620  1.00  0.00     0.031 A 
ATOM     49  C   UNL A   1      38.514  30.846  29.917  1.00  0.00     0.074 A 
ATOM     50  C   UNL A   1      38.008  32.247  31.889  1.00  0.00     0.049 A 
ATOM     51  N   UNL A   1      39.506  30.123  30.368  1.00  0.00    -0.248 NA
ATOM     52  C   UNL A   1      38.127  30.542  28.530  1.00  0.00     0.031 C 
ATOM     53  C   UNL A   1      37.289  33.243  32.686  1.00  0.00     0.029 A 
ATOM     54  N   UNL A   1      38.982  31.785  32.738  1.00  0.00    -0.354 N 
ATOM     55  C   UNL A   1      39.859  29.277  29.326  1.00  0.00     0.074 A 
ATOM     56  C   UNL A   1      38.936  29.534  28.241  1.00  0.00     0.031 C 
ATOM     57  C   UNL A   1      37.861  33.335  33.897  1.00  0.00     0.029 A 
ATOM     58  C   UNL A   1      38.953  32.370  33.980  1.00  0.00     0.049 A 
ATOM     59  H   UNL A   1      39.640  31.098  32.480  1.00  0.00     0.167 HD
ATOM     60  C   UNL A   1      40.876  28.384  29.270  1.00  0.00     0.037 A 
ATOM     61  C   UNL A   1      39.711  32.142  35.069  1.00  0.00     0.037 A 
ATOM     62  C   UNL A   1      41.791  28.136  30.353  1.00  0.00     0.049 A 
ATOM     63  C   UNL A   1      40.789  31.096  35.005  1.00  0.00     0.074 A 
ATOM     64  C   UNL A   1      42.882  27.286  30.382  1.00  0.00     0.029 A 
ATOM     65  N   UNL A   1      41.713  28.731  31.604  1.00  0.00    -0.354 N 
ATOM     66  N   UNL A   1      41.155  30.347  33.993  1.00  0.00    -0.248 NA
ATOM     67  C   UNL A   1      41.552  30.857  36.237  1.00  0.00     0.031 C 
ATOM     68  C   UNL A   1      43.428  27.321  31.670  1.00  0.00     0.029 A 
ATOM     69  C   UNL A   1      42.713  28.236  32.426  1.00  0.00     0.049 A 
ATOM     70  H   UNL A   1      41.046  29.405  31.869  1.00  0.00     0.167 HD
ATOM     71  C   UNL A   1      42.205  29.566  34.457  1.00  0.00     0.074 A 
ATOM     72  C   UNL A   1      42.427  29.943  35.838  1.00  0.00     0.031 C 
ATOM     73  C   UNL A   1      42.921  28.622  33.800  1.00  0.00     0.037 A 
BRANCH  60  74
ATOM     74  C   UNL A   1      41.040  27.607  27.995  1.00  0.00     0.057 A 
ATOM     75  C   UNL A   1      41.803  28.093  26.924  1.00  0.00     0.134 A 
ATOM     76  C   UNL A   1      40.438  26.351  27.839  1.00  0.00     0.134 A 
ATOM     77  F   UNL A   1      42.398  29.293  27.003  1.00  0.00    -0.206 F 
ATOM     78  C   UNL A   1      41.931  27.377  25.733  1.00  0.00     0.040 A 
ATOM     79  C   UNL A   1      40.585  25.611  26.664  1.00  0.00     0.040 A 
ATOM     80  F   UNL A   1      39.700  25.821  28.825  1.00  0.00    -0.206 F 
ATOM     81  C   UNL A   1      41.326  26.129  25.603  1.00  0.00     0.006 A 
ENDBRANCH  60  74
BRANCH  61  82
ATOM     82  C   UNL A   1      39.485  32.928  36.309  1.00  0.00     0.057 A 
ATOM     83  C   UNL A   1      38.589  32.483  37.288  1.00  0.00     0.134 A 
ATOM     84  C   UNL A   1      40.155  34.133  36.549  1.00  0.00     0.134 A 
ATOM     85  F   UNL A   1      37.903  31.345  37.106  1.00  0.00    -0.206 F 
ATOM     86  C   UNL A   1      38.355  33.215  38.453  1.00  0.00     0.040 A 
ATOM     87  C   UNL A   1      39.952  34.862  37.722  1.00  0.00     0.040 A 
ATOM     88  F   UNL A   1      41.032  34.611  35.654  1.00  0.00    -0.206 F 
ATOM     89  C   UNL A   1      39.043  34.405  38.675  1.00  0.00     0.006 A 
ENDBRANCH  61  82
BRANCH  73  90
ATOM     90  C   UNL A   1      44.024  27.940  34.556  1.00  0.00     0.057 A 
ATOM     91  C   UNL A   1      43.823  26.720  35.213  1.00  0.00     0.134 A 
ATOM     92  C   UNL A   1      45.316  28.481  34.576  1.00  0.00     0.134 A 
ATOM     93  F   UNL A   1      42.606  26.156  35.244  1.00  0.00    -0.206 F 
ATOM     94  C   UNL A   1      44.866  26.068  35.874  1.00  0.00     0.040 A 
ATOM     95  C   UNL A   1      46.372  27.825  35.210  1.00  0.00     0.040 A 
ATOM     96  F   UNL A   1      45.577  29.644  33.961  1.00  0.00    -0.206 F 
ATOM     97  C   UNL A   1      46.147  26.616  35.864  1.00  0.00     0.006 A 
ENDBRANCH  73  90
ENDBRANCH  47  48
ENDBRANCH  39  42
ENDBRANCH  37  38
ENDBRANCH  36  37
ENDBRANCH  35  36
ENDBRANCH   1  35
TORSDOF 18
ENDMDL
MODEL 2
REMARK VINA RESULT:     -12.7      0.385      5.863
REMARK SMILES Cc1nc(-c2ccccc2)sc1C(=O)N[C@@H](CC1=c2ccccc2=NC1)C(=O)NCCCCCCNC(=O)c1ccc(-c2c3nc(c(-c4c(F)cccc4F)c4ccc([nH]4)c(-c4c(F)cccc4F)c4nc(c(-c5c(F)cccc5F)c5ccc2[nH]5)C=C4)C=C3)cc1
REMARK SMILES IDX 32 1 31 2 30 3 29 4 27 5 28 6 16 8 15 9 13 10 14 11 12 13
REMARK SMILES IDX 1 14 2 15 3 16 4 17 11 18 5 19 6 20 10 21 7 22 9 23 8 24
REMARK SMILES IDX 17 25 18 26 19 27 26 28 20 29 24 30 25 31 21 32 23 33 22 34
REMARK SMILES IDX 33 35 34 36 35 37 36 38 37 39 38 41 39 42 40 43 92 44 41 45
REMARK SMILES IDX 91 46 42 47 43 48 44 49 85 50 45 51 90 52 84 53 86 54 46 55
REMARK SMILES IDX 89 56 83 57 82 58 47 60 73 61 56 62 72 63 57 64 60 65 71 66
REMARK SMILES IDX 87 67 58 68 59 69 70 71 88 72 61 73 48 74 49 75 54 76 50 77
REMARK SMILES IDX 51 78 53 79 55 80 52 81 74 82 75 83 80 84 76 85 77 86 79 87
REMARK SMILES IDX 81 88 78 89 62 90 63 91 68 92 64 93 65 94 67 95 69 96 66 97
REMARK H PARENT 29 7 15 12 36 40 86 59 60 70
REMARK Flexibility Score: inf
ROOT
ATOM      1  C   UNL A   1      31.852  29.936  25.970  1.00  0.00     0.002 C 
ENDROOT
BRANCH   1   2
ATOM      2  C   UNL A   1      32.693  29.221  24.912  1.00  0.00     0.021 C 
BRANCH   2   3
ATOM      3  C   UNL A   1      32.791  27.720  25.100  1.00  0.00     0.116 C 
BRANCH   3   4
ATOM      4  N   UNL A   1      31.820  27.188  26.017  1.00  0.00    -0.354 N 
ATOM      5  C   UNL A   1      30.763  26.379  25.764  1.00  0.00     0.242 C 
ATOM      6  O   UNL A   1      30.276  25.777  26.728  1.00  0.00    -0.273 OA
ATOM      7  H   UNL A   1      31.940  27.446  26.960  1.00  0.00     0.163 HD
BRANCH   5   8
ATOM      8  C   UNL A   1      30.200  26.135  24.349  1.00  0.00     0.175 C 
BRANCH   8   9
ATOM      9  N   UNL A   1      30.086  24.750  23.936  1.00  0.00    -0.339 N 
ATOM     10  C   UNL A   1      30.993  23.837  23.469  1.00  0.00     0.263 C 
ATOM     11  O   UNL A   1      30.443  22.787  23.106  1.00  0.00    -0.268 OA
ATOM     12  H   UNL A   1      29.170  24.394  24.006  1.00  0.00     0.164 HD
BRANCH  10  13
ATOM     13  C   UNL A   1      32.443  24.025  23.411  1.00  0.00     0.115 A 
ATOM     14  C   UNL A   1      33.310  25.977  21.821  1.00  0.00     0.068 C 
ATOM     15  C   UNL A   1      33.382  24.864  22.803  1.00  0.00     0.062 A 
ATOM     16  N   UNL A   1      34.690  24.645  23.185  1.00  0.00    -0.241 NA
ATOM     17  C   UNL A   1      34.801  23.621  23.984  1.00  0.00     0.124 A 
ATOM     18  S   UNL A   1      33.347  22.851  24.375  1.00  0.00    -0.108 S 
BRANCH  17  19
ATOM     19  C   UNL A   1      36.097  23.209  24.498  1.00  0.00     0.010 A 
ATOM     20  C   UNL A   1      36.562  21.928  24.166  1.00  0.00     0.011 A 
ATOM     21  C   UNL A   1      36.769  23.960  25.467  1.00  0.00     0.011 A 
ATOM     22  C   UNL A   1      37.669  21.390  24.816  1.00  0.00     0.001 A 
ATOM     23  C   UNL A   1      37.874  23.415  26.122  1.00  0.00     0.001 A 
ATOM     24  C   UNL A   1      38.315  22.128  25.803  1.00  0.00     0.000 A 
ENDBRANCH  17  19
ENDBRANCH  10  13
ENDBRANCH   8   9
BRANCH   8  25
ATOM     25  C   UNL A   1      28.982  26.999  23.928  1.00  0.00     0.068 C 
BRANCH  25  26
ATOM     26  C   UNL A   1      29.225  28.195  23.059  1.00  0.00    -0.037 C 
ATOM     27  C   UNL A   1      28.559  29.347  23.005  1.00  0.00     0.001 A 
ATOM     28  C   UNL A   1      30.399  28.229  22.124  1.00  0.00     0.174 C 
ATOM     29  C   UNL A   1      27.393  29.879  23.632  1.00  0.00     0.010 A 
ATOM     30  C   UNL A   1      29.475  30.203  22.230  1.00  0.00     0.065 A 
ATOM     31  N   UNL A   1      30.514  29.642  21.691  1.00  0.00    -0.280 NA
ATOM     32  C   UNL A   1      27.198  31.207  23.614  1.00  0.00     0.001 A 
ATOM     33  C   UNL A   1      29.190  31.655  22.250  1.00  0.00     0.028 A 
ATOM     34  C   UNL A   1      28.133  32.100  22.950  1.00  0.00     0.002 A 
ENDBRANCH  25  26
ENDBRANCH   8  25
ENDBRANCH   5   8
ENDBRANCH   3   4
ENDBRANCH   2   3
ENDBRANCH   1   2
BRANCH   1  35
ATOM     35  C   UNL A   1      30.907  31.023  25.448  1.00  0.00     0.002 C 
BRANCH  35  36
ATOM     36  C   UNL A   1      30.997  32.379  26.151  1.00  0.00     0.021 C 
BRANCH  36  37
ATOM     37  C   UNL A   1      32.222  32.565  27.036  1.00  0.00     0.116 C 
BRANCH  37  38
ATOM     38  N   UNL A   1      32.383  33.940  27.470  1.00  0.00    -0.352 N 
ATOM     39  C   UNL A   1      33.314  34.478  28.322  1.00  0.00     0.251 C 
ATOM     40  H   UNL A   1      31.731  34.580  27.101  1.00  0.00     0.163 HD
ATOM     41  O   UNL A   1      33.200  35.625  28.731  1.00  0.00    -0.269 OA
BRANCH  39  42
ATOM     42  C   UNL A   1      34.448  33.642  28.760  1.00  0.00     0.039 A 
ATOM     43  C   UNL A   1      35.741  34.161  28.674  1.00  0.00     0.014 A 
ATOM     44  C   UNL A   1      34.228  32.363  29.280  1.00  0.00     0.014 A 
ATOM     45  C   UNL A   1      36.811  33.424  29.179  1.00  0.00     0.010 A 
ATOM     46  C   UNL A   1      35.284  31.662  29.847  1.00  0.00     0.010 A 
ATOM     47  C   UNL A   1      36.584  32.189  29.807  1.00  0.00    -0.014 A 
BRANCH  47  48
ATOM     48  C   UNL A   1      37.688  31.439  30.453  1.00  0.00     0.031 A 
ATOM     49  C   UNL A   1      38.071  31.737  31.874  1.00  0.00     0.074 A 
ATOM     50  C   UNL A   1      38.391  30.545  29.733  1.00  0.00     0.049 A 
ATOM     51  N   UNL A   1      39.062  31.260  32.580  1.00  0.00    -0.248 NA
ATOM     52  C   UNL A   1      37.242  32.724  32.586  1.00  0.00     0.031 C 
ATOM     53  C   UNL A   1      38.131  30.190  28.337  1.00  0.00     0.029 A 
ATOM     54  N   UNL A   1      39.477  29.778  30.073  1.00  0.00    -0.354 N 
ATOM     55  C   UNL A   1      38.981  31.888  33.815  1.00  0.00     0.074 A 
ATOM     56  C   UNL A   1      37.881  32.826  33.742  1.00  0.00     0.031 C 
ATOM     57  C   UNL A   1      39.016  29.259  27.947  1.00  0.00     0.029 A 
ATOM     58  C   UNL A   1      39.936  28.988  29.048  1.00  0.00     0.049 A 
ATOM     59  H   UNL A   1      39.889  29.794  30.969  1.00  0.00     0.167 HD
ATOM     60  C   UNL A   1      39.740  31.684  34.918  1.00  0.00     0.037 A 
ATOM     61  C   UNL A   1      40.990  28.152  28.996  1.00  0.00     0.037 A 
ATOM     62  C   UNL A   1      40.832  30.748  34.984  1.00  0.00     0.049 A 
ATOM     63  C   UNL A   1      41.860  27.995  30.212  1.00  0.00     0.074 A 
ATOM     64  C   UNL A   1      41.634  30.433  36.066  1.00  0.00     0.029 A 
ATOM     65  N   UNL A   1      41.281  29.984  33.917  1.00  0.00    -0.354 N 
ATOM     66  N   UNL A   1      41.735  28.547  31.395  1.00  0.00    -0.248 NA
ATOM     67  C   UNL A   1      43.023  27.106  30.083  1.00  0.00     0.031 C 
ATOM     68  C   UNL A   1      42.607  29.524  35.639  1.00  0.00     0.029 A 
ATOM     69  C   UNL A   1      42.376  29.228  34.304  1.00  0.00     0.049 A 
ATOM     70  H   UNL A   1      40.882  29.979  33.017  1.00  0.00     0.167 HD
ATOM     71  C   UNL A   1      42.787  28.055  32.158  1.00  0.00     0.074 A 
ATOM     72  C   UNL A   1      43.531  27.149  31.308  1.00  0.00     0.031 C 
ATOM     73  C   UNL A   1      43.107  28.330  33.445  1.00  0.00     0.037 A 
BRANCH  60  74
ATOM     74  C   UNL A   1      39.415  32.500  36.138  1.00  0.00     0.057 A 
ATOM     75  C   UNL A   1      40.038  33.730  36.394  1.00  0.00     0.134 A 
ATOM     76  C   UNL A   1      38.460  32.057  37.062  1.00  0.00     0.134 A 
ATOM     77  F   UNL A   1      40.970  34.207  35.554  1.00  0.00    -0.206 F 
ATOM     78  C   UNL A   1      39.751  34.470  37.541  1.00  0.00     0.040 A 
ATOM     79  C   UNL A   1      38.141  32.805  38.197  1.00  0.00     0.040 A 
ATOM     80  F   UNL A   1      37.819  30.894  36.877  1.00  0.00    -0.206 F 
ATOM     81  C   UNL A   1      38.795  34.010  38.444  1.00  0.00     0.006 A 
ENDBRANCH  60  74
BRANCH  61  82
ATOM     82  C   UNL A   1      41.273  27.390  27.754  1.00  0.00     0.057 A 
ATOM     83  C   UNL A   1      42.071  27.937  26.742  1.00  0.00     0.134 A 
ATOM     84  C   UNL A   1      40.761  26.104  27.545  1.00  0.00     0.134 A 
ATOM     85  F   UNL A   1      42.575  29.173  26.876  1.00  0.00    -0.206 F 
ATOM     86  C   UNL A   1      42.338  27.241  25.563  1.00  0.00     0.040 A 
ATOM     87  C   UNL A   1      41.042  25.384  26.383  1.00  0.00     0.040 A 
ATOM     88  F   UNL A   1      39.995  25.520  28.479  1.00  0.00    -0.206 F 
ATOM     89  C   UNL A   1      41.827  25.957  25.384  1.00  0.00     0.006 A 
ENDBRANCH  61  82
BRANCH  73  90
ATOM     90  C   UNL A   1      44.303  27.631  34.024  1.00  0.00     0.057 A 
ATOM     91  C   UNL A   1      45.566  28.235  34.055  1.00  0.00     0.134 A 
ATOM     92  C   UNL A   1      44.177  26.365  34.609  1.00  0.00     0.134 A 
ATOM     93  F   UNL A   1      45.758  29.440  33.497  1.00  0.00    -0.206 F 
ATOM     94  C   UNL A   1      46.664  27.599  34.637  1.00  0.00     0.040 A 
ATOM     95  C   UNL A   1      45.260  25.730  35.219  1.00  0.00     0.040 A 
ATOM     96  F   UNL A   1      42.992  25.734  34.619  1.00  0.00    -0.206 F 
ATOM     97  C   UNL A   1      46.509  26.347  35.231  1.00  0.00     0.006 A 
ENDBRANCH  73  90
ENDBRANCH  47  48
ENDBRANCH  39  42
ENDBRANCH  37  38
ENDBRANCH  36  37
ENDBRANCH  35  36
ENDBRANCH   1  35
TORSDOF 18
ENDMDL
MODEL 3
REMARK VINA RESULT:     -12.5      4.768      9.655
REMARK SMILES Cc1nc(-c2ccccc2)sc1C(=O)N[C@@H](CC1=c2ccccc2=NC1)C(=O)NCCCCCCNC(=O)c1ccc(-c2c3nc(c(-c4c(F)cccc4F)c4ccc([nH]4)c(-c4c(F)cccc4F)c4nc(c(-c5c(F)cccc5F)c5ccc2[nH]5)C=C4)C=C3)cc1
REMARK SMILES IDX 32 1 31 2 30 3 29 4 27 5 28 6 16 8 15 9 13 10 14 11 12 13
REMARK SMILES IDX 1 14 2 15 3 16 4 17 11 18 5 19 6 20 10 21 7 22 9 23 8 24
REMARK SMILES IDX 17 25 18 26 19 27 26 28 20 29 24 30 25 31 21 32 23 33 22 34
REMARK SMILES IDX 33 35 34 36 35 37 36 38 37 39 38 41 39 42 40 43 92 44 41 45
REMARK SMILES IDX 91 46 42 47 43 48 44 49 85 50 45 51 90 52 84 53 86 54 46 55
REMARK SMILES IDX 89 56 83 57 82 58 47 60 73 61 56 62 72 63 57 64 60 65 71 66
REMARK SMILES IDX 87 67 58 68 59 69 70 71 88 72 61 73 48 74 49 75 54 76 50 77
REMARK SMILES IDX 51 78 53 79 55 80 52 81 74 82 75 83 80 84 76 85 77 86 79 87
REMARK SMILES IDX 81 88 78 89 62 90 63 91 68 92 64 93 65 94 67 95 69 96 66 97
REMARK H PARENT 29 7 15 12 36 40 86 59 60 70
REMARK Flexibility Score: inf
ROOT
ATOM      1  C   UNL A   1      37.472  21.976  25.299  1.00  0.00     0.002 C 
ENDROOT
BRANCH   1   2
ATOM      2  C   UNL A   1      36.420  23.040  24.982  1.00  0.00     0.021 C 
BRANCH   2   3
ATOM      3  C   UNL A   1      35.169  22.504  24.317  1.00  0.00     0.116 C 
BRANCH   3   4
ATOM      4  N   UNL A   1      34.862  23.139  23.064  1.00  0.00    -0.354 N 
ATOM      5  C   UNL A   1      33.651  23.388  22.509  1.00  0.00     0.242 C 
ATOM      6  O   UNL A   1      33.612  24.235  21.609  1.00  0.00    -0.273 OA
ATOM      7  H   UNL A   1      35.639  23.435  22.536  1.00  0.00     0.163 HD
BRANCH   5   8
ATOM      8  C   UNL A   1      32.345  22.723  22.988  1.00  0.00     0.175 C 
BRANCH   8   9
ATOM      9  N   UNL A   1      31.137  23.514  22.853  1.00  0.00    -0.339 N 
ATOM     10  C   UNL A   1      30.649  24.595  23.535  1.00  0.00     0.263 C 
ATOM     11  O   UNL A   1      29.500  24.888  23.171  1.00  0.00    -0.268 OA
ATOM     12  H   UNL A   1      30.550  23.212  22.122  1.00  0.00     0.164 HD
BRANCH  10  13
ATOM     13  C   UNL A   1      31.367  25.359  24.557  1.00  0.00     0.115 A 
ATOM     14  C   UNL A   1      32.550  23.932  26.470  1.00  0.00     0.068 C 
ATOM     15  C   UNL A   1      32.142  25.137  25.699  1.00  0.00     0.062 A 
ATOM     16  N   UNL A   1      32.680  26.274  26.267  1.00  0.00    -0.241 NA
ATOM     17  C   UNL A   1      32.277  27.358  25.665  1.00  0.00     0.124 A 
ATOM     18  S   UNL A   1      31.246  27.109  24.347  1.00  0.00    -0.108 S 
BRANCH  17  19
ATOM     19  C   UNL A   1      32.716  28.669  26.111  1.00  0.00     0.010 A 
ATOM     20  C   UNL A   1      33.978  28.773  26.715  1.00  0.00     0.011 A 
ATOM     21  C   UNL A   1      31.841  29.759  26.145  1.00  0.00     0.011 A 
ATOM     22  C   UNL A   1      34.350  29.941  27.374  1.00  0.00     0.001 A 
ATOM     23  C   UNL A   1      32.214  30.927  26.812  1.00  0.00     0.001 A 
ATOM     24  C   UNL A   1      33.462  31.011  27.433  1.00  0.00     0.000 A 
ENDBRANCH  17  19
ENDBRANCH  10  13
ENDBRANCH   8   9
BRANCH   8  25
ATOM     25  C   UNL A   1      32.143  21.232  22.604  1.00  0.00     0.068 C 
BRANCH  25  26
ATOM     26  C   UNL A   1      32.308  20.195  23.672  1.00  0.00    -0.037 C 
ATOM     27  C   UNL A   1      32.677  18.920  23.558  1.00  0.00     0.001 A 
ATOM     28  C   UNL A   1      32.116  20.554  25.117  1.00  0.00     0.174 C 
ATOM     29  C   UNL A   1      32.979  18.040  22.477  1.00  0.00     0.010 A 
ATOM     30  C   UNL A   1      32.974  18.555  24.955  1.00  0.00     0.065 A 
ATOM     31  N   UNL A   1      32.668  19.411  25.881  1.00  0.00    -0.280 NA
ATOM     32  C   UNL A   1      33.659  16.912  22.732  1.00  0.00     0.001 A 
ATOM     33  C   UNL A   1      33.718  17.291  25.157  1.00  0.00     0.028 A 
ATOM     34  C   UNL A   1      34.065  16.562  24.083  1.00  0.00     0.002 A 
ENDBRANCH  25  26
ENDBRANCH   8  25
ENDBRANCH   5   8
ENDBRANCH   3   4
ENDBRANCH   2   3
ENDBRANCH   1   2
BRANCH   1  35
ATOM     35  C   UNL A   1      37.091  20.535  24.945  1.00  0.00     0.002 C 
BRANCH  35  36
ATOM     36  C   UNL A   1      38.215  19.502  25.054  1.00  0.00     0.021 C 
BRANCH  36  37
ATOM     37  C   UNL A   1      39.443  19.968  25.822  1.00  0.00     0.116 C 
BRANCH  37  38
ATOM     38  N   UNL A   1      40.449  18.927  25.934  1.00  0.00    -0.352 N 
ATOM     39  C   UNL A   1      41.802  19.044  26.128  1.00  0.00     0.251 C 
ATOM     40  H   UNL A   1      40.112  18.004  25.862  1.00  0.00     0.163 HD
ATOM     41  O   UNL A   1      42.537  18.073  26.015  1.00  0.00    -0.269 OA
BRANCH  39  42
ATOM     42  C   UNL A   1      42.365  20.370  26.451  1.00  0.00     0.039 A 
ATOM     43  C   UNL A   1      42.932  21.128  25.425  1.00  0.00     0.014 A 
ATOM     44  C   UNL A   1      42.305  20.867  27.755  1.00  0.00     0.014 A 
ATOM     45  C   UNL A   1      43.374  22.423  25.694  1.00  0.00     0.010 A 
ATOM     46  C   UNL A   1      42.679  22.181  28.006  1.00  0.00     0.010 A 
ATOM     47  C   UNL A   1      43.211  22.973  26.976  1.00  0.00    -0.014 A 
BRANCH  47  48
ATOM     48  C   UNL A   1      43.566  24.384  27.260  1.00  0.00     0.031 A 
ATOM     49  C   UNL A   1      44.997  24.831  27.182  1.00  0.00     0.074 A 
ATOM     50  C   UNL A   1      42.608  25.240  27.661  1.00  0.00     0.049 A 
ATOM     51  N   UNL A   1      45.517  25.992  27.483  1.00  0.00    -0.248 NA
ATOM     52  C   UNL A   1      45.976  23.830  26.728  1.00  0.00     0.031 C 
ATOM     53  C   UNL A   1      41.187  24.915  27.801  1.00  0.00     0.029 A 
ATOM     54  N   UNL A   1      42.684  26.557  28.035  1.00  0.00    -0.354 N 
ATOM     55  C   UNL A   1      46.881  25.863  27.261  1.00  0.00     0.074 A 
ATOM     56  C   UNL A   1      47.116  24.492  26.858  1.00  0.00     0.031 C 
ATOM     57  C   UNL A   1      40.523  26.009  28.207  1.00  0.00     0.029 A 
ATOM     58  C   UNL A   1      41.476  27.096  28.404  1.00  0.00     0.049 A 
ATOM     59  H   UNL A   1      43.527  27.068  28.039  1.00  0.00     0.167 HD
ATOM     60  C   UNL A   1      47.848  26.806  27.361  1.00  0.00     0.037 A 
ATOM     61  C   UNL A   1      41.174  28.325  28.864  1.00  0.00     0.037 A 
ATOM     62  C   UNL A   1      47.606  28.168  27.761  1.00  0.00     0.049 A 
ATOM     63  C   UNL A   1      42.274  29.334  29.033  1.00  0.00     0.074 A 
ATOM     64  C   UNL A   1      48.507  29.213  27.850  1.00  0.00     0.029 A 
ATOM     65  N   UNL A   1      46.372  28.669  28.149  1.00  0.00    -0.354 N 
ATOM     66  N   UNL A   1      43.551  29.219  28.759  1.00  0.00    -0.248 NA
ATOM     67  C   UNL A   1      41.893  30.642  29.585  1.00  0.00     0.031 C 
ATOM     68  C   UNL A   1      47.831  30.331  28.350  1.00  0.00     0.029 A 
ATOM     69  C   UNL A   1      46.496  29.998  28.519  1.00  0.00     0.049 A 
ATOM     70  H   UNL A   1      45.532  28.156  28.162  1.00  0.00     0.167 HD
ATOM     71  C   UNL A   1      44.122  30.444  29.081  1.00  0.00     0.074 A 
ATOM     72  C   UNL A   1      43.049  31.293  29.557  1.00  0.00     0.031 C 
ATOM     73  C   UNL A   1      45.417  30.831  28.991  1.00  0.00     0.037 A 
BRANCH  60  74
ATOM     74  C   UNL A   1      49.255  26.388  27.039  1.00  0.00     0.057 A 
ATOM     75  C   UNL A   1      50.143  25.954  28.033  1.00  0.00     0.134 A 
ATOM     76  C   UNL A   1      49.724  26.408  25.720  1.00  0.00     0.134 A 
ATOM     77  F   UNL A   1      49.761  25.920  29.319  1.00  0.00    -0.206 F 
ATOM     78  C   UNL A   1      51.457  25.591  27.732  1.00  0.00     0.040 A 
ATOM     79  C   UNL A   1      51.026  26.017  25.402  1.00  0.00     0.040 A 
ATOM     80  F   UNL A   1      48.926  26.805  24.717  1.00  0.00    -0.206 F 
ATOM     81  C   UNL A   1      51.899  25.616  26.411  1.00  0.00     0.006 A 
ENDBRANCH  60  74
BRANCH  61  82
ATOM     82  C   UNL A   1      39.766  28.671  29.187  1.00  0.00     0.057 A 
ATOM     83  C   UNL A   1      39.249  28.453  30.469  1.00  0.00     0.134 A 
ATOM     84  C   UNL A   1      38.907  29.228  28.231  1.00  0.00     0.134 A 
ATOM     85  F   UNL A   1      40.018  27.905  31.421  1.00  0.00    -0.206 F 
ATOM     86  C   UNL A   1      37.925  28.761  30.786  1.00  0.00     0.040 A 
ATOM     87  C   UNL A   1      37.589  29.567  28.542  1.00  0.00     0.040 A 
ATOM     88  F   UNL A   1      39.343  29.468  26.986  1.00  0.00    -0.206 F 
ATOM     89  C   UNL A   1      37.093  29.326  29.822  1.00  0.00     0.006 A 
ENDBRANCH  61  82
BRANCH  73  90
ATOM     90  C   UNL A   1      45.749  32.237  29.398  1.00  0.00     0.057 A 
ATOM     91  C   UNL A   1      46.167  32.550  30.697  1.00  0.00     0.134 A 
ATOM     92  C   UNL A   1      45.705  33.280  28.463  1.00  0.00     0.134 A 
ATOM     93  F   UNL A   1      46.215  31.601  31.643  1.00  0.00    -0.206 F 
ATOM     94  C   UNL A   1      46.519  33.853  31.055  1.00  0.00     0.040 A 
ATOM     95  C   UNL A   1      46.081  34.580  28.801  1.00  0.00     0.040 A 
ATOM     96  F   UNL A   1      45.320  33.046  27.199  1.00  0.00    -0.206 F 
ATOM     97  C   UNL A   1      46.486  34.870  30.103  1.00  0.00     0.006 A 
ENDBRANCH  73  90
ENDBRANCH  47  48
ENDBRANCH  39  42
ENDBRANCH  37  38
ENDBRANCH  36  37
ENDBRANCH  35  36
ENDBRANCH   1  35
TORSDOF 18
ENDMDL
