MODEL 1
REMARK VINA RESULT:     -11.1      0.000      0.000
REMARK SMILES CCCN1CCC[C@@]2(CCN(c3ccc(C(=O)NCCCCCCNC(=O)c4ccc(-c5c6nc(c(-c7c(F)cccc7F)c7ccc([nH]7)c(-c7c(F)cccc7F)c7nc(c(-c8c(F)cccc8F)c8ccc5[nH]8)C=C7)C=C6)cc4)cn3)C2)C1=O
REMARK SMILES IDX 21 1 20 2 19 3 18 4 16 5 17 6 15 8 12 9 13 10 83 11 14 12
REMARK SMILES IDX 82 13 11 14 4 15 5 16 85 17 6 18 8 19 86 20 7 21 9 22 84 23
REMARK SMILES IDX 10 24 3 25 2 26 1 27 22 28 23 29 24 30 25 31 26 32 27 34
REMARK SMILES IDX 28 35 29 36 81 37 30 38 80 39 31 40 32 41 33 42 74 43 34 44
REMARK SMILES IDX 79 45 73 46 75 47 35 48 78 49 72 50 71 51 36 53 62 54 45 55
REMARK SMILES IDX 61 56 46 57 49 58 60 59 76 60 47 61 48 62 59 64 77 65 50 66
REMARK SMILES IDX 37 67 38 68 43 69 39 70 40 71 42 72 44 73 41 74 63 75 64 76
REMARK SMILES IDX 69 77 65 78 66 79 68 80 70 81 67 82 51 83 52 84 57 85 53 86
REMARK SMILES IDX 54 87 56 88 58 89 55 90
REMARK H PARENT 18 7 25 33 75 52 49 63
REMARK Flexibility Score: inf
ROOT
ATOM      1  C   UNL A   1      35.071  33.114  28.884  1.00  0.00     0.002 C 
ENDROOT
BRANCH   1   2
ATOM      2  C   UNL A   1      35.797  32.070  28.024  1.00  0.00     0.021 C 
BRANCH   2   3
ATOM      3  C   UNL A   1      35.079  30.719  27.991  1.00  0.00     0.116 C 
BRANCH   3   4
ATOM      4  N   UNL A   1      33.656  30.911  27.791  1.00  0.00    -0.352 N 
ATOM      5  C   UNL A   1      32.731  30.285  26.993  1.00  0.00     0.252 C 
ATOM      6  O   UNL A   1      31.571  30.694  27.054  1.00  0.00    -0.269 OA
ATOM      7  H   UNL A   1      33.276  31.637  28.338  1.00  0.00     0.163 HD
BRANCH   5   8
ATOM      8  C   UNL A   1      33.042  29.135  26.110  1.00  0.00     0.058 A 
ATOM      9  C   UNL A   1      33.731  26.827  24.713  1.00  0.00     0.128 A 
ATOM     10  C   UNL A   1      33.584  28.034  24.040  1.00  0.00     0.048 A 
ATOM     11  N   UNL A   1      33.495  26.737  26.034  1.00  0.00    -0.239 NA
ATOM     12  C   UNL A   1      33.189  29.178  24.730  1.00  0.00     0.019 A 
ATOM     13  C   UNL A   1      33.182  27.883  26.702  1.00  0.00     0.127 A 
BRANCH   9  14
ATOM     14  N   UNL A   1      34.086  25.716  23.990  1.00  0.00    -0.356 N 
ATOM     15  N   UNL A   1      34.509  21.549  25.219  1.00  0.00    -0.342 N 
ATOM     16  C   UNL A   1      35.813  21.014  24.856  1.00  0.00     0.119 C 
ATOM     17  C   UNL A   1      33.869  22.385  24.300  1.00  0.00     0.230 C 
ATOM     18  C   UNL A   1      36.766  22.131  24.471  1.00  0.00     0.023 C 
ATOM     19  C   UNL A   1      34.763  23.456  23.659  1.00  0.00     0.069 C 
ATOM     20  O   UNL A   1      32.653  22.352  24.121  1.00  0.00    -0.274 OA
ATOM     21  C   UNL A   1      36.163  22.922  23.318  1.00  0.00     0.021 C 
ATOM     22  C   UNL A   1      34.093  24.061  22.406  1.00  0.00     0.040 C 
ATOM     23  C   UNL A   1      34.826  24.645  24.653  1.00  0.00     0.135 C 
ATOM     24  C   UNL A   1      33.221  25.188  22.957  1.00  0.00     0.119 C 
BRANCH  15  25
ATOM     25  C   UNL A   1      33.662  20.837  26.176  1.00  0.00     0.119 C 
BRANCH  25  26
ATOM     26  C   UNL A   1      33.293  21.607  27.447  1.00  0.00     0.018 C 
ATOM     27  C   UNL A   1      34.285  22.699  27.823  1.00  0.00     0.006 C 
ENDBRANCH  25  26
ENDBRANCH  15  25
ENDBRANCH   9  14
ENDBRANCH   5   8
ENDBRANCH   3   4
ENDBRANCH   2   3
ENDBRANCH   1   2
BRANCH   1  28
ATOM     28  C   UNL A   1      35.190  34.556  28.374  1.00  0.00     0.002 C 
BRANCH  28  29
ATOM     29  C   UNL A   1      34.037  35.479  28.779  1.00  0.00     0.021 C 
BRANCH  29  30
ATOM     30  C   UNL A   1      32.973  34.805  29.637  1.00  0.00     0.116 C 
BRANCH  30  31
ATOM     31  N   UNL A   1      32.519  35.679  30.709  1.00  0.00    -0.352 N 
ATOM     32  C   UNL A   1      32.899  35.709  32.026  1.00  0.00     0.251 C 
ATOM     33  H   UNL A   1      31.842  36.345  30.450  1.00  0.00     0.163 HD
ATOM     34  O   UNL A   1      32.243  36.339  32.847  1.00  0.00    -0.269 OA
BRANCH  32  35
ATOM     35  C   UNL A   1      34.103  34.969  32.456  1.00  0.00     0.039 A 
ATOM     36  C   UNL A   1      33.954  33.704  33.029  1.00  0.00     0.014 A 
ATOM     37  C   UNL A   1      35.374  35.531  32.307  1.00  0.00     0.014 A 
ATOM     38  C   UNL A   1      35.085  32.978  33.402  1.00  0.00     0.010 A 
ATOM     39  C   UNL A   1      36.503  34.778  32.613  1.00  0.00     0.010 A 
ATOM     40  C   UNL A   1      36.369  33.497  33.168  1.00  0.00    -0.014 A 
BRANCH  40  41
ATOM     41  C   UNL A   1      37.586  32.714  33.497  1.00  0.00     0.031 A 
ATOM     42  C   UNL A   1      38.363  33.013  34.747  1.00  0.00     0.074 A 
ATOM     43  C   UNL A   1      38.028  31.782  32.631  1.00  0.00     0.049 A 
ATOM     44  N   UNL A   1      39.489  32.494  35.165  1.00  0.00    -0.248 NA
ATOM     45  C   UNL A   1      37.819  34.057  35.629  1.00  0.00     0.031 C 
ATOM     46  C   UNL A   1      37.389  31.437  31.359  1.00  0.00     0.029 A 
ATOM     47  N   UNL A   1      39.129  30.965  32.682  1.00  0.00    -0.354 N 
ATOM     48  C   UNL A   1      39.789  33.150  36.352  1.00  0.00     0.074 A 
ATOM     49  C   UNL A   1      38.761  34.147  36.555  1.00  0.00     0.031 C 
ATOM     50  C   UNL A   1      38.101  30.471  30.759  1.00  0.00     0.029 A 
ATOM     51  C   UNL A   1      39.264  30.154  31.582  1.00  0.00     0.049 A 
ATOM     52  H   UNL A   1      39.762  30.961  33.436  1.00  0.00     0.167 HD
ATOM     53  C   UNL A   1      40.815  32.926  37.207  1.00  0.00     0.037 A 
ATOM     54  C   UNL A   1      40.223  29.266  31.266  1.00  0.00     0.037 A 
ATOM     55  C   UNL A   1      41.829  31.923  37.006  1.00  0.00     0.049 A 
ATOM     56  C   UNL A   1      41.358  29.039  32.225  1.00  0.00     0.074 A 
ATOM     57  C   UNL A   1      42.880  31.580  37.838  1.00  0.00     0.029 A 
ATOM     58  N   UNL A   1      41.919  31.105  35.890  1.00  0.00    -0.354 N 
ATOM     59  N   UNL A   1      41.594  29.619  33.376  1.00  0.00    -0.248 NA
ATOM     60  C   UNL A   1      42.356  28.030  31.845  1.00  0.00     0.031 C 
ATOM     61  C   UNL A   1      43.633  30.586  37.203  1.00  0.00     0.029 A 
ATOM     62  C   UNL A   1      43.022  30.274  36.000  1.00  0.00     0.049 A 
ATOM     63  H   UNL A   1      41.292  31.113  35.131  1.00  0.00     0.167 HD
ATOM     64  C   UNL A   1      42.752  29.031  33.870  1.00  0.00     0.074 A 
ATOM     65  C   UNL A   1      43.160  28.038  32.898  1.00  0.00     0.031 C 
ATOM     66  C   UNL A   1      43.417  29.291  35.022  1.00  0.00     0.037 A 
BRANCH  53  67
ATOM     67  C   UNL A   1      40.886  33.783  38.438  1.00  0.00     0.057 A 
ATOM     68  C   UNL A   1      41.683  34.935  38.492  1.00  0.00     0.134 A 
ATOM     69  C   UNL A   1      40.134  33.467  39.577  1.00  0.00     0.134 A 
ATOM     70  F   UNL A   1      42.436  35.290  37.439  1.00  0.00    -0.206 F 
ATOM     71  C   UNL A   1      41.758  35.720  39.643  1.00  0.00     0.040 A 
ATOM     72  C   UNL A   1      40.178  34.261  40.725  1.00  0.00     0.040 A 
ATOM     73  F   UNL A   1      39.344  32.383  39.594  1.00  0.00    -0.206 F 
ATOM     74  C   UNL A   1      41.000  35.386  40.763  1.00  0.00     0.006 A 
ENDBRANCH  53  67
BRANCH  54  75
ATOM     75  C   UNL A   1      40.141  28.513  29.988  1.00  0.00     0.057 A 
ATOM     76  C   UNL A   1      40.812  28.956  28.843  1.00  0.00     0.134 A 
ATOM     77  C   UNL A   1      39.397  27.331  29.885  1.00  0.00     0.134 A 
ATOM     78  F   UNL A   1      41.526  30.090  28.875  1.00  0.00    -0.206 F 
ATOM     79  C   UNL A   1      40.734  28.260  27.636  1.00  0.00     0.040 A 
ATOM     80  C   UNL A   1      39.331  26.611  28.692  1.00  0.00     0.040 A 
ATOM     81  F   UNL A   1      38.740  26.849  30.950  1.00  0.00    -0.206 F 
ATOM     82  C   UNL A   1      39.996  27.079  27.560  1.00  0.00     0.006 A 
ENDBRANCH  54  75
BRANCH  66  83
ATOM     83  C   UNL A   1      44.641  28.471  35.307  1.00  0.00     0.057 A 
ATOM     84  C   UNL A   1      44.571  27.252  35.993  1.00  0.00     0.134 A 
ATOM     85  C   UNL A   1      45.899  28.888  34.854  1.00  0.00     0.134 A 
ATOM     86  F   UNL A   1      43.398  26.804  36.465  1.00  0.00    -0.206 F 
ATOM     87  C   UNL A   1      45.713  26.487  36.237  1.00  0.00     0.040 A 
ATOM     88  C   UNL A   1      47.044  28.118  35.068  1.00  0.00     0.040 A 
ATOM     89  F   UNL A   1      46.035  30.042  34.183  1.00  0.00    -0.206 F 
ATOM     90  C   UNL A   1      46.953  26.917  35.766  1.00  0.00     0.006 A 
ENDBRANCH  66  83
ENDBRANCH  40  41
ENDBRANCH  32  35
ENDBRANCH  30  31
ENDBRANCH  29  30
ENDBRANCH  28  29
ENDBRANCH   1  28
TORSDOF 16
ENDMDL
MODEL 2
REMARK VINA RESULT:     -10.5      4.581      9.270
REMARK SMILES CCCN1CCC[C@@]2(CCN(c3ccc(C(=O)NCCCCCCNC(=O)c4ccc(-c5c6nc(c(-c7c(F)cccc7F)c7ccc([nH]7)c(-c7c(F)cccc7F)c7nc(c(-c8c(F)cccc8F)c8ccc5[nH]8)C=C7)C=C6)cc4)cn3)C2)C1=O
REMARK SMILES IDX 21 1 20 2 19 3 18 4 16 5 17 6 15 8 12 9 13 10 83 11 14 12
REMARK SMILES IDX 82 13 11 14 4 15 5 16 85 17 6 18 8 19 86 20 7 21 9 22 84 23
REMARK SMILES IDX 10 24 3 25 2 26 1 27 22 28 23 29 24 30 25 31 26 32 27 34
REMARK SMILES IDX 28 35 29 36 81 37 30 38 80 39 31 40 32 41 33 42 74 43 34 44
REMARK SMILES IDX 79 45 73 46 75 47 35 48 78 49 72 50 71 51 36 53 62 54 45 55
REMARK SMILES IDX 61 56 46 57 49 58 60 59 76 60 47 61 48 62 59 64 77 65 50 66
REMARK SMILES IDX 37 67 38 68 43 69 39 70 40 71 42 72 44 73 41 74 63 75 64 76
REMARK SMILES IDX 69 77 65 78 66 79 68 80 70 81 67 82 51 83 52 84 57 85 53 86
REMARK SMILES IDX 54 87 56 88 58 89 55 90
REMARK H PARENT 18 7 25 33 75 52 49 63
REMARK Flexibility Score: inf
ROOT
ATOM      1  C   UNL A   1      35.809  31.916  32.500  1.00  0.00     0.002 C 
ENDROOT
BRANCH   1   2
ATOM      2  C   UNL A   1      37.009  32.037  33.449  1.00  0.00     0.021 C 
BRANCH   2   3
ATOM      3  C   UNL A   1      38.341  31.702  32.773  1.00  0.00     0.116 C 
BRANCH   3   4
ATOM      4  N   UNL A   1      39.439  32.311  33.498  1.00  0.00    -0.352 N 
ATOM      5  C   UNL A   1      40.514  31.792  34.175  1.00  0.00     0.252 C 
ATOM      6  O   UNL A   1      41.288  32.595  34.697  1.00  0.00    -0.269 OA
ATOM      7  H   UNL A   1      39.407  33.295  33.507  1.00  0.00     0.163 HD
BRANCH   5   8
ATOM      8  C   UNL A   1      40.811  30.342  34.271  1.00  0.00     0.058 A 
ATOM      9  C   UNL A   1      41.453  27.676  34.755  1.00  0.00     0.128 A 
ATOM     10  C   UNL A   1      41.394  28.157  33.452  1.00  0.00     0.048 A 
ATOM     11  N   UNL A   1      41.153  28.468  35.799  1.00  0.00    -0.239 NA
ATOM     12  C   UNL A   1      41.022  29.477  33.207  1.00  0.00     0.019 A 
ATOM     13  C   UNL A   1      40.864  29.775  35.542  1.00  0.00     0.127 A 
BRANCH   9  14
ATOM     14  N   UNL A   1      41.788  26.360  34.950  1.00  0.00    -0.356 N 
ATOM     15  N   UNL A   1      45.698  24.457  35.329  1.00  0.00    -0.342 N 
ATOM     16  C   UNL A   1      45.848  23.352  34.392  1.00  0.00     0.119 C 
ATOM     17  C   UNL A   1      44.461  24.609  35.963  1.00  0.00     0.230 C 
ATOM     18  C   UNL A   1      44.762  23.392  33.333  1.00  0.00     0.023 C 
ATOM     19  C   UNL A   1      43.237  24.471  35.047  1.00  0.00     0.069 C 
ATOM     20  O   UNL A   1      44.367  24.961  37.137  1.00  0.00    -0.274 OA
ATOM     21  C   UNL A   1      43.402  23.344  34.016  1.00  0.00     0.021 C 
ATOM     22  C   UNL A   1      41.947  24.268  35.872  1.00  0.00     0.040 C 
ATOM     23  C   UNL A   1      43.025  25.849  34.367  1.00  0.00     0.135 C 
ATOM     24  C   UNL A   1      41.485  25.688  36.195  1.00  0.00     0.119 C 
BRANCH  15  25
ATOM     25  C   UNL A   1      46.869  25.009  36.009  1.00  0.00     0.119 C 
BRANCH  25  26
ATOM     26  C   UNL A   1      48.222  24.416  35.604  1.00  0.00     0.018 C 
ATOM     27  C   UNL A   1      49.222  25.444  35.092  1.00  0.00     0.006 C 
ENDBRANCH  25  26
ENDBRANCH  15  25
ENDBRANCH   9  14
ENDBRANCH   5   8
ENDBRANCH   3   4
ENDBRANCH   2   3
ENDBRANCH   1   2
BRANCH   1  28
ATOM     28  C   UNL A   1      36.049  32.472  31.091  1.00  0.00     0.002 C 
BRANCH  28  29
ATOM     29  C   UNL A   1      34.779  32.826  30.313  1.00  0.00     0.021 C 
BRANCH  29  30
ATOM     30  C   UNL A   1      34.881  32.583  28.811  1.00  0.00     0.116 C 
BRANCH  30  31
ATOM     31  N   UNL A   1      34.178  31.371  28.418  1.00  0.00    -0.352 N 
ATOM     32  C   UNL A   1      34.686  30.149  28.060  1.00  0.00     0.251 C 
ATOM     33  H   UNL A   1      33.196  31.438  28.409  1.00  0.00     0.163 HD
ATOM     34  O   UNL A   1      33.970  29.313  27.521  1.00  0.00    -0.269 OA
BRANCH  32  35
ATOM     35  C   UNL A   1      36.108  29.844  28.319  1.00  0.00     0.039 A 
ATOM     36  C   UNL A   1      36.476  29.327  29.564  1.00  0.00     0.014 A 
ATOM     37  C   UNL A   1      37.076  30.083  27.340  1.00  0.00     0.014 A 
ATOM     38  C   UNL A   1      37.810  28.998  29.807  1.00  0.00     0.010 A 
ATOM     39  C   UNL A   1      38.391  29.688  27.557  1.00  0.00     0.010 A 
ATOM     40  C   UNL A   1      38.773  29.146  28.794  1.00  0.00    -0.014 A 
BRANCH  40  41
ATOM     41  C   UNL A   1      40.183  28.741  29.010  1.00  0.00     0.031 A 
ATOM     42  C   UNL A   1      41.170  29.714  29.588  1.00  0.00     0.074 A 
ATOM     43  C   UNL A   1      40.588  27.518  28.617  1.00  0.00     0.049 A 
ATOM     44  N   UNL A   1      42.457  29.572  29.779  1.00  0.00    -0.248 NA
ATOM     45  C   UNL A   1      40.647  31.033  29.976  1.00  0.00     0.031 C 
ATOM     46  C   UNL A   1      39.735  26.503  27.995  1.00  0.00     0.029 A 
ATOM     47  N   UNL A   1      41.825  26.927  28.668  1.00  0.00    -0.354 N 
ATOM     48  C   UNL A   1      42.896  30.782  30.301  1.00  0.00     0.074 A 
ATOM     49  C   UNL A   1      41.752  31.666  30.339  1.00  0.00     0.031 C 
ATOM     50  C   UNL A   1      40.471  25.411  27.735  1.00  0.00     0.029 A 
ATOM     51  C   UNL A   1      41.851  25.660  28.137  1.00  0.00     0.049 A 
ATOM     52  H   UNL A   1      42.618  27.368  29.049  1.00  0.00     0.167 HD
ATOM     53  C   UNL A   1      44.136  31.117  30.731  1.00  0.00     0.037 A 
ATOM     54  C   UNL A   1      42.875  24.802  27.980  1.00  0.00     0.037 A 
ATOM     55  C   UNL A   1      45.268  30.228  30.703  1.00  0.00     0.049 A 
ATOM     56  C   UNL A   1      44.245  25.198  28.456  1.00  0.00     0.074 A 
ATOM     57  C   UNL A   1      46.554  30.453  31.164  1.00  0.00     0.029 A 
ATOM     58  N   UNL A   1      45.251  28.944  30.178  1.00  0.00    -0.354 N 
ATOM     59  N   UNL A   1      44.633  26.321  29.009  1.00  0.00    -0.248 NA
ATOM     60  C   UNL A   1      45.316  24.206  28.293  1.00  0.00     0.031 C 
ATOM     61  C   UNL A   1      47.326  29.322  30.876  1.00  0.00     0.029 A 
ATOM     62  C   UNL A   1      46.509  28.374  30.282  1.00  0.00     0.049 A 
ATOM     63  H   UNL A   1      44.461  28.504  29.789  1.00  0.00     0.167 HD
ATOM     64  C   UNL A   1      45.986  26.164  29.282  1.00  0.00     0.074 A 
ATOM     65  C   UNL A   1      46.346  24.830  28.847  1.00  0.00     0.031 C 
ATOM     66  C   UNL A   1      46.852  27.044  29.841  1.00  0.00     0.037 A 
BRANCH  53  67
ATOM     67  C   UNL A   1      44.325  32.506  31.272  1.00  0.00     0.057 A 
ATOM     68  C   UNL A   1      44.601  33.594  30.432  1.00  0.00     0.134 A 
ATOM     69  C   UNL A   1      44.211  32.764  32.644  1.00  0.00     0.134 A 
ATOM     70  F   UNL A   1      44.732  33.415  29.109  1.00  0.00    -0.206 F 
ATOM     71  C   UNL A   1      44.791  34.880  30.940  1.00  0.00     0.040 A 
ATOM     72  C   UNL A   1      44.371  34.051  33.161  1.00  0.00     0.040 A 
ATOM     73  F   UNL A   1      43.942  31.771  33.505  1.00  0.00    -0.206 F 
ATOM     74  C   UNL A   1      44.671  35.112  32.308  1.00  0.00     0.006 A 
ENDBRANCH  53  67
BRANCH  54  75
ATOM     75  C   UNL A   1      42.638  23.476  27.355  1.00  0.00     0.057 A 
ATOM     76  C   UNL A   1      42.283  22.364  28.128  1.00  0.00     0.134 A 
ATOM     77  C   UNL A   1      42.750  23.291  25.971  1.00  0.00     0.134 A 
ATOM     78  F   UNL A   1      42.176  22.475  29.460  1.00  0.00    -0.206 F 
ATOM     79  C   UNL A   1      42.065  21.113  27.550  1.00  0.00     0.040 A 
ATOM     80  C   UNL A   1      42.509  22.052  25.378  1.00  0.00     0.040 A 
ATOM     81  F   UNL A   1      43.077  24.319  25.175  1.00  0.00    -0.206 F 
ATOM     82  C   UNL A   1      42.172  20.955  26.170  1.00  0.00     0.006 A 
ENDBRANCH  54  75
BRANCH  66  83
ATOM     83  C   UNL A   1      48.266  26.584  30.037  1.00  0.00     0.057 A 
ATOM     84  C   UNL A   1      48.659  25.865  31.173  1.00  0.00     0.134 A 
ATOM     85  C   UNL A   1      49.238  26.830  29.059  1.00  0.00     0.134 A 
ATOM     86  F   UNL A   1      47.780  25.608  32.153  1.00  0.00    -0.206 F 
ATOM     87  C   UNL A   1      49.974  25.424  31.338  1.00  0.00     0.040 A 
ATOM     88  C   UNL A   1      50.548  26.371  29.199  1.00  0.00     0.040 A 
ATOM     89  F   UNL A   1      48.926  27.507  27.944  1.00  0.00    -0.206 F 
ATOM     90  C   UNL A   1      50.921  25.671  30.344  1.00  0.00     0.006 A 
ENDBRANCH  66  83
ENDBRANCH  40  41
ENDBRANCH  32  35
ENDBRANCH  30  31
ENDBRANCH  29  30
ENDBRANCH  28  29
ENDBRANCH   1  28
TORSDOF 16
ENDMDL
MODEL 3
REMARK VINA RESULT:     -10.4      2.711      8.402
REMARK SMILES CCCN1CCC[C@@]2(CCN(c3ccc(C(=O)NCCCCCCNC(=O)c4ccc(-c5c6nc(c(-c7c(F)cccc7F)c7ccc([nH]7)c(-c7c(F)cccc7F)c7nc(c(-c8c(F)cccc8F)c8ccc5[nH]8)C=C7)C=C6)cc4)cn3)C2)C1=O
REMARK SMILES IDX 21 1 20 2 19 3 18 4 16 5 17 6 15 8 12 9 13 10 83 11 14 12
REMARK SMILES IDX 82 13 11 14 4 15 5 16 85 17 6 18 8 19 86 20 7 21 9 22 84 23
REMARK SMILES IDX 10 24 3 25 2 26 1 27 22 28 23 29 24 30 25 31 26 32 27 34
REMARK SMILES IDX 28 35 29 36 81 37 30 38 80 39 31 40 32 41 33 42 74 43 34 44
REMARK SMILES IDX 79 45 73 46 75 47 35 48 78 49 72 50 71 51 36 53 62 54 45 55
REMARK SMILES IDX 61 56 46 57 49 58 60 59 76 60 47 61 48 62 59 64 77 65 50 66
REMARK SMILES IDX 37 67 38 68 43 69 39 70 40 71 42 72 44 73 41 74 63 75 64 76
REMARK SMILES IDX 69 77 65 78 66 79 68 80 70 81 67 82 51 83 52 84 57 85 53 86
REMARK SMILES IDX 54 87 56 88 58 89 55 90
REMARK H PARENT 18 7 25 33 75 52 49 63
REMARK Flexibility Score: inf
ROOT
ATOM      1  C   UNL A   1      40.807  21.964  27.708  1.00  0.00     0.002 C 
ENDROOT
BRANCH   1   2
ATOM      2  C   UNL A   1      40.293  22.254  26.292  1.00  0.00     0.021 C 
BRANCH   2   3
ATOM      3  C   UNL A   1      38.776  22.448  26.234  1.00  0.00     0.116 C 
BRANCH   3   4
ATOM      4  N   UNL A   1      38.151  21.325  25.565  1.00  0.00    -0.352 N 
ATOM      5  C   UNL A   1      36.845  21.014  25.281  1.00  0.00     0.252 C 
ATOM      6  O   UNL A   1      36.637  19.957  24.684  1.00  0.00    -0.269 OA
ATOM      7  H   UNL A   1      38.793  20.647  25.250  1.00  0.00     0.163 HD
BRANCH   5   8
ATOM      8  C   UNL A   1      35.695  21.890  25.612  1.00  0.00     0.058 A 
ATOM      9  C   UNL A   1      33.642  23.729  26.004  1.00  0.00     0.128 A 
ATOM     10  C   UNL A   1      33.967  22.821  27.004  1.00  0.00     0.048 A 
ATOM     11  N   UNL A   1      34.270  23.706  24.816  1.00  0.00    -0.239 NA
ATOM     12  C   UNL A   1      34.959  21.866  26.788  1.00  0.00     0.019 A 
ATOM     13  C   UNL A   1      35.288  22.814  24.653  1.00  0.00     0.127 A 
BRANCH   9  14
ATOM     14  N   UNL A   1      32.633  24.629  26.243  1.00  0.00    -0.356 N 
ATOM     15  N   UNL A   1      31.958  28.626  24.624  1.00  0.00    -0.342 N 
ATOM     16  C   UNL A   1      31.777  29.609  25.683  1.00  0.00     0.119 C 
ATOM     17  C   UNL A   1      31.366  27.371  24.790  1.00  0.00     0.230 C 
ATOM     18  C   UNL A   1      32.208  29.043  27.023  1.00  0.00     0.023 C 
ATOM     19  C   UNL A   1      31.542  26.746  26.182  1.00  0.00     0.069 C 
ATOM     20  O   UNL A   1      30.858  26.758  23.854  1.00  0.00    -0.274 OA
ATOM     21  C   UNL A   1      31.407  27.780  27.310  1.00  0.00     0.021 C 
ATOM     22  C   UNL A   1      30.553  25.578  26.394  1.00  0.00     0.040 C 
ATOM     23  C   UNL A   1      32.932  26.058  26.193  1.00  0.00     0.135 C 
ATOM     24  C   UNL A   1      31.278  24.367  25.810  1.00  0.00     0.119 C 
BRANCH  15  25
ATOM     25  C   UNL A   1      32.223  29.062  23.253  1.00  0.00     0.119 C 
BRANCH  25  26
ATOM     26  C   UNL A   1      33.600  28.703  22.688  1.00  0.00     0.018 C 
ATOM     27  C   UNL A   1      33.648  27.356  21.978  1.00  0.00     0.006 C 
ENDBRANCH  25  26
ENDBRANCH  15  25
ENDBRANCH   9  14
ENDBRANCH   5   8
ENDBRANCH   3   4
ENDBRANCH   2   3
ENDBRANCH   1   2
BRANCH   1  28
ATOM     28  C   UNL A   1      42.331  21.828  27.820  1.00  0.00     0.002 C 
BRANCH  28  29
ATOM     29  C   UNL A   1      43.031  22.994  28.525  1.00  0.00     0.021 C 
BRANCH  29  30
ATOM     30  C   UNL A   1      44.035  23.737  27.650  1.00  0.00     0.116 C 
BRANCH  30  31
ATOM     31  N   UNL A   1      43.444  24.134  26.381  1.00  0.00    -0.352 N 
ATOM     32  C   UNL A   1      42.489  25.085  26.126  1.00  0.00     0.251 C 
ATOM     33  H   UNL A   1      43.779  23.651  25.591  1.00  0.00     0.163 HD
ATOM     34  O   UNL A   1      41.925  25.122  25.038  1.00  0.00    -0.269 OA
BRANCH  32  35
ATOM     35  C   UNL A   1      42.133  26.062  27.175  1.00  0.00     0.039 A 
ATOM     36  C   UNL A   1      41.018  25.819  27.979  1.00  0.00     0.014 A 
ATOM     37  C   UNL A   1      42.891  27.223  27.352  1.00  0.00     0.014 A 
ATOM     38  C   UNL A   1      40.695  26.715  28.999  1.00  0.00     0.010 A 
ATOM     39  C   UNL A   1      42.612  28.077  28.413  1.00  0.00     0.010 A 
ATOM     40  C   UNL A   1      41.508  27.834  29.244  1.00  0.00    -0.014 A 
BRANCH  40  41
ATOM     41  C   UNL A   1      41.220  28.762  30.364  1.00  0.00     0.031 A 
ATOM     42  C   UNL A   1      41.992  28.660  31.649  1.00  0.00     0.074 A 
ATOM     43  C   UNL A   1      40.214  29.650  30.248  1.00  0.00     0.049 A 
ATOM     44  N   UNL A   1      41.836  29.328  32.763  1.00  0.00    -0.248 NA
ATOM     45  C   UNL A   1      43.064  27.654  31.697  1.00  0.00     0.031 C 
ATOM     46  C   UNL A   1      39.358  29.809  29.070  1.00  0.00     0.029 A 
ATOM     47  N   UNL A   1      39.730  30.575  31.138  1.00  0.00    -0.354 N 
ATOM     48  C   UNL A   1      42.781  28.818  33.644  1.00  0.00     0.074 A 
ATOM     49  C   UNL A   1      43.465  27.745  32.956  1.00  0.00     0.031 C 
ATOM     50  C   UNL A   1      38.464  30.782  29.306  1.00  0.00     0.029 A 
ATOM     51  C   UNL A   1      38.659  31.290  30.660  1.00  0.00     0.049 A 
ATOM     52  H   UNL A   1      40.115  30.714  32.034  1.00  0.00     0.167 HD
ATOM     53  C   UNL A   1      43.069  29.224  34.904  1.00  0.00     0.037 A 
ATOM     54  C   UNL A   1      37.909  32.237  31.252  1.00  0.00     0.037 A 
ATOM     55  C   UNL A   1      42.394  30.301  35.579  1.00  0.00     0.049 A 
ATOM     56  C   UNL A   1      38.241  32.665  32.654  1.00  0.00     0.074 A 
ATOM     57  C   UNL A   1      42.646  30.824  36.836  1.00  0.00     0.029 A 
ATOM     58  N   UNL A   1      41.328  31.017  35.055  1.00  0.00    -0.354 N 
ATOM     59  N   UNL A   1      39.181  32.222  33.452  1.00  0.00    -0.248 NA
ATOM     60  C   UNL A   1      37.413  33.731  33.236  1.00  0.00     0.031 C 
ATOM     61  C   UNL A   1      41.702  31.825  37.089  1.00  0.00     0.029 A 
ATOM     62  C   UNL A   1      40.895  31.961  35.971  1.00  0.00     0.049 A 
ATOM     63  H   UNL A   1      40.937  30.874  34.163  1.00  0.00     0.167 HD
ATOM     64  C   UNL A   1      39.074  32.967  34.619  1.00  0.00     0.074 A 
ATOM     65  C   UNL A   1      37.986  33.902  34.417  1.00  0.00     0.031 C 
ATOM     66  C   UNL A   1      39.809  32.884  35.756  1.00  0.00     0.037 A 
BRANCH  53  67
ATOM     67  C   UNL A   1      44.166  28.496  35.627  1.00  0.00     0.057 A 
ATOM     68  C   UNL A   1      45.510  28.880  35.512  1.00  0.00     0.134 A 
ATOM     69  C   UNL A   1      43.877  27.410  36.463  1.00  0.00     0.134 A 
ATOM     70  F   UNL A   1      45.857  29.906  34.719  1.00  0.00    -0.206 F 
ATOM     71  C   UNL A   1      46.527  28.191  36.173  1.00  0.00     0.040 A 
ATOM     72  C   UNL A   1      44.883  26.730  37.153  1.00  0.00     0.040 A 
ATOM     73  F   UNL A   1      42.612  26.992  36.626  1.00  0.00    -0.206 F 
ATOM     74  C   UNL A   1      46.214  27.115  37.001  1.00  0.00     0.006 A 
ENDBRANCH  53  67
BRANCH  54  75
ATOM     75  C   UNL A   1      36.781  32.855  30.511  1.00  0.00     0.057 A 
ATOM     76  C   UNL A   1      37.005  33.827  29.530  1.00  0.00     0.134 A 
ATOM     77  C   UNL A   1      35.454  32.483  30.760  1.00  0.00     0.134 A 
ATOM     78  F   UNL A   1      38.252  34.237  29.258  1.00  0.00    -0.206 F 
ATOM     79  C   UNL A   1      35.950  34.418  28.833  1.00  0.00     0.040 A 
ATOM     80  C   UNL A   1      34.391  33.047  30.053  1.00  0.00     0.040 A 
ATOM     81  F   UNL A   1      35.174  31.549  31.681  1.00  0.00    -0.206 F 
ATOM     82  C   UNL A   1      34.638  34.023  29.090  1.00  0.00     0.006 A 
ENDBRANCH  54  75
BRANCH  66  83
ATOM     83  C   UNL A   1      39.478  33.846  36.858  1.00  0.00     0.057 A 
ATOM     84  C   UNL A   1      38.665  33.480  37.939  1.00  0.00     0.134 A 
ATOM     85  C   UNL A   1      40.011  35.140  36.859  1.00  0.00     0.134 A 
ATOM     86  F   UNL A   1      38.111  32.260  37.991  1.00  0.00    -0.206 F 
ATOM     87  C   UNL A   1      38.378  34.376  38.971  1.00  0.00     0.040 A 
ATOM     88  C   UNL A   1      39.754  36.036  37.898  1.00  0.00     0.040 A 
ATOM     89  F   UNL A   1      40.804  35.552  35.858  1.00  0.00    -0.206 F 
ATOM     90  C   UNL A   1      38.930  35.656  38.955  1.00  0.00     0.006 A 
ENDBRANCH  66  83
ENDBRANCH  40  41
ENDBRANCH  32  35
ENDBRANCH  30  31
ENDBRANCH  29  30
ENDBRANCH  28  29
ENDBRANCH   1  28
TORSDOF 16
ENDMDL
