MODEL 1
REMARK VINA RESULT:     -12.0      0.000      0.000
REMARK SMILES O=C(CCC(=O)N1N=C(c2ccccc2)C[C@@H]1c1ccc2c(c1)OCO2)NCCCCCCNC(=O)c1ccc(-c2c3nc(c(-c4c(F)cccc4F)c4ccc([nH]4)c(-c4c(F)cccc4F)c4nc(c(-c5c(F)cccc5F)c5ccc2[nH]5)C=C4)C=C3)cc1
REMARK SMILES IDX 29 1 28 2 27 3 1 4 2 5 3 7 4 8 5 9 6 10 7 11 8 12 17 13 9 14
REMARK SMILES IDX 16 15 18 16 19 17 23 18 20 19 22 20 21 21 24 22 26 23 25 24
REMARK SMILES IDX 10 25 11 26 15 27 12 28 14 29 13 30 30 31 31 32 32 33 33 34
REMARK SMILES IDX 34 35 35 36 36 38 37 39 38 40 90 41 39 42 89 43 40 44 41 45
REMARK SMILES IDX 42 46 83 47 43 48 88 49 82 50 84 51 44 52 87 53 81 54 80 55
REMARK SMILES IDX 45 57 71 58 54 59 70 60 55 61 58 62 69 63 85 64 56 65 57 66
REMARK SMILES IDX 68 68 86 69 59 70 46 71 47 72 52 73 48 74 49 75 51 76 53 77
REMARK SMILES IDX 50 78 72 79 73 80 78 81 74 82 75 83 77 84 79 85 76 86 60 87
REMARK SMILES IDX 61 88 66 89 62 90 63 91 65 92 67 93 64 94
REMARK H PARENT 27 6 34 37 84 56 58 67
REMARK Flexibility Score: inf
ROOT
ATOM      1  C   UNL A   1      34.854  30.944  27.812  1.00  0.00     0.021 C 
ENDROOT
BRANCH   1   2
ATOM      2  C   UNL A   1      33.729  30.422  26.889  1.00  0.00     0.116 C 
BRANCH   2   3
ATOM      3  N   UNL A   1      34.022  29.409  25.874  1.00  0.00    -0.356 N 
ATOM      4  O   UNL A   1      31.854  29.348  25.118  1.00  0.00    -0.275 OA
ATOM      5  C   UNL A   1      33.037  29.073  24.937  1.00  0.00     0.220 C 
ATOM      6  H   UNL A   1      34.902  28.970  25.849  1.00  0.00     0.163 HD
BRANCH   5   7
ATOM      7  C   UNL A   1      33.549  28.518  23.594  1.00  0.00     0.110 C 
BRANCH   7   8
ATOM      8  C   UNL A   1      32.834  27.217  23.160  1.00  0.00     0.112 C 
BRANCH   8   9
ATOM      9  C   UNL A   1      33.520  25.898  22.696  1.00  0.00     0.243 C 
ATOM     10  O   UNL A   1      33.652  25.712  21.480  1.00  0.00    -0.273 OA
BRANCH   9  11
ATOM     11  N   UNL A   1      34.131  25.080  23.625  1.00  0.00    -0.225 N 
ATOM     12  N   UNL A   1      35.260  24.297  23.311  1.00  0.00    -0.174 NA
ATOM     13  C   UNL A   1      33.778  24.948  25.017  1.00  0.00     0.147 C 
ATOM     14  C   UNL A   1      35.753  23.935  24.461  1.00  0.00     0.071 C 
ATOM     15  C   UNL A   1      35.064  24.511  25.644  1.00  0.00     0.091 C 
BRANCH  13  16
ATOM     16  C   UNL A   1      32.475  24.198  25.263  1.00  0.00    -0.019 A 
ATOM     17  C   UNL A   1      32.418  22.819  24.922  1.00  0.00     0.010 A 
ATOM     18  C   UNL A   1      31.402  24.735  25.982  1.00  0.00     0.056 A 
ATOM     19  C   UNL A   1      31.403  21.964  25.341  1.00  0.00     0.051 A 
ATOM     20  C   UNL A   1      30.420  23.863  26.423  1.00  0.00     0.166 A 
ATOM     21  C   UNL A   1      30.433  22.516  26.126  1.00  0.00     0.165 A 
ATOM     22  O   UNL A   1      29.387  24.180  27.251  1.00  0.00    -0.454 OA
ATOM     23  O   UNL A   1      29.435  21.828  26.738  1.00  0.00    -0.454 OA
ATOM     24  C   UNL A   1      28.903  22.862  27.589  1.00  0.00     0.468 C 
ENDBRANCH  13  16
BRANCH  14  25
ATOM     25  C   UNL A   1      36.979  23.189  24.772  1.00  0.00    -0.002 A 
ATOM     26  C   UNL A   1      37.858  23.699  25.727  1.00  0.00     0.010 A 
ATOM     27  C   UNL A   1      37.043  21.834  24.407  1.00  0.00     0.010 A 
ATOM     28  C   UNL A   1      38.799  22.849  26.316  1.00  0.00     0.001 A 
ATOM     29  C   UNL A   1      37.980  20.990  25.001  1.00  0.00     0.001 A 
ATOM     30  C   UNL A   1      38.857  21.498  25.957  1.00  0.00     0.000 A 
ENDBRANCH  14  25
ENDBRANCH   9  11
ENDBRANCH   8   9
ENDBRANCH   7   8
ENDBRANCH   5   7
ENDBRANCH   2   3
ENDBRANCH   1   2
BRANCH   1  31
ATOM     31  C   UNL A   1      35.164  32.435  28.093  1.00  0.00     0.002 C 
BRANCH  31  32
ATOM     32  C   UNL A   1      34.437  33.226  29.187  1.00  0.00     0.002 C 
BRANCH  32  33
ATOM     33  C   UNL A   1      33.397  34.265  28.761  1.00  0.00     0.021 C 
BRANCH  33  34
ATOM     34  C   UNL A   1      33.635  35.638  29.377  1.00  0.00     0.116 C 
BRANCH  34  35
ATOM     35  N   UNL A   1      32.595  36.063  30.316  1.00  0.00    -0.352 N 
ATOM     36  C   UNL A   1      32.527  35.792  31.670  1.00  0.00     0.251 C 
ATOM     37  H   UNL A   1      31.862  36.602  29.940  1.00  0.00     0.163 HD
ATOM     38  O   UNL A   1      31.531  36.087  32.326  1.00  0.00    -0.269 OA
BRANCH  36  39
ATOM     39  C   UNL A   1      33.659  35.087  32.313  1.00  0.00     0.039 A 
ATOM     40  C   UNL A   1      33.473  33.812  32.854  1.00  0.00     0.014 A 
ATOM     41  C   UNL A   1      34.930  35.664  32.300  1.00  0.00     0.014 A 
ATOM     42  C   UNL A   1      34.584  33.078  33.284  1.00  0.00     0.010 A 
ATOM     43  C   UNL A   1      36.038  34.897  32.622  1.00  0.00     0.010 A 
ATOM     44  C   UNL A   1      35.880  33.595  33.120  1.00  0.00    -0.014 A 
BRANCH  44  45
ATOM     45  C   UNL A   1      37.094  32.816  33.472  1.00  0.00     0.031 A 
ATOM     46  C   UNL A   1      37.818  33.107  34.758  1.00  0.00     0.074 A 
ATOM     47  C   UNL A   1      37.605  31.935  32.590  1.00  0.00     0.049 A 
ATOM     48  N   UNL A   1      38.962  32.641  35.188  1.00  0.00    -0.248 NA
ATOM     49  C   UNL A   1      37.195  34.092  35.658  1.00  0.00     0.031 C 
ATOM     50  C   UNL A   1      37.043  31.624  31.273  1.00  0.00     0.029 A 
ATOM     51  N   UNL A   1      38.727  31.148  32.663  1.00  0.00    -0.354 N 
ATOM     52  C   UNL A   1      39.212  33.305  36.382  1.00  0.00     0.074 A 
ATOM     53  C   UNL A   1      38.131  34.244  36.583  1.00  0.00     0.031 C 
ATOM     54  C   UNL A   1      37.806  30.693  30.678  1.00  0.00     0.029 A 
ATOM     55  C   UNL A   1      38.925  30.364  31.553  1.00  0.00     0.049 A 
ATOM     56  H   UNL A   1      39.333  31.147  33.439  1.00  0.00     0.167 HD
ATOM     57  C   UNL A   1      40.235  33.128  37.251  1.00  0.00     0.037 A 
ATOM     58  C   UNL A   1      39.900  29.478  31.275  1.00  0.00     0.037 A 
ATOM     59  C   UNL A   1      41.270  32.146  37.081  1.00  0.00     0.049 A 
ATOM     60  C   UNL A   1      40.982  29.240  32.291  1.00  0.00     0.074 A 
ATOM     61  C   UNL A   1      42.303  31.822  37.945  1.00  0.00     0.029 A 
ATOM     62  N   UNL A   1      41.394  31.317  35.977  1.00  0.00    -0.354 N 
ATOM     63  N   UNL A   1      41.170  29.825  33.449  1.00  0.00    -0.248 NA
ATOM     64  C   UNL A   1      41.982  28.212  31.968  1.00  0.00     0.031 C 
ATOM     65  C   UNL A   1      43.065  30.810  37.350  1.00  0.00     0.029 A 
ATOM     66  C   UNL A   1      42.487  30.483  36.132  1.00  0.00     0.049 A 
ATOM     67  H   UNL A   1      40.793  31.320  35.197  1.00  0.00     0.167 HD
ATOM     68  C   UNL A   1      42.292  29.225  34.002  1.00  0.00     0.074 A 
ATOM     69  C   UNL A   1      42.735  28.218  33.059  1.00  0.00     0.031 C 
ATOM     70  C   UNL A   1      42.903  29.483  35.185  1.00  0.00     0.037 A 
BRANCH  57  71
ATOM     71  C   UNL A   1      40.266  34.004  38.468  1.00  0.00     0.057 A 
ATOM     72  C   UNL A   1      40.976  35.212  38.491  1.00  0.00     0.134 A 
ATOM     73  C   UNL A   1      39.566  33.645  39.627  1.00  0.00     0.134 A 
ATOM     74  F   UNL A   1      41.680  35.606  37.419  1.00  0.00    -0.206 F 
ATOM     75  C   UNL A   1      41.016  36.015  39.631  1.00  0.00     0.040 A 
ATOM     76  C   UNL A   1      39.576  34.454  40.765  1.00  0.00     0.040 A 
ATOM     77  F   UNL A   1      38.863  32.504  39.672  1.00  0.00    -0.206 F 
ATOM     78  C   UNL A   1      40.308  35.639  40.771  1.00  0.00     0.006 A 
ENDBRANCH  57  71
BRANCH  58  79
ATOM     79  C   UNL A   1      39.868  28.713  30.004  1.00  0.00     0.057 A 
ATOM     80  C   UNL A   1      39.170  27.502  29.912  1.00  0.00     0.134 A 
ATOM     81  C   UNL A   1      40.521  29.171  28.855  1.00  0.00     0.134 A 
ATOM     82  F   UNL A   1      38.538  27.006  30.986  1.00  0.00    -0.206 F 
ATOM     83  C   UNL A   1      39.135  26.767  28.727  1.00  0.00     0.040 A 
ATOM     84  C   UNL A   1      40.478  28.454  27.656  1.00  0.00     0.040 A 
ATOM     85  F   UNL A   1      41.198  30.328  28.876  1.00  0.00    -0.206 F 
ATOM     86  C   UNL A   1      39.786  27.246  27.592  1.00  0.00     0.006 A 
ENDBRANCH  58  79
BRANCH  70  87
ATOM     87  C   UNL A   1      44.095  28.647  35.534  1.00  0.00     0.057 A 
ATOM     88  C   UNL A   1      45.397  29.057  35.224  1.00  0.00     0.134 A 
ATOM     89  C   UNL A   1      43.941  27.444  36.233  1.00  0.00     0.134 A 
ATOM     90  F   UNL A   1      45.607  30.196  34.544  1.00  0.00    -0.206 F 
ATOM     91  C   UNL A   1      46.506  28.291  35.582  1.00  0.00     0.040 A 
ATOM     92  C   UNL A   1      45.043  26.679  36.617  1.00  0.00     0.040 A 
ATOM     93  F   UNL A   1      42.720  27.002  36.567  1.00  0.00    -0.206 F 
ATOM     94  C   UNL A   1      46.330  27.100  36.287  1.00  0.00     0.006 A 
ENDBRANCH  70  87
ENDBRANCH  44  45
ENDBRANCH  36  39
ENDBRANCH  34  35
ENDBRANCH  33  34
ENDBRANCH  32  33
ENDBRANCH  31  32
ENDBRANCH   1  31
TORSDOF 18
ENDMDL
MODEL 2
REMARK VINA RESULT:     -11.7      4.637      6.982
REMARK SMILES O=C(CCC(=O)N1N=C(c2ccccc2)C[C@@H]1c1ccc2c(c1)OCO2)NCCCCCCNC(=O)c1ccc(-c2c3nc(c(-c4c(F)cccc4F)c4ccc([nH]4)c(-c4c(F)cccc4F)c4nc(c(-c5c(F)cccc5F)c5ccc2[nH]5)C=C4)C=C3)cc1
REMARK SMILES IDX 29 1 28 2 27 3 1 4 2 5 3 7 4 8 5 9 6 10 7 11 8 12 17 13 9 14
REMARK SMILES IDX 16 15 18 16 19 17 23 18 20 19 22 20 21 21 24 22 26 23 25 24
REMARK SMILES IDX 10 25 11 26 15 27 12 28 14 29 13 30 30 31 31 32 32 33 33 34
REMARK SMILES IDX 34 35 35 36 36 38 37 39 38 40 90 41 39 42 89 43 40 44 41 45
REMARK SMILES IDX 42 46 83 47 43 48 88 49 82 50 84 51 44 52 87 53 81 54 80 55
REMARK SMILES IDX 45 57 71 58 54 59 70 60 55 61 58 62 69 63 85 64 56 65 57 66
REMARK SMILES IDX 68 68 86 69 59 70 46 71 47 72 52 73 48 74 49 75 51 76 53 77
REMARK SMILES IDX 50 78 72 79 73 80 78 81 74 82 75 83 77 84 79 85 76 86 60 87
REMARK SMILES IDX 61 88 66 89 62 90 63 91 65 92 67 93 64 94
REMARK H PARENT 27 6 34 37 84 56 58 67
REMARK Flexibility Score: inf
ROOT
ATOM      1  C   UNL A   1      31.541  25.480  26.129  1.00  0.00     0.021 C 
ENDROOT
BRANCH   1   2
ATOM      2  C   UNL A   1      32.399  24.394  26.817  1.00  0.00     0.116 C 
BRANCH   2   3
ATOM      3  N   UNL A   1      33.819  24.258  26.487  1.00  0.00    -0.356 N 
ATOM      4  O   UNL A   1      34.111  22.462  27.888  1.00  0.00    -0.275 OA
ATOM      5  C   UNL A   1      34.530  23.150  26.961  1.00  0.00     0.220 C 
ATOM      6  H   UNL A   1      34.268  24.939  25.937  1.00  0.00     0.163 HD
BRANCH   5   7
ATOM      7  C   UNL A   1      35.760  22.735  26.129  1.00  0.00     0.110 C 
BRANCH   7   8
ATOM      8  C   UNL A   1      36.099  23.738  25.002  1.00  0.00     0.112 C 
BRANCH   8   9
ATOM      9  C   UNL A   1      35.654  23.638  23.513  1.00  0.00     0.243 C 
ATOM     10  O   UNL A   1      36.397  23.038  22.726  1.00  0.00    -0.273 OA
BRANCH   9  11
ATOM     11  N   UNL A   1      34.382  24.033  23.150  1.00  0.00    -0.225 N 
ATOM     12  N   UNL A   1      33.831  25.266  23.553  1.00  0.00    -0.174 NA
ATOM     13  C   UNL A   1      33.475  23.316  22.287  1.00  0.00     0.147 C 
ATOM     14  C   UNL A   1      32.800  25.446  22.780  1.00  0.00     0.071 C 
ATOM     15  C   UNL A   1      32.614  24.407  21.734  1.00  0.00     0.091 C 
BRANCH  13  16
ATOM     16  C   UNL A   1      32.874  22.065  22.913  1.00  0.00    -0.019 A 
ATOM     17  C   UNL A   1      32.274  21.104  22.055  1.00  0.00     0.010 A 
ATOM     18  C   UNL A   1      33.050  21.716  24.256  1.00  0.00     0.056 A 
ATOM     19  C   UNL A   1      31.941  19.814  22.456  1.00  0.00     0.051 A 
ATOM     20  C   UNL A   1      32.748  20.416  24.631  1.00  0.00     0.166 A 
ATOM     21  C   UNL A   1      32.228  19.491  23.751  1.00  0.00     0.165 A 
ATOM     22  O   UNL A   1      32.992  19.862  25.850  1.00  0.00    -0.454 OA
ATOM     23  O   UNL A   1      32.100  18.254  24.297  1.00  0.00    -0.454 OA
ATOM     24  C   UNL A   1      32.761  18.467  25.558  1.00  0.00     0.468 C 
ENDBRANCH  13  16
BRANCH  14  25
ATOM     25  C   UNL A   1      31.891  26.595  22.667  1.00  0.00    -0.002 A 
ATOM     26  C   UNL A   1      30.549  26.432  23.008  1.00  0.00     0.010 A 
ATOM     27  C   UNL A   1      32.452  27.881  22.601  1.00  0.00     0.010 A 
ATOM     28  C   UNL A   1      29.770  27.560  23.284  1.00  0.00     0.001 A 
ATOM     29  C   UNL A   1      31.672  29.002  22.882  1.00  0.00     0.001 A 
ATOM     30  C   UNL A   1      30.331  28.840  23.226  1.00  0.00     0.000 A 
ENDBRANCH  14  25
ENDBRANCH   9  11
ENDBRANCH   8   9
ENDBRANCH   7   8
ENDBRANCH   5   7
ENDBRANCH   2   3
ENDBRANCH   1   2
BRANCH   1  31
ATOM     31  C   UNL A   1      30.781  26.616  26.856  1.00  0.00     0.002 C 
BRANCH  31  32
ATOM     32  C   UNL A   1      31.400  28.003  27.071  1.00  0.00     0.002 C 
BRANCH  32  33
ATOM     33  C   UNL A   1      32.695  28.341  26.329  1.00  0.00     0.021 C 
BRANCH  33  34
ATOM     34  C   UNL A   1      33.858  28.652  27.265  1.00  0.00     0.116 C 
BRANCH  34  35
ATOM     35  N   UNL A   1      33.853  30.016  27.796  1.00  0.00    -0.352 N 
ATOM     36  C   UNL A   1      34.899  30.679  28.412  1.00  0.00     0.251 C 
ATOM     37  H   UNL A   1      33.010  30.517  27.705  1.00  0.00     0.163 HD
ATOM     38  O   UNL A   1      34.729  31.775  28.940  1.00  0.00    -0.269 OA
BRANCH  36  39
ATOM     39  C   UNL A   1      36.223  30.020  28.471  1.00  0.00     0.039 A 
ATOM     40  C   UNL A   1      37.107  30.127  27.394  1.00  0.00     0.014 A 
ATOM     41  C   UNL A   1      36.618  29.366  29.639  1.00  0.00     0.014 A 
ATOM     42  C   UNL A   1      38.422  29.669  27.535  1.00  0.00     0.010 A 
ATOM     43  C   UNL A   1      37.947  29.014  29.816  1.00  0.00     0.010 A 
ATOM     44  C   UNL A   1      38.865  29.159  28.766  1.00  0.00    -0.014 A 
BRANCH  44  45
ATOM     45  C   UNL A   1      40.274  28.750  28.992  1.00  0.00     0.031 A 
ATOM     46  C   UNL A   1      41.244  29.728  29.600  1.00  0.00     0.074 A 
ATOM     47  C   UNL A   1      40.705  27.552  28.552  1.00  0.00     0.049 A 
ATOM     48  N   UNL A   1      42.538  29.622  29.757  1.00  0.00    -0.248 NA
ATOM     49  C   UNL A   1      40.690  31.018  30.042  1.00  0.00     0.031 C 
ATOM     50  C   UNL A   1      39.883  26.548  27.873  1.00  0.00     0.029 A 
ATOM     51  N   UNL A   1      41.952  26.981  28.597  1.00  0.00    -0.354 N 
ATOM     52  C   UNL A   1      42.954  30.840  30.277  1.00  0.00     0.074 A 
ATOM     53  C   UNL A   1      41.787  31.690  30.357  1.00  0.00     0.031 C 
ATOM     54  C   UNL A   1      40.641  25.475  27.592  1.00  0.00     0.029 A 
ATOM     55  C   UNL A   1      42.005  25.725  28.041  1.00  0.00     0.049 A 
ATOM     56  H   UNL A   1      42.736  27.430  28.990  1.00  0.00     0.167 HD
ATOM     57  C   UNL A   1      44.192  31.211  30.680  1.00  0.00     0.037 A 
ATOM     58  C   UNL A   1      43.039  24.873  27.912  1.00  0.00     0.037 A 
ATOM     59  C   UNL A   1      45.335  30.339  30.662  1.00  0.00     0.049 A 
ATOM     60  C   UNL A   1      44.388  25.275  28.440  1.00  0.00     0.074 A 
ATOM     61  C   UNL A   1      46.614  30.584  31.131  1.00  0.00     0.029 A 
ATOM     62  N   UNL A   1      45.330  29.047  30.160  1.00  0.00    -0.354 N 
ATOM     63  N   UNL A   1      44.754  26.407  28.993  1.00  0.00    -0.248 NA
ATOM     64  C   UNL A   1      45.465  24.281  28.337  1.00  0.00     0.031 C 
ATOM     65  C   UNL A   1      47.390  29.444  30.891  1.00  0.00     0.029 A 
ATOM     66  C   UNL A   1      46.584  28.481  30.303  1.00  0.00     0.049 A 
ATOM     67  H   UNL A   1      44.550  28.598  29.762  1.00  0.00     0.167 HD
ATOM     68  C   UNL A   1      46.093  26.254  29.323  1.00  0.00     0.074 A 
ATOM     69  C   UNL A   1      46.472  24.915  28.921  1.00  0.00     0.031 C 
ATOM     70  C   UNL A   1      46.935  27.142  29.905  1.00  0.00     0.037 A 
BRANCH  57  71
ATOM     71  C   UNL A   1      44.361  32.610  31.191  1.00  0.00     0.057 A 
ATOM     72  C   UNL A   1      44.175  32.931  32.543  1.00  0.00     0.134 A 
ATOM     73  C   UNL A   1      44.730  33.648  30.327  1.00  0.00     0.134 A 
ATOM     74  F   UNL A   1      43.806  31.985  33.420  1.00  0.00    -0.206 F 
ATOM     75  C   UNL A   1      44.316  34.238  33.010  1.00  0.00     0.040 A 
ATOM     76  C   UNL A   1      44.901  34.956  30.788  1.00  0.00     0.040 A 
ATOM     77  F   UNL A   1      44.928  33.411  29.022  1.00  0.00    -0.206 F 
ATOM     78  C   UNL A   1      44.687  35.254  32.132  1.00  0.00     0.006 A 
ENDBRANCH  57  71
BRANCH  58  79
ATOM     79  C   UNL A   1      42.828  23.537  27.303  1.00  0.00     0.057 A 
ATOM     80  C   UNL A   1      42.399  22.454  28.080  1.00  0.00     0.134 A 
ATOM     81  C   UNL A   1      43.040  23.310  25.939  1.00  0.00     0.134 A 
ATOM     82  F   UNL A   1      42.195  22.609  29.396  1.00  0.00    -0.206 F 
ATOM     83  C   UNL A   1      42.201  21.189  27.526  1.00  0.00     0.040 A 
ATOM     84  C   UNL A   1      42.827  22.053  25.367  1.00  0.00     0.040 A 
ATOM     85  F   UNL A   1      43.442  24.308  25.140  1.00  0.00    -0.206 F 
ATOM     86  C   UNL A   1      42.411  20.987  26.163  1.00  0.00     0.006 A 
ENDBRANCH  58  79
BRANCH  70  87
ATOM     87  C   UNL A   1      48.337  26.685  30.166  1.00  0.00     0.057 A 
ATOM     88  C   UNL A   1      49.378  26.958  29.272  1.00  0.00     0.134 A 
ATOM     89  C   UNL A   1      48.656  26.008  31.350  1.00  0.00     0.134 A 
ATOM     90  F   UNL A   1      49.132  27.594  28.116  1.00  0.00    -0.206 F 
ATOM     91  C   UNL A   1      50.689  26.559  29.537  1.00  0.00     0.040 A 
ATOM     92  C   UNL A   1      49.965  25.622  31.637  1.00  0.00     0.040 A 
ATOM     93  F   UNL A   1      47.703  25.724  32.250  1.00  0.00    -0.206 F 
ATOM     94  C   UNL A   1      50.985  25.894  30.727  1.00  0.00     0.006 A 
ENDBRANCH  70  87
ENDBRANCH  44  45
ENDBRANCH  36  39
ENDBRANCH  34  35
ENDBRANCH  33  34
ENDBRANCH  32  33
ENDBRANCH  31  32
ENDBRANCH   1  31
TORSDOF 18
ENDMDL
MODEL 3
REMARK VINA RESULT:     -11.6      1.623      3.200
REMARK SMILES O=C(CCC(=O)N1N=C(c2ccccc2)C[C@@H]1c1ccc2c(c1)OCO2)NCCCCCCNC(=O)c1ccc(-c2c3nc(c(-c4c(F)cccc4F)c4ccc([nH]4)c(-c4c(F)cccc4F)c4nc(c(-c5c(F)cccc5F)c5ccc2[nH]5)C=C4)C=C3)cc1
REMARK SMILES IDX 29 1 28 2 27 3 1 4 2 5 3 7 4 8 5 9 6 10 7 11 8 12 17 13 9 14
REMARK SMILES IDX 16 15 18 16 19 17 23 18 20 19 22 20 21 21 24 22 26 23 25 24
REMARK SMILES IDX 10 25 11 26 15 27 12 28 14 29 13 30 30 31 31 32 32 33 33 34
REMARK SMILES IDX 34 35 35 36 36 38 37 39 38 40 90 41 39 42 89 43 40 44 41 45
REMARK SMILES IDX 42 46 83 47 43 48 88 49 82 50 84 51 44 52 87 53 81 54 80 55
REMARK SMILES IDX 45 57 71 58 54 59 70 60 55 61 58 62 69 63 85 64 56 65 57 66
REMARK SMILES IDX 68 68 86 69 59 70 46 71 47 72 52 73 48 74 49 75 51 76 53 77
REMARK SMILES IDX 50 78 72 79 73 80 78 81 74 82 75 83 77 84 79 85 76 86 60 87
REMARK SMILES IDX 61 88 66 89 62 90 63 91 65 92 67 93 64 94
REMARK H PARENT 27 6 34 37 84 56 58 67
REMARK Flexibility Score: inf
ROOT
ATOM      1  C   UNL A   1      34.621  30.857  28.041  1.00  0.00     0.021 C 
ENDROOT
BRANCH   1   2
ATOM      2  C   UNL A   1      33.542  30.118  27.217  1.00  0.00     0.116 C 
BRANCH   2   3
ATOM      3  N   UNL A   1      33.663  28.680  26.969  1.00  0.00    -0.356 N 
ATOM      4  O   UNL A   1      31.487  28.258  27.570  1.00  0.00    -0.275 OA
ATOM      5  C   UNL A   1      32.517  27.877  27.022  1.00  0.00     0.220 C 
ATOM      6  H   UNL A   1      34.539  28.283  26.766  1.00  0.00     0.163 HD
BRANCH   5   7
ATOM      7  C   UNL A   1      32.567  26.580  26.190  1.00  0.00     0.110 C 
BRANCH   7   8
ATOM      8  C   UNL A   1      32.111  25.332  26.980  1.00  0.00     0.112 C 
BRANCH   8   9
ATOM      9  C   UNL A   1      31.130  24.230  26.480  1.00  0.00     0.243 C 
ATOM     10  O   UNL A   1      30.010  24.173  27.003  1.00  0.00    -0.273 OA
BRANCH   9  11
ATOM     11  N   UNL A   1      31.444  23.491  25.357  1.00  0.00    -0.225 N 
ATOM     12  N   UNL A   1      32.378  22.437  25.385  1.00  0.00    -0.174 NA
ATOM     13  C   UNL A   1      30.849  23.623  24.049  1.00  0.00     0.147 C 
ATOM     14  C   UNL A   1      32.177  21.774  24.283  1.00  0.00     0.071 C 
ATOM     15  C   UNL A   1      31.039  22.261  23.462  1.00  0.00     0.091 C 
BRANCH  13  16
ATOM     16  C   UNL A   1      31.265  24.881  23.298  1.00  0.00    -0.019 A 
ATOM     17  C   UNL A   1      30.409  26.014  23.356  1.00  0.00     0.010 A 
ATOM     18  C   UNL A   1      32.527  25.050  22.719  1.00  0.00     0.056 A 
ATOM     19  C   UNL A   1      30.791  27.291  22.956  1.00  0.00     0.051 A 
ATOM     20  C   UNL A   1      32.906  26.334  22.360  1.00  0.00     0.166 A 
ATOM     21  C   UNL A   1      32.069  27.421  22.493  1.00  0.00     0.165 A 
ATOM     22  O   UNL A   1      34.140  26.706  21.922  1.00  0.00    -0.454 OA
ATOM     23  O   UNL A   1      32.670  28.596  22.177  1.00  0.00    -0.454 OA
ATOM     24  C   UNL A   1      34.027  28.144  22.001  1.00  0.00     0.468 C 
ENDBRANCH  13  16
BRANCH  14  25
ATOM     25  C   UNL A   1      32.784  20.525  23.806  1.00  0.00    -0.002 A 
ATOM     26  C   UNL A   1      33.701  19.863  24.621  1.00  0.00     0.010 A 
ATOM     27  C   UNL A   1      32.154  19.841  22.753  1.00  0.00     0.010 A 
ATOM     28  C   UNL A   1      33.986  18.516  24.379  1.00  0.00     0.001 A 
ATOM     29  C   UNL A   1      32.438  18.496  22.519  1.00  0.00     0.001 A 
ATOM     30  C   UNL A   1      33.353  17.834  23.335  1.00  0.00     0.000 A 
ENDBRANCH  14  25
ENDBRANCH   9  11
ENDBRANCH   8   9
ENDBRANCH   7   8
ENDBRANCH   5   7
ENDBRANCH   2   3
ENDBRANCH   1   2
BRANCH   1  31
ATOM     31  C   UNL A   1      34.887  32.382  28.007  1.00  0.00     0.002 C 
BRANCH  31  32
ATOM     32  C   UNL A   1      34.467  33.308  29.154  1.00  0.00     0.002 C 
BRANCH  32  33
ATOM     33  C   UNL A   1      33.323  34.294  28.909  1.00  0.00     0.021 C 
BRANCH  33  34
ATOM     34  C   UNL A   1      33.587  35.676  29.493  1.00  0.00     0.116 C 
BRANCH  34  35
ATOM     35  N   UNL A   1      32.570  36.132  30.442  1.00  0.00    -0.352 N 
ATOM     36  C   UNL A   1      32.511  35.867  31.798  1.00  0.00     0.251 C 
ATOM     37  H   UNL A   1      31.847  36.688  30.073  1.00  0.00     0.163 HD
ATOM     38  O   UNL A   1      31.530  36.191  32.464  1.00  0.00    -0.269 OA
BRANCH  36  39
ATOM     39  C   UNL A   1      33.631  35.136  32.431  1.00  0.00     0.039 A 
ATOM     40  C   UNL A   1      33.448  33.824  32.876  1.00  0.00     0.014 A 
ATOM     41  C   UNL A   1      34.892  35.731  32.505  1.00  0.00     0.014 A 
ATOM     42  C   UNL A   1      34.556  33.078  33.294  1.00  0.00     0.010 A 
ATOM     43  C   UNL A   1      36.001  34.959  32.812  1.00  0.00     0.010 A 
ATOM     44  C   UNL A   1      35.848  33.624  33.213  1.00  0.00    -0.014 A 
BRANCH  44  45
ATOM     45  C   UNL A   1      37.061  32.840  33.553  1.00  0.00     0.031 A 
ATOM     46  C   UNL A   1      37.798  33.127  34.834  1.00  0.00     0.074 A 
ATOM     47  C   UNL A   1      37.561  31.958  32.667  1.00  0.00     0.049 A 
ATOM     48  N   UNL A   1      38.944  32.657  35.254  1.00  0.00    -0.248 NA
ATOM     49  C   UNL A   1      37.186  34.114  35.740  1.00  0.00     0.031 C 
ATOM     50  C   UNL A   1      36.987  31.651  31.354  1.00  0.00     0.029 A 
ATOM     51  N   UNL A   1      38.681  31.167  32.729  1.00  0.00    -0.354 N 
ATOM     52  C   UNL A   1      39.207  33.319  36.446  1.00  0.00     0.074 A 
ATOM     53  C   UNL A   1      38.131  34.261  36.657  1.00  0.00     0.031 C 
ATOM     54  C   UNL A   1      37.741  30.717  30.752  1.00  0.00     0.029 A 
ATOM     55  C   UNL A   1      38.867  30.383  31.616  1.00  0.00     0.049 A 
ATOM     56  H   UNL A   1      39.295  31.163  33.500  1.00  0.00     0.167 HD
ATOM     57  C   UNL A   1      40.237  33.137  37.306  1.00  0.00     0.037 A 
ATOM     58  C   UNL A   1      39.836  29.494  31.330  1.00  0.00     0.037 A 
ATOM     59  C   UNL A   1      41.266  32.151  37.126  1.00  0.00     0.049 A 
ATOM     60  C   UNL A   1      40.926  29.251  32.336  1.00  0.00     0.074 A 
ATOM     61  C   UNL A   1      42.305  31.822  37.980  1.00  0.00     0.029 A 
ATOM     62  N   UNL A   1      41.378  31.323  36.020  1.00  0.00    -0.354 N 
ATOM     63  N   UNL A   1      41.126  29.834  33.493  1.00  0.00    -0.248 NA
ATOM     64  C   UNL A   1      41.919  28.220  32.004  1.00  0.00     0.031 C 
ATOM     65  C   UNL A   1      43.058  30.809  37.378  1.00  0.00     0.029 A 
ATOM     66  C   UNL A   1      42.469  30.485  36.165  1.00  0.00     0.049 A 
ATOM     67  H   UNL A   1      40.770  31.329  35.246  1.00  0.00     0.167 HD
ATOM     68  C   UNL A   1      42.251  29.230  34.036  1.00  0.00     0.074 A 
ATOM     69  C   UNL A   1      42.681  28.222  33.088  1.00  0.00     0.031 C 
ATOM     70  C   UNL A   1      42.872  29.484  35.213  1.00  0.00     0.037 A 
BRANCH  57  71
ATOM     71  C   UNL A   1      40.281  34.012  38.524  1.00  0.00     0.057 A 
ATOM     72  C   UNL A   1      39.645  33.648  39.718  1.00  0.00     0.134 A 
ATOM     73  C   UNL A   1      40.980  35.225  38.508  1.00  0.00     0.134 A 
ATOM     74  F   UNL A   1      38.946  32.505  39.794  1.00  0.00    -0.206 F 
ATOM     75  C   UNL A   1      39.674  34.473  40.843  1.00  0.00     0.040 A 
ATOM     76  C   UNL A   1      41.040  36.047  39.636  1.00  0.00     0.040 A 
ATOM     77  F   UNL A   1      41.614  35.633  37.399  1.00  0.00    -0.206 F 
ATOM     78  C   UNL A   1      40.379  35.674  40.805  1.00  0.00     0.006 A 
ENDBRANCH  57  71
BRANCH  58  79
ATOM     79  C   UNL A   1      39.790  28.730  30.058  1.00  0.00     0.057 A 
ATOM     80  C   UNL A   1      40.413  29.220  28.904  1.00  0.00     0.134 A 
ATOM     81  C   UNL A   1      39.136  27.497  29.966  1.00  0.00     0.134 A 
ATOM     82  F   UNL A   1      41.042  30.404  28.930  1.00  0.00    -0.206 F 
ATOM     83  C   UNL A   1      40.374  28.519  27.698  1.00  0.00     0.040 A 
ATOM     84  C   UNL A   1      39.106  26.775  28.769  1.00  0.00     0.040 A 
ATOM     85  F   UNL A   1      38.529  26.969  31.038  1.00  0.00    -0.206 F 
ATOM     86  C   UNL A   1      39.723  27.289  27.630  1.00  0.00     0.006 A 
ENDBRANCH  58  79
BRANCH  70  87
ATOM     87  C   UNL A   1      44.065  28.644  35.552  1.00  0.00     0.057 A 
ATOM     88  C   UNL A   1      45.359  29.015  35.168  1.00  0.00     0.134 A 
ATOM     89  C   UNL A   1      43.920  27.477  36.312  1.00  0.00     0.134 A 
ATOM     90  F   UNL A   1      45.559  30.117  34.428  1.00  0.00    -0.206 F 
ATOM     91  C   UNL A   1      46.470  28.246  35.516  1.00  0.00     0.040 A 
ATOM     92  C   UNL A   1      45.025  26.710  36.685  1.00  0.00     0.040 A 
ATOM     93  F   UNL A   1      42.707  27.073  36.717  1.00  0.00    -0.206 F 
ATOM     94  C   UNL A   1      46.304  27.092  36.283  1.00  0.00     0.006 A 
ENDBRANCH  70  87
ENDBRANCH  44  45
ENDBRANCH  36  39
ENDBRANCH  34  35
ENDBRANCH  33  34
ENDBRANCH  32  33
ENDBRANCH  31  32
ENDBRANCH   1  31
TORSDOF 18
ENDMDL
