MODEL 1
REMARK VINA RESULT:     -11.7      0.000      0.000
REMARK SMILES CC[C@H](C(=O)NCCCCCCNC(=O)c1ccc(-c2c3nc(c(-c4c(F)cccc4F)c4ccc([nH]4)c(-c4c(F)cccc4F)c4nc(c(-c5c(F)cccc5F)c5ccc2[nH]5)C=C4)C=C3)cc1)C1=CCCc2c(C)ccc(C)c21
REMARK SMILES IDX 10 1 9 2 8 3 7 4 6 5 4 6 5 7 3 9 2 10 1 11 70 12 71 13 81 14
REMARK SMILES IDX 72 15 74 16 79 17 73 18 75 19 78 20 80 21 76 22 77 23 11 24
REMARK SMILES IDX 12 25 13 26 14 27 15 29 16 30 17 31 69 32 18 33 68 34 19 35
REMARK SMILES IDX 20 36 21 37 62 38 22 39 67 40 61 41 63 42 23 43 66 44 60 45
REMARK SMILES IDX 59 46 24 48 50 49 33 50 49 51 34 52 37 53 48 54 64 55 35 56
REMARK SMILES IDX 36 57 47 59 65 60 38 61 25 62 26 63 31 64 27 65 28 66 30 67
REMARK SMILES IDX 32 68 29 69 51 70 52 71 57 72 53 73 54 74 56 75 58 76 55 77
REMARK SMILES IDX 39 78 40 79 45 80 41 81 42 82 44 83 46 84 43 85
REMARK H PARENT 6 8 13 28 63 47 37 58
REMARK Flexibility Score: inf
ROOT
ATOM      1  C   UNL A   1      35.970  21.060  25.311  1.00  0.00     0.002 C 
ENDROOT
BRANCH   1   2
ATOM      2  C   UNL A   1      34.622  20.448  24.916  1.00  0.00     0.002 C 
BRANCH   2   3
ATOM      3  C   UNL A   1      33.491  20.543  25.941  1.00  0.00     0.021 C 
BRANCH   3   4
ATOM      4  C   UNL A   1      33.678  21.534  27.096  1.00  0.00     0.116 C 
BRANCH   4   5
ATOM      5  N   UNL A   1      32.556  22.418  27.408  1.00  0.00    -0.356 N 
ATOM      6  C   UNL A   1      32.096  23.610  26.895  1.00  0.00     0.227 C 
ATOM      7  O   UNL A   1      30.934  23.885  27.229  1.00  0.00    -0.274 OA
ATOM      8  H   UNL A   1      32.005  22.085  28.152  1.00  0.00     0.163 HD
BRANCH   6   9
ATOM      9  C   UNL A   1      32.928  24.669  26.083  1.00  0.00     0.108 C 
BRANCH   9  10
ATOM     10  C   UNL A   1      33.731  24.110  24.849  1.00  0.00     0.015 C 
ATOM     11  C   UNL A   1      35.213  24.501  24.714  1.00  0.00     0.005 C 
ENDBRANCH   9  10
BRANCH   9  12
ATOM     12  C   UNL A   1      32.229  26.016  25.714  1.00  0.00    -0.032 C 
ATOM     13  C   UNL A   1      31.940  26.816  26.777  1.00  0.00    -0.022 C 
ATOM     14  C   UNL A   1      32.244  26.832  24.361  1.00  0.00    -0.016 A 
ATOM     15  C   UNL A   1      33.043  27.863  27.049  1.00  0.00     0.032 C 
ATOM     16  C   UNL A   1      32.573  28.183  24.703  1.00  0.00    -0.037 A 
ATOM     17  C   UNL A   1      31.223  26.710  23.392  1.00  0.00    -0.043 A 
ATOM     18  C   UNL A   1      33.689  28.288  25.725  1.00  0.00     0.040 C 
ATOM     19  C   UNL A   1      31.576  29.195  24.616  1.00  0.00    -0.047 A 
ATOM     20  C   UNL A   1      30.206  27.692  23.321  1.00  0.00     0.004 A 
ATOM     21  C   UNL A   1      31.588  26.226  21.983  1.00  0.00     0.045 C 
ATOM     22  C   UNL A   1      31.608  30.421  25.493  1.00  0.00     0.044 C 
ATOM     23  C   UNL A   1      30.369  28.910  23.966  1.00  0.00     0.004 A 
ENDBRANCH   9  12
ENDBRANCH   6   9
ENDBRANCH   4   5
ENDBRANCH   3   4
ENDBRANCH   2   3
ENDBRANCH   1   2
BRANCH   1  24
ATOM     24  C   UNL A   1      37.230  20.264  24.953  1.00  0.00     0.021 C 
BRANCH  24  25
ATOM     25  C   UNL A   1      38.529  20.689  25.639  1.00  0.00     0.116 C 
BRANCH  25  26
ATOM     26  N   UNL A   1      39.558  19.660  25.621  1.00  0.00    -0.352 N 
ATOM     27  C   UNL A   1      40.881  19.715  25.982  1.00  0.00     0.251 C 
ATOM     28  H   UNL A   1      39.256  18.781  25.296  1.00  0.00     0.163 HD
ATOM     29  O   UNL A   1      41.609  18.740  25.780  1.00  0.00    -0.269 OA
BRANCH  27  30
ATOM     30  C   UNL A   1      41.461  20.938  26.580  1.00  0.00     0.039 A 
ATOM     31  C   UNL A   1      42.012  21.903  25.728  1.00  0.00     0.014 A 
ATOM     32  C   UNL A   1      41.481  21.142  27.962  1.00  0.00     0.014 A 
ATOM     33  C   UNL A   1      42.496  23.104  26.255  1.00  0.00     0.010 A 
ATOM     34  C   UNL A   1      41.905  22.366  28.480  1.00  0.00     0.010 A 
ATOM     35  C   UNL A   1      42.398  23.368  27.631  1.00  0.00    -0.014 A 
BRANCH  35  36
ATOM     36  C   UNL A   1      42.747  24.706  28.180  1.00  0.00     0.031 A 
ATOM     37  C   UNL A   1      41.692  25.759  28.377  1.00  0.00     0.074 A 
ATOM     38  C   UNL A   1      44.039  24.995  28.434  1.00  0.00     0.049 A 
ATOM     39  N   UNL A   1      41.828  26.998  28.779  1.00  0.00    -0.248 NA
ATOM     40  C   UNL A   1      40.306  25.378  28.066  1.00  0.00     0.031 C 
ATOM     41  C   UNL A   1      45.164  24.078  28.240  1.00  0.00     0.029 A 
ATOM     42  N   UNL A   1      44.629  26.147  28.895  1.00  0.00    -0.354 N 
ATOM     43  C   UNL A   1      40.552  27.547  28.759  1.00  0.00     0.074 A 
ATOM     44  C   UNL A   1      39.660  26.519  28.265  1.00  0.00     0.031 C 
ATOM     45  C   UNL A   1      46.301  24.695  28.595  1.00  0.00     0.029 A 
ATOM     46  C   UNL A   1      45.997  26.063  28.997  1.00  0.00     0.049 A 
ATOM     47  H   UNL A   1      44.119  26.956  29.130  1.00  0.00     0.167 HD
ATOM     48  C   UNL A   1      40.158  28.788  29.136  1.00  0.00     0.037 A 
ATOM     49  C   UNL A   1      46.908  26.988  29.354  1.00  0.00     0.037 A 
ATOM     50  C   UNL A   1      41.045  29.804  29.640  1.00  0.00     0.049 A 
ATOM     51  C   UNL A   1      46.445  28.365  29.742  1.00  0.00     0.074 A 
ATOM     52  C   UNL A   1      40.727  31.067  30.110  1.00  0.00     0.029 A 
ATOM     53  N   UNL A   1      42.423  29.679  29.733  1.00  0.00    -0.354 N 
ATOM     54  N   UNL A   1      45.225  28.842  29.794  1.00  0.00    -0.248 NA
ATOM     55  C   UNL A   1      47.484  29.333  30.120  1.00  0.00     0.031 C 
ATOM     56  C   UNL A   1      41.917  31.728  30.430  1.00  0.00     0.029 A 
ATOM     57  C   UNL A   1      42.973  30.856  30.216  1.00  0.00     0.049 A 
ATOM     58  H   UNL A   1      42.935  28.874  29.490  1.00  0.00     0.167 HD
ATOM     59  C   UNL A   1      45.348  30.155  30.233  1.00  0.00     0.074 A 
ATOM     60  C   UNL A   1      46.759  30.390  30.455  1.00  0.00     0.031 C 
ATOM     61  C   UNL A   1      44.379  31.081  30.433  1.00  0.00     0.037 A 
BRANCH  48  62
ATOM     62  C   UNL A   1      38.699  29.125  29.016  1.00  0.00     0.057 A 
ATOM     63  C   UNL A   1      37.837  29.082  30.119  1.00  0.00     0.134 A 
ATOM     64  C   UNL A   1      38.164  29.563  27.797  1.00  0.00     0.134 A 
ATOM     65  F   UNL A   1      38.281  28.665  31.315  1.00  0.00    -0.206 F 
ATOM     66  C   UNL A   1      36.492  29.441  30.010  1.00  0.00     0.040 A 
ATOM     67  C   UNL A   1      36.828  29.952  27.682  1.00  0.00     0.040 A 
ATOM     68  F   UNL A   1      38.936  29.637  26.702  1.00  0.00    -0.206 F 
ATOM     69  C   UNL A   1      35.987  29.887  28.791  1.00  0.00     0.006 A 
ENDBRANCH  48  62
BRANCH  49  70
ATOM     70  C   UNL A   1      48.356  26.649  29.360  1.00  0.00     0.057 A 
ATOM     71  C   UNL A   1      49.167  26.915  28.250  1.00  0.00     0.134 A 
ATOM     72  C   UNL A   1      48.955  26.030  30.463  1.00  0.00     0.134 A 
ATOM     73  F   UNL A   1      48.647  27.488  27.155  1.00  0.00    -0.206 F 
ATOM     74  C   UNL A   1      50.516  26.555  28.227  1.00  0.00     0.040 A 
ATOM     75  C   UNL A   1      50.310  25.692  30.465  1.00  0.00     0.040 A 
ATOM     76  F   UNL A   1      48.235  25.755  31.561  1.00  0.00    -0.206 F 
ATOM     77  C   UNL A   1      51.091  25.946  29.341  1.00  0.00     0.006 A 
ENDBRANCH  49  70
BRANCH  61  78
ATOM     78  C   UNL A   1      44.809  32.429  30.937  1.00  0.00     0.057 A 
ATOM     79  C   UNL A   1      44.930  32.701  32.306  1.00  0.00     0.134 A 
ATOM     80  C   UNL A   1      45.140  33.455  30.043  1.00  0.00     0.134 A 
ATOM     81  F   UNL A   1      44.616  31.768  33.216  1.00  0.00    -0.206 F 
ATOM     82  C   UNL A   1      45.342  33.953  32.767  1.00  0.00     0.040 A 
ATOM     83  C   UNL A   1      45.582  34.700  30.490  1.00  0.00     0.040 A 
ATOM     84  F   UNL A   1      45.055  33.258  28.719  1.00  0.00    -0.206 F 
ATOM     85  C   UNL A   1      45.676  34.955  31.856  1.00  0.00     0.006 A 
ENDBRANCH  61  78
ENDBRANCH  35  36
ENDBRANCH  27  30
ENDBRANCH  25  26
ENDBRANCH  24  25
ENDBRANCH   1  24
TORSDOF 15
ENDMDL
MODEL 2
REMARK VINA RESULT:     -11.5      0.489      6.247
REMARK SMILES CC[C@H](C(=O)NCCCCCCNC(=O)c1ccc(-c2c3nc(c(-c4c(F)cccc4F)c4ccc([nH]4)c(-c4c(F)cccc4F)c4nc(c(-c5c(F)cccc5F)c5ccc2[nH]5)C=C4)C=C3)cc1)C1=CCCc2c(C)ccc(C)c21
REMARK SMILES IDX 10 1 9 2 8 3 7 4 6 5 4 6 5 7 3 9 2 10 1 11 70 12 71 13 81 14
REMARK SMILES IDX 72 15 74 16 79 17 73 18 75 19 78 20 80 21 76 22 77 23 11 24
REMARK SMILES IDX 12 25 13 26 14 27 15 29 16 30 17 31 69 32 18 33 68 34 19 35
REMARK SMILES IDX 20 36 21 37 62 38 22 39 67 40 61 41 63 42 23 43 66 44 60 45
REMARK SMILES IDX 59 46 24 48 50 49 33 50 49 51 34 52 37 53 48 54 64 55 35 56
REMARK SMILES IDX 36 57 47 59 65 60 38 61 25 62 26 63 31 64 27 65 28 66 30 67
REMARK SMILES IDX 32 68 29 69 51 70 52 71 57 72 53 73 54 74 56 75 58 76 55 77
REMARK SMILES IDX 39 78 40 79 45 80 41 81 42 82 44 83 46 84 43 85
REMARK H PARENT 6 8 13 28 63 47 37 58
REMARK Flexibility Score: inf
ROOT
ATOM      1  C   UNL A   1      36.310  21.078  24.766  1.00  0.00     0.002 C 
ENDROOT
BRANCH   1   2
ATOM      2  C   UNL A   1      35.759  21.610  26.093  1.00  0.00     0.002 C 
BRANCH   2   3
ATOM      3  C   UNL A   1      34.333  21.202  26.464  1.00  0.00     0.021 C 
BRANCH   3   4
ATOM      4  C   UNL A   1      33.650  21.994  27.586  1.00  0.00     0.116 C 
BRANCH   4   5
ATOM      5  N   UNL A   1      32.378  22.639  27.270  1.00  0.00    -0.356 N 
ATOM      6  C   UNL A   1      32.013  23.747  26.538  1.00  0.00     0.227 C 
ATOM      7  O   UNL A   1      30.806  23.786  26.255  1.00  0.00    -0.274 OA
ATOM      8  H   UNL A   1      31.606  22.177  27.671  1.00  0.00     0.163 HD
BRANCH   6   9
ATOM      9  C   UNL A   1      32.923  24.978  26.178  1.00  0.00     0.108 C 
BRANCH   9  10
ATOM     10  C   UNL A   1      34.099  24.689  25.171  1.00  0.00     0.015 C 
ATOM     11  C   UNL A   1      33.773  23.913  23.883  1.00  0.00     0.005 C 
ENDBRANCH   9  10
BRANCH   9  12
ATOM     12  C   UNL A   1      32.217  26.324  25.820  1.00  0.00    -0.032 C 
ATOM     13  C   UNL A   1      31.857  27.080  26.893  1.00  0.00    -0.022 C 
ATOM     14  C   UNL A   1      32.288  27.190  24.500  1.00  0.00    -0.016 A 
ATOM     15  C   UNL A   1      32.923  28.137  27.261  1.00  0.00     0.032 C 
ATOM     16  C   UNL A   1      32.571  28.533  24.906  1.00  0.00    -0.037 A 
ATOM     17  C   UNL A   1      31.321  27.084  23.473  1.00  0.00    -0.043 A 
ATOM     18  C   UNL A   1      33.629  28.621  25.990  1.00  0.00     0.040 C 
ATOM     19  C   UNL A   1      31.559  29.529  24.802  1.00  0.00    -0.047 A 
ATOM     20  C   UNL A   1      30.290  28.050  23.383  1.00  0.00     0.004 A 
ATOM     21  C   UNL A   1      31.770  26.659  22.070  1.00  0.00     0.045 C 
ATOM     22  C   UNL A   1      31.521  30.723  25.722  1.00  0.00     0.044 C 
ATOM     23  C   UNL A   1      30.395  29.247  24.079  1.00  0.00     0.004 A 
ENDBRANCH   9  12
ENDBRANCH   6   9
ENDBRANCH   4   5
ENDBRANCH   3   4
ENDBRANCH   2   3
ENDBRANCH   1   2
BRANCH   1  24
ATOM     24  C   UNL A   1      37.467  20.075  24.841  1.00  0.00     0.021 C 
BRANCH  24  25
ATOM     25  C   UNL A   1      38.657  20.465  25.719  1.00  0.00     0.116 C 
BRANCH  25  26
ATOM     26  N   UNL A   1      39.728  19.480  25.715  1.00  0.00    -0.352 N 
ATOM     27  C   UNL A   1      41.054  19.601  26.050  1.00  0.00     0.251 C 
ATOM     28  H   UNL A   1      39.458  18.579  25.423  1.00  0.00     0.163 HD
ATOM     29  O   UNL A   1      41.818  18.652  25.866  1.00  0.00    -0.269 OA
BRANCH  27  30
ATOM     30  C   UNL A   1      41.591  20.867  26.598  1.00  0.00     0.039 A 
ATOM     31  C   UNL A   1      42.159  21.791  25.714  1.00  0.00     0.014 A 
ATOM     32  C   UNL A   1      41.555  21.148  27.966  1.00  0.00     0.014 A 
ATOM     33  C   UNL A   1      42.605  23.028  26.189  1.00  0.00     0.010 A 
ATOM     34  C   UNL A   1      41.940  22.407  28.429  1.00  0.00     0.010 A 
ATOM     35  C   UNL A   1      42.450  23.367  27.542  1.00  0.00    -0.014 A 
BRANCH  35  36
ATOM     36  C   UNL A   1      42.757  24.740  28.027  1.00  0.00     0.031 A 
ATOM     37  C   UNL A   1      44.151  25.119  28.446  1.00  0.00     0.074 A 
ATOM     38  C   UNL A   1      41.753  25.630  28.160  1.00  0.00     0.049 A 
ATOM     39  N   UNL A   1      44.582  26.244  28.956  1.00  0.00    -0.248 NA
ATOM     40  C   UNL A   1      45.193  24.093  28.287  1.00  0.00     0.031 C 
ATOM     41  C   UNL A   1      40.347  25.373  27.834  1.00  0.00     0.029 A 
ATOM     42  N   UNL A   1      41.753  26.925  28.617  1.00  0.00    -0.354 N 
ATOM     43  C   UNL A   1      45.940  26.062  29.189  1.00  0.00     0.074 A 
ATOM     44  C   UNL A   1      46.253  24.701  28.805  1.00  0.00     0.031 C 
ATOM     45  C   UNL A   1      39.628  26.477  28.085  1.00  0.00     0.029 A 
ATOM     46  C   UNL A   1      40.507  27.505  28.632  1.00  0.00     0.049 A 
ATOM     47  H   UNL A   1      42.569  27.394  28.907  1.00  0.00     0.167 HD
ATOM     48  C   UNL A   1      46.845  26.952  29.663  1.00  0.00     0.037 A 
ATOM     49  C   UNL A   1      40.110  28.720  29.056  1.00  0.00     0.037 A 
ATOM     50  C   UNL A   1      46.533  28.309  30.032  1.00  0.00     0.049 A 
ATOM     51  C   UNL A   1      41.132  29.678  29.602  1.00  0.00     0.074 A 
ATOM     52  C   UNL A   1      47.397  29.304  30.459  1.00  0.00     0.029 A 
ATOM     53  N   UNL A   1      45.261  28.860  30.028  1.00  0.00    -0.354 N 
ATOM     54  N   UNL A   1      42.425  29.516  29.741  1.00  0.00    -0.248 NA
ATOM     55  C   UNL A   1      40.640  30.988  30.051  1.00  0.00     0.031 C 
ATOM     56  C   UNL A   1      46.640  30.438  30.770  1.00  0.00     0.029 A 
ATOM     57  C   UNL A   1      45.312  30.169  30.481  1.00  0.00     0.049 A 
ATOM     58  H   UNL A   1      44.443  28.391  29.747  1.00  0.00     0.167 HD
ATOM     59  C   UNL A   1      42.904  30.709  30.269  1.00  0.00     0.074 A 
ATOM     60  C   UNL A   1      41.765  31.593  30.403  1.00  0.00     0.031 C 
ATOM     61  C   UNL A   1      44.172  31.041  30.613  1.00  0.00     0.037 A 
BRANCH  48  62
ATOM     62  C   UNL A   1      48.266  26.490  29.816  1.00  0.00     0.057 A 
ATOM     63  C   UNL A   1      49.232  26.732  28.831  1.00  0.00     0.134 A 
ATOM     64  C   UNL A   1      48.689  25.856  30.992  1.00  0.00     0.134 A 
ATOM     65  F   UNL A   1      48.894  27.329  27.678  1.00  0.00    -0.206 F 
ATOM     66  C   UNL A   1      50.562  26.341  29.000  1.00  0.00     0.040 A 
ATOM     67  C   UNL A   1      50.021  25.486  31.184  1.00  0.00     0.040 A 
ATOM     68  F   UNL A   1      47.818  25.602  31.980  1.00  0.00    -0.206 F 
ATOM     69  C   UNL A   1      50.961  25.724  30.184  1.00  0.00     0.006 A 
ENDBRANCH  48  62
BRANCH  49  70
ATOM     70  C   UNL A   1      38.675  29.104  28.987  1.00  0.00     0.057 A 
ATOM     71  C   UNL A   1      38.108  29.578  27.798  1.00  0.00     0.134 A 
ATOM     72  C   UNL A   1      37.845  29.030  30.111  1.00  0.00     0.134 A 
ATOM     73  F   UNL A   1      38.857  29.691  26.691  1.00  0.00    -0.206 F 
ATOM     74  C   UNL A   1      36.775  29.989  27.736  1.00  0.00     0.040 A 
ATOM     75  C   UNL A   1      36.503  29.409  30.056  1.00  0.00     0.040 A 
ATOM     76  F   UNL A   1      38.324  28.578  31.280  1.00  0.00    -0.206 F 
ATOM     77  C   UNL A   1      35.967  29.899  28.868  1.00  0.00     0.006 A 
ENDBRANCH  49  70
BRANCH  61  78
ATOM     78  C   UNL A   1      44.400  32.426  31.146  1.00  0.00     0.057 A 
ATOM     79  C   UNL A   1      44.687  33.506  30.301  1.00  0.00     0.134 A 
ATOM     80  C   UNL A   1      44.298  32.689  32.519  1.00  0.00     0.134 A 
ATOM     81  F   UNL A   1      44.813  33.321  28.979  1.00  0.00    -0.206 F 
ATOM     82  C   UNL A   1      44.886  34.793  30.804  1.00  0.00     0.040 A 
ATOM     83  C   UNL A   1      44.464  33.976  33.030  1.00  0.00     0.040 A 
ATOM     84  F   UNL A   1      44.017  31.702  33.382  1.00  0.00    -0.206 F 
ATOM     85  C   UNL A   1      44.768  35.031  32.173  1.00  0.00     0.006 A 
ENDBRANCH  61  78
ENDBRANCH  35  36
ENDBRANCH  27  30
ENDBRANCH  25  26
ENDBRANCH  24  25
ENDBRANCH   1  24
TORSDOF 15
ENDMDL
MODEL 3
REMARK VINA RESULT:     -11.5      4.129      9.040
REMARK SMILES CC[C@H](C(=O)NCCCCCCNC(=O)c1ccc(-c2c3nc(c(-c4c(F)cccc4F)c4ccc([nH]4)c(-c4c(F)cccc4F)c4nc(c(-c5c(F)cccc5F)c5ccc2[nH]5)C=C4)C=C3)cc1)C1=CCCc2c(C)ccc(C)c21
REMARK SMILES IDX 10 1 9 2 8 3 7 4 6 5 4 6 5 7 3 9 2 10 1 11 70 12 71 13 81 14
REMARK SMILES IDX 72 15 74 16 79 17 73 18 75 19 78 20 80 21 76 22 77 23 11 24
REMARK SMILES IDX 12 25 13 26 14 27 15 29 16 30 17 31 69 32 18 33 68 34 19 35
REMARK SMILES IDX 20 36 21 37 62 38 22 39 67 40 61 41 63 42 23 43 66 44 60 45
REMARK SMILES IDX 59 46 24 48 50 49 33 50 49 51 34 52 37 53 48 54 64 55 35 56
REMARK SMILES IDX 36 57 47 59 65 60 38 61 25 62 26 63 31 64 27 65 28 66 30 67
REMARK SMILES IDX 32 68 29 69 51 70 52 71 57 72 53 73 54 74 56 75 58 76 55 77
REMARK SMILES IDX 39 78 40 79 45 80 41 81 42 82 44 83 46 84 43 85
REMARK H PARENT 6 8 13 28 63 47 37 58
REMARK Flexibility Score: inf
ROOT
ATOM      1  C   UNL A   1      31.393  29.528  24.588  1.00  0.00     0.002 C 
ENDROOT
BRANCH   1   2
ATOM      2  C   UNL A   1      30.420  29.057  23.502  1.00  0.00     0.002 C 
BRANCH   2   3
ATOM      3  C   UNL A   1      29.760  27.693  23.709  1.00  0.00     0.021 C 
BRANCH   3   4
ATOM      4  C   UNL A   1      30.475  26.474  23.114  1.00  0.00     0.116 C 
BRANCH   4   5
ATOM      5  N   UNL A   1      31.785  26.697  22.507  1.00  0.00    -0.356 N 
ATOM      6  C   UNL A   1      33.072  26.317  22.822  1.00  0.00     0.227 C 
ATOM      7  O   UNL A   1      33.876  26.448  21.886  1.00  0.00    -0.274 OA
ATOM      8  H   UNL A   1      31.739  27.242  21.689  1.00  0.00     0.163 HD
BRANCH   6   9
ATOM      9  C   UNL A   1      33.608  25.893  24.238  1.00  0.00     0.108 C 
BRANCH   9  10
ATOM     10  C   UNL A   1      33.012  26.686  25.461  1.00  0.00     0.015 C 
ATOM     11  C   UNL A   1      33.944  27.644  26.225  1.00  0.00     0.005 C 
ENDBRANCH   9  10
BRANCH   9  12
ATOM     12  C   UNL A   1      33.681  24.367  24.561  1.00  0.00    -0.032 C 
ATOM     13  C   UNL A   1      32.677  23.906  25.357  1.00  0.00    -0.022 C 
ATOM     14  C   UNL A   1      34.375  23.192  23.766  1.00  0.00    -0.016 A 
ATOM     15  C   UNL A   1      31.495  23.327  24.548  1.00  0.00     0.032 C 
ATOM     16  C   UNL A   1      33.395  22.157  23.627  1.00  0.00    -0.037 A 
ATOM     17  C   UNL A   1      35.671  22.726  24.083  1.00  0.00    -0.043 A 
ATOM     18  C   UNL A   1      32.019  22.681  23.260  1.00  0.00     0.040 C 
ATOM     19  C   UNL A   1      33.535  20.949  24.366  1.00  0.00    -0.047 A 
ATOM     20  C   UNL A   1      35.821  21.544  24.849  1.00  0.00     0.004 A 
ATOM     21  C   UNL A   1      36.772  22.807  23.018  1.00  0.00     0.045 C 
ATOM     22  C   UNL A   1      32.341  20.125  24.776  1.00  0.00     0.044 C 
ATOM     23  C   UNL A   1      34.744  20.686  25.021  1.00  0.00     0.004 A 
ENDBRANCH   9  12
ENDBRANCH   6   9
ENDBRANCH   4   5
ENDBRANCH   3   4
ENDBRANCH   2   3
ENDBRANCH   1   2
BRANCH   1  24
ATOM     24  C   UNL A   1      31.014  30.796  25.363  1.00  0.00     0.021 C 
BRANCH  24  25
ATOM     25  C   UNL A   1      31.875  31.140  26.579  1.00  0.00     0.116 C 
BRANCH  25  26
ATOM     26  N   UNL A   1      31.868  32.556  26.912  1.00  0.00    -0.352 N 
ATOM     27  C   UNL A   1      32.772  33.311  27.618  1.00  0.00     0.251 C 
ATOM     28  H   UNL A   1      31.088  33.055  26.578  1.00  0.00     0.163 HD
ATOM     29  O   UNL A   1      32.512  34.487  27.878  1.00  0.00    -0.269 OA
BRANCH  27  30
ATOM     30  C   UNL A   1      34.043  32.727  28.103  1.00  0.00     0.039 A 
ATOM     31  C   UNL A   1      35.147  33.572  28.269  1.00  0.00     0.014 A 
ATOM     32  C   UNL A   1      34.165  31.364  28.384  1.00  0.00     0.014 A 
ATOM     33  C   UNL A   1      36.338  33.067  28.800  1.00  0.00     0.010 A 
ATOM     34  C   UNL A   1      35.331  30.876  28.973  1.00  0.00     0.010 A 
ATOM     35  C   UNL A   1      36.423  31.726  29.206  1.00  0.00    -0.014 A 
BRANCH  35  36
ATOM     36  C   UNL A   1      37.620  31.220  29.931  1.00  0.00     0.031 A 
ATOM     37  C   UNL A   1      38.570  30.257  29.276  1.00  0.00     0.074 A 
ATOM     38  C   UNL A   1      37.809  31.578  31.217  1.00  0.00     0.049 A 
ATOM     39  N   UNL A   1      39.622  29.662  29.781  1.00  0.00    -0.248 NA
ATOM     40  C   UNL A   1      38.294  29.900  27.876  1.00  0.00     0.031 C 
ATOM     41  C   UNL A   1      36.934  32.468  31.984  1.00  0.00     0.029 A 
ATOM     42  N   UNL A   1      38.788  31.226  32.114  1.00  0.00    -0.354 N 
ATOM     43  C   UNL A   1      40.126  28.856  28.768  1.00  0.00     0.074 A 
ATOM     44  C   UNL A   1      39.241  29.003  27.633  1.00  0.00     0.031 C 
ATOM     45  C   UNL A   1      37.425  32.606  33.225  1.00  0.00     0.029 A 
ATOM     46  C   UNL A   1      38.619  31.780  33.360  1.00  0.00     0.049 A 
ATOM     47  H   UNL A   1      39.540  30.632  31.885  1.00  0.00     0.167 HD
ATOM     48  C   UNL A   1      41.236  28.078  28.780  1.00  0.00     0.037 A 
ATOM     49  C   UNL A   1      39.332  31.626  34.492  1.00  0.00     0.037 A 
ATOM     50  C   UNL A   1      42.123  27.944  29.907  1.00  0.00     0.049 A 
ATOM     51  C   UNL A   1      40.544  30.736  34.483  1.00  0.00     0.074 A 
ATOM     52  C   UNL A   1      43.308  27.231  29.988  1.00  0.00     0.029 A 
ATOM     53  N   UNL A   1      41.920  28.525  31.149  1.00  0.00    -0.354 N 
ATOM     54  N   UNL A   1      41.052  30.043  33.493  1.00  0.00    -0.248 NA
ATOM     55  C   UNL A   1      41.282  30.607  35.747  1.00  0.00     0.031 C 
ATOM     56  C   UNL A   1      43.791  27.332  31.297  1.00  0.00     0.029 A 
ATOM     57  C   UNL A   1      42.938  28.155  32.015  1.00  0.00     0.049 A 
ATOM     58  H   UNL A   1      41.165  29.111  31.383  1.00  0.00     0.167 HD
ATOM     59  C   UNL A   1      42.181  29.416  34.008  1.00  0.00     0.074 A 
ATOM     60  C   UNL A   1      42.295  29.830  35.390  1.00  0.00     0.031 C 
ATOM     61  C   UNL A   1      43.043  28.572  33.390  1.00  0.00     0.037 A 
BRANCH  48  62
ATOM     62  C   UNL A   1      41.559  27.302  27.534  1.00  0.00     0.057 A 
ATOM     63  C   UNL A   1      42.307  27.860  26.489  1.00  0.00     0.134 A 
ATOM     64  C   UNL A   1      41.176  25.961  27.408  1.00  0.00     0.134 A 
ATOM     65  F   UNL A   1      42.700  29.141  26.542  1.00  0.00    -0.206 F 
ATOM     66  C   UNL A   1      42.644  27.118  25.355  1.00  0.00     0.040 A 
ATOM     67  C   UNL A   1      41.530  25.200  26.292  1.00  0.00     0.040 A 
ATOM     68  F   UNL A   1      40.466  25.361  28.376  1.00  0.00    -0.206 F 
ATOM     69  C   UNL A   1      42.263  25.782  25.258  1.00  0.00     0.006 A 
ENDBRANCH  48  62
BRANCH  49  70
ATOM     70  C   UNL A   1      38.921  32.329  35.736  1.00  0.00     0.057 A 
ATOM     71  C   UNL A   1      39.288  33.659  35.974  1.00  0.00     0.134 A 
ATOM     72  C   UNL A   1      38.173  31.681  36.727  1.00  0.00     0.134 A 
ATOM     73  F   UNL A   1      40.021  34.328  35.072  1.00  0.00    -0.206 F 
ATOM     74  C   UNL A   1      38.949  34.311  37.160  1.00  0.00     0.040 A 
ATOM     75  C   UNL A   1      37.801  32.330  37.905  1.00  0.00     0.040 A 
ATOM     76  F   UNL A   1      37.783  30.408  36.558  1.00  0.00    -0.206 F 
ATOM     77  C   UNL A   1      38.198  33.646  38.129  1.00  0.00     0.006 A 
ENDBRANCH  49  70
BRANCH  61  78
ATOM     78  C   UNL A   1      44.199  28.057  34.198  1.00  0.00     0.057 A 
ATOM     79  C   UNL A   1      44.134  26.839  34.889  1.00  0.00     0.134 A 
ATOM     80  C   UNL A   1      45.403  28.770  34.258  1.00  0.00     0.134 A 
ATOM     81  F   UNL A   1      43.006  26.114  34.885  1.00  0.00    -0.206 F 
ATOM     82  C   UNL A   1      45.217  26.362  35.629  1.00  0.00     0.040 A 
ATOM     83  C   UNL A   1      46.502  28.289  34.969  1.00  0.00     0.040 A 
ATOM     84  F   UNL A   1      45.535  29.939  33.613  1.00  0.00    -0.206 F 
ATOM     85  C   UNL A   1      46.409  27.085  35.664  1.00  0.00     0.006 A 
ENDBRANCH  61  78
ENDBRANCH  35  36
ENDBRANCH  27  30
ENDBRANCH  25  26
ENDBRANCH  24  25
ENDBRANCH   1  24
TORSDOF 15
ENDMDL
