MODEL 1
REMARK VINA RESULT:     -11.9      0.000      0.000
REMARK SMILES C/C(=C\C(=O)c1c(O)n(C)c2ccccc2c1=O)Nc1ccc(C(=O)NCCCCCCNC(=O)c2ccc(-c3c4nc(c(-c5c(F)cccc5F)c5ccc([nH]5)c(-c5c(F)cccc5F)c5nc(c(-c6c(F)cccc6F)c6ccc3[nH]6)C=C5)C=C4)cc2)cc1
REMARK SMILES IDX 28 1 27 2 26 3 24 4 25 5 23 7 20 8 21 9 91 10 22 11 90 12
REMARK SMILES IDX 19 13 2 15 1 16 3 17 4 18 5 19 6 20 7 21 17 22 9 23 16 24
REMARK SMILES IDX 18 25 10 26 11 27 15 28 12 29 14 30 13 31 8 32 29 34 30 35
REMARK SMILES IDX 31 36 32 37 33 38 34 39 35 41 36 42 37 43 89 44 38 45 88 46
REMARK SMILES IDX 39 47 40 48 41 49 82 50 42 51 87 52 81 53 83 54 43 55 86 56
REMARK SMILES IDX 80 57 79 58 44 60 70 61 53 62 69 63 54 64 57 65 68 66 84 67
REMARK SMILES IDX 55 68 56 69 67 71 85 72 58 73 45 74 46 75 51 76 47 77 48 78
REMARK SMILES IDX 50 79 52 80 49 81 71 82 72 83 77 84 73 85 74 86 76 87 78 88
REMARK SMILES IDX 75 89 59 90 60 91 65 92 61 93 62 94 64 95 66 96 63 97
REMARK H PARENT 26 6 19 14 8 33 33 40 83 59 57 70
REMARK Flexibility Score: inf
ROOT
ATOM      1  C   UNL A   1      39.633  28.914  27.318  1.00  0.00     0.021 C 
ENDROOT
BRANCH   1   2
ATOM      2  C   UNL A   1      38.636  29.198  28.438  1.00  0.00     0.116 C 
BRANCH   2   3
ATOM      3  N   UNL A   1      38.458  30.602  28.730  1.00  0.00    -0.352 N 
ATOM      4  C   UNL A   1      37.356  31.414  28.658  1.00  0.00     0.251 C 
ATOM      5  O   UNL A   1      37.499  32.585  29.018  1.00  0.00    -0.269 OA
ATOM      6  H   UNL A   1      39.276  31.056  29.036  1.00  0.00     0.163 HD
BRANCH   4   7
ATOM      7  C   UNL A   1      36.040  30.980  28.107  1.00  0.00     0.039 A 
ATOM      8  C   UNL A   1      33.563  29.849  27.270  1.00  0.00     0.038 A 
ATOM      9  C   UNL A   1      34.745  29.113  27.236  1.00  0.00     0.027 A 
ATOM     10  C   UNL A   1      33.671  31.209  27.599  1.00  0.00     0.027 A 
ATOM     11  C   UNL A   1      35.959  29.655  27.670  1.00  0.00     0.016 A 
ATOM     12  C   UNL A   1      34.901  31.777  27.979  1.00  0.00     0.016 A 
BRANCH   8  13
ATOM     13  N   UNL A   1      32.276  29.285  27.110  1.00  0.00    -0.359 N 
ATOM     14  H   UNL A   1      31.614  29.541  27.791  1.00  0.00     0.166 HD
BRANCH  13  15
ATOM     15  C   UNL A   1      31.811  28.409  26.113  1.00  0.00     0.016 C 
ATOM     16  C   UNL A   1      31.782  28.916  24.692  1.00  0.00     0.064 C 
ATOM     17  C   UNL A   1      31.445  27.148  26.455  1.00  0.00     0.074 C 
BRANCH  17  18
ATOM     18  C   UNL A   1      31.078  25.922  25.661  1.00  0.00     0.196 C 
ATOM     19  O   UNL A   1      29.919  25.786  25.273  1.00  0.00    -0.289 OA
BRANCH  18  20
ATOM     20  C   UNL A   1      32.046  24.819  25.528  1.00  0.00     0.130 A 
ATOM     21  C   UNL A   1      32.104  23.860  26.473  1.00  0.00     0.206 A 
ATOM     22  C   UNL A   1      33.076  24.849  24.466  1.00  0.00     0.204 A 
ATOM     23  N   UNL A   1      33.167  22.970  26.594  1.00  0.00    -0.315 N 
ATOM     24  C   UNL A   1      34.147  23.829  24.524  1.00  0.00     0.047 A 
ATOM     25  O   UNL A   1      33.079  25.716  23.598  1.00  0.00    -0.288 OA
ATOM     26  C   UNL A   1      33.398  22.205  27.824  1.00  0.00     0.153 C 
ATOM     27  C   UNL A   1      34.185  22.930  25.607  1.00  0.00     0.055 A 
ATOM     28  C   UNL A   1      35.137  23.829  23.530  1.00  0.00     0.014 A 
ATOM     29  C   UNL A   1      35.262  22.026  25.646  1.00  0.00     0.027 A 
ATOM     30  C   UNL A   1      36.193  22.925  23.599  1.00  0.00     0.001 A 
ATOM     31  C   UNL A   1      36.255  22.027  24.658  1.00  0.00     0.002 A 
BRANCH  21  32
ATOM     32  O   UNL A   1      31.126  23.750  27.449  1.00  0.00    -0.494 OA
ATOM     33  H   UNL A   1      31.187  24.261  28.232  1.00  0.00     0.295 HD
ENDBRANCH  21  32
ENDBRANCH  18  20
ENDBRANCH  17  18
ENDBRANCH  13  15
ENDBRANCH   8  13
ENDBRANCH   4   7
ENDBRANCH   2   3
ENDBRANCH   1   2
BRANCH   1  34
ATOM     34  C   UNL A   1      40.409  27.594  27.375  1.00  0.00     0.002 C 
BRANCH  34  35
ATOM     35  C   UNL A   1      40.037  26.603  28.479  1.00  0.00     0.002 C 
BRANCH  35  36
ATOM     36  C   UNL A   1      39.436  25.273  28.034  1.00  0.00     0.021 C 
BRANCH  36  37
ATOM     37  C   UNL A   1      39.660  24.885  26.579  1.00  0.00     0.116 C 
BRANCH  37  38
ATOM     38  N   UNL A   1      40.458  23.684  26.409  1.00  0.00    -0.352 N 
ATOM     39  C   UNL A   1      41.824  23.560  26.280  1.00  0.00     0.251 C 
ATOM     40  H   UNL A   1      39.952  22.841  26.383  1.00  0.00     0.163 HD
ATOM     41  O   UNL A   1      42.332  22.473  26.063  1.00  0.00    -0.269 OA
BRANCH  39  42
ATOM     42  C   UNL A   1      42.672  24.772  26.359  1.00  0.00     0.039 A 
ATOM     43  C   UNL A   1      42.915  25.555  25.228  1.00  0.00     0.014 A 
ATOM     44  C   UNL A   1      43.268  25.097  27.580  1.00  0.00     0.014 A 
ATOM     45  C   UNL A   1      43.882  26.555  25.278  1.00  0.00     0.010 A 
ATOM     46  C   UNL A   1      44.180  26.154  27.646  1.00  0.00     0.010 A 
ATOM     47  C   UNL A   1      44.531  26.860  26.484  1.00  0.00    -0.014 A 
BRANCH  47  48
ATOM     48  C   UNL A   1      45.582  27.910  26.515  1.00  0.00     0.031 A 
ATOM     49  C   UNL A   1      45.213  29.361  26.677  1.00  0.00     0.074 A 
ATOM     50  C   UNL A   1      46.876  27.552  26.430  1.00  0.00     0.049 A 
ATOM     51  N   UNL A   1      45.990  30.416  26.687  1.00  0.00    -0.248 NA
ATOM     52  C   UNL A   1      43.785  29.670  26.848  1.00  0.00     0.031 C 
ATOM     53  C   UNL A   1      47.365  26.178  26.289  1.00  0.00     0.029 A 
ATOM     54  N   UNL A   1      48.019  28.309  26.457  1.00  0.00    -0.354 N 
ATOM     55  C   UNL A   1      45.149  31.509  26.844  1.00  0.00     0.074 A 
ATOM     56  C   UNL A   1      43.796  30.994  26.902  1.00  0.00     0.031 C 
ATOM     57  C   UNL A   1      48.706  26.188  26.277  1.00  0.00     0.029 A 
ATOM     58  C   UNL A   1      49.170  27.569  26.343  1.00  0.00     0.049 A 
ATOM     59  H   UNL A   1      48.015  29.290  26.550  1.00  0.00     0.167 HD
ATOM     60  C   UNL A   1      45.473  32.822  26.941  1.00  0.00     0.037 A 
ATOM     61  C   UNL A   1      50.455  27.960  26.268  1.00  0.00     0.037 A 
ATOM     62  C   UNL A   1      46.819  33.331  26.901  1.00  0.00     0.049 A 
ATOM     63  C   UNL A   1      50.780  29.424  26.303  1.00  0.00     0.074 A 
ATOM     64  C   UNL A   1      47.252  34.641  27.028  1.00  0.00     0.029 A 
ATOM     65  N   UNL A   1      47.952  32.554  26.712  1.00  0.00    -0.354 N 
ATOM     66  N   UNL A   1      49.974  30.445  26.463  1.00  0.00    -0.248 NA
ATOM     67  C   UNL A   1      52.191  29.791  26.125  1.00  0.00     0.031 C 
ATOM     68  C   UNL A   1      48.643  34.658  26.875  1.00  0.00     0.029 A 
ATOM     69  C   UNL A   1      49.079  33.357  26.690  1.00  0.00     0.049 A 
ATOM     70  H   UNL A   1      47.954  31.575  26.610  1.00  0.00     0.167 HD
ATOM     71  C   UNL A   1      50.779  31.574  26.409  1.00  0.00     0.074 A 
ATOM     72  C   UNL A   1      52.140  31.112  26.230  1.00  0.00     0.031 C 
ATOM     73  C   UNL A   1      50.423  32.880  26.492  1.00  0.00     0.037 A 
BRANCH  60  74
ATOM     74  C   UNL A   1      44.347  33.805  27.082  1.00  0.00     0.057 A 
ATOM     75  C   UNL A   1      43.781  34.408  25.952  1.00  0.00     0.134 A 
ATOM     76  C   UNL A   1      43.848  34.185  28.334  1.00  0.00     0.134 A 
ATOM     77  F   UNL A   1      44.217  34.094  24.722  1.00  0.00    -0.206 F 
ATOM     78  C   UNL A   1      42.760  35.354  26.062  1.00  0.00     0.040 A 
ATOM     79  C   UNL A   1      42.813  35.114  28.457  1.00  0.00     0.040 A 
ATOM     80  F   UNL A   1      44.339  33.636  29.457  1.00  0.00    -0.206 F 
ATOM     81  C   UNL A   1      42.270  35.705  27.318  1.00  0.00     0.006 A 
ENDBRANCH  60  74
BRANCH  61  82
ATOM     82  C   UNL A   1      51.529  26.949  26.115  1.00  0.00     0.057 A 
ATOM     83  C   UNL A   1      52.228  26.456  27.224  1.00  0.00     0.134 A 
ATOM     84  C   UNL A   1      51.873  26.443  24.857  1.00  0.00     0.134 A 
ATOM     85  F   UNL A   1      51.945  26.902  28.457  1.00  0.00    -0.206 F 
ATOM     86  C   UNL A   1      53.240  25.506  27.087  1.00  0.00     0.040 A 
ATOM     87  C   UNL A   1      52.866  25.475  24.707  1.00  0.00     0.040 A 
ATOM     88  F   UNL A   1      51.223  26.862  23.761  1.00  0.00    -0.206 F 
ATOM     89  C   UNL A   1      53.558  25.008  25.825  1.00  0.00     0.006 A 
ENDBRANCH  61  82
BRANCH  73  90
ATOM     90  C   UNL A   1      51.527  33.888  26.389  1.00  0.00     0.057 A 
ATOM     91  C   UNL A   1      52.191  34.348  27.533  1.00  0.00     0.134 A 
ATOM     92  C   UNL A   1      51.928  34.409  25.152  1.00  0.00     0.134 A 
ATOM     93  F   UNL A   1      51.851  33.891  28.748  1.00  0.00    -0.206 F 
ATOM     94  C   UNL A   1      53.213  35.294  27.451  1.00  0.00     0.040 A 
ATOM     95  C   UNL A   1      52.966  35.337  25.054  1.00  0.00     0.040 A 
ATOM     96  F   UNL A   1      51.345  33.993  24.018  1.00  0.00    -0.206 F 
ATOM     97  C   UNL A   1      53.608  35.785  26.208  1.00  0.00     0.006 A 
ENDBRANCH  73  90
ENDBRANCH  47  48
ENDBRANCH  39  42
ENDBRANCH  37  38
ENDBRANCH  36  37
ENDBRANCH  35  36
ENDBRANCH  34  35
ENDBRANCH   1  34
TORSDOF 18
ENDMDL
MODEL 2
REMARK VINA RESULT:     -11.6      7.249     11.246
REMARK SMILES C/C(=C\C(=O)c1c(O)n(C)c2ccccc2c1=O)Nc1ccc(C(=O)NCCCCCCNC(=O)c2ccc(-c3c4nc(c(-c5c(F)cccc5F)c5ccc([nH]5)c(-c5c(F)cccc5F)c5nc(c(-c6c(F)cccc6F)c6ccc3[nH]6)C=C5)C=C4)cc2)cc1
REMARK SMILES IDX 28 1 27 2 26 3 24 4 25 5 23 7 20 8 21 9 91 10 22 11 90 12
REMARK SMILES IDX 19 13 2 15 1 16 3 17 4 18 5 19 6 20 7 21 17 22 9 23 16 24
REMARK SMILES IDX 18 25 10 26 11 27 15 28 12 29 14 30 13 31 8 32 29 34 30 35
REMARK SMILES IDX 31 36 32 37 33 38 34 39 35 41 36 42 37 43 89 44 38 45 88 46
REMARK SMILES IDX 39 47 40 48 41 49 82 50 42 51 87 52 81 53 83 54 43 55 86 56
REMARK SMILES IDX 80 57 79 58 44 60 70 61 53 62 69 63 54 64 57 65 68 66 84 67
REMARK SMILES IDX 55 68 56 69 67 71 85 72 58 73 45 74 46 75 51 76 47 77 48 78
REMARK SMILES IDX 50 79 52 80 49 81 71 82 72 83 77 84 73 85 74 86 76 87 78 88
REMARK SMILES IDX 75 89 59 90 60 91 65 92 61 93 62 94 64 95 66 96 63 97
REMARK H PARENT 26 6 19 14 8 33 33 40 83 59 57 70
REMARK Flexibility Score: inf
ROOT
ATOM      1  C   UNL A   1      35.823  31.471  27.809  1.00  0.00     0.021 C 
ENDROOT
BRANCH   1   2
ATOM      2  C   UNL A   1      34.475  30.755  27.807  1.00  0.00     0.116 C 
BRANCH   2   3
ATOM      3  N   UNL A   1      33.370  31.575  27.369  1.00  0.00    -0.352 N 
ATOM      4  C   UNL A   1      32.150  31.250  26.835  1.00  0.00     0.251 C 
ATOM      5  O   UNL A   1      31.379  32.181  26.592  1.00  0.00    -0.269 OA
ATOM      6  H   UNL A   1      33.520  32.542  27.475  1.00  0.00     0.163 HD
BRANCH   4   7
ATOM      7  C   UNL A   1      31.747  29.861  26.470  1.00  0.00     0.039 A 
ATOM      8  C   UNL A   1      31.208  27.245  25.479  1.00  0.00     0.038 A 
ATOM      9  C   UNL A   1      31.101  28.368  24.660  1.00  0.00     0.027 A 
ATOM     10  C   UNL A   1      31.453  27.475  26.841  1.00  0.00     0.027 A 
ATOM     11  C   UNL A   1      31.391  29.651  25.135  1.00  0.00     0.016 A 
ATOM     12  C   UNL A   1      31.686  28.770  27.338  1.00  0.00     0.016 A 
BRANCH   8  13
ATOM     13  N   UNL A   1      31.199  25.915  25.000  1.00  0.00    -0.359 N 
ATOM     14  H   UNL A   1      30.477  25.698  24.367  1.00  0.00     0.166 HD
BRANCH  13  15
ATOM     15  C   UNL A   1      32.076  24.858  25.303  1.00  0.00     0.016 C 
ATOM     16  C   UNL A   1      33.417  24.841  24.611  1.00  0.00     0.064 C 
ATOM     17  C   UNL A   1      31.705  23.928  26.217  1.00  0.00     0.074 C 
BRANCH  17  18
ATOM     18  C   UNL A   1      32.428  22.795  26.898  1.00  0.00     0.196 C 
ATOM     19  O   UNL A   1      32.277  22.633  28.108  1.00  0.00    -0.289 OA
BRANCH  18  20
ATOM     20  C   UNL A   1      33.446  22.027  26.160  1.00  0.00     0.130 A 
ATOM     21  C   UNL A   1      33.100  20.884  25.536  1.00  0.00     0.206 A 
ATOM     22  C   UNL A   1      34.875  22.400  26.247  1.00  0.00     0.204 A 
ATOM     23  N   UNL A   1      34.029  19.949  25.085  1.00  0.00    -0.315 N 
ATOM     24  C   UNL A   1      35.861  21.463  25.665  1.00  0.00     0.047 A 
ATOM     25  O   UNL A   1      35.239  23.418  26.826  1.00  0.00    -0.288 OA
ATOM     26  C   UNL A   1      33.643  18.571  24.764  1.00  0.00     0.153 C 
ATOM     27  C   UNL A   1      35.416  20.241  25.123  1.00  0.00     0.055 A 
ATOM     28  C   UNL A   1      37.225  21.788  25.728  1.00  0.00     0.014 A 
ATOM     29  C   UNL A   1      36.403  19.360  24.644  1.00  0.00     0.027 A 
ATOM     30  C   UNL A   1      38.177  20.893  25.250  1.00  0.00     0.001 A 
ATOM     31  C   UNL A   1      37.765  19.680  24.711  1.00  0.00     0.002 A 
BRANCH  21  32
ATOM     32  O   UNL A   1      31.772  20.525  25.371  1.00  0.00    -0.494 OA
ATOM     33  H   UNL A   1      31.552  19.770  24.861  1.00  0.00     0.295 HD
ENDBRANCH  21  32
ENDBRANCH  18  20
ENDBRANCH  17  18
ENDBRANCH  13  15
ENDBRANCH   8  13
ENDBRANCH   4   7
ENDBRANCH   2   3
ENDBRANCH   1   2
BRANCH   1  34
ATOM     34  C   UNL A   1      35.821  32.989  28.020  1.00  0.00     0.002 C 
BRANCH  34  35
ATOM     35  C   UNL A   1      35.264  33.519  29.342  1.00  0.00     0.002 C 
BRANCH  35  36
ATOM     36  C   UNL A   1      33.837  34.057  29.320  1.00  0.00     0.021 C 
BRANCH  36  37
ATOM     37  C   UNL A   1      33.671  35.539  29.634  1.00  0.00     0.116 C 
BRANCH  37  38
ATOM     38  N   UNL A   1      32.674  35.812  30.654  1.00  0.00    -0.352 N 
ATOM     39  C   UNL A   1      32.723  35.556  32.007  1.00  0.00     0.251 C 
ATOM     40  H   UNL A   1      31.849  36.240  30.334  1.00  0.00     0.163 HD
ATOM     41  O   UNL A   1      31.757  35.779  32.718  1.00  0.00    -0.269 OA
BRANCH  39  42
ATOM     42  C   UNL A   1      33.948  34.960  32.588  1.00  0.00     0.039 A 
ATOM     43  C   UNL A   1      35.163  35.648  32.568  1.00  0.00     0.014 A 
ATOM     44  C   UNL A   1      33.880  33.669  33.119  1.00  0.00     0.014 A 
ATOM     45  C   UNL A   1      36.336  34.985  32.919  1.00  0.00     0.010 A 
ATOM     46  C   UNL A   1      35.050  33.034  33.546  1.00  0.00     0.010 A 
ATOM     47  C   UNL A   1      36.293  33.669  33.403  1.00  0.00    -0.014 A 
BRANCH  47  48
ATOM     48  C   UNL A   1      37.556  32.965  33.747  1.00  0.00     0.031 A 
ATOM     49  C   UNL A   1      38.146  31.945  32.808  1.00  0.00     0.074 A 
ATOM     50  C   UNL A   1      38.191  33.269  34.893  1.00  0.00     0.049 A 
ATOM     51  N   UNL A   1      39.216  31.205  32.959  1.00  0.00    -0.248 NA
ATOM     52  C   UNL A   1      37.442  31.725  31.536  1.00  0.00     0.031 C 
ATOM     53  C   UNL A   1      37.732  34.251  35.878  1.00  0.00     0.029 A 
ATOM     54  N   UNL A   1      39.361  32.790  35.423  1.00  0.00    -0.354 N 
ATOM     55  C   UNL A   1      39.303  30.421  31.816  1.00  0.00     0.074 A 
ATOM     56  C   UNL A   1      38.163  30.757  30.988  1.00  0.00     0.031 C 
ATOM     57  C   UNL A   1      38.627  34.327  36.873  1.00  0.00     0.029 A 
ATOM     58  C   UNL A   1      39.687  33.355  36.632  1.00  0.00     0.049 A 
ATOM     59  H   UNL A   1      39.915  32.107  34.980  1.00  0.00     0.167 HD
ATOM     60  C   UNL A   1      40.250  29.511  31.481  1.00  0.00     0.037 A 
ATOM     61  C   UNL A   1      40.709  33.098  37.468  1.00  0.00     0.037 A 
ATOM     62  C   UNL A   1      41.393  29.191  32.297  1.00  0.00     0.049 A 
ATOM     63  C   UNL A   1      41.702  32.033  37.107  1.00  0.00     0.074 A 
ATOM     64  C   UNL A   1      42.428  28.311  32.027  1.00  0.00     0.029 A 
ATOM     65  N   UNL A   1      41.648  29.735  33.547  1.00  0.00    -0.354 N 
ATOM     66  N   UNL A   1      41.777  31.308  36.017  1.00  0.00    -0.248 NA
ATOM     67  C   UNL A   1      42.741  31.736  38.102  1.00  0.00     0.031 C 
ATOM     68  C   UNL A   1      43.286  28.292  33.133  1.00  0.00     0.029 A 
ATOM     69  C   UNL A   1      42.806  29.188  34.074  1.00  0.00     0.049 A 
ATOM     70  H   UNL A   1      41.088  30.410  33.993  1.00  0.00     0.167 HD
ATOM     71  C   UNL A   1      42.871  30.473  36.194  1.00  0.00     0.074 A 
ATOM     72  C   UNL A   1      43.446  30.799  37.482  1.00  0.00     0.031 C 
ATOM     73  C   UNL A   1      43.353  29.513  35.366  1.00  0.00     0.037 A 
BRANCH  60  74
ATOM     74  C   UNL A   1      40.081  28.781  30.180  1.00  0.00     0.057 A 
ATOM     75  C   UNL A   1      40.683  29.261  29.010  1.00  0.00     0.134 A 
ATOM     76  C   UNL A   1      39.294  27.628  30.075  1.00  0.00     0.134 A 
ATOM     77  F   UNL A   1      41.445  30.366  29.040  1.00  0.00    -0.206 F 
ATOM     78  C   UNL A   1      40.508  28.620  27.782  1.00  0.00     0.040 A 
ATOM     79  C   UNL A   1      39.129  26.966  28.856  1.00  0.00     0.040 A 
ATOM     80  F   UNL A   1      38.699  27.109  31.160  1.00  0.00    -0.206 F 
ATOM     81  C   UNL A   1      39.733  27.466  27.704  1.00  0.00     0.006 A 
ENDBRANCH  60  74
BRANCH  61  82
ATOM     82  C   UNL A   1      40.823  33.838  38.748  1.00  0.00     0.057 A 
ATOM     83  C   UNL A   1      40.101  33.447  39.882  1.00  0.00     0.134 A 
ATOM     84  C   UNL A   1      41.667  34.947  38.869  1.00  0.00     0.134 A 
ATOM     85  F   UNL A   1      39.275  32.392  39.830  1.00  0.00    -0.206 F 
ATOM     86  C   UNL A   1      40.203  34.141  41.088  1.00  0.00     0.040 A 
ATOM     87  C   UNL A   1      41.797  35.636  40.075  1.00  0.00     0.040 A 
ATOM     88  F   UNL A   1      42.400  35.355  37.822  1.00  0.00    -0.206 F 
ATOM     89  C   UNL A   1      41.058  35.236  41.189  1.00  0.00     0.006 A 
ENDBRANCH  61  82
BRANCH  73  90
ATOM     90  C   UNL A   1      44.558  28.757  35.838  1.00  0.00     0.057 A 
ATOM     91  C   UNL A   1      44.421  27.581  36.586  1.00  0.00     0.134 A 
ATOM     92  C   UNL A   1      45.856  29.201  35.556  1.00  0.00     0.134 A 
ATOM     93  F   UNL A   1      43.205  27.105  36.893  1.00  0.00    -0.206 F 
ATOM     94  C   UNL A   1      45.535  26.874  37.039  1.00  0.00     0.040 A 
ATOM     95  C   UNL A   1      46.978  28.490  35.983  1.00  0.00     0.040 A 
ATOM     96  F   UNL A   1      46.051  30.310  34.826  1.00  0.00    -0.206 F 
ATOM     97  C   UNL A   1      46.818  27.325  36.732  1.00  0.00     0.006 A 
ENDBRANCH  73  90
ENDBRANCH  47  48
ENDBRANCH  39  42
ENDBRANCH  37  38
ENDBRANCH  36  37
ENDBRANCH  35  36
ENDBRANCH  34  35
ENDBRANCH   1  34
TORSDOF 18
ENDMDL
MODEL 3
REMARK VINA RESULT:     -11.6      5.785     11.726
REMARK SMILES C/C(=C\C(=O)c1c(O)n(C)c2ccccc2c1=O)Nc1ccc(C(=O)NCCCCCCNC(=O)c2ccc(-c3c4nc(c(-c5c(F)cccc5F)c5ccc([nH]5)c(-c5c(F)cccc5F)c5nc(c(-c6c(F)cccc6F)c6ccc3[nH]6)C=C5)C=C4)cc2)cc1
REMARK SMILES IDX 28 1 27 2 26 3 24 4 25 5 23 7 20 8 21 9 91 10 22 11 90 12
REMARK SMILES IDX 19 13 2 15 1 16 3 17 4 18 5 19 6 20 7 21 17 22 9 23 16 24
REMARK SMILES IDX 18 25 10 26 11 27 15 28 12 29 14 30 13 31 8 32 29 34 30 35
REMARK SMILES IDX 31 36 32 37 33 38 34 39 35 41 36 42 37 43 89 44 38 45 88 46
REMARK SMILES IDX 39 47 40 48 41 49 82 50 42 51 87 52 81 53 83 54 43 55 86 56
REMARK SMILES IDX 80 57 79 58 44 60 70 61 53 62 69 63 54 64 57 65 68 66 84 67
REMARK SMILES IDX 55 68 56 69 67 71 85 72 58 73 45 74 46 75 51 76 47 77 48 78
REMARK SMILES IDX 50 79 52 80 49 81 71 82 72 83 77 84 73 85 74 86 76 87 78 88
REMARK SMILES IDX 75 89 59 90 60 91 65 92 61 93 62 94 64 95 66 96 63 97
REMARK H PARENT 26 6 19 14 8 33 33 40 83 59 57 70
REMARK Flexibility Score: inf
ROOT
ATOM      1  C   UNL A   1      32.101  27.643  25.369  1.00  0.00     0.021 C 
ENDROOT
BRANCH   1   2
ATOM      2  C   UNL A   1      31.891  26.440  26.284  1.00  0.00     0.116 C 
BRANCH   2   3
ATOM      3  N   UNL A   1      31.324  25.287  25.625  1.00  0.00    -0.352 N 
ATOM      4  C   UNL A   1      31.845  24.049  25.345  1.00  0.00     0.251 C 
ATOM      5  O   UNL A   1      31.096  23.237  24.798  1.00  0.00    -0.269 OA
ATOM      6  H   UNL A   1      30.395  25.412  25.324  1.00  0.00     0.163 HD
BRANCH   4   7
ATOM      7  C   UNL A   1      33.266  23.672  25.595  1.00  0.00     0.039 A 
ATOM      8  C   UNL A   1      36.053  23.318  26.070  1.00  0.00     0.038 A 
ATOM      9  C   UNL A   1      35.590  24.104  25.016  1.00  0.00     0.027 A 
ATOM     10  C   UNL A   1      35.091  22.600  26.795  1.00  0.00     0.027 A 
ATOM     11  C   UNL A   1      34.223  24.302  24.795  1.00  0.00     0.016 A 
ATOM     12  C   UNL A   1      33.716  22.747  26.539  1.00  0.00     0.016 A 
BRANCH   8  13
ATOM     13  N   UNL A   1      37.396  23.300  26.510  1.00  0.00    -0.359 N 
ATOM     14  H   UNL A   1      37.633  23.985  27.176  1.00  0.00     0.166 HD
BRANCH  13  15
ATOM     15  C   UNL A   1      38.442  22.439  26.130  1.00  0.00     0.016 C 
ATOM     16  C   UNL A   1      38.149  21.408  25.068  1.00  0.00     0.064 C 
ATOM     17  C   UNL A   1      39.665  22.589  26.696  1.00  0.00     0.074 C 
BRANCH  17  18
ATOM     18  C   UNL A   1      41.018  21.989  26.419  1.00  0.00     0.196 C 
ATOM     19  O   UNL A   1      41.100  20.785  26.183  1.00  0.00    -0.289 OA
BRANCH  18  20
ATOM     20  C   UNL A   1      42.233  22.796  26.627  1.00  0.00     0.130 A 
ATOM     21  C   UNL A   1      43.083  23.003  25.602  1.00  0.00     0.206 A 
ATOM     22  C   UNL A   1      42.622  23.230  27.987  1.00  0.00     0.204 A 
ATOM     23  N   UNL A   1      44.381  23.478  25.771  1.00  0.00    -0.315 N 
ATOM     24  C   UNL A   1      43.958  23.844  28.152  1.00  0.00     0.047 A 
ATOM     25  O   UNL A   1      41.892  23.042  28.954  1.00  0.00    -0.288 OA
ATOM     26  C   UNL A   1      45.397  23.338  24.722  1.00  0.00     0.153 C 
ATOM     27  C   UNL A   1      44.821  23.926  27.042  1.00  0.00     0.055 A 
ATOM     28  C   UNL A   1      44.356  24.268  29.429  1.00  0.00     0.014 A 
ATOM     29  C   UNL A   1      46.104  24.458  27.272  1.00  0.00     0.027 A 
ATOM     30  C   UNL A   1      45.633  24.786  29.624  1.00  0.00     0.001 A 
ATOM     31  C   UNL A   1      46.505  24.878  28.546  1.00  0.00     0.002 A 
BRANCH  21  32
ATOM     32  O   UNL A   1      42.738  22.675  24.301  1.00  0.00    -0.494 OA
ATOM     33  H   UNL A   1      41.848  22.472  24.090  1.00  0.00     0.295 HD
ENDBRANCH  21  32
ENDBRANCH  18  20
ENDBRANCH  17  18
ENDBRANCH  13  15
ENDBRANCH   8  13
ENDBRANCH   4   7
ENDBRANCH   2   3
ENDBRANCH   1   2
BRANCH   1  34
ATOM     34  C   UNL A   1      32.730  28.900  25.980  1.00  0.00     0.002 C 
BRANCH  34  35
ATOM     35  C   UNL A   1      31.863  29.737  26.922  1.00  0.00     0.002 C 
BRANCH  35  36
ATOM     36  C   UNL A   1      31.755  31.227  26.613  1.00  0.00     0.021 C 
BRANCH  36  37
ATOM     37  C   UNL A   1      32.931  32.092  27.048  1.00  0.00     0.116 C 
BRANCH  37  38
ATOM     38  N   UNL A   1      32.558  33.448  27.409  1.00  0.00    -0.352 N 
ATOM     39  C   UNL A   1      33.116  34.280  28.356  1.00  0.00     0.251 C 
ATOM     40  H   UNL A   1      31.800  33.826  26.908  1.00  0.00     0.163 HD
ATOM     41  O   UNL A   1      32.626  35.371  28.591  1.00  0.00    -0.269 OA
BRANCH  39  42
ATOM     42  C   UNL A   1      34.294  33.815  29.125  1.00  0.00     0.039 A 
ATOM     43  C   UNL A   1      35.587  34.197  28.761  1.00  0.00     0.014 A 
ATOM     44  C   UNL A   1      34.094  32.944  30.198  1.00  0.00     0.014 A 
ATOM     45  C   UNL A   1      36.681  33.579  29.358  1.00  0.00     0.010 A 
ATOM     46  C   UNL A   1      35.197  32.385  30.851  1.00  0.00     0.010 A 
ATOM     47  C   UNL A   1      36.499  32.660  30.403  1.00  0.00    -0.014 A 
BRANCH  47  48
ATOM     48  C   UNL A   1      37.675  31.986  31.011  1.00  0.00     0.031 A 
ATOM     49  C   UNL A   1      38.458  30.960  30.236  1.00  0.00     0.074 A 
ATOM     50  C   UNL A   1      38.059  32.324  32.256  1.00  0.00     0.049 A 
ATOM     51  N   UNL A   1      39.486  30.243  30.617  1.00  0.00    -0.248 NA
ATOM     52  C   UNL A   1      38.031  30.703  28.852  1.00  0.00     0.031 C 
ATOM     53  C   UNL A   1      37.396  33.317  33.104  1.00  0.00     0.029 A 
ATOM     54  N   UNL A   1      39.104  31.878  33.023  1.00  0.00    -0.354 N 
ATOM     55  C   UNL A   1      39.815  29.439  29.533  1.00  0.00     0.074 A 
ATOM     56  C   UNL A   1      38.863  29.738  28.484  1.00  0.00     0.031 C 
ATOM     57  C   UNL A   1      38.069  33.429  34.258  1.00  0.00     0.029 A 
ATOM     58  C   UNL A   1      39.169  32.472  34.259  1.00  0.00     0.049 A 
ATOM     59  H   UNL A   1      39.747  31.197  32.717  1.00  0.00     0.167 HD
ATOM     60  C   UNL A   1      40.824  28.541  29.419  1.00  0.00     0.037 A 
ATOM     61  C   UNL A   1      40.004  32.249  35.292  1.00  0.00     0.037 A 
ATOM     62  C   UNL A   1      41.782  28.258  30.457  1.00  0.00     0.049 A 
ATOM     63  C   UNL A   1      41.065  31.197  35.164  1.00  0.00     0.074 A 
ATOM     64  C   UNL A   1      42.862  27.392  30.422  1.00  0.00     0.029 A 
ATOM     65  N   UNL A   1      41.769  28.830  31.719  1.00  0.00    -0.354 N 
ATOM     66  N   UNL A   1      41.370  30.453  34.129  1.00  0.00    -0.248 NA
ATOM     67  C   UNL A   1      41.884  30.938  36.356  1.00  0.00     0.031 C 
ATOM     68  C   UNL A   1      43.477  27.411  31.679  1.00  0.00     0.029 A 
ATOM     69  C   UNL A   1      42.803  28.315  32.483  1.00  0.00     0.049 A 
ATOM     70  H   UNL A   1      41.120  29.504  32.028  1.00  0.00     0.167 HD
ATOM     71  C   UNL A   1      42.417  29.641  34.542  1.00  0.00     0.074 A 
ATOM     72  C   UNL A   1      42.713  30.003  35.913  1.00  0.00     0.031 C 
ATOM     73  C   UNL A   1      43.071  28.675  33.851  1.00  0.00     0.037 A 
BRANCH  60  74
ATOM     74  C   UNL A   1      40.934  27.783  28.127  1.00  0.00     0.057 A 
ATOM     75  C   UNL A   1      40.245  26.577  27.948  1.00  0.00     0.134 A 
ATOM     76  C   UNL A   1      41.748  28.224  27.077  1.00  0.00     0.134 A 
ATOM     77  F   UNL A   1      39.453  26.094  28.917  1.00  0.00    -0.206 F 
ATOM     78  C   UNL A   1      40.363  25.836  26.770  1.00  0.00     0.040 A 
ATOM     79  C   UNL A   1      41.858  27.503  25.886  1.00  0.00     0.040 A 
ATOM     80  F   UNL A   1      42.425  29.379  27.180  1.00  0.00    -0.206 F 
ATOM     81  C   UNL A   1      41.168  26.302  25.733  1.00  0.00     0.006 A 
ENDBRANCH  60  74
BRANCH  61  82
ATOM     82  C   UNL A   1      39.844  33.016  36.551  1.00  0.00     0.057 A 
ATOM     83  C   UNL A   1      40.601  34.167  36.804  1.00  0.00     0.134 A 
ATOM     84  C   UNL A   1      38.922  32.622  37.526  1.00  0.00     0.134 A 
ATOM     85  F   UNL A   1      41.502  34.596  35.908  1.00  0.00    -0.206 F 
ATOM     86  C   UNL A   1      40.457  34.891  37.987  1.00  0.00     0.040 A 
ATOM     87  C   UNL A   1      38.749  33.350  38.703  1.00  0.00     0.040 A 
ATOM     88  F   UNL A   1      38.154  31.540  37.330  1.00  0.00    -0.206 F 
ATOM     89  C   UNL A   1      39.523  34.486  38.939  1.00  0.00     0.006 A 
ENDBRANCH  61  82
BRANCH  73  90
ATOM     90  C   UNL A   1      44.165  27.951  34.575  1.00  0.00     0.057 A 
ATOM     91  C   UNL A   1      43.912  26.747  35.243  1.00  0.00     0.134 A 
ATOM     92  C   UNL A   1      45.472  28.454  34.615  1.00  0.00     0.134 A 
ATOM     93  F   UNL A   1      42.680  26.215  35.245  1.00  0.00    -0.206 F 
ATOM     94  C   UNL A   1      44.920  26.069  35.929  1.00  0.00     0.040 A 
ATOM     95  C   UNL A   1      46.495  27.773  35.277  1.00  0.00     0.040 A 
ATOM     96  F   UNL A   1      45.782  29.593  33.977  1.00  0.00    -0.206 F 
ATOM     97  C   UNL A   1      46.217  26.579  35.941  1.00  0.00     0.006 A 
ENDBRANCH  73  90
ENDBRANCH  47  48
ENDBRANCH  39  42
ENDBRANCH  37  38
ENDBRANCH  36  37
ENDBRANCH  35  36
ENDBRANCH  34  35
ENDBRANCH   1  34
TORSDOF 18
ENDMDL
