MODEL 1
REMARK VINA RESULT:     -11.6      0.000      0.000
REMARK SMILES Cc1cccc(C)c1OCC(=O)N1CCC[C@@H](C(=O)NCCCCCCNC(=O)c2ccc(-c3c4nc(c(-c5c(F)cccc5F)c5ccc([nH]5)c(-c5c(F)cccc5F)c5nc(c(-c6c(F)cccc6F)c6ccc3[nH]6)C=C5)C=C4)cc2)C1
REMARK SMILES IDX 22 1 21 2 20 3 18 4 19 5 17 7 13 8 14 9 84 10 15 11 16 12
REMARK SMILES IDX 11 13 12 14 10 15 9 16 8 17 1 18 2 19 3 20 4 21 6 22 5 23
REMARK SMILES IDX 7 24 23 25 24 26 25 27 26 28 27 29 28 30 29 32 30 33 31 34
REMARK SMILES IDX 83 35 32 36 82 37 33 38 34 39 35 40 76 41 36 42 81 43 75 44
REMARK SMILES IDX 77 45 37 46 80 47 74 48 73 49 38 51 64 52 47 53 63 54 48 55
REMARK SMILES IDX 51 56 62 57 78 58 49 59 50 60 61 62 79 63 52 64 39 65 40 66
REMARK SMILES IDX 45 67 41 68 42 69 44 70 46 71 43 72 65 73 66 74 71 75 67 76
REMARK SMILES IDX 68 77 70 78 72 79 69 80 53 81 54 82 59 83 55 84 56 85 58 86
REMARK SMILES IDX 60 87 57 88
REMARK H PARENT 20 6 27 31 77 50 51 61
REMARK Flexibility Score: inf
ROOT
ATOM      1  C   UNL A   1      31.972  29.169  27.518  1.00  0.00     0.021 C 
ENDROOT
BRANCH   1   2
ATOM      2  C   UNL A   1      32.412  27.709  27.443  1.00  0.00     0.116 C 
BRANCH   2   3
ATOM      3  N   UNL A   1      31.274  26.828  27.251  1.00  0.00    -0.356 N 
ATOM      4  C   UNL A   1      30.658  26.410  26.114  1.00  0.00     0.224 C 
ATOM      5  O   UNL A   1      29.668  25.685  26.219  1.00  0.00    -0.275 OA
ATOM      6  H   UNL A   1      30.883  26.474  28.083  1.00  0.00     0.163 HD
BRANCH   4   7
ATOM      7  C   UNL A   1      31.189  26.832  24.763  1.00  0.00     0.098 C 
ATOM      8  N   UNL A   1      31.898  25.980  22.588  1.00  0.00    -0.339 N 
ATOM      9  C   UNL A   1      31.051  26.923  21.854  1.00  0.00     0.119 C 
ATOM     10  C   UNL A   1      31.364  25.585  23.892  1.00  0.00     0.133 C 
ATOM     11  C   UNL A   1      30.746  28.172  22.685  1.00  0.00     0.022 C 
ATOM     12  C   UNL A   1      30.229  27.814  24.081  1.00  0.00     0.017 C 
BRANCH   8  13
ATOM     13  C   UNL A   1      33.098  25.564  22.033  1.00  0.00     0.260 C 
ATOM     14  O   UNL A   1      33.278  25.576  20.810  1.00  0.00    -0.271 OA
BRANCH  13  15
ATOM     15  C   UNL A   1      34.206  24.973  22.933  1.00  0.00     0.329 C 
BRANCH  15  16
ATOM     16  O   UNL A   1      34.765  23.701  22.747  1.00  0.00    -0.483 OA
BRANCH  16  17
ATOM     17  C   UNL A   1      34.480  22.579  23.463  1.00  0.00     0.125 A 
ATOM     18  C   UNL A   1      32.028  22.129  22.761  1.00  0.00     0.048 C 
ATOM     19  C   UNL A   1      33.298  21.821  23.501  1.00  0.00    -0.009 A 
ATOM     20  C   UNL A   1      33.278  20.643  24.282  1.00  0.00     0.007 A 
ATOM     21  C   UNL A   1      34.374  20.240  25.039  1.00  0.00     0.001 A 
ATOM     22  C   UNL A   1      35.590  22.171  24.251  1.00  0.00    -0.009 A 
ATOM     23  C   UNL A   1      35.526  21.010  25.034  1.00  0.00     0.007 A 
ATOM     24  C   UNL A   1      36.860  22.988  24.277  1.00  0.00     0.048 C 
ENDBRANCH  16  17
ENDBRANCH  15  16
ENDBRANCH  13  15
ENDBRANCH   8  13
ENDBRANCH   4   7
ENDBRANCH   2   3
ENDBRANCH   1   2
BRANCH   1  25
ATOM     25  C   UNL A   1      32.457  30.034  26.348  1.00  0.00     0.002 C 
BRANCH  25  26
ATOM     26  C   UNL A   1      31.402  30.972  25.750  1.00  0.00     0.002 C 
BRANCH  26  27
ATOM     27  C   UNL A   1      31.166  32.263  26.536  1.00  0.00     0.021 C 
BRANCH  27  28
ATOM     28  C   UNL A   1      32.400  32.807  27.247  1.00  0.00     0.116 C 
BRANCH  28  29
ATOM     29  N   UNL A   1      32.245  34.203  27.626  1.00  0.00    -0.352 N 
ATOM     30  C   UNL A   1      32.918  34.928  28.578  1.00  0.00     0.251 C 
ATOM     31  H   UNL A   1      31.557  34.701  27.127  1.00  0.00     0.163 HD
ATOM     32  O   UNL A   1      32.528  36.044  28.895  1.00  0.00    -0.269 OA
BRANCH  30  33
ATOM     33  C   UNL A   1      34.105  34.344  29.240  1.00  0.00     0.039 A 
ATOM     34  C   UNL A   1      33.929  33.602  30.409  1.00  0.00     0.014 A 
ATOM     35  C   UNL A   1      35.385  34.530  28.709  1.00  0.00     0.014 A 
ATOM     36  C   UNL A   1      35.031  32.994  31.014  1.00  0.00     0.010 A 
ATOM     37  C   UNL A   1      36.469  33.859  29.267  1.00  0.00     0.010 A 
ATOM     38  C   UNL A   1      36.305  33.088  30.428  1.00  0.00    -0.014 A 
BRANCH  38  39
ATOM     39  C   UNL A   1      37.474  32.384  31.014  1.00  0.00     0.031 A 
ATOM     40  C   UNL A   1      38.100  32.883  32.286  1.00  0.00     0.074 A 
ATOM     41  C   UNL A   1      38.009  31.330  30.368  1.00  0.00     0.049 A 
ATOM     42  N   UNL A   1      39.155  32.439  32.919  1.00  0.00    -0.248 NA
ATOM     43  C   UNL A   1      37.472  34.056  32.916  1.00  0.00     0.031 C 
ATOM     44  C   UNL A   1      37.522  30.775  29.105  1.00  0.00     0.029 A 
ATOM     45  N   UNL A   1      39.088  30.542  30.682  1.00  0.00    -0.354 N 
ATOM     46  C   UNL A   1      39.322  33.279  34.012  1.00  0.00     0.074 A 
ATOM     47  C   UNL A   1      38.299  34.297  33.922  1.00  0.00     0.031 C 
ATOM     48  C   UNL A   1      38.280  29.720  28.767  1.00  0.00     0.029 A 
ATOM     49  C   UNL A   1      39.331  29.549  29.764  1.00  0.00     0.049 A 
ATOM     50  H   UNL A   1      39.636  30.675  31.490  1.00  0.00     0.167 HD
ATOM     51  C   UNL A   1      40.230  33.197  35.015  1.00  0.00     0.037 A 
ATOM     52  C   UNL A   1      40.296  28.612  29.726  1.00  0.00     0.037 A 
ATOM     53  C   UNL A   1      41.241  32.175  35.108  1.00  0.00     0.049 A 
ATOM     54  C   UNL A   1      41.312  28.558  30.834  1.00  0.00     0.074 A 
ATOM     55  C   UNL A   1      42.173  31.972  36.109  1.00  0.00     0.029 A 
ATOM     56  N   UNL A   1      41.457  31.188  34.156  1.00  0.00    -0.354 N 
ATOM     57  N   UNL A   1      41.416  29.316  31.899  1.00  0.00    -0.248 NA
ATOM     58  C   UNL A   1      42.341  27.514  30.738  1.00  0.00     0.031 C 
ATOM     59  C   UNL A   1      42.990  30.900  35.737  1.00  0.00     0.029 A 
ATOM     60  C   UNL A   1      42.527  30.394  34.533  1.00  0.00     0.049 A 
ATOM     61  H   UNL A   1      40.927  31.069  33.335  1.00  0.00     0.167 HD
ATOM     62  C   UNL A   1      42.501  28.824  32.613  1.00  0.00     0.074 A 
ATOM     63  C   UNL A   1      43.013  27.693  31.867  1.00  0.00     0.031 C 
ATOM     64  C   UNL A   1      43.026  29.268  33.782  1.00  0.00     0.037 A 
BRANCH  51  65
ATOM     65  C   UNL A   1      40.171  34.248  36.088  1.00  0.00     0.057 A 
ATOM     66  C   UNL A   1      40.904  35.439  35.999  1.00  0.00     0.134 A 
ATOM     67  C   UNL A   1      39.357  34.075  37.215  1.00  0.00     0.134 A 
ATOM     68  F   UNL A   1      41.711  35.665  34.952  1.00  0.00    -0.206 F 
ATOM     69  C   UNL A   1      40.861  36.402  37.009  1.00  0.00     0.040 A 
ATOM     70  C   UNL A   1      39.280  35.046  38.216  1.00  0.00     0.040 A 
ATOM     71  F   UNL A   1      38.621  32.964  37.362  1.00  0.00    -0.206 F 
ATOM     72  C   UNL A   1      40.041  36.209  38.119  1.00  0.00     0.006 A 
ENDBRANCH  51  65
BRANCH  52  73
ATOM     73  C   UNL A   1      40.335  27.631  28.612  1.00  0.00     0.057 A 
ATOM     74  C   UNL A   1      39.622  26.429  28.684  1.00  0.00     0.134 A 
ATOM     75  C   UNL A   1      41.080  27.870  27.450  1.00  0.00     0.134 A 
ATOM     76  F   UNL A   1      38.904  26.136  29.778  1.00  0.00    -0.206 F 
ATOM     77  C   UNL A   1      39.663  25.490  27.652  1.00  0.00     0.040 A 
ATOM     78  C   UNL A   1      41.108  26.952  26.399  1.00  0.00     0.040 A 
ATOM     79  F   UNL A   1      41.778  29.007  27.315  1.00  0.00    -0.206 F 
ATOM     80  C   UNL A   1      40.403  25.755  26.502  1.00  0.00     0.006 A 
ENDBRANCH  52  73
BRANCH  64  81
ATOM     81  C   UNL A   1      44.192  28.508  34.346  1.00  0.00     0.057 A 
ATOM     82  C   UNL A   1      45.518  28.875  34.081  1.00  0.00     0.134 A 
ATOM     83  C   UNL A   1      43.983  27.415  35.198  1.00  0.00     0.134 A 
ATOM     84  F   UNL A   1      45.788  29.903  33.262  1.00  0.00    -0.206 F 
ATOM     85  C   UNL A   1      46.593  28.167  34.622  1.00  0.00     0.040 A 
ATOM     86  C   UNL A   1      45.049  26.719  35.770  1.00  0.00     0.040 A 
ATOM     87  F   UNL A   1      42.740  27.015  35.502  1.00  0.00    -0.206 F 
ATOM     88  C   UNL A   1      46.359  27.091  35.476  1.00  0.00     0.006 A 
ENDBRANCH  64  81
ENDBRANCH  38  39
ENDBRANCH  30  33
ENDBRANCH  28  29
ENDBRANCH  27  28
ENDBRANCH  26  27
ENDBRANCH  25  26
ENDBRANCH   1  25
TORSDOF 17
ENDMDL
MODEL 2
REMARK VINA RESULT:     -11.5      0.982      6.106
REMARK SMILES Cc1cccc(C)c1OCC(=O)N1CCC[C@@H](C(=O)NCCCCCCNC(=O)c2ccc(-c3c4nc(c(-c5c(F)cccc5F)c5ccc([nH]5)c(-c5c(F)cccc5F)c5nc(c(-c6c(F)cccc6F)c6ccc3[nH]6)C=C5)C=C4)cc2)C1
REMARK SMILES IDX 22 1 21 2 20 3 18 4 19 5 17 7 13 8 14 9 84 10 15 11 16 12
REMARK SMILES IDX 11 13 12 14 10 15 9 16 8 17 1 18 2 19 3 20 4 21 6 22 5 23
REMARK SMILES IDX 7 24 23 25 24 26 25 27 26 28 27 29 28 30 29 32 30 33 31 34
REMARK SMILES IDX 83 35 32 36 82 37 33 38 34 39 35 40 76 41 36 42 81 43 75 44
REMARK SMILES IDX 77 45 37 46 80 47 74 48 73 49 38 51 64 52 47 53 63 54 48 55
REMARK SMILES IDX 51 56 62 57 78 58 49 59 50 60 61 62 79 63 52 64 39 65 40 66
REMARK SMILES IDX 45 67 41 68 42 69 44 70 46 71 43 72 65 73 66 74 71 75 67 76
REMARK SMILES IDX 68 77 70 78 72 79 69 80 53 81 54 82 59 83 55 84 56 85 58 86
REMARK SMILES IDX 60 87 57 88
REMARK H PARENT 20 6 27 31 77 50 51 61
REMARK Flexibility Score: inf
ROOT
ATOM      1  C   UNL A   1      31.781  29.202  27.226  1.00  0.00     0.021 C 
ENDROOT
BRANCH   1   2
ATOM      2  C   UNL A   1      32.383  27.799  27.281  1.00  0.00     0.116 C 
BRANCH   2   3
ATOM      3  N   UNL A   1      31.349  26.782  27.213  1.00  0.00    -0.356 N 
ATOM      4  C   UNL A   1      30.792  26.155  26.145  1.00  0.00     0.224 C 
ATOM      5  O   UNL A   1      29.885  25.346  26.350  1.00  0.00    -0.275 OA
ATOM      6  H   UNL A   1      30.993  26.500  28.087  1.00  0.00     0.163 HD
BRANCH   4   7
ATOM      7  C   UNL A   1      31.284  26.452  24.746  1.00  0.00     0.098 C 
ATOM      8  N   UNL A   1      31.809  25.419  22.597  1.00  0.00    -0.339 N 
ATOM      9  C   UNL A   1      31.004  26.385  21.847  1.00  0.00     0.119 C 
ATOM     10  C   UNL A   1      31.313  25.146  23.948  1.00  0.00     0.133 C 
ATOM     11  C   UNL A   1      30.842  27.700  22.612  1.00  0.00     0.022 C 
ATOM     12  C   UNL A   1      30.372  27.469  24.050  1.00  0.00     0.017 C 
BRANCH   8  13
ATOM     13  C   UNL A   1      32.942  24.873  22.014  1.00  0.00     0.260 C 
ATOM     14  O   UNL A   1      33.656  25.537  21.254  1.00  0.00    -0.271 OA
BRANCH  13  15
ATOM     15  C   UNL A   1      33.279  23.379  22.221  1.00  0.00     0.329 C 
BRANCH  15  16
ATOM     16  O   UNL A   1      34.209  22.914  23.161  1.00  0.00    -0.483 OA
BRANCH  16  17
ATOM     17  C   UNL A   1      33.927  22.375  24.379  1.00  0.00     0.125 A 
ATOM     18  C   UNL A   1      32.596  20.257  23.712  1.00  0.00     0.048 C 
ATOM     19  C   UNL A   1      33.237  21.194  24.695  1.00  0.00    -0.009 A 
ATOM     20  C   UNL A   1      33.138  20.814  26.054  1.00  0.00     0.007 A 
ATOM     21  C   UNL A   1      33.667  21.593  27.078  1.00  0.00     0.001 A 
ATOM     22  C   UNL A   1      34.450  23.174  25.432  1.00  0.00    -0.009 A 
ATOM     23  C   UNL A   1      34.311  22.780  26.770  1.00  0.00     0.007 A 
ATOM     24  C   UNL A   1      35.153  24.477  25.136  1.00  0.00     0.048 C 
ENDBRANCH  16  17
ENDBRANCH  15  16
ENDBRANCH  13  15
ENDBRANCH   8  13
ENDBRANCH   4   7
ENDBRANCH   2   3
ENDBRANCH   1   2
BRANCH   1  25
ATOM     25  C   UNL A   1      32.156  30.000  25.972  1.00  0.00     0.002 C 
BRANCH  25  26
ATOM     26  C   UNL A   1      31.070  30.953  25.459  1.00  0.00     0.002 C 
BRANCH  26  27
ATOM     27  C   UNL A   1      31.026  32.316  26.154  1.00  0.00     0.021 C 
BRANCH  27  28
ATOM     28  C   UNL A   1      32.257  32.639  26.993  1.00  0.00     0.116 C 
BRANCH  28  29
ATOM     29  N   UNL A   1      32.271  34.023  27.439  1.00  0.00    -0.352 N 
ATOM     30  C   UNL A   1      33.072  34.631  28.374  1.00  0.00     0.251 C 
ATOM     31  H   UNL A   1      31.609  34.611  27.007  1.00  0.00     0.163 HD
ATOM     32  O   UNL A   1      32.819  35.764  28.762  1.00  0.00    -0.269 OA
BRANCH  30  33
ATOM     33  C   UNL A   1      34.231  33.900  28.932  1.00  0.00     0.039 A 
ATOM     34  C   UNL A   1      35.510  34.430  28.754  1.00  0.00     0.014 A 
ATOM     35  C   UNL A   1      34.055  32.699  29.624  1.00  0.00     0.014 A 
ATOM     36  C   UNL A   1      36.610  33.786  29.326  1.00  0.00     0.010 A 
ATOM     37  C   UNL A   1      35.140  32.102  30.259  1.00  0.00     0.010 A 
ATOM     38  C   UNL A   1      36.430  32.636  30.113  1.00  0.00    -0.014 A 
BRANCH  38  39
ATOM     39  C   UNL A   1      37.577  31.982  30.792  1.00  0.00     0.031 A 
ATOM     40  C   UNL A   1      38.376  30.926  30.081  1.00  0.00     0.074 A 
ATOM     41  C   UNL A   1      37.862  32.296  32.070  1.00  0.00     0.049 A 
ATOM     42  N   UNL A   1      39.374  30.204  30.524  1.00  0.00    -0.248 NA
ATOM     43  C   UNL A   1      37.984  30.620  28.695  1.00  0.00     0.031 C 
ATOM     44  C   UNL A   1      37.136  33.272  32.884  1.00  0.00     0.029 A 
ATOM     45  N   UNL A   1      38.835  31.820  32.912  1.00  0.00    -0.354 N 
ATOM     46  C   UNL A   1      39.722  29.357  29.480  1.00  0.00     0.074 A 
ATOM     47  C   UNL A   1      38.789  29.610  28.404  1.00  0.00     0.031 C 
ATOM     48  C   UNL A   1      37.706  33.344  34.097  1.00  0.00     0.029 A 
ATOM     49  C   UNL A   1      38.809  32.391  34.162  1.00  0.00     0.049 A 
ATOM     50  H   UNL A   1      39.491  31.135  32.646  1.00  0.00     0.167 HD
ATOM     51  C   UNL A   1      40.741  28.467  29.413  1.00  0.00     0.037 A 
ATOM     52  C   UNL A   1      39.582  32.166  35.241  1.00  0.00     0.037 A 
ATOM     53  C   UNL A   1      41.674  28.226  30.483  1.00  0.00     0.049 A 
ATOM     54  C   UNL A   1      40.688  31.151  35.155  1.00  0.00     0.074 A 
ATOM     55  C   UNL A   1      42.772  27.384  30.497  1.00  0.00     0.029 A 
ATOM     56  N   UNL A   1      41.612  28.821  31.735  1.00  0.00    -0.354 N 
ATOM     57  N   UNL A   1      41.049  30.407  34.137  1.00  0.00    -0.248 NA
ATOM     58  C   UNL A   1      41.497  30.949  36.364  1.00  0.00     0.031 C 
ATOM     59  C   UNL A   1      43.341  27.427  31.774  1.00  0.00     0.029 A 
ATOM     60  C   UNL A   1      42.635  28.342  32.538  1.00  0.00     0.049 A 
ATOM     61  H   UNL A   1      40.942  29.487  32.012  1.00  0.00     0.167 HD
ATOM     62  C   UNL A   1      42.144  29.671  34.574  1.00  0.00     0.074 A 
ATOM     63  C   UNL A   1      42.395  30.070  35.943  1.00  0.00     0.031 C 
ATOM     64  C   UNL A   1      42.876  28.749  33.900  1.00  0.00     0.037 A 
BRANCH  51  65
ATOM     65  C   UNL A   1      40.891  27.684  28.139  1.00  0.00     0.057 A 
ATOM     66  C   UNL A   1      41.681  28.142  27.075  1.00  0.00     0.134 A 
ATOM     67  C   UNL A   1      40.252  26.448  27.979  1.00  0.00     0.134 A 
ATOM     68  F   UNL A   1      42.313  29.323  27.157  1.00  0.00    -0.206 F 
ATOM     69  C   UNL A   1      41.799  27.420  25.887  1.00  0.00     0.040 A 
ATOM     70  C   UNL A   1      40.389  25.700  26.808  1.00  0.00     0.040 A 
ATOM     71  F   UNL A   1      39.487  25.943  28.959  1.00  0.00    -0.206 F 
ATOM     72  C   UNL A   1      41.156  26.191  25.753  1.00  0.00     0.006 A 
ENDBRANCH  51  65
BRANCH  52  73
ATOM     73  C   UNL A   1      39.352  32.934  36.491  1.00  0.00     0.057 A 
ATOM     74  C   UNL A   1      38.456  32.477  37.465  1.00  0.00     0.134 A 
ATOM     75  C   UNL A   1      40.020  34.138  36.745  1.00  0.00     0.134 A 
ATOM     76  F   UNL A   1      37.774  31.338  37.271  1.00  0.00    -0.206 F 
ATOM     77  C   UNL A   1      38.217  33.196  38.636  1.00  0.00     0.040 A 
ATOM     78  C   UNL A   1      39.811  34.855  37.925  1.00  0.00     0.040 A 
ATOM     79  F   UNL A   1      40.898  34.627  35.857  1.00  0.00    -0.206 F 
ATOM     80  C   UNL A   1      38.902  34.387  38.871  1.00  0.00     0.006 A 
ENDBRANCH  52  73
BRANCH  64  81
ATOM     81  C   UNL A   1      44.041  28.134  34.622  1.00  0.00     0.057 A 
ATOM     82  C   UNL A   1      43.925  26.932  35.332  1.00  0.00     0.134 A 
ATOM     83  C   UNL A   1      45.306  28.735  34.572  1.00  0.00     0.134 A 
ATOM     84  F   UNL A   1      42.739  26.312  35.431  1.00  0.00    -0.206 F 
ATOM     85  C   UNL A   1      45.020  26.364  35.989  1.00  0.00     0.040 A 
ATOM     86  C   UNL A   1      46.414  28.161  35.197  1.00  0.00     0.040 A 
ATOM     87  F   UNL A   1      45.490  29.882  33.901  1.00  0.00    -0.206 F 
ATOM     88  C   UNL A   1      46.270  26.975  35.914  1.00  0.00     0.006 A 
ENDBRANCH  64  81
ENDBRANCH  38  39
ENDBRANCH  30  33
ENDBRANCH  28  29
ENDBRANCH  27  28
ENDBRANCH  26  27
ENDBRANCH  25  26
ENDBRANCH   1  25
TORSDOF 17
ENDMDL
MODEL 3
REMARK VINA RESULT:     -11.3      1.587      2.145
REMARK SMILES Cc1cccc(C)c1OCC(=O)N1CCC[C@@H](C(=O)NCCCCCCNC(=O)c2ccc(-c3c4nc(c(-c5c(F)cccc5F)c5ccc([nH]5)c(-c5c(F)cccc5F)c5nc(c(-c6c(F)cccc6F)c6ccc3[nH]6)C=C5)C=C4)cc2)C1
REMARK SMILES IDX 22 1 21 2 20 3 18 4 19 5 17 7 13 8 14 9 84 10 15 11 16 12
REMARK SMILES IDX 11 13 12 14 10 15 9 16 8 17 1 18 2 19 3 20 4 21 6 22 5 23
REMARK SMILES IDX 7 24 23 25 24 26 25 27 26 28 27 29 28 30 29 32 30 33 31 34
REMARK SMILES IDX 83 35 32 36 82 37 33 38 34 39 35 40 76 41 36 42 81 43 75 44
REMARK SMILES IDX 77 45 37 46 80 47 74 48 73 49 38 51 64 52 47 53 63 54 48 55
REMARK SMILES IDX 51 56 62 57 78 58 49 59 50 60 61 62 79 63 52 64 39 65 40 66
REMARK SMILES IDX 45 67 41 68 42 69 44 70 46 71 43 72 65 73 66 74 71 75 67 76
REMARK SMILES IDX 68 77 70 78 72 79 69 80 53 81 54 82 59 83 55 84 56 85 58 86
REMARK SMILES IDX 60 87 57 88
REMARK H PARENT 20 6 27 31 77 50 51 61
REMARK Flexibility Score: inf
ROOT
ATOM      1  C   UNL A   1      33.590  31.554  27.625  1.00  0.00     0.021 C 
ENDROOT
BRANCH   1   2
ATOM      2  C   UNL A   1      33.923  30.129  27.186  1.00  0.00     0.116 C 
BRANCH   2   3
ATOM      3  N   UNL A   1      32.883  29.200  27.590  1.00  0.00    -0.356 N 
ATOM      4  C   UNL A   1      32.081  28.391  26.850  1.00  0.00     0.224 C 
ATOM      5  O   UNL A   1      31.233  27.716  27.435  1.00  0.00    -0.275 OA
ATOM      6  H   UNL A   1      32.736  29.146  28.563  1.00  0.00     0.163 HD
BRANCH   4   7
ATOM      7  C   UNL A   1      32.239  28.332  25.347  1.00  0.00     0.098 C 
ATOM      8  N   UNL A   1      32.409  26.795  23.458  1.00  0.00    -0.339 N 
ATOM      9  C   UNL A   1      31.371  27.492  22.696  1.00  0.00     0.119 C 
ATOM     10  C   UNL A   1      32.235  26.865  24.910  1.00  0.00     0.133 C 
ATOM     11  C   UNL A   1      31.237  28.953  23.129  1.00  0.00     0.022 C 
ATOM     12  C   UNL A   1      31.102  29.087  24.648  1.00  0.00     0.017 C 
BRANCH   8  13
ATOM     13  C   UNL A   1      33.446  26.167  22.786  1.00  0.00     0.260 C 
ATOM     14  O   UNL A   1      33.598  26.307  21.567  1.00  0.00    -0.271 OA
BRANCH  13  15
ATOM     15  C   UNL A   1      34.377  25.187  23.536  1.00  0.00     0.329 C 
BRANCH  15  16
ATOM     16  O   UNL A   1      34.717  23.915  23.056  1.00  0.00    -0.483 OA
BRANCH  16  17
ATOM     17  C   UNL A   1      34.411  22.723  23.638  1.00  0.00     0.125 A 
ATOM     18  C   UNL A   1      31.891  22.510  23.084  1.00  0.00     0.048 C 
ATOM     19  C   UNL A   1      33.188  22.034  23.671  1.00  0.00    -0.009 A 
ATOM     20  C   UNL A   1      33.148  20.762  24.289  1.00  0.00     0.007 A 
ATOM     21  C   UNL A   1      34.268  20.200  24.893  1.00  0.00     0.001 A 
ATOM     22  C   UNL A   1      35.547  22.149  24.272  1.00  0.00    -0.009 A 
ATOM     23  C   UNL A   1      35.465  20.898  24.897  1.00  0.00     0.007 A 
ATOM     24  C   UNL A   1      36.866  22.884  24.302  1.00  0.00     0.048 C 
ENDBRANCH  16  17
ENDBRANCH  15  16
ENDBRANCH  13  15
ENDBRANCH   8  13
ENDBRANCH   4   7
ENDBRANCH   2   3
ENDBRANCH   1   2
BRANCH   1  25
ATOM     25  C   UNL A   1      34.806  32.379  28.063  1.00  0.00     0.002 C 
BRANCH  25  26
ATOM     26  C   UNL A   1      34.531  33.411  29.161  1.00  0.00     0.002 C 
BRANCH  26  27
ATOM     27  C   UNL A   1      33.273  34.256  28.953  1.00  0.00     0.021 C 
BRANCH  27  28
ATOM     28  C   UNL A   1      33.417  35.719  29.360  1.00  0.00     0.116 C 
BRANCH  28  29
ATOM     29  N   UNL A   1      32.560  36.064  30.483  1.00  0.00    -0.352 N 
ATOM     30  C   UNL A   1      32.658  35.691  31.801  1.00  0.00     0.251 C 
ATOM     31  H   UNL A   1      31.798  36.649  30.268  1.00  0.00     0.163 HD
ATOM     32  O   UNL A   1      31.739  35.921  32.578  1.00  0.00    -0.269 OA
BRANCH  30  33
ATOM     33  C   UNL A   1      33.869  34.989  32.277  1.00  0.00     0.039 A 
ATOM     34  C   UNL A   1      33.744  33.688  32.769  1.00  0.00     0.014 A 
ATOM     35  C   UNL A   1      35.120  35.610  32.238  1.00  0.00     0.014 A 
ATOM     36  C   UNL A   1      34.886  32.988  33.166  1.00  0.00     0.010 A 
ATOM     37  C   UNL A   1      36.263  34.885  32.558  1.00  0.00     0.010 A 
ATOM     38  C   UNL A   1      36.158  33.567  33.030  1.00  0.00    -0.014 A 
BRANCH  38  39
ATOM     39  C   UNL A   1      37.388  32.810  33.374  1.00  0.00     0.031 A 
ATOM     40  C   UNL A   1      38.133  33.110  34.645  1.00  0.00     0.074 A 
ATOM     41  C   UNL A   1      37.869  31.893  32.512  1.00  0.00     0.049 A 
ATOM     42  N   UNL A   1      39.251  32.597  35.090  1.00  0.00    -0.248 NA
ATOM     43  C   UNL A   1      37.558  34.145  35.519  1.00  0.00     0.031 C 
ATOM     44  C   UNL A   1      37.264  31.540  31.227  1.00  0.00     0.029 A 
ATOM     45  N   UNL A   1      38.983  31.095  32.585  1.00  0.00    -0.354 N 
ATOM     46  C   UNL A   1      39.518  33.250  36.286  1.00  0.00     0.074 A 
ATOM     47  C   UNL A   1      38.478  34.239  36.467  1.00  0.00     0.031 C 
ATOM     48  C   UNL A   1      37.996  30.577  30.646  1.00  0.00     0.029 A 
ATOM     49  C   UNL A   1      39.144  30.274  31.494  1.00  0.00     0.049 A 
ATOM     50  H   UNL A   1      39.607  31.108  33.346  1.00  0.00     0.167 HD
ATOM     51  C   UNL A   1      40.522  33.029  37.169  1.00  0.00     0.037 A 
ATOM     52  C   UNL A   1      40.112  29.384  31.207  1.00  0.00     0.037 A 
ATOM     53  C   UNL A   1      41.549  32.035  36.991  1.00  0.00     0.049 A 
ATOM     54  C   UNL A   1      41.235  29.177  32.186  1.00  0.00     0.074 A 
ATOM     55  C   UNL A   1      42.579  31.696  37.850  1.00  0.00     0.029 A 
ATOM     56  N   UNL A   1      41.680  31.226  35.871  1.00  0.00    -0.354 N 
ATOM     57  N   UNL A   1      41.436  29.752  33.348  1.00  0.00    -0.248 NA
ATOM     58  C   UNL A   1      42.261  28.193  31.818  1.00  0.00     0.031 C 
ATOM     59  C   UNL A   1      43.368  30.723  37.226  1.00  0.00     0.029 A 
ATOM     60  C   UNL A   1      42.793  30.410  36.005  1.00  0.00     0.049 A 
ATOM     61  H   UNL A   1      41.072  31.229  35.097  1.00  0.00     0.167 HD
ATOM     62  C   UNL A   1      42.593  29.179  33.861  1.00  0.00     0.074 A 
ATOM     63  C   UNL A   1      43.040  28.202  32.890  1.00  0.00     0.031 C 
ATOM     64  C   UNL A   1      43.227  29.439  35.031  1.00  0.00     0.037 A 
BRANCH  51  65
ATOM     65  C   UNL A   1      40.558  33.886  38.402  1.00  0.00     0.057 A 
ATOM     66  C   UNL A   1      41.314  35.065  38.464  1.00  0.00     0.134 A 
ATOM     67  C   UNL A   1      39.813  33.539  39.537  1.00  0.00     0.134 A 
ATOM     68  F   UNL A   1      42.058  35.452  37.417  1.00  0.00    -0.206 F 
ATOM     69  C   UNL A   1      41.360  35.846  39.621  1.00  0.00     0.040 A 
ATOM     70  C   UNL A   1      39.825  34.330  40.688  1.00  0.00     0.040 A 
ATOM     71  F   UNL A   1      39.060  32.429  39.547  1.00  0.00    -0.206 F 
ATOM     72  C   UNL A   1      40.608  35.481  40.736  1.00  0.00     0.006 A 
ENDBRANCH  51  65
BRANCH  52  73
ATOM     73  C   UNL A   1      40.051  28.602  29.946  1.00  0.00     0.057 A 
ATOM     74  C   UNL A   1      39.317  27.413  29.869  1.00  0.00     0.134 A 
ATOM     75  C   UNL A   1      40.719  29.022  28.789  1.00  0.00     0.134 A 
ATOM     76  F   UNL A   1      38.669  26.950  30.949  1.00  0.00    -0.206 F 
ATOM     77  C   UNL A   1      39.264  26.659  28.696  1.00  0.00     0.040 A 
ATOM     78  C   UNL A   1      40.653  28.293  27.601  1.00  0.00     0.040 A 
ATOM     79  F   UNL A   1      41.433  30.158  28.793  1.00  0.00    -0.206 F 
ATOM     80  C   UNL A   1      39.929  27.104  27.555  1.00  0.00     0.006 A 
ENDBRANCH  52  73
BRANCH  64  81
ATOM     81  C   UNL A   1      44.453  28.629  35.345  1.00  0.00     0.057 A 
ATOM     82  C   UNL A   1      45.737  29.057  34.986  1.00  0.00     0.134 A 
ATOM     83  C   UNL A   1      44.347  27.423  36.050  1.00  0.00     0.134 A 
ATOM     84  F   UNL A   1      45.909  30.196  34.298  1.00  0.00    -0.206 F 
ATOM     85  C   UNL A   1      46.871  28.300  35.295  1.00  0.00     0.040 A 
ATOM     86  C   UNL A   1      45.474  26.674  36.392  1.00  0.00     0.040 A 
ATOM     87  F   UNL A   1      43.148  26.959  36.433  1.00  0.00    -0.206 F 
ATOM     88  C   UNL A   1      46.740  27.110  36.007  1.00  0.00     0.006 A 
ENDBRANCH  64  81
ENDBRANCH  38  39
ENDBRANCH  30  33
ENDBRANCH  28  29
ENDBRANCH  27  28
ENDBRANCH  26  27
ENDBRANCH  25  26
ENDBRANCH   1  25
TORSDOF 17
ENDMDL
