MODEL 1
REMARK VINA RESULT:     -11.1      0.000      0.000
REMARK SMILES O=C(CC1(NC(=O)c2ccncc2Cl)CCCCC1)NCCCCCCNC(=O)c1ccc(-c2c3nc(c(-c4c(F)cccc4F)c4ccc([nH]4)c(-c4c(F)cccc4F)c4nc(c(-c5c(F)cccc5F)c5ccc2[nH]5)C=C4)C=C3)cc1
REMARK SMILES IDX 23 1 22 2 21 3 20 4 1 5 2 6 3 8 4 9 15 10 19 11 16 12 18 13
REMARK SMILES IDX 17 14 5 15 6 16 7 18 8 19 9 20 13 21 10 22 12 23 14 24 11 25
REMARK SMILES IDX 24 26 25 27 26 28 27 29 28 30 29 32 30 33 31 34 83 35 32 36
REMARK SMILES IDX 82 37 33 38 34 39 35 40 76 41 36 42 81 43 75 44 77 45 37 46
REMARK SMILES IDX 80 47 74 48 73 49 38 51 64 52 47 53 63 54 48 55 51 56 62 57
REMARK SMILES IDX 78 58 49 59 50 60 61 62 79 63 52 64 39 65 40 66 45 67 41 68
REMARK SMILES IDX 42 69 44 70 46 71 43 72 65 73 66 74 71 75 67 76 68 77 70 78
REMARK SMILES IDX 72 79 69 80 53 81 54 82 59 83 55 84 56 85 58 86 60 87 57 88
REMARK H PARENT 20 7 5 17 27 31 77 50 51 61
REMARK Flexibility Score: inf
ROOT
ATOM      1  C   UNL A   1      34.425  32.663  29.271  1.00  0.00     0.002 C 
ENDROOT
BRANCH   1   2
ATOM      2  C   UNL A   1      34.041  31.875  28.007  1.00  0.00     0.021 C 
BRANCH   2   3
ATOM      3  C   UNL A   1      34.979  30.713  27.691  1.00  0.00     0.116 C 
BRANCH   3   4
ATOM      4  N   UNL A   1      34.527  30.043  26.497  1.00  0.00    -0.356 N 
ATOM      5  O   UNL A   1      33.338  28.401  27.549  1.00  0.00    -0.275 OA
ATOM      6  C   UNL A   1      33.791  28.898  26.523  1.00  0.00     0.222 C 
ATOM      7  H   UNL A   1      34.761  30.431  25.623  1.00  0.00     0.163 HD
BRANCH   6   8
ATOM      8  C   UNL A   1      33.660  28.227  25.175  1.00  0.00     0.128 C 
BRANCH   8   9
ATOM      9  C   UNL A   1      32.250  27.952  24.615  1.00  0.00     0.049 C 
ATOM     10  C   UNL A   1      31.448  29.277  24.534  1.00  0.00     0.029 C 
ATOM     11  C   UNL A   1      32.369  27.308  23.202  1.00  0.00     0.029 C 
ATOM     12  C   UNL A   1      30.153  29.176  23.725  1.00  0.00     0.002 C 
ATOM     13  C   UNL A   1      31.057  27.241  22.417  1.00  0.00     0.002 C 
ATOM     14  C   UNL A   1      30.406  28.614  22.332  1.00  0.00     0.000 C 
BRANCH   9  15
ATOM     15  N   UNL A   1      31.465  26.991  25.474  1.00  0.00    -0.346 N 
ATOM     16  C   UNL A   1      31.592  25.690  25.899  1.00  0.00     0.253 C 
ATOM     17  H   UNL A   1      30.642  27.406  25.820  1.00  0.00     0.164 HD
ATOM     18  O   UNL A   1      30.793  25.238  26.717  1.00  0.00    -0.269 OA
BRANCH  16  19
ATOM     19  C   UNL A   1      32.567  24.762  25.319  1.00  0.00     0.061 A 
ATOM     20  C   UNL A   1      33.866  24.806  25.833  1.00  0.00     0.035 A 
ATOM     21  C   UNL A   1      32.243  23.867  24.301  1.00  0.00     0.072 A 
ATOM     22  C   UNL A   1      34.774  23.869  25.378  1.00  0.00     0.112 A 
ATOM     23  C   UNL A   1      33.214  22.940  23.952  1.00  0.00     0.132 A 
ATOM     24  Cl  UNL A   1      30.693  23.799  23.558  1.00  0.00    -0.082 Cl
ATOM     25  N   UNL A   1      34.467  22.914  24.475  1.00  0.00    -0.263 NA
ENDBRANCH  16  19
ENDBRANCH   9  15
ENDBRANCH   8   9
ENDBRANCH   6   8
ENDBRANCH   3   4
ENDBRANCH   2   3
ENDBRANCH   1   2
BRANCH   1  26
ATOM     26  C   UNL A   1      34.722  34.146  29.033  1.00  0.00     0.002 C 
BRANCH  26  27
ATOM     27  C   UNL A   1      33.478  35.026  28.940  1.00  0.00     0.021 C 
BRANCH  27  28
ATOM     28  C   UNL A   1      33.534  36.269  29.816  1.00  0.00     0.116 C 
BRANCH  28  29
ATOM     29  N   UNL A   1      32.486  36.278  30.823  1.00  0.00    -0.352 N 
ATOM     30  C   UNL A   1      32.454  35.624  32.030  1.00  0.00     0.251 C 
ATOM     31  H   UNL A   1      31.696  36.825  30.612  1.00  0.00     0.163 HD
ATOM     32  O   UNL A   1      31.428  35.582  32.691  1.00  0.00    -0.269 OA
BRANCH  30  33
ATOM     33  C   UNL A   1      33.679  34.945  32.504  1.00  0.00     0.039 A 
ATOM     34  C   UNL A   1      33.591  33.621  32.936  1.00  0.00     0.014 A 
ATOM     35  C   UNL A   1      34.910  35.607  32.490  1.00  0.00     0.014 A 
ATOM     36  C   UNL A   1      34.753  32.940  33.300  1.00  0.00     0.010 A 
ATOM     37  C   UNL A   1      36.074  34.903  32.773  1.00  0.00     0.010 A 
ATOM     38  C   UNL A   1      36.006  33.565  33.188  1.00  0.00    -0.014 A 
BRANCH  38  39
ATOM     39  C   UNL A   1      37.258  32.834  33.506  1.00  0.00     0.031 A 
ATOM     40  C   UNL A   1      38.010  33.141  34.771  1.00  0.00     0.074 A 
ATOM     41  C   UNL A   1      37.748  31.938  32.628  1.00  0.00     0.049 A 
ATOM     42  N   UNL A   1      39.144  32.647  35.199  1.00  0.00    -0.248 NA
ATOM     43  C   UNL A   1      37.421  34.154  35.662  1.00  0.00     0.031 C 
ATOM     44  C   UNL A   1      37.135  31.586  31.345  1.00  0.00     0.029 A 
ATOM     45  N   UNL A   1      38.877  31.161  32.678  1.00  0.00    -0.354 N 
ATOM     46  C   UNL A   1      39.409  33.297  36.398  1.00  0.00     0.074 A 
ATOM     47  C   UNL A   1      38.351  34.262  36.600  1.00  0.00     0.031 C 
ATOM     48  C   UNL A   1      37.880  30.644  30.745  1.00  0.00     0.029 A 
ATOM     49  C   UNL A   1      39.043  30.355  31.579  1.00  0.00     0.049 A 
ATOM     50  H   UNL A   1      39.511  31.180  33.433  1.00  0.00     0.167 HD
ATOM     51  C   UNL A   1      40.428  33.090  37.265  1.00  0.00     0.037 A 
ATOM     52  C   UNL A   1      40.027  29.489  31.272  1.00  0.00     0.037 A 
ATOM     53  C   UNL A   1      41.471  32.118  37.068  1.00  0.00     0.049 A 
ATOM     54  C   UNL A   1      41.162  29.296  32.240  1.00  0.00     0.074 A 
ATOM     55  C   UNL A   1      42.518  31.792  37.912  1.00  0.00     0.029 A 
ATOM     56  N   UNL A   1      41.603  31.320  35.941  1.00  0.00    -0.354 N 
ATOM     57  N   UNL A   1      41.361  29.863  33.405  1.00  0.00    -0.248 NA
ATOM     58  C   UNL A   1      42.206  28.338  31.852  1.00  0.00     0.031 C 
ATOM     59  C   UNL A   1      43.315  30.838  37.273  1.00  0.00     0.029 A 
ATOM     60  C   UNL A   1      42.731  30.523  36.056  1.00  0.00     0.049 A 
ATOM     61  H   UNL A   1      40.987  31.319  35.173  1.00  0.00     0.167 HD
ATOM     62  C   UNL A   1      42.533  29.308  33.903  1.00  0.00     0.074 A 
ATOM     63  C   UNL A   1      42.991  28.349  32.920  1.00  0.00     0.031 C 
ATOM     64  C   UNL A   1      43.171  29.568  35.072  1.00  0.00     0.037 A 
BRANCH  51  65
ATOM     65  C   UNL A   1      40.462  33.936  38.507  1.00  0.00     0.057 A 
ATOM     66  C   UNL A   1      39.774  33.571  39.672  1.00  0.00     0.134 A 
ATOM     67  C   UNL A   1      41.216  35.116  38.547  1.00  0.00     0.134 A 
ATOM     68  F   UNL A   1      39.023  32.460  39.699  1.00  0.00    -0.206 F 
ATOM     69  C   UNL A   1      39.806  34.366  40.820  1.00  0.00     0.040 A 
ATOM     70  C   UNL A   1      41.282  35.902  39.700  1.00  0.00     0.040 A 
ATOM     71  F   UNL A   1      41.906  35.522  37.471  1.00  0.00    -0.206 F 
ATOM     72  C   UNL A   1      40.569  35.531  40.837  1.00  0.00     0.006 A 
ENDBRANCH  51  65
BRANCH  52  73
ATOM     73  C   UNL A   1      39.974  28.719  30.003  1.00  0.00     0.057 A 
ATOM     74  C   UNL A   1      40.604  29.191  28.845  1.00  0.00     0.134 A 
ATOM     75  C   UNL A   1      39.283  27.504  29.910  1.00  0.00     0.134 A 
ATOM     76  F   UNL A   1      41.265  30.356  28.865  1.00  0.00    -0.206 F 
ATOM     77  C   UNL A   1      40.529  28.496  27.636  1.00  0.00     0.040 A 
ATOM     78  C   UNL A   1      39.224  26.785  28.716  1.00  0.00     0.040 A 
ATOM     79  F   UNL A   1      38.665  26.992  30.985  1.00  0.00    -0.206 F 
ATOM     80  C   UNL A   1      39.842  27.286  27.571  1.00  0.00     0.006 A 
ENDBRANCH  52  73
BRANCH  64  81
ATOM     81  C   UNL A   1      44.411  28.774  35.369  1.00  0.00     0.057 A 
ATOM     82  C   UNL A   1      44.365  27.543  36.036  1.00  0.00     0.134 A 
ATOM     83  C   UNL A   1      45.667  29.234  34.948  1.00  0.00     0.134 A 
ATOM     84  F   UNL A   1      43.197  27.052  36.478  1.00  0.00    -0.206 F 
ATOM     85  C   UNL A   1      45.525  26.811  36.295  1.00  0.00     0.040 A 
ATOM     86  C   UNL A   1      46.829  28.495  35.173  1.00  0.00     0.040 A 
ATOM     87  F   UNL A   1      45.782  30.400  34.294  1.00  0.00    -0.206 F 
ATOM     88  C   UNL A   1      46.760  27.283  35.856  1.00  0.00     0.006 A 
ENDBRANCH  64  81
ENDBRANCH  38  39
ENDBRANCH  30  33
ENDBRANCH  28  29
ENDBRANCH  27  28
ENDBRANCH  26  27
ENDBRANCH   1  26
TORSDOF 16
ENDMDL
MODEL 2
REMARK VINA RESULT:     -11.0      1.151      2.984
REMARK SMILES O=C(CC1(NC(=O)c2ccncc2Cl)CCCCC1)NCCCCCCNC(=O)c1ccc(-c2c3nc(c(-c4c(F)cccc4F)c4ccc([nH]4)c(-c4c(F)cccc4F)c4nc(c(-c5c(F)cccc5F)c5ccc2[nH]5)C=C4)C=C3)cc1
REMARK SMILES IDX 23 1 22 2 21 3 20 4 1 5 2 6 3 8 4 9 15 10 19 11 16 12 18 13
REMARK SMILES IDX 17 14 5 15 6 16 7 18 8 19 9 20 13 21 10 22 12 23 14 24 11 25
REMARK SMILES IDX 24 26 25 27 26 28 27 29 28 30 29 32 30 33 31 34 83 35 32 36
REMARK SMILES IDX 82 37 33 38 34 39 35 40 76 41 36 42 81 43 75 44 77 45 37 46
REMARK SMILES IDX 80 47 74 48 73 49 38 51 64 52 47 53 63 54 48 55 51 56 62 57
REMARK SMILES IDX 78 58 49 59 50 60 61 62 79 63 52 64 39 65 40 66 45 67 41 68
REMARK SMILES IDX 42 69 44 70 46 71 43 72 65 73 66 74 71 75 67 76 68 77 70 78
REMARK SMILES IDX 72 79 69 80 53 81 54 82 59 83 55 84 56 85 58 86 60 87 57 88
REMARK H PARENT 20 7 5 17 27 31 77 50 51 61
REMARK Flexibility Score: inf
ROOT
ATOM      1  C   UNL A   1      34.678  32.629  29.047  1.00  0.00     0.002 C 
ENDROOT
BRANCH   1   2
ATOM      2  C   UNL A   1      33.993  32.017  27.814  1.00  0.00     0.021 C 
BRANCH   2   3
ATOM      3  C   UNL A   1      34.397  30.572  27.531  1.00  0.00     0.116 C 
BRANCH   3   4
ATOM      4  N   UNL A   1      33.752  30.121  26.323  1.00  0.00    -0.356 N 
ATOM      5  O   UNL A   1      31.760  29.553  27.285  1.00  0.00    -0.275 OA
ATOM      6  C   UNL A   1      32.500  29.586  26.308  1.00  0.00     0.222 C 
ATOM      7  H   UNL A   1      34.238  30.205  25.472  1.00  0.00     0.163 HD
BRANCH   6   8
ATOM      8  C   UNL A   1      32.132  28.938  24.993  1.00  0.00     0.128 C 
BRANCH   8   9
ATOM      9  C   UNL A   1      32.113  27.398  24.902  1.00  0.00     0.049 C 
ATOM     10  C   UNL A   1      33.487  26.828  25.337  1.00  0.00     0.029 C 
ATOM     11  C   UNL A   1      30.984  26.838  25.817  1.00  0.00     0.029 C 
ATOM     12  C   UNL A   1      33.492  25.315  25.569  1.00  0.00     0.002 C 
ATOM     13  C   UNL A   1      31.032  25.325  26.040  1.00  0.00     0.002 C 
ATOM     14  C   UNL A   1      32.402  24.896  26.546  1.00  0.00     0.000 C 
BRANCH   9  15
ATOM     15  N   UNL A   1      31.832  26.906  23.503  1.00  0.00    -0.346 N 
ATOM     16  C   UNL A   1      31.048  27.291  22.442  1.00  0.00     0.253 C 
ATOM     17  H   UNL A   1      32.345  26.092  23.297  1.00  0.00     0.164 HD
ATOM     18  O   UNL A   1      31.150  26.702  21.368  1.00  0.00    -0.269 OA
BRANCH  16  19
ATOM     19  C   UNL A   1      29.988  28.295  22.567  1.00  0.00     0.061 A 
ATOM     20  C   UNL A   1      30.273  29.578  22.091  1.00  0.00     0.035 A 
ATOM     21  C   UNL A   1      28.745  28.014  23.129  1.00  0.00     0.072 A 
ATOM     22  C   UNL A   1      29.255  30.513  22.099  1.00  0.00     0.112 A 
ATOM     23  C   UNL A   1      27.781  29.008  23.044  1.00  0.00     0.132 A 
ATOM     24  Cl  UNL A   1      28.336  26.487  23.807  1.00  0.00    -0.082 Cl
ATOM     25  N   UNL A   1      28.005  30.246  22.532  1.00  0.00    -0.263 NA
ENDBRANCH  16  19
ENDBRANCH   9  15
ENDBRANCH   8   9
ENDBRANCH   6   8
ENDBRANCH   3   4
ENDBRANCH   2   3
ENDBRANCH   1   2
BRANCH   1  26
ATOM     26  C   UNL A   1      34.809  34.154  29.013  1.00  0.00     0.002 C 
BRANCH  26  27
ATOM     27  C   UNL A   1      33.475  34.898  29.021  1.00  0.00     0.021 C 
BRANCH  27  28
ATOM     28  C   UNL A   1      33.503  36.209  29.793  1.00  0.00     0.116 C 
BRANCH  28  29
ATOM     29  N   UNL A   1      32.473  36.263  30.817  1.00  0.00    -0.352 N 
ATOM     30  C   UNL A   1      32.454  35.648  32.045  1.00  0.00     0.251 C 
ATOM     31  H   UNL A   1      31.687  36.815  30.602  1.00  0.00     0.163 HD
ATOM     32  O   UNL A   1      31.440  35.641  32.724  1.00  0.00    -0.269 OA
BRANCH  30  33
ATOM     33  C   UNL A   1      33.678  34.968  32.519  1.00  0.00     0.039 A 
ATOM     34  C   UNL A   1      33.585  33.650  32.966  1.00  0.00     0.014 A 
ATOM     35  C   UNL A   1      34.912  35.623  32.490  1.00  0.00     0.014 A 
ATOM     36  C   UNL A   1      34.746  32.966  33.331  1.00  0.00     0.010 A 
ATOM     37  C   UNL A   1      36.074  34.916  32.774  1.00  0.00     0.010 A 
ATOM     38  C   UNL A   1      36.002  33.583  33.204  1.00  0.00    -0.014 A 
BRANCH  38  39
ATOM     39  C   UNL A   1      37.251  32.849  33.522  1.00  0.00     0.031 A 
ATOM     40  C   UNL A   1      38.009  33.161  34.783  1.00  0.00     0.074 A 
ATOM     41  C   UNL A   1      37.735  31.945  32.649  1.00  0.00     0.049 A 
ATOM     42  N   UNL A   1      39.143  32.665  35.211  1.00  0.00    -0.248 NA
ATOM     43  C   UNL A   1      37.428  34.182  35.670  1.00  0.00     0.031 C 
ATOM     44  C   UNL A   1      37.117  31.587  31.370  1.00  0.00     0.029 A 
ATOM     45  N   UNL A   1      38.861  31.164  32.701  1.00  0.00    -0.354 N 
ATOM     46  C   UNL A   1      39.415  33.322  36.405  1.00  0.00     0.074 A 
ATOM     47  C   UNL A   1      38.361  34.293  36.604  1.00  0.00     0.031 C 
ATOM     48  C   UNL A   1      37.855  30.639  30.774  1.00  0.00     0.029 A 
ATOM     49  C   UNL A   1      39.020  30.350  31.606  1.00  0.00     0.049 A 
ATOM     50  H   UNL A   1      39.497  31.185  33.453  1.00  0.00     0.167 HD
ATOM     51  C   UNL A   1      40.436  33.116  37.270  1.00  0.00     0.037 A 
ATOM     52  C   UNL A   1      39.999  29.478  31.302  1.00  0.00     0.037 A 
ATOM     53  C   UNL A   1      41.474  32.139  37.075  1.00  0.00     0.049 A 
ATOM     54  C   UNL A   1      41.136  29.286  32.267  1.00  0.00     0.074 A 
ATOM     55  C   UNL A   1      42.522  31.814  37.918  1.00  0.00     0.029 A 
ATOM     56  N   UNL A   1      41.599  31.333  35.953  1.00  0.00    -0.354 N 
ATOM     57  N   UNL A   1      41.341  29.860  33.428  1.00  0.00    -0.248 NA
ATOM     58  C   UNL A   1      42.175  28.321  31.882  1.00  0.00     0.031 C 
ATOM     59  C   UNL A   1      43.313  30.852  37.282  1.00  0.00     0.029 A 
ATOM     60  C   UNL A   1      42.724  30.532  36.070  1.00  0.00     0.049 A 
ATOM     61  H   UNL A   1      40.980  31.330  35.187  1.00  0.00     0.167 HD
ATOM     62  C   UNL A   1      42.513  29.304  33.926  1.00  0.00     0.074 A 
ATOM     63  C   UNL A   1      42.964  28.336  32.947  1.00  0.00     0.031 C 
ATOM     64  C   UNL A   1      43.156  29.568  35.090  1.00  0.00     0.037 A 
BRANCH  51  65
ATOM     65  C   UNL A   1      40.477  33.971  38.505  1.00  0.00     0.057 A 
ATOM     66  C   UNL A   1      41.216  35.161  38.559  1.00  0.00     0.134 A 
ATOM     67  C   UNL A   1      39.747  33.614  39.646  1.00  0.00     0.134 A 
ATOM     68  F   UNL A   1      41.947  35.556  37.507  1.00  0.00    -0.206 F 
ATOM     69  C   UNL A   1      41.253  35.947  39.713  1.00  0.00     0.040 A 
ATOM     70  C   UNL A   1      39.751  34.408  40.795  1.00  0.00     0.040 A 
ATOM     71  F   UNL A   1      39.013  32.491  39.662  1.00  0.00    -0.206 F 
ATOM     72  C   UNL A   1      40.513  35.574  40.832  1.00  0.00     0.006 A 
ENDBRANCH  51  65
BRANCH  52  73
ATOM     73  C   UNL A   1      39.938  28.699  30.038  1.00  0.00     0.057 A 
ATOM     74  C   UNL A   1      39.258  27.477  29.974  1.00  0.00     0.134 A 
ATOM     75  C   UNL A   1      40.570  29.146  28.871  1.00  0.00     0.134 A 
ATOM     76  F   UNL A   1      38.649  26.987  31.063  1.00  0.00    -0.206 F 
ATOM     77  C   UNL A   1      39.226  26.717  28.803  1.00  0.00     0.040 A 
ATOM     78  C   UNL A   1      40.522  28.411  27.686  1.00  0.00     0.040 A 
ATOM     79  F   UNL A   1      41.231  30.314  28.862  1.00  0.00    -0.206 F 
ATOM     80  C   UNL A   1      39.856  27.187  27.653  1.00  0.00     0.006 A 
ENDBRANCH  52  73
BRANCH  64  81
ATOM     81  C   UNL A   1      44.394  28.771  35.388  1.00  0.00     0.057 A 
ATOM     82  C   UNL A   1      45.671  29.213  35.017  1.00  0.00     0.134 A 
ATOM     83  C   UNL A   1      44.308  27.561  36.091  1.00  0.00     0.134 A 
ATOM     84  F   UNL A   1      45.822  30.355  34.331  1.00  0.00    -0.206 F 
ATOM     85  C   UNL A   1      46.814  28.467  35.311  1.00  0.00     0.040 A 
ATOM     86  C   UNL A   1      45.446  26.824  36.419  1.00  0.00     0.040 A 
ATOM     87  F   UNL A   1      43.117  27.086  36.487  1.00  0.00    -0.206 F 
ATOM     88  C   UNL A   1      46.704  27.273  36.022  1.00  0.00     0.006 A 
ENDBRANCH  64  81
ENDBRANCH  38  39
ENDBRANCH  30  33
ENDBRANCH  28  29
ENDBRANCH  27  28
ENDBRANCH  26  27
ENDBRANCH   1  26
TORSDOF 16
ENDMDL
MODEL 3
REMARK VINA RESULT:     -10.9      6.714     12.036
REMARK SMILES O=C(CC1(NC(=O)c2ccncc2Cl)CCCCC1)NCCCCCCNC(=O)c1ccc(-c2c3nc(c(-c4c(F)cccc4F)c4ccc([nH]4)c(-c4c(F)cccc4F)c4nc(c(-c5c(F)cccc5F)c5ccc2[nH]5)C=C4)C=C3)cc1
REMARK SMILES IDX 23 1 22 2 21 3 20 4 1 5 2 6 3 8 4 9 15 10 19 11 16 12 18 13
REMARK SMILES IDX 17 14 5 15 6 16 7 18 8 19 9 20 13 21 10 22 12 23 14 24 11 25
REMARK SMILES IDX 24 26 25 27 26 28 27 29 28 30 29 32 30 33 31 34 83 35 32 36
REMARK SMILES IDX 82 37 33 38 34 39 35 40 76 41 36 42 81 43 75 44 77 45 37 46
REMARK SMILES IDX 80 47 74 48 73 49 38 51 64 52 47 53 63 54 48 55 51 56 62 57
REMARK SMILES IDX 78 58 49 59 50 60 61 62 79 63 52 64 39 65 40 66 45 67 41 68
REMARK SMILES IDX 42 69 44 70 46 71 43 72 65 73 66 74 71 75 67 76 68 77 70 78
REMARK SMILES IDX 72 79 69 80 53 81 54 82 59 83 55 84 56 85 58 86 60 87 57 88
REMARK H PARENT 20 7 5 17 27 31 77 50 51 61
REMARK Flexibility Score: inf
ROOT
ATOM      1  C   UNL A   1      40.674  22.147  26.125  1.00  0.00     0.002 C 
ENDROOT
BRANCH   1   2
ATOM      2  C   UNL A   1      39.910  22.938  27.199  1.00  0.00     0.021 C 
BRANCH   2   3
ATOM      3  C   UNL A   1      38.954  23.987  26.637  1.00  0.00     0.116 C 
BRANCH   3   4
ATOM      4  N   UNL A   1      37.598  23.517  26.763  1.00  0.00    -0.356 N 
ATOM      5  O   UNL A   1      37.059  23.669  24.548  1.00  0.00    -0.275 OA
ATOM      6  C   UNL A   1      36.734  23.456  25.712  1.00  0.00     0.222 C 
ATOM      7  H   UNL A   1      37.281  23.228  27.649  1.00  0.00     0.163 HD
BRANCH   6   8
ATOM      8  C   UNL A   1      35.302  23.196  26.115  1.00  0.00     0.128 C 
BRANCH   8   9
ATOM      9  C   UNL A   1      34.450  22.237  25.259  1.00  0.00     0.049 C 
ATOM     10  C   UNL A   1      35.126  20.843  25.199  1.00  0.00     0.029 C 
ATOM     11  C   UNL A   1      33.024  22.116  25.875  1.00  0.00     0.029 C 
ATOM     12  C   UNL A   1      34.234  19.738  24.629  1.00  0.00     0.002 C 
ATOM     13  C   UNL A   1      32.168  20.990  25.294  1.00  0.00     0.002 C 
ATOM     14  C   UNL A   1      32.903  19.658  25.366  1.00  0.00     0.000 C 
BRANCH   9  15
ATOM     15  N   UNL A   1      34.278  22.727  23.842  1.00  0.00    -0.346 N 
ATOM     16  C   UNL A   1      33.861  23.880  23.221  1.00  0.00     0.253 C 
ATOM     17  H   UNL A   1      34.529  22.035  23.188  1.00  0.00     0.164 HD
ATOM     18  O   UNL A   1      33.956  23.981  22.000  1.00  0.00    -0.269 OA
BRANCH  16  19
ATOM     19  C   UNL A   1      33.178  24.960  23.940  1.00  0.00     0.061 A 
ATOM     20  C   UNL A   1      33.983  25.960  24.493  1.00  0.00     0.035 A 
ATOM     21  C   UNL A   1      31.793  25.014  24.081  1.00  0.00     0.072 A 
ATOM     22  C   UNL A   1      33.358  27.043  25.082  1.00  0.00     0.112 A 
ATOM     23  C   UNL A   1      31.266  26.166  24.646  1.00  0.00     0.132 A 
ATOM     24  Cl  UNL A   1      30.734  23.789  23.499  1.00  0.00    -0.082 Cl
ATOM     25  N   UNL A   1      32.017  27.185  25.138  1.00  0.00    -0.263 NA
ENDBRANCH  16  19
ENDBRANCH   9  15
ENDBRANCH   8   9
ENDBRANCH   6   8
ENDBRANCH   3   4
ENDBRANCH   2   3
ENDBRANCH   1   2
BRANCH   1  26
ATOM     26  C   UNL A   1      41.811  21.273  26.663  1.00  0.00     0.002 C 
BRANCH  26  27
ATOM     27  C   UNL A   1      41.845  19.862  26.080  1.00  0.00     0.021 C 
BRANCH  27  28
ATOM     28  C   UNL A   1      43.137  19.109  26.360  1.00  0.00     0.116 C 
BRANCH  28  29
ATOM     29  N   UNL A   1      43.815  18.710  25.138  1.00  0.00    -0.352 N 
ATOM     30  C   UNL A   1      44.526  19.490  24.260  1.00  0.00     0.251 C 
ATOM     31  H   UNL A   1      43.757  17.754  24.911  1.00  0.00     0.163 HD
ATOM     32  O   UNL A   1      44.886  19.046  23.181  1.00  0.00    -0.269 OA
BRANCH  30  33
ATOM     33  C   UNL A   1      44.824  20.889  24.632  1.00  0.00     0.039 A 
ATOM     34  C   UNL A   1      44.356  21.918  23.814  1.00  0.00     0.014 A 
ATOM     35  C   UNL A   1      45.535  21.178  25.800  1.00  0.00     0.014 A 
ATOM     36  C   UNL A   1      44.552  23.245  24.200  1.00  0.00     0.010 A 
ATOM     37  C   UNL A   1      45.656  22.496  26.225  1.00  0.00     0.010 A 
ATOM     38  C   UNL A   1      45.172  23.542  25.425  1.00  0.00    -0.014 A 
BRANCH  38  39
ATOM     39  C   UNL A   1      45.327  24.945  25.884  1.00  0.00     0.031 A 
ATOM     40  C   UNL A   1      46.678  25.605  25.847  1.00  0.00     0.074 A 
ATOM     41  C   UNL A   1      44.266  25.603  26.389  1.00  0.00     0.049 A 
ATOM     42  N   UNL A   1      47.025  26.801  26.249  1.00  0.00    -0.248 NA
ATOM     43  C   UNL A   1      47.791  24.807  25.307  1.00  0.00     0.031 C 
ATOM     44  C   UNL A   1      42.914  25.056  26.521  1.00  0.00     0.029 A 
ATOM     45  N   UNL A   1      44.158  26.875  26.890  1.00  0.00    -0.354 N 
ATOM     46  C   UNL A   1      48.393  26.893  26.024  1.00  0.00     0.074 A 
ATOM     47  C   UNL A   1      48.823  25.613  25.507  1.00  0.00     0.031 C 
ATOM     48  C   UNL A   1      42.108  25.995  27.040  1.00  0.00     0.029 A 
ATOM     49  C   UNL A   1      42.892  27.195  27.316  1.00  0.00     0.049 A 
ATOM     50  H   UNL A   1      44.918  27.501  26.940  1.00  0.00     0.167 HD
ATOM     51  C   UNL A   1      49.211  27.956  26.207  1.00  0.00     0.037 A 
ATOM     52  C   UNL A   1      42.419  28.325  27.874  1.00  0.00     0.037 A 
ATOM     53  C   UNL A   1      48.776  29.233  26.708  1.00  0.00     0.049 A 
ATOM     54  C   UNL A   1      43.354  29.483  28.092  1.00  0.00     0.074 A 
ATOM     55  C   UNL A   1      49.514  30.390  26.878  1.00  0.00     0.029 A 
ATOM     56  N   UNL A   1      47.484  29.518  27.127  1.00  0.00    -0.354 N 
ATOM     57  N   UNL A   1      44.629  29.581  27.805  1.00  0.00    -0.248 NA
ATOM     58  C   UNL A   1      42.782  30.689  28.706  1.00  0.00     0.031 C 
ATOM     59  C   UNL A   1      48.684  31.358  27.452  1.00  0.00     0.029 A 
ATOM     60  C   UNL A   1      47.413  30.825  27.583  1.00  0.00     0.049 A 
ATOM     61  H   UNL A   1      46.730  28.885  27.104  1.00  0.00     0.167 HD
ATOM     62  C   UNL A   1      45.004  30.867  28.172  1.00  0.00     0.074 A 
ATOM     63  C   UNL A   1      43.817  31.516  28.689  1.00  0.00     0.031 C 
ATOM     64  C   UNL A   1      46.221  31.459  28.088  1.00  0.00     0.037 A 
BRANCH  51  65
ATOM     65  C   UNL A   1      50.663  27.778  25.864  1.00  0.00     0.057 A 
ATOM     66  C   UNL A   1      51.620  27.455  26.836  1.00  0.00     0.134 A 
ATOM     67  C   UNL A   1      51.106  27.902  24.541  1.00  0.00     0.134 A 
ATOM     68  F   UNL A   1      51.267  27.332  28.124  1.00  0.00    -0.206 F 
ATOM     69  C   UNL A   1      52.969  27.296  26.510  1.00  0.00     0.040 A 
ATOM     70  C   UNL A   1      52.446  27.713  24.198  1.00  0.00     0.040 A 
ATOM     71  F   UNL A   1      50.243  28.203  23.558  1.00  0.00    -0.206 F 
ATOM     72  C   UNL A   1      53.383  27.417  25.186  1.00  0.00     0.006 A 
ENDBRANCH  51  65
BRANCH  52  73
ATOM     73  C   UNL A   1      40.985  28.428  28.248  1.00  0.00     0.057 A 
ATOM     74  C   UNL A   1      40.537  28.024  29.512  1.00  0.00     0.134 A 
ATOM     75  C   UNL A   1      40.027  28.916  27.351  1.00  0.00     0.134 A 
ATOM     76  F   UNL A   1      41.403  27.531  30.408  1.00  0.00    -0.206 F 
ATOM     77  C   UNL A   1      39.187  28.080  29.863  1.00  0.00     0.040 A 
ATOM     78  C   UNL A   1      38.678  29.004  27.699  1.00  0.00     0.040 A 
ATOM     79  F   UNL A   1      40.391  29.328  26.128  1.00  0.00    -0.206 F 
ATOM     80  C   UNL A   1      38.254  28.576  28.955  1.00  0.00     0.006 A 
ENDBRANCH  52  73
BRANCH  64  81
ATOM     81  C   UNL A   1      46.322  32.892  28.525  1.00  0.00     0.057 A 
ATOM     82  C   UNL A   1      46.098  33.957  27.644  1.00  0.00     0.134 A 
ATOM     83  C   UNL A   1      46.611  33.209  29.860  1.00  0.00     0.134 A 
ATOM     84  F   UNL A   1      45.830  33.724  26.350  1.00  0.00    -0.206 F 
ATOM     85  C   UNL A   1      46.183  35.284  28.067  1.00  0.00     0.040 A 
ATOM     86  C   UNL A   1      46.667  34.531  30.302  1.00  0.00     0.040 A 
ATOM     87  F   UNL A   1      46.826  32.237  30.760  1.00  0.00    -0.206 F 
ATOM     88  C   UNL A   1      46.460  35.574  29.402  1.00  0.00     0.006 A 
ENDBRANCH  64  81
ENDBRANCH  38  39
ENDBRANCH  30  33
ENDBRANCH  28  29
ENDBRANCH  27  28
ENDBRANCH  26  27
ENDBRANCH   1  26
TORSDOF 16
ENDMDL
