MODEL 1
REMARK VINA RESULT:     -11.2      0.000      0.000
REMARK SMILES COc1cccc(C(=O)N[C@H]2C=C[C@@H](C(=O)NCCCCCCNC(=O)c3ccc(-c4c5nc(c(-c6c(F)cccc6F)c6ccc([nH]6)c(-c6c(F)cccc6F)c6nc(c(-c7c(F)cccc7F)c7ccc4[nH]7)C=C6)C=C5)cc3)C2)c1
REMARK SMILES IDX 20 1 19 2 18 3 17 4 15 5 16 6 14 8 11 9 12 10 81 11 13 12
REMARK SMILES IDX 10 13 8 14 9 15 7 17 3 18 4 19 82 20 5 21 6 22 2 23 1 24
REMARK SMILES IDX 21 25 22 26 23 27 24 28 25 29 26 31 27 32 28 33 80 34 29 35
REMARK SMILES IDX 79 36 30 37 31 38 32 39 73 40 33 41 78 42 72 43 74 44 34 45
REMARK SMILES IDX 77 46 71 47 70 48 35 50 61 51 44 52 60 53 45 54 48 55 59 56
REMARK SMILES IDX 75 57 46 58 47 59 58 61 76 62 49 63 36 64 37 65 42 66 38 67
REMARK SMILES IDX 39 68 41 69 43 70 40 71 62 72 63 73 68 74 64 75 65 76 67 77
REMARK SMILES IDX 69 78 66 79 50 80 51 81 56 82 52 83 53 84 55 85 57 86 54 87
REMARK H PARENT 17 7 10 16 24 30 74 49 48 60
REMARK Flexibility Score: inf
ROOT
ATOM      1  C   UNL A   1      32.408  29.784  27.296  1.00  0.00     0.002 C 
ENDROOT
BRANCH   1   2
ATOM      2  C   UNL A   1      33.837  29.384  26.922  1.00  0.00     0.021 C 
BRANCH   2   3
ATOM      3  C   UNL A   1      33.902  28.211  25.945  1.00  0.00     0.116 C 
BRANCH   3   4
ATOM      4  N   UNL A   1      33.164  27.074  26.456  1.00  0.00    -0.356 N 
ATOM      5  C   UNL A   1      31.916  26.621  26.160  1.00  0.00     0.227 C 
ATOM      6  O   UNL A   1      31.508  25.630  26.774  1.00  0.00    -0.274 OA
ATOM      7  H   UNL A   1      33.646  26.540  27.127  1.00  0.00     0.163 HD
BRANCH   5   8
ATOM      8  C   UNL A   1      31.053  27.263  25.078  1.00  0.00     0.103 C 
ATOM      9  C   UNL A   1      30.922  27.365  22.637  1.00  0.00     0.106 C 
ATOM     10  C   UNL A   1      30.009  26.323  23.209  1.00  0.00    -0.006 C 
ATOM     11  C   UNL A   1      31.798  27.767  23.832  1.00  0.00     0.047 C 
ATOM     12  C   UNL A   1      30.054  26.286  24.542  1.00  0.00    -0.016 C 
BRANCH   9  13
ATOM     13  N   UNL A   1      31.622  26.766  21.522  1.00  0.00    -0.346 N 
ATOM     14  C   UNL A   1      32.522  25.722  21.474  1.00  0.00     0.251 C 
ATOM     15  O   UNL A   1      33.015  25.449  20.379  1.00  0.00    -0.269 OA
ATOM     16  H   UNL A   1      31.421  27.174  20.648  1.00  0.00     0.164 HD
BRANCH  14  17
ATOM     17  C   UNL A   1      32.870  24.880  22.662  1.00  0.00     0.043 A 
ATOM     18  C   UNL A   1      34.160  24.427  24.672  1.00  0.00     0.119 A 
ATOM     19  C   UNL A   1      33.306  23.389  25.011  1.00  0.00     0.046 A 
ATOM     20  C   UNL A   1      33.996  25.085  23.457  1.00  0.00     0.060 A 
ATOM     21  C   UNL A   1      32.243  23.070  24.164  1.00  0.00     0.005 A 
ATOM     22  C   UNL A   1      32.010  23.830  23.010  1.00  0.00     0.014 A 
BRANCH  18  23
ATOM     23  O   UNL A   1      35.167  24.756  25.540  1.00  0.00    -0.497 OA
ATOM     24  C   UNL A   1      35.901  23.607  25.985  1.00  0.00     0.278 C 
ENDBRANCH  18  23
ENDBRANCH  14  17
ENDBRANCH   9  13
ENDBRANCH   5   8
ENDBRANCH   3   4
ENDBRANCH   2   3
ENDBRANCH   1   2
BRANCH   1  25
ATOM     25  C   UNL A   1      31.712  30.685  26.271  1.00  0.00     0.002 C 
BRANCH  25  26
ATOM     26  C   UNL A   1      31.478  32.121  26.743  1.00  0.00     0.021 C 
BRANCH  26  27
ATOM     27  C   UNL A   1      32.754  32.935  26.914  1.00  0.00     0.116 C 
BRANCH  27  28
ATOM     28  N   UNL A   1      32.517  34.154  27.672  1.00  0.00    -0.352 N 
ATOM     29  C   UNL A   1      33.139  34.591  28.817  1.00  0.00     0.251 C 
ATOM     30  H   UNL A   1      31.817  34.747  27.315  1.00  0.00     0.163 HD
ATOM     31  O   UNL A   1      32.686  35.527  29.457  1.00  0.00    -0.269 OA
BRANCH  29  32
ATOM     32  C   UNL A   1      34.357  33.893  29.272  1.00  0.00     0.039 A 
ATOM     33  C   UNL A   1      35.608  34.395  28.905  1.00  0.00     0.014 A 
ATOM     34  C   UNL A   1      34.256  32.764  30.088  1.00  0.00     0.014 A 
ATOM     35  C   UNL A   1      36.763  33.797  29.412  1.00  0.00     0.010 A 
ATOM     36  C   UNL A   1      35.403  32.218  30.650  1.00  0.00     0.010 A 
ATOM     37  C   UNL A   1      36.668  32.729  30.317  1.00  0.00    -0.014 A 
BRANCH  37  38
ATOM     38  C   UNL A   1      37.873  32.115  30.931  1.00  0.00     0.031 A 
ATOM     39  C   UNL A   1      38.606  31.023  30.201  1.00  0.00     0.074 A 
ATOM     40  C   UNL A   1      38.245  32.470  32.176  1.00  0.00     0.049 A 
ATOM     41  N   UNL A   1      39.589  30.268  30.617  1.00  0.00    -0.248 NA
ATOM     42  C   UNL A   1      38.155  30.724  28.832  1.00  0.00     0.031 C 
ATOM     43  C   UNL A   1      37.595  33.492  32.999  1.00  0.00     0.029 A 
ATOM     44  N   UNL A   1      39.253  31.993  32.978  1.00  0.00    -0.354 N 
ATOM     45  C   UNL A   1      39.852  29.386  29.576  1.00  0.00     0.074 A 
ATOM     46  C   UNL A   1      38.903  29.675  28.523  1.00  0.00     0.031 C 
ATOM     47  C   UNL A   1      38.226  33.573  34.182  1.00  0.00     0.029 A 
ATOM     48  C   UNL A   1      39.291  32.576  34.223  1.00  0.00     0.049 A 
ATOM     49  H   UNL A   1      39.887  31.298  32.689  1.00  0.00     0.167 HD
ATOM     50  C   UNL A   1      40.807  28.431  29.501  1.00  0.00     0.037 A 
ATOM     51  C   UNL A   1      40.082  32.318  35.282  1.00  0.00     0.037 A 
ATOM     52  C   UNL A   1      41.773  28.174  30.536  1.00  0.00     0.049 A 
ATOM     53  C   UNL A   1      41.122  31.235  35.176  1.00  0.00     0.074 A 
ATOM     54  C   UNL A   1      42.833  27.286  30.520  1.00  0.00     0.029 A 
ATOM     55  N   UNL A   1      41.792  28.800  31.772  1.00  0.00    -0.354 N 
ATOM     56  N   UNL A   1      41.412  30.464  34.156  1.00  0.00    -0.248 NA
ATOM     57  C   UNL A   1      41.944  30.984  36.368  1.00  0.00     0.031 C 
ATOM     58  C   UNL A   1      43.459  27.331  31.769  1.00  0.00     0.029 A 
ATOM     59  C   UNL A   1      42.827  28.293  32.540  1.00  0.00     0.049 A 
ATOM     60  H   UNL A   1      41.164  29.502  32.061  1.00  0.00     0.167 HD
ATOM     61  C   UNL A   1      42.476  29.672  34.568  1.00  0.00     0.074 A 
ATOM     62  C   UNL A   1      42.784  30.058  35.929  1.00  0.00     0.031 C 
ATOM     63  C   UNL A   1      43.140  28.710  33.882  1.00  0.00     0.037 A 
BRANCH  50  64
ATOM     64  C   UNL A   1      40.860  27.582  28.265  1.00  0.00     0.057 A 
ATOM     65  C   UNL A   1      40.127  26.395  28.147  1.00  0.00     0.134 A 
ATOM     66  C   UNL A   1      41.601  27.998  27.151  1.00  0.00     0.134 A 
ATOM     67  F   UNL A   1      39.404  25.935  29.180  1.00  0.00    -0.206 F 
ATOM     68  C   UNL A   1      40.140  25.643  26.971  1.00  0.00     0.040 A 
ATOM     69  C   UNL A   1      41.600  27.270  25.960  1.00  0.00     0.040 A 
ATOM     70  F   UNL A   1      42.320  29.129  27.194  1.00  0.00    -0.206 F 
ATOM     71  C   UNL A   1      40.870  26.087  25.869  1.00  0.00     0.006 A 
ENDBRANCH  50  64
BRANCH  51  72
ATOM     72  C   UNL A   1      39.931  33.090  36.544  1.00  0.00     0.057 A 
ATOM     73  C   UNL A   1      38.991  32.713  37.512  1.00  0.00     0.134 A 
ATOM     74  C   UNL A   1      40.680  34.246  36.793  1.00  0.00     0.134 A 
ATOM     75  F   UNL A   1      38.228  31.626  37.323  1.00  0.00    -0.206 F 
ATOM     76  C   UNL A   1      38.777  33.474  38.662  1.00  0.00     0.040 A 
ATOM     77  C   UNL A   1      40.497  35.001  37.954  1.00  0.00     0.040 A 
ATOM     78  F   UNL A   1      41.603  34.660  35.913  1.00  0.00    -0.206 F 
ATOM     79  C   UNL A   1      39.533  34.622  38.886  1.00  0.00     0.006 A 
ENDBRANCH  51  72
BRANCH  63  80
ATOM     80  C   UNL A   1      44.305  28.051  34.559  1.00  0.00     0.057 A 
ATOM     81  C   UNL A   1      45.595  28.593  34.517  1.00  0.00     0.134 A 
ATOM     82  C   UNL A   1      44.116  26.890  35.320  1.00  0.00     0.134 A 
ATOM     83  F   UNL A   1      45.846  29.696  33.796  1.00  0.00    -0.206 F 
ATOM     84  C   UNL A   1      46.659  27.994  35.193  1.00  0.00     0.040 A 
ATOM     85  C   UNL A   1      45.164  26.299  36.025  1.00  0.00     0.040 A 
ATOM     86  F   UNL A   1      42.902  26.325  35.410  1.00  0.00    -0.206 F 
ATOM     87  C   UNL A   1      46.442  26.850  35.959  1.00  0.00     0.006 A 
ENDBRANCH  63  80
ENDBRANCH  37  38
ENDBRANCH  29  32
ENDBRANCH  27  28
ENDBRANCH  26  27
ENDBRANCH  25  26
ENDBRANCH   1  25
TORSDOF 16
ENDMDL
MODEL 2
REMARK VINA RESULT:     -11.2      2.063      6.717
REMARK SMILES COc1cccc(C(=O)N[C@H]2C=C[C@@H](C(=O)NCCCCCCNC(=O)c3ccc(-c4c5nc(c(-c6c(F)cccc6F)c6ccc([nH]6)c(-c6c(F)cccc6F)c6nc(c(-c7c(F)cccc7F)c7ccc4[nH]7)C=C6)C=C5)cc3)C2)c1
REMARK SMILES IDX 20 1 19 2 18 3 17 4 15 5 16 6 14 8 11 9 12 10 81 11 13 12
REMARK SMILES IDX 10 13 8 14 9 15 7 17 3 18 4 19 82 20 5 21 6 22 2 23 1 24
REMARK SMILES IDX 21 25 22 26 23 27 24 28 25 29 26 31 27 32 28 33 80 34 29 35
REMARK SMILES IDX 79 36 30 37 31 38 32 39 73 40 33 41 78 42 72 43 74 44 34 45
REMARK SMILES IDX 77 46 71 47 70 48 35 50 61 51 44 52 60 53 45 54 48 55 59 56
REMARK SMILES IDX 75 57 46 58 47 59 58 61 76 62 49 63 36 64 37 65 42 66 38 67
REMARK SMILES IDX 39 68 41 69 43 70 40 71 62 72 63 73 68 74 64 75 65 76 67 77
REMARK SMILES IDX 69 78 66 79 50 80 51 81 56 82 52 83 53 84 55 85 57 86 54 87
REMARK H PARENT 17 7 10 16 24 30 74 49 48 60
REMARK Flexibility Score: inf
ROOT
ATOM      1  C   UNL A   1      34.351  32.396  29.012  1.00  0.00     0.002 C 
ENDROOT
BRANCH   1   2
ATOM      2  C   UNL A   1      35.305  31.672  28.058  1.00  0.00     0.021 C 
BRANCH   2   3
ATOM      3  C   UNL A   1      34.802  30.297  27.626  1.00  0.00     0.116 C 
BRANCH   3   4
ATOM      4  N   UNL A   1      33.467  30.388  27.069  1.00  0.00    -0.356 N 
ATOM      5  C   UNL A   1      32.610  29.416  26.658  1.00  0.00     0.227 C 
ATOM      6  O   UNL A   1      31.527  29.773  26.183  1.00  0.00    -0.274 OA
ATOM      7  H   UNL A   1      33.125  31.306  26.972  1.00  0.00     0.163 HD
BRANCH   5   8
ATOM      8  C   UNL A   1      32.928  27.932  26.814  1.00  0.00     0.103 C 
ATOM      9  C   UNL A   1      32.234  25.783  25.870  1.00  0.00     0.106 C 
ATOM     10  C   UNL A   1      33.472  26.317  25.213  1.00  0.00    -0.006 C 
ATOM     11  C   UNL A   1      31.734  26.971  26.705  1.00  0.00     0.047 C 
ATOM     12  C   UNL A   1      33.872  27.473  25.748  1.00  0.00    -0.016 C 
BRANCH   9  13
ATOM     13  N   UNL A   1      31.343  25.336  24.823  1.00  0.00    -0.346 N 
ATOM     14  C   UNL A   1      31.318  24.166  24.095  1.00  0.00     0.251 C 
ATOM     15  O   UNL A   1      30.466  24.066  23.211  1.00  0.00    -0.269 OA
ATOM     16  H   UNL A   1      30.632  25.977  24.592  1.00  0.00     0.164 HD
BRANCH  14  17
ATOM     17  C   UNL A   1      32.224  23.005  24.369  1.00  0.00     0.043 A 
ATOM     18  C   UNL A   1      32.620  20.687  24.982  1.00  0.00     0.119 A 
ATOM     19  C   UNL A   1      33.955  20.798  24.623  1.00  0.00     0.046 A 
ATOM     20  C   UNL A   1      31.802  21.811  24.953  1.00  0.00     0.060 A 
ATOM     21  C   UNL A   1      34.440  22.023  24.160  1.00  0.00     0.005 A 
ATOM     22  C   UNL A   1      33.573  23.112  24.007  1.00  0.00     0.014 A 
BRANCH  18  23
ATOM     23  O   UNL A   1      32.153  19.465  25.387  1.00  0.00    -0.497 OA
ATOM     24  C   UNL A   1      32.557  18.406  24.508  1.00  0.00     0.278 C 
ENDBRANCH  18  23
ENDBRANCH  14  17
ENDBRANCH   9  13
ENDBRANCH   5   8
ENDBRANCH   3   4
ENDBRANCH   2   3
ENDBRANCH   1   2
BRANCH   1  25
ATOM     25  C   UNL A   1      34.608  33.900  29.145  1.00  0.00     0.002 C 
BRANCH  25  26
ATOM     26  C   UNL A   1      33.357  34.771  29.022  1.00  0.00     0.021 C 
BRANCH  26  27
ATOM     27  C   UNL A   1      33.514  36.171  29.604  1.00  0.00     0.116 C 
BRANCH  27  28
ATOM     28  N   UNL A   1      32.529  36.436  30.641  1.00  0.00    -0.352 N 
ATOM     29  C   UNL A   1      32.454  35.917  31.911  1.00  0.00     0.251 C 
ATOM     30  H   UNL A   1      31.820  37.076  30.401  1.00  0.00     0.163 HD
ATOM     31  O   UNL A   1      31.451  36.069  32.591  1.00  0.00    -0.269 OA
BRANCH  29  32
ATOM     32  C   UNL A   1      33.604  35.153  32.433  1.00  0.00     0.039 A 
ATOM     33  C   UNL A   1      33.411  33.838  32.863  1.00  0.00     0.014 A 
ATOM     34  C   UNL A   1      34.875  35.732  32.466  1.00  0.00     0.014 A 
ATOM     35  C   UNL A   1      34.510  33.079  33.267  1.00  0.00     0.010 A 
ATOM     36  C   UNL A   1      35.976  34.952  32.797  1.00  0.00     0.010 A 
ATOM     37  C   UNL A   1      35.804  33.618  33.202  1.00  0.00    -0.014 A 
BRANCH  37  38
ATOM     38  C   UNL A   1      37.003  32.817  33.556  1.00  0.00     0.031 A 
ATOM     39  C   UNL A   1      37.741  33.107  34.834  1.00  0.00     0.074 A 
ATOM     40  C   UNL A   1      37.479  31.903  32.688  1.00  0.00     0.049 A 
ATOM     41  N   UNL A   1      38.878  32.622  35.260  1.00  0.00    -0.248 NA
ATOM     42  C   UNL A   1      37.132  34.095  35.740  1.00  0.00     0.031 C 
ATOM     43  C   UNL A   1      36.871  31.555  31.402  1.00  0.00     0.029 A 
ATOM     44  N   UNL A   1      38.600  31.112  32.748  1.00  0.00    -0.354 N 
ATOM     45  C   UNL A   1      39.135  33.266  36.464  1.00  0.00     0.074 A 
ATOM     46  C   UNL A   1      38.055  34.203  36.684  1.00  0.00     0.031 C 
ATOM     47  C   UNL A   1      37.618  30.613  30.802  1.00  0.00     0.029 A 
ATOM     48  C   UNL A   1      38.784  30.329  31.633  1.00  0.00     0.049 A 
ATOM     49  H   UNL A   1      39.215  31.107  33.517  1.00  0.00     0.167 HD
ATOM     50  C   UNL A   1      40.172  33.082  37.313  1.00  0.00     0.037 A 
ATOM     51  C   UNL A   1      39.790  29.493  31.310  1.00  0.00     0.037 A 
ATOM     52  C   UNL A   1      41.223  32.122  37.107  1.00  0.00     0.049 A 
ATOM     53  C   UNL A   1      40.941  29.326  32.267  1.00  0.00     0.074 A 
ATOM     54  C   UNL A   1      42.272  31.801  37.950  1.00  0.00     0.029 A 
ATOM     55  N   UNL A   1      41.362  31.333  35.976  1.00  0.00    -0.354 N 
ATOM     56  N   UNL A   1      41.129  29.881  33.439  1.00  0.00    -0.248 NA
ATOM     57  C   UNL A   1      42.019  28.417  31.856  1.00  0.00     0.031 C 
ATOM     58  C   UNL A   1      43.079  30.861  37.305  1.00  0.00     0.029 A 
ATOM     59  C   UNL A   1      42.499  30.550  36.086  1.00  0.00     0.049 A 
ATOM     60  H   UNL A   1      40.744  31.329  35.209  1.00  0.00     0.167 HD
ATOM     61  C   UNL A   1      42.321  29.356  33.922  1.00  0.00     0.074 A 
ATOM     62  C   UNL A   1      42.810  28.434  32.920  1.00  0.00     0.031 C 
ATOM     63  C   UNL A   1      42.955  29.613  35.092  1.00  0.00     0.037 A 
BRANCH  50  64
ATOM     64  C   UNL A   1      40.234  33.937  38.545  1.00  0.00     0.057 A 
ATOM     65  C   UNL A   1      39.610  33.563  39.741  1.00  0.00     0.134 A 
ATOM     66  C   UNL A   1      40.991  35.117  38.552  1.00  0.00     0.134 A 
ATOM     67  F   UNL A   1      38.862  32.450  39.800  1.00  0.00    -0.206 F 
ATOM     68  C   UNL A   1      39.722  34.339  40.896  1.00  0.00     0.040 A 
ATOM     69  C   UNL A   1      41.134  35.886  39.707  1.00  0.00     0.040 A 
ATOM     70  F   UNL A   1      41.621  35.529  37.441  1.00  0.00    -0.206 F 
ATOM     71  C   UNL A   1      40.496  35.499  40.883  1.00  0.00     0.006 A 
ENDBRANCH  50  64
BRANCH  51  72
ATOM     72  C   UNL A   1      39.770  28.746  30.026  1.00  0.00     0.057 A 
ATOM     73  C   UNL A   1      39.171  27.482  29.936  1.00  0.00     0.134 A 
ATOM     74  C   UNL A   1      40.387  29.247  28.874  1.00  0.00     0.134 A 
ATOM     75  F   UNL A   1      38.581  26.938  31.010  1.00  0.00    -0.206 F 
ATOM     76  C   UNL A   1      39.219  26.730  28.761  1.00  0.00     0.040 A 
ATOM     77  C   UNL A   1      40.416  28.518  27.683  1.00  0.00     0.040 A 
ATOM     78  F   UNL A   1      40.972  30.453  28.886  1.00  0.00    -0.206 F 
ATOM     79  C   UNL A   1      39.842  27.249  27.628  1.00  0.00     0.006 A 
ENDBRANCH  51  72
BRANCH  63  80
ATOM     80  C   UNL A   1      44.209  28.844  35.388  1.00  0.00     0.057 A 
ATOM     81  C   UNL A   1      45.477  29.333  35.055  1.00  0.00     0.134 A 
ATOM     82  C   UNL A   1      44.145  27.626  36.077  1.00  0.00     0.134 A 
ATOM     83  F   UNL A   1      45.607  30.487  34.383  1.00  0.00    -0.206 F 
ATOM     84  C   UNL A   1      46.638  28.629  35.381  1.00  0.00     0.040 A 
ATOM     85  C   UNL A   1      45.298  26.928  36.436  1.00  0.00     0.040 A 
ATOM     86  F   UNL A   1      42.960  27.107  36.435  1.00  0.00    -0.206 F 
ATOM     87  C   UNL A   1      46.550  27.429  36.084  1.00  0.00     0.006 A 
ENDBRANCH  63  80
ENDBRANCH  37  38
ENDBRANCH  29  32
ENDBRANCH  27  28
ENDBRANCH  26  27
ENDBRANCH  25  26
ENDBRANCH   1  25
TORSDOF 16
ENDMDL
MODEL 3
REMARK VINA RESULT:     -11.1      3.992      8.110
REMARK SMILES COc1cccc(C(=O)N[C@H]2C=C[C@@H](C(=O)NCCCCCCNC(=O)c3ccc(-c4c5nc(c(-c6c(F)cccc6F)c6ccc([nH]6)c(-c6c(F)cccc6F)c6nc(c(-c7c(F)cccc7F)c7ccc4[nH]7)C=C6)C=C5)cc3)C2)c1
REMARK SMILES IDX 20 1 19 2 18 3 17 4 15 5 16 6 14 8 11 9 12 10 81 11 13 12
REMARK SMILES IDX 10 13 8 14 9 15 7 17 3 18 4 19 82 20 5 21 6 22 2 23 1 24
REMARK SMILES IDX 21 25 22 26 23 27 24 28 25 29 26 31 27 32 28 33 80 34 29 35
REMARK SMILES IDX 79 36 30 37 31 38 32 39 73 40 33 41 78 42 72 43 74 44 34 45
REMARK SMILES IDX 77 46 71 47 70 48 35 50 61 51 44 52 60 53 45 54 48 55 59 56
REMARK SMILES IDX 75 57 46 58 47 59 58 61 76 62 49 63 36 64 37 65 42 66 38 67
REMARK SMILES IDX 39 68 41 69 43 70 40 71 62 72 63 73 68 74 64 75 65 76 67 77
REMARK SMILES IDX 69 78 66 79 50 80 51 81 56 82 52 83 53 84 55 85 57 86 54 87
REMARK H PARENT 17 7 10 16 24 30 74 49 48 60
REMARK Flexibility Score: inf
ROOT
ATOM      1  C   UNL A   1      33.395  36.153  29.270  1.00  0.00     0.002 C 
ENDROOT
BRANCH   1   2
ATOM      2  C   UNL A   1      32.597  36.235  30.573  1.00  0.00     0.021 C 
BRANCH   2   3
ATOM      3  C   UNL A   1      33.454  36.043  31.822  1.00  0.00     0.116 C 
BRANCH   3   4
ATOM      4  N   UNL A   1      33.010  34.891  32.581  1.00  0.00    -0.356 N 
ATOM      5  C   UNL A   1      33.649  33.732  32.891  1.00  0.00     0.227 C 
ATOM      6  O   UNL A   1      33.020  32.886  33.533  1.00  0.00    -0.274 OA
ATOM      7  H   UNL A   1      32.092  34.960  32.930  1.00  0.00     0.163 HD
BRANCH   5   8
ATOM      8  C   UNL A   1      35.107  33.483  32.515  1.00  0.00     0.103 C 
ATOM      9  C   UNL A   1      37.047  32.249  33.353  1.00  0.00     0.106 C 
ATOM     10  C   UNL A   1      36.301  31.484  32.302  1.00  0.00    -0.006 C 
ATOM     11  C   UNL A   1      36.102  33.414  33.683  1.00  0.00     0.047 C 
ATOM     12  C   UNL A   1      35.262  32.167  31.818  1.00  0.00    -0.016 C 
BRANCH   9  13
ATOM     13  N   UNL A   1      37.321  31.338  34.443  1.00  0.00    -0.346 N 
ATOM     14  C   UNL A   1      38.112  31.479  35.563  1.00  0.00     0.251 C 
ATOM     15  O   UNL A   1      38.210  30.508  36.314  1.00  0.00    -0.269 OA
ATOM     16  H   UNL A   1      36.862  30.469  34.373  1.00  0.00     0.164 HD
BRANCH  14  17
ATOM     17  C   UNL A   1      38.796  32.759  35.933  1.00  0.00     0.043 A 
ATOM     18  C   UNL A   1      40.076  34.750  35.380  1.00  0.00     0.119 A 
ATOM     19  C   UNL A   1      39.841  35.276  36.641  1.00  0.00     0.046 A 
ATOM     20  C   UNL A   1      39.645  33.461  35.080  1.00  0.00     0.060 A 
ATOM     21  C   UNL A   1      39.103  34.536  37.567  1.00  0.00     0.005 A 
ATOM     22  C   UNL A   1      38.560  33.297  37.205  1.00  0.00     0.014 A 
BRANCH  18  23
ATOM     23  O   UNL A   1      40.758  35.513  34.470  1.00  0.00    -0.497 OA
ATOM     24  C   UNL A   1      41.080  34.784  33.277  1.00  0.00     0.278 C 
ENDBRANCH  18  23
ENDBRANCH  14  17
ENDBRANCH   9  13
ENDBRANCH   5   8
ENDBRANCH   3   4
ENDBRANCH   2   3
ENDBRANCH   1   2
BRANCH   1  25
ATOM     25  C   UNL A   1      33.723  34.728  28.816  1.00  0.00     0.002 C 
BRANCH  25  26
ATOM     26  C   UNL A   1      35.196  34.339  28.955  1.00  0.00     0.021 C 
BRANCH  26  27
ATOM     27  C   UNL A   1      35.633  33.216  28.022  1.00  0.00     0.116 C 
BRANCH  27  28
ATOM     28  N   UNL A   1      34.595  32.207  27.871  1.00  0.00    -0.352 N 
ATOM     29  C   UNL A   1      34.718  30.839  27.864  1.00  0.00     0.251 C 
ATOM     30  H   UNL A   1      33.679  32.552  27.760  1.00  0.00     0.163 HD
ATOM     31  O   UNL A   1      33.789  30.128  27.513  1.00  0.00    -0.269 OA
BRANCH  29  32
ATOM     32  C   UNL A   1      36.005  30.240  28.271  1.00  0.00     0.039 A 
ATOM     33  C   UNL A   1      37.136  30.451  27.480  1.00  0.00     0.014 A 
ATOM     34  C   UNL A   1      36.092  29.498  29.452  1.00  0.00     0.014 A 
ATOM     35  C   UNL A   1      38.374  29.970  27.909  1.00  0.00     0.010 A 
ATOM     36  C   UNL A   1      37.335  29.086  29.913  1.00  0.00     0.010 A 
ATOM     37  C   UNL A   1      38.489  29.317  29.146  1.00  0.00    -0.014 A 
BRANCH  37  38
ATOM     38  C   UNL A   1      39.800  28.854  29.667  1.00  0.00     0.031 A 
ATOM     39  C   UNL A   1      40.486  27.682  29.021  1.00  0.00     0.074 A 
ATOM     40  C   UNL A   1      40.321  29.423  30.772  1.00  0.00     0.049 A 
ATOM     41  N   UNL A   1      41.559  27.040  29.403  1.00  0.00    -0.248 NA
ATOM     42  C   UNL A   1      39.867  27.145  27.798  1.00  0.00     0.031 C 
ATOM     43  C   UNL A   1      39.733  30.545  31.507  1.00  0.00     0.029 A 
ATOM     44  N   UNL A   1      41.455  29.120  31.483  1.00  0.00    -0.354 N 
ATOM     45  C   UNL A   1      41.725  26.007  28.489  1.00  0.00     0.074 A 
ATOM     46  C   UNL A   1      40.624  26.085  27.554  1.00  0.00     0.031 C 
ATOM     47  C   UNL A   1      40.517  30.843  32.557  1.00  0.00     0.029 A 
ATOM     48  C   UNL A   1      41.632  29.903  32.600  1.00  0.00     0.049 A 
ATOM     49  H   UNL A   1      42.082  28.409  31.219  1.00  0.00     0.167 HD
ATOM     50  C   UNL A   1      42.714  25.086  28.428  1.00  0.00     0.037 A 
ATOM     51  C   UNL A   1      42.576  29.851  33.560  1.00  0.00     0.037 A 
ATOM     52  C   UNL A   1      43.827  25.037  29.339  1.00  0.00     0.049 A 
ATOM     53  C   UNL A   1      43.652  28.801  33.476  1.00  0.00     0.074 A 
ATOM     54  C   UNL A   1      44.924  24.195  29.309  1.00  0.00     0.029 A 
ATOM     55  N   UNL A   1      43.982  25.860  30.443  1.00  0.00    -0.354 N 
ATOM     56  N   UNL A   1      43.841  27.882  32.561  1.00  0.00    -0.248 NA
ATOM     57  C   UNL A   1      44.644  28.780  34.559  1.00  0.00     0.031 C 
ATOM     58  C   UNL A   1      45.713  24.467  30.430  1.00  0.00     0.029 A 
ATOM     59  C   UNL A   1      45.140  25.522  31.121  1.00  0.00     0.049 A 
ATOM     60  H   UNL A   1      43.360  26.578  30.705  1.00  0.00     0.167 HD
ATOM     61  C   UNL A   1      44.996  27.205  32.934  1.00  0.00     0.074 A 
ATOM     62  C   UNL A   1      45.467  27.822  34.156  1.00  0.00     0.031 C 
ATOM     63  C   UNL A   1      45.612  26.167  32.320  1.00  0.00     0.037 A 
BRANCH  50  64
ATOM     64  C   UNL A   1      42.644  24.046  27.349  1.00  0.00     0.057 A 
ATOM     65  C   UNL A   1      43.170  24.266  26.070  1.00  0.00     0.134 A 
ATOM     66  C   UNL A   1      42.104  22.781  27.617  1.00  0.00     0.134 A 
ATOM     67  F   UNL A   1      43.692  25.458  25.744  1.00  0.00    -0.206 F 
ATOM     68  C   UNL A   1      43.149  23.270  25.092  1.00  0.00     0.040 A 
ATOM     69  C   UNL A   1      42.103  21.768  26.657  1.00  0.00     0.040 A 
ATOM     70  F   UNL A   1      41.590  22.501  28.825  1.00  0.00    -0.206 F 
ATOM     71  C   UNL A   1      42.624  22.013  25.389  1.00  0.00     0.006 A 
ENDBRANCH  50  64
BRANCH  51  72
ATOM     72  C   UNL A   1      42.558  30.816  34.690  1.00  0.00     0.057 A 
ATOM     73  C   UNL A   1      43.238  32.038  34.607  1.00  0.00     0.134 A 
ATOM     74  C   UNL A   1      41.908  30.525  35.895  1.00  0.00     0.134 A 
ATOM     75  F   UNL A   1      43.898  32.367  33.486  1.00  0.00    -0.206 F 
ATOM     76  C   UNL A   1      43.304  32.916  35.689  1.00  0.00     0.040 A 
ATOM     77  C   UNL A   1      41.940  31.409  36.976  1.00  0.00     0.040 A 
ATOM     78  F   UNL A   1      41.230  29.377  36.041  1.00  0.00    -0.206 F 
ATOM     79  C   UNL A   1      42.651  32.603  36.879  1.00  0.00     0.006 A 
ENDBRANCH  51  72
BRANCH  63  80
ATOM     80  C   UNL A   1      46.896  25.669  32.915  1.00  0.00     0.057 A 
ATOM     81  C   UNL A   1      46.927  24.645  33.869  1.00  0.00     0.134 A 
ATOM     82  C   UNL A   1      48.124  26.179  32.474  1.00  0.00     0.134 A 
ATOM     83  F   UNL A   1      45.786  24.122  34.343  1.00  0.00    -0.206 F 
ATOM     84  C   UNL A   1      48.133  24.158  34.377  1.00  0.00     0.040 A 
ATOM     85  C   UNL A   1      49.336  25.681  32.951  1.00  0.00     0.040 A 
ATOM     86  F   UNL A   1      48.165  27.154  31.553  1.00  0.00    -0.206 F 
ATOM     87  C   UNL A   1      49.342  24.669  33.909  1.00  0.00     0.006 A 
ENDBRANCH  63  80
ENDBRANCH  37  38
ENDBRANCH  29  32
ENDBRANCH  27  28
ENDBRANCH  26  27
ENDBRANCH  25  26
ENDBRANCH   1  25
TORSDOF 16
ENDMDL
