MODEL 1
REMARK VINA RESULT:     -11.7      0.000      0.000
REMARK SMILES CCCc1cc2c(cc1Cl)C=C(C(=O)NCCCCCCNC(=O)c1ccc(-c3c4nc(c(-c5c(F)cccc5F)c5ccc([nH]5)c(-c5c(F)cccc5F)c5nc(c(-c6c(F)cccc6F)c6ccc3[nH]6)C=C5)C=C4)cc1)[C@@H](C(F)(F)F)O2
REMARK SMILES IDX 18 1 17 2 16 3 15 4 13 5 14 6 12 8 4 9 5 10 9 11 6 12 8 13
REMARK SMILES IDX 10 14 7 15 84 16 11 17 79 18 3 19 2 20 1 21 80 22 81 23
REMARK SMILES IDX 82 24 83 25 19 26 20 27 21 28 22 29 23 30 24 32 25 33 26 34
REMARK SMILES IDX 78 35 27 36 77 37 28 38 29 39 30 40 71 41 31 42 76 43 70 44
REMARK SMILES IDX 72 45 32 46 75 47 69 48 68 49 33 51 59 52 42 53 58 54 43 55
REMARK SMILES IDX 46 56 57 57 73 58 44 59 45 60 56 62 74 63 47 64 34 65 35 66
REMARK SMILES IDX 40 67 36 68 37 69 39 70 41 71 38 72 60 73 61 74 66 75 62 76
REMARK SMILES IDX 63 77 65 78 67 79 64 80 48 81 49 82 54 83 50 84 51 85 53 86
REMARK SMILES IDX 55 87 52 88
REMARK H PARENT 15 7 22 31 72 50 46 61
REMARK Flexibility Score: inf
ROOT
ATOM      1  C   UNL A   1      35.729  21.581  25.631  1.00  0.00     0.002 C 
ENDROOT
BRANCH   1   2
ATOM      2  C   UNL A   1      35.701  23.054  26.054  1.00  0.00     0.021 C 
BRANCH   2   3
ATOM      3  C   UNL A   1      34.377  23.503  26.667  1.00  0.00     0.116 C 
BRANCH   3   4
ATOM      4  N   UNL A   1      33.244  22.822  26.068  1.00  0.00    -0.352 N 
ATOM      5  C   UNL A   1      32.209  23.142  25.258  1.00  0.00     0.251 C 
ATOM      6  O   UNL A   1      31.464  22.200  24.967  1.00  0.00    -0.270 OA
ATOM      7  H   UNL A   1      33.223  21.871  26.319  1.00  0.00     0.163 HD
BRANCH   5   8
ATOM      8  C   UNL A   1      31.917  24.503  24.717  1.00  0.00     0.067 C 
ATOM      9  C   UNL A   1      29.573  28.707  23.159  1.00  0.00    -0.026 A 
ATOM     10  C   UNL A   1      30.913  28.340  23.367  1.00  0.00     0.052 A 
ATOM     11  C   UNL A   1      28.572  27.782  23.498  1.00  0.00     0.045 A 
ATOM     12  C   UNL A   1      31.238  27.080  23.861  1.00  0.00     0.128 A 
ATOM     13  C   UNL A   1      28.906  26.524  24.018  1.00  0.00     0.032 A 
ATOM     14  Cl  UNL A   1      26.893  28.127  23.288  1.00  0.00    -0.084 Cl
ATOM     15  C   UNL A   1      30.244  26.165  24.192  1.00  0.00     0.019 A 
ATOM     16  O   UNL A   1      32.566  26.823  24.024  1.00  0.00    -0.475 OA
ATOM     17  C   UNL A   1      30.621  24.868  24.737  1.00  0.00     0.025 C 
ATOM     18  C   UNL A   1      32.952  25.426  24.132  1.00  0.00     0.314 C 
BRANCH   9  19
ATOM     19  C   UNL A   1      29.298  30.059  22.543  1.00  0.00     0.037 C 
BRANCH  19  20
ATOM     20  C   UNL A   1      28.996  31.145  23.583  1.00  0.00     0.001 C 
ATOM     21  C   UNL A   1      27.569  31.671  23.511  1.00  0.00     0.004 C 
ENDBRANCH  19  20
ENDBRANCH   9  19
BRANCH  18  22
ATOM     22  C   UNL A   1      33.476  24.948  22.766  1.00  0.00     0.429 C 
ATOM     23  F   UNL A   1      32.464  24.426  22.027  1.00  0.00    -0.167 F 
ATOM     24  F   UNL A   1      34.003  25.952  22.029  1.00  0.00    -0.167 F 
ATOM     25  F   UNL A   1      34.428  23.996  22.879  1.00  0.00    -0.167 F 
ENDBRANCH  18  22
ENDBRANCH   5   8
ENDBRANCH   3   4
ENDBRANCH   2   3
ENDBRANCH   1   2
BRANCH   1  26
ATOM     26  C   UNL A   1      36.792  21.209  24.589  1.00  0.00     0.002 C 
BRANCH  26  27
ATOM     27  C   UNL A   1      37.721  20.054  24.969  1.00  0.00     0.021 C 
BRANCH  27  28
ATOM     28  C   UNL A   1      38.968  20.461  25.744  1.00  0.00     0.116 C 
BRANCH  28  29
ATOM     29  N   UNL A   1      39.975  19.413  25.779  1.00  0.00    -0.352 N 
ATOM     30  C   UNL A   1      41.308  19.500  26.100  1.00  0.00     0.251 C 
ATOM     31  H   UNL A   1      39.655  18.513  25.539  1.00  0.00     0.163 HD
ATOM     32  O   UNL A   1      42.050  18.538  25.936  1.00  0.00    -0.269 OA
BRANCH  30  33
ATOM     33  C   UNL A   1      41.853  20.775  26.613  1.00  0.00     0.039 A 
ATOM     34  C   UNL A   1      41.893  21.032  27.985  1.00  0.00     0.014 A 
ATOM     35  C   UNL A   1      42.300  21.737  25.703  1.00  0.00     0.014 A 
ATOM     36  C   UNL A   1      42.226  22.304  28.438  1.00  0.00     0.010 A 
ATOM     37  C   UNL A   1      42.711  22.990  26.167  1.00  0.00     0.010 A 
ATOM     38  C   UNL A   1      42.629  23.300  27.533  1.00  0.00    -0.014 A 
BRANCH  38  39
ATOM     39  C   UNL A   1      42.939  24.663  28.037  1.00  0.00     0.031 A 
ATOM     40  C   UNL A   1      44.365  25.099  28.244  1.00  0.00     0.074 A 
ATOM     41  C   UNL A   1      41.932  25.530  28.256  1.00  0.00     0.049 A 
ATOM     42  N   UNL A   1      44.824  26.251  28.665  1.00  0.00    -0.248 NA
ATOM     43  C   UNL A   1      45.413  24.111  27.943  1.00  0.00     0.031 C 
ATOM     44  C   UNL A   1      40.508  25.232  28.083  1.00  0.00     0.029 A 
ATOM     45  N   UNL A   1      41.951  26.842  28.652  1.00  0.00    -0.354 N 
ATOM     46  C   UNL A   1      46.207  26.122  28.695  1.00  0.00     0.074 A 
ATOM     47  C   UNL A   1      46.513  24.770  28.280  1.00  0.00     0.031 C 
ATOM     48  C   UNL A   1      39.795  26.341  28.326  1.00  0.00     0.029 A 
ATOM     49  C   UNL A   1      40.703  27.410  28.728  1.00  0.00     0.049 A 
ATOM     50  H   UNL A   1      42.780  27.331  28.861  1.00  0.00     0.167 HD
ATOM     51  C   UNL A   1      47.139  27.049  29.025  1.00  0.00     0.037 A 
ATOM     52  C   UNL A   1      40.330  28.648  29.096  1.00  0.00     0.037 A 
ATOM     53  C   UNL A   1      46.837  28.399  29.423  1.00  0.00     0.049 A 
ATOM     54  C   UNL A   1      41.380  29.639  29.505  1.00  0.00     0.074 A 
ATOM     55  C   UNL A   1      47.712  29.419  29.756  1.00  0.00     0.029 A 
ATOM     56  N   UNL A   1      45.557  28.919  29.542  1.00  0.00    -0.354 N 
ATOM     57  N   UNL A   1      42.684  29.505  29.518  1.00  0.00    -0.248 NA
ATOM     58  C   UNL A   1      40.904  30.952  29.963  1.00  0.00     0.031 C 
ATOM     59  C   UNL A   1      46.960  30.545  30.113  1.00  0.00     0.029 A 
ATOM     60  C   UNL A   1      45.617  30.238  29.963  1.00  0.00     0.049 A 
ATOM     61  H   UNL A   1      44.726  28.424  29.354  1.00  0.00     0.167 HD
ATOM     62  C   UNL A   1      43.185  30.717  29.974  1.00  0.00     0.074 A 
ATOM     63  C   UNL A   1      42.044  31.582  30.203  1.00  0.00     0.031 C 
ATOM     64  C   UNL A   1      44.472  31.080  30.194  1.00  0.00     0.037 A 
BRANCH  51  65
ATOM     65  C   UNL A   1      48.578  26.625  28.985  1.00  0.00     0.057 A 
ATOM     66  C   UNL A   1      49.190  26.064  30.112  1.00  0.00     0.134 A 
ATOM     67  C   UNL A   1      49.367  26.793  27.838  1.00  0.00     0.134 A 
ATOM     68  F   UNL A   1      48.494  25.879  31.244  1.00  0.00    -0.206 F 
ATOM     69  C   UNL A   1      50.534  25.685  30.102  1.00  0.00     0.040 A 
ATOM     70  C   UNL A   1      50.705  26.397  27.809  1.00  0.00     0.040 A 
ATOM     71  F   UNL A   1      48.838  27.311  26.720  1.00  0.00    -0.206 F 
ATOM     72  C   UNL A   1      51.294  25.845  28.945  1.00  0.00     0.006 A 
ENDBRANCH  51  65
BRANCH  52  73
ATOM     73  C   UNL A   1      38.893  29.018  29.113  1.00  0.00     0.057 A 
ATOM     74  C   UNL A   1      38.122  28.889  30.274  1.00  0.00     0.134 A 
ATOM     75  C   UNL A   1      38.263  29.523  27.970  1.00  0.00     0.134 A 
ATOM     76  F   UNL A   1      38.667  28.408  31.400  1.00  0.00    -0.206 F 
ATOM     77  C   UNL A   1      36.772  29.241  30.297  1.00  0.00     0.040 A 
ATOM     78  C   UNL A   1      36.920  29.905  27.985  1.00  0.00     0.040 A 
ATOM     79  F   UNL A   1      38.957  29.689  26.834  1.00  0.00    -0.206 F 
ATOM     80  C   UNL A   1      36.170  29.759  29.151  1.00  0.00     0.006 A 
ENDBRANCH  52  73
BRANCH  64  81
ATOM     81  C   UNL A   1      44.704  32.474  30.693  1.00  0.00     0.057 A 
ATOM     82  C   UNL A   1      44.779  32.740  32.066  1.00  0.00     0.134 A 
ATOM     83  C   UNL A   1      44.852  33.554  29.814  1.00  0.00     0.134 A 
ATOM     84  F   UNL A   1      44.642  31.749  32.961  1.00  0.00    -0.206 F 
ATOM     85  C   UNL A   1      44.997  34.032  32.547  1.00  0.00     0.040 A 
ATOM     86  C   UNL A   1      45.094  34.846  30.283  1.00  0.00     0.040 A 
ATOM     87  F   UNL A   1      44.809  33.361  28.487  1.00  0.00    -0.206 F 
ATOM     88  C   UNL A   1      45.163  35.088  31.653  1.00  0.00     0.006 A 
ENDBRANCH  64  81
ENDBRANCH  38  39
ENDBRANCH  30  33
ENDBRANCH  28  29
ENDBRANCH  27  28
ENDBRANCH  26  27
ENDBRANCH   1  26
TORSDOF 16
ENDMDL
MODEL 2
REMARK VINA RESULT:     -11.5      0.336      6.139
REMARK SMILES CCCc1cc2c(cc1Cl)C=C(C(=O)NCCCCCCNC(=O)c1ccc(-c3c4nc(c(-c5c(F)cccc5F)c5ccc([nH]5)c(-c5c(F)cccc5F)c5nc(c(-c6c(F)cccc6F)c6ccc3[nH]6)C=C5)C=C4)cc1)[C@@H](C(F)(F)F)O2
REMARK SMILES IDX 18 1 17 2 16 3 15 4 13 5 14 6 12 8 4 9 5 10 9 11 6 12 8 13
REMARK SMILES IDX 10 14 7 15 84 16 11 17 79 18 3 19 2 20 1 21 80 22 81 23
REMARK SMILES IDX 82 24 83 25 19 26 20 27 21 28 22 29 23 30 24 32 25 33 26 34
REMARK SMILES IDX 78 35 27 36 77 37 28 38 29 39 30 40 71 41 31 42 76 43 70 44
REMARK SMILES IDX 72 45 32 46 75 47 69 48 68 49 33 51 59 52 42 53 58 54 43 55
REMARK SMILES IDX 46 56 57 57 73 58 44 59 45 60 56 62 74 63 47 64 34 65 35 66
REMARK SMILES IDX 40 67 36 68 37 69 39 70 41 71 38 72 60 73 61 74 66 75 62 76
REMARK SMILES IDX 63 77 65 78 67 79 64 80 48 81 49 82 54 83 50 84 51 85 53 86
REMARK SMILES IDX 55 87 52 88
REMARK H PARENT 15 7 22 31 72 50 46 61
REMARK Flexibility Score: inf
ROOT
ATOM      1  C   UNL A   1      35.773  21.733  25.154  1.00  0.00     0.002 C 
ENDROOT
BRANCH   1   2
ATOM      2  C   UNL A   1      35.791  23.025  25.979  1.00  0.00     0.021 C 
BRANCH   2   3
ATOM      3  C   UNL A   1      34.473  23.334  26.684  1.00  0.00     0.116 C 
BRANCH   3   4
ATOM      4  N   UNL A   1      33.350  22.668  26.051  1.00  0.00    -0.352 N 
ATOM      5  C   UNL A   1      32.329  23.007  25.231  1.00  0.00     0.251 C 
ATOM      6  O   UNL A   1      31.589  22.072  24.906  1.00  0.00    -0.270 OA
ATOM      7  H   UNL A   1      33.325  21.711  26.280  1.00  0.00     0.163 HD
BRANCH   5   8
ATOM      8  C   UNL A   1      32.047  24.380  24.715  1.00  0.00     0.067 C 
ATOM      9  C   UNL A   1      29.732  28.622  23.220  1.00  0.00    -0.026 A 
ATOM     10  C   UNL A   1      31.068  28.247  23.437  1.00  0.00     0.052 A 
ATOM     11  C   UNL A   1      28.725  27.692  23.526  1.00  0.00     0.045 A 
ATOM     12  C   UNL A   1      31.384  26.976  23.908  1.00  0.00     0.128 A 
ATOM     13  C   UNL A   1      29.049  26.422  24.022  1.00  0.00     0.032 A 
ATOM     14  Cl  UNL A   1      27.049  28.046  23.302  1.00  0.00    -0.084 Cl
ATOM     15  C   UNL A   1      30.384  26.057  24.206  1.00  0.00     0.019 A 
ATOM     16  O   UNL A   1      32.709  26.713  24.082  1.00  0.00    -0.475 OA
ATOM     17  C   UNL A   1      30.751  24.747  24.728  1.00  0.00     0.025 C 
ATOM     18  C   UNL A   1      33.091  25.313  24.165  1.00  0.00     0.314 C 
BRANCH   9  19
ATOM     19  C   UNL A   1      29.467  29.988  22.630  1.00  0.00     0.037 C 
BRANCH  19  20
ATOM     20  C   UNL A   1      29.043  31.025  23.677  1.00  0.00     0.001 C 
ATOM     21  C   UNL A   1      27.696  31.670  23.379  1.00  0.00     0.004 C 
ENDBRANCH  19  20
ENDBRANCH   9  19
BRANCH  18  22
ATOM     22  C   UNL A   1      33.632  24.863  22.795  1.00  0.00     0.429 C 
ATOM     23  F   UNL A   1      33.968  25.941  22.042  1.00  0.00    -0.167 F 
ATOM     24  F   UNL A   1      34.751  24.110  22.898  1.00  0.00    -0.167 F 
ATOM     25  F   UNL A   1      32.731  24.141  22.092  1.00  0.00    -0.167 F 
ENDBRANCH  18  22
ENDBRANCH   5   8
ENDBRANCH   3   4
ENDBRANCH   2   3
ENDBRANCH   1   2
BRANCH   1  26
ATOM     26  C   UNL A   1      37.070  21.408  24.401  1.00  0.00     0.002 C 
BRANCH  26  27
ATOM     27  C   UNL A   1      37.858  20.204  24.923  1.00  0.00     0.021 C 
BRANCH  27  28
ATOM     28  C   UNL A   1      39.081  20.552  25.762  1.00  0.00     0.116 C 
BRANCH  28  29
ATOM     29  N   UNL A   1      40.053  19.472  25.812  1.00  0.00    -0.352 N 
ATOM     30  C   UNL A   1      41.392  19.522  26.116  1.00  0.00     0.251 C 
ATOM     31  H   UNL A   1      39.702  18.577  25.598  1.00  0.00     0.163 HD
ATOM     32  O   UNL A   1      42.101  18.532  25.967  1.00  0.00    -0.269 OA
BRANCH  30  33
ATOM     33  C   UNL A   1      41.985  20.791  26.590  1.00  0.00     0.039 A 
ATOM     34  C   UNL A   1      41.975  21.117  27.949  1.00  0.00     0.014 A 
ATOM     35  C   UNL A   1      42.530  21.677  25.657  1.00  0.00     0.014 A 
ATOM     36  C   UNL A   1      42.359  22.391  28.353  1.00  0.00     0.010 A 
ATOM     37  C   UNL A   1      42.989  22.928  26.077  1.00  0.00     0.010 A 
ATOM     38  C   UNL A   1      42.861  23.314  27.421  1.00  0.00    -0.014 A 
BRANCH  38  39
ATOM     39  C   UNL A   1      43.224  24.683  27.870  1.00  0.00     0.031 A 
ATOM     40  C   UNL A   1      42.156  25.706  28.151  1.00  0.00     0.074 A 
ATOM     41  C   UNL A   1      44.519  24.987  28.080  1.00  0.00     0.049 A 
ATOM     42  N   UNL A   1      42.285  26.943  28.561  1.00  0.00    -0.248 NA
ATOM     43  C   UNL A   1      40.762  25.287  27.940  1.00  0.00     0.031 C 
ATOM     44  C   UNL A   1      45.646  24.080  27.855  1.00  0.00     0.029 A 
ATOM     45  N   UNL A   1      45.104  26.135  28.549  1.00  0.00    -0.354 N 
ATOM     46  C   UNL A   1      40.995  27.454  28.641  1.00  0.00     0.074 A 
ATOM     47  C   UNL A   1      40.099  26.404  28.207  1.00  0.00     0.031 C 
ATOM     48  C   UNL A   1      46.782  24.689  28.228  1.00  0.00     0.029 A 
ATOM     49  C   UNL A   1      46.470  26.047  28.663  1.00  0.00     0.049 A 
ATOM     50  H   UNL A   1      44.594  26.945  28.781  1.00  0.00     0.167 HD
ATOM     51  C   UNL A   1      40.592  28.682  29.051  1.00  0.00     0.037 A 
ATOM     52  C   UNL A   1      47.372  26.963  29.057  1.00  0.00     0.037 A 
ATOM     53  C   UNL A   1      41.481  29.722  29.498  1.00  0.00     0.049 A 
ATOM     54  C   UNL A   1      46.902  28.330  29.458  1.00  0.00     0.074 A 
ATOM     55  C   UNL A   1      41.168  30.991  29.954  1.00  0.00     0.029 A 
ATOM     56  N   UNL A   1      42.863  29.612  29.546  1.00  0.00    -0.354 N 
ATOM     57  N   UNL A   1      45.678  28.794  29.539  1.00  0.00    -0.248 NA
ATOM     58  C   UNL A   1      47.941  29.306  29.812  1.00  0.00     0.031 C 
ATOM     59  C   UNL A   1      42.362  31.662  30.241  1.00  0.00     0.029 A 
ATOM     60  C   UNL A   1      43.418  30.797  30.002  1.00  0.00     0.049 A 
ATOM     61  H   UNL A   1      43.375  28.809  29.292  1.00  0.00     0.167 HD
ATOM     62  C   UNL A   1      45.800  30.111  29.961  1.00  0.00     0.074 A 
ATOM     63  C   UNL A   1      47.215  30.363  30.146  1.00  0.00     0.031 C 
ATOM     64  C   UNL A   1      44.828  31.033  30.170  1.00  0.00     0.037 A 
BRANCH  51  65
ATOM     65  C   UNL A   1      39.119  28.971  29.019  1.00  0.00     0.057 A 
ATOM     66  C   UNL A   1      38.505  29.424  27.845  1.00  0.00     0.134 A 
ATOM     67  C   UNL A   1      38.312  28.824  30.155  1.00  0.00     0.134 A 
ATOM     68  F   UNL A   1      39.221  29.591  26.722  1.00  0.00    -0.206 F 
ATOM     69  C   UNL A   1      37.142  29.721  27.801  1.00  0.00     0.040 A 
ATOM     70  C   UNL A   1      36.943  29.096  30.117  1.00  0.00     0.040 A 
ATOM     71  F   UNL A   1      38.835  28.380  31.307  1.00  0.00    -0.206 F 
ATOM     72  C   UNL A   1      36.354  29.550  28.938  1.00  0.00     0.006 A 
ENDBRANCH  51  65
BRANCH  52  73
ATOM     73  C   UNL A   1      48.816  26.623  29.076  1.00  0.00     0.057 A 
ATOM     74  C   UNL A   1      49.638  26.877  27.972  1.00  0.00     0.134 A 
ATOM     75  C   UNL A   1      49.410  26.050  30.207  1.00  0.00     0.134 A 
ATOM     76  F   UNL A   1      49.128  27.422  26.859  1.00  0.00    -0.206 F 
ATOM     77  C   UNL A   1      50.998  26.566  27.987  1.00  0.00     0.040 A 
ATOM     78  C   UNL A   1      50.774  25.757  30.246  1.00  0.00     0.040 A 
ATOM     79  F   UNL A   1      48.676  25.803  31.302  1.00  0.00    -0.206 F 
ATOM     80  C   UNL A   1      51.571  26.011  29.131  1.00  0.00     0.006 A 
ENDBRANCH  52  73
BRANCH  64  81
ATOM     81  C   UNL A   1      45.272  32.388  30.632  1.00  0.00     0.057 A 
ATOM     82  C   UNL A   1      45.423  32.665  31.997  1.00  0.00     0.134 A 
ATOM     83  C   UNL A   1      45.551  33.418  29.727  1.00  0.00     0.134 A 
ATOM     84  F   UNL A   1      45.168  31.721  32.916  1.00  0.00    -0.206 F 
ATOM     85  C   UNL A   1      45.838  33.920  32.443  1.00  0.00     0.040 A 
ATOM     86  C   UNL A   1      45.990  34.670  30.160  1.00  0.00     0.040 A 
ATOM     87  F   UNL A   1      45.443  33.209  28.406  1.00  0.00    -0.206 F 
ATOM     88  C   UNL A   1      46.131  34.924  31.523  1.00  0.00     0.006 A 
ENDBRANCH  64  81
ENDBRANCH  38  39
ENDBRANCH  30  33
ENDBRANCH  28  29
ENDBRANCH  27  28
ENDBRANCH  26  27
ENDBRANCH   1  26
TORSDOF 16
ENDMDL
MODEL 3
REMARK VINA RESULT:     -11.3      1.680      2.455
REMARK SMILES CCCc1cc2c(cc1Cl)C=C(C(=O)NCCCCCCNC(=O)c1ccc(-c3c4nc(c(-c5c(F)cccc5F)c5ccc([nH]5)c(-c5c(F)cccc5F)c5nc(c(-c6c(F)cccc6F)c6ccc3[nH]6)C=C5)C=C4)cc1)[C@@H](C(F)(F)F)O2
REMARK SMILES IDX 18 1 17 2 16 3 15 4 13 5 14 6 12 8 4 9 5 10 9 11 6 12 8 13
REMARK SMILES IDX 10 14 7 15 84 16 11 17 79 18 3 19 2 20 1 21 80 22 81 23
REMARK SMILES IDX 82 24 83 25 19 26 20 27 21 28 22 29 23 30 24 32 25 33 26 34
REMARK SMILES IDX 78 35 27 36 77 37 28 38 29 39 30 40 71 41 31 42 76 43 70 44
REMARK SMILES IDX 72 45 32 46 75 47 69 48 68 49 33 51 59 52 42 53 58 54 43 55
REMARK SMILES IDX 46 56 57 57 73 58 44 59 45 60 56 62 74 63 47 64 34 65 35 66
REMARK SMILES IDX 40 67 36 68 37 69 39 70 41 71 38 72 60 73 61 74 66 75 62 76
REMARK SMILES IDX 63 77 65 78 67 79 64 80 48 81 49 82 54 83 50 84 51 85 53 86
REMARK SMILES IDX 55 87 52 88
REMARK H PARENT 15 7 22 31 72 50 46 61
REMARK Flexibility Score: inf
ROOT
ATOM      1  C   UNL A   1      35.869  21.418  24.734  1.00  0.00     0.002 C 
ENDROOT
BRANCH   1   2
ATOM      2  C   UNL A   1      35.324  21.873  26.092  1.00  0.00     0.021 C 
BRANCH   2   3
ATOM      3  C   UNL A   1      33.909  21.386  26.392  1.00  0.00     0.116 C 
BRANCH   3   4
ATOM      4  N   UNL A   1      33.268  20.825  25.217  1.00  0.00    -0.352 N 
ATOM      5  C   UNL A   1      32.512  21.275  24.189  1.00  0.00     0.251 C 
ATOM      6  O   UNL A   1      32.193  20.414  23.361  1.00  0.00    -0.270 OA
ATOM      7  H   UNL A   1      33.427  19.857  25.149  1.00  0.00     0.163 HD
BRANCH   5   8
ATOM      8  C   UNL A   1      32.056  22.684  23.997  1.00  0.00     0.067 C 
ATOM      9  C   UNL A   1      31.828  27.585  22.768  1.00  0.00    -0.026 A 
ATOM     10  C   UNL A   1      30.903  26.639  23.238  1.00  0.00     0.052 A 
ATOM     11  C   UNL A   1      33.131  27.151  22.476  1.00  0.00     0.045 A 
ATOM     12  C   UNL A   1      31.280  25.315  23.443  1.00  0.00     0.128 A 
ATOM     13  C   UNL A   1      33.498  25.811  22.662  1.00  0.00     0.032 A 
ATOM     14  Cl  UNL A   1      34.349  28.227  21.890  1.00  0.00    -0.084 Cl
ATOM     15  C   UNL A   1      32.573  24.889  23.156  1.00  0.00     0.019 A 
ATOM     16  O   UNL A   1      30.309  24.478  23.902  1.00  0.00    -0.475 OA
ATOM     17  C   UNL A   1      32.923  23.489  23.352  1.00  0.00     0.025 C 
ATOM     18  C   UNL A   1      30.752  23.233  24.508  1.00  0.00     0.314 C 
BRANCH   9  19
ATOM     19  C   UNL A   1      31.371  29.021  22.648  1.00  0.00     0.037 C 
BRANCH  19  20
ATOM     20  C   UNL A   1      29.845  29.174  22.685  1.00  0.00     0.001 C 
ATOM     21  C   UNL A   1      29.332  30.327  21.832  1.00  0.00     0.004 C 
ENDBRANCH  19  20
ENDBRANCH   9  19
BRANCH  18  22
ATOM     22  C   UNL A   1      30.729  23.389  26.039  1.00  0.00     0.429 C 
ATOM     23  F   UNL A   1      31.929  23.838  26.488  1.00  0.00    -0.167 F 
ATOM     24  F   UNL A   1      29.809  24.288  26.458  1.00  0.00    -0.167 F 
ATOM     25  F   UNL A   1      30.466  22.227  26.676  1.00  0.00    -0.167 F 
ENDBRANCH  18  22
ENDBRANCH   5   8
ENDBRANCH   3   4
ENDBRANCH   2   3
ENDBRANCH   1   2
BRANCH   1  26
ATOM     26  C   UNL A   1      37.398  21.410  24.601  1.00  0.00     0.002 C 
BRANCH  26  27
ATOM     27  C   UNL A   1      38.091  20.097  24.975  1.00  0.00     0.021 C 
BRANCH  27  28
ATOM     28  C   UNL A   1      39.167  20.220  26.046  1.00  0.00     0.116 C 
BRANCH  28  29
ATOM     29  N   UNL A   1      40.191  19.194  25.934  1.00  0.00    -0.352 N 
ATOM     30  C   UNL A   1      41.555  19.312  26.053  1.00  0.00     0.251 C 
ATOM     31  H   UNL A   1      39.859  18.285  25.748  1.00  0.00     0.163 HD
ATOM     32  O   UNL A   1      42.286  18.364  25.783  1.00  0.00    -0.269 OA
BRANCH  30  33
ATOM     33  C   UNL A   1      42.141  20.602  26.474  1.00  0.00     0.039 A 
ATOM     34  C   UNL A   1      42.213  20.944  27.827  1.00  0.00     0.014 A 
ATOM     35  C   UNL A   1      42.596  21.492  25.498  1.00  0.00     0.014 A 
ATOM     36  C   UNL A   1      42.587  22.232  28.191  1.00  0.00     0.010 A 
ATOM     37  C   UNL A   1      43.047  22.760  25.873  1.00  0.00     0.010 A 
ATOM     38  C   UNL A   1      42.998  23.158  27.218  1.00  0.00    -0.014 A 
BRANCH  38  39
ATOM     39  C   UNL A   1      43.351  24.541  27.629  1.00  0.00     0.031 A 
ATOM     40  C   UNL A   1      44.782  25.009  27.598  1.00  0.00     0.074 A 
ATOM     41  C   UNL A   1      42.372  25.397  27.979  1.00  0.00     0.049 A 
ATOM     42  N   UNL A   1      45.275  26.182  27.910  1.00  0.00    -0.248 NA
ATOM     43  C   UNL A   1      45.793  24.031  27.166  1.00  0.00     0.031 C 
ATOM     44  C   UNL A   1      40.946  25.068  28.038  1.00  0.00     0.029 A 
ATOM     45  N   UNL A   1      42.423  26.721  28.329  1.00  0.00    -0.354 N 
ATOM     46  C   UNL A   1      46.649  26.079  27.728  1.00  0.00     0.074 A 
ATOM     47  C   UNL A   1      46.917  24.720  27.308  1.00  0.00     0.031 C 
ATOM     48  C   UNL A   1      40.254  26.171  28.358  1.00  0.00     0.029 A 
ATOM     49  C   UNL A   1      41.189  27.269  28.583  1.00  0.00     0.049 A 
ATOM     50  H   UNL A   1      43.263  27.231  28.392  1.00  0.00     0.167 HD
ATOM     51  C   UNL A   1      47.599  27.032  27.882  1.00  0.00     0.037 A 
ATOM     52  C   UNL A   1      40.850  28.511  28.970  1.00  0.00     0.037 A 
ATOM     53  C   UNL A   1      47.333  28.389  28.283  1.00  0.00     0.049 A 
ATOM     54  C   UNL A   1      41.928  29.533  29.182  1.00  0.00     0.074 A 
ATOM     55  C   UNL A   1      48.226  29.434  28.447  1.00  0.00     0.029 A 
ATOM     56  N   UNL A   1      46.075  28.889  28.586  1.00  0.00    -0.354 N 
ATOM     57  N   UNL A   1      43.222  29.423  28.995  1.00  0.00    -0.248 NA
ATOM     58  C   UNL A   1      41.501  30.850  29.671  1.00  0.00     0.031 C 
ATOM     59  C   UNL A   1      47.513  30.556  28.885  1.00  0.00     0.029 A 
ATOM     60  C   UNL A   1      46.170  30.221  28.956  1.00  0.00     0.049 A 
ATOM     61  H   UNL A   1      45.237  28.373  28.544  1.00  0.00     0.167 HD
ATOM     62  C   UNL A   1      43.759  30.657  29.333  1.00  0.00     0.074 A 
ATOM     63  C   UNL A   1      42.649  31.509  29.712  1.00  0.00     0.031 C 
ATOM     64  C   UNL A   1      45.057  31.049  29.339  1.00  0.00     0.037 A 
BRANCH  51  65
ATOM     65  C   UNL A   1      49.024  26.633  27.630  1.00  0.00     0.057 A 
ATOM     66  C   UNL A   1      49.576  26.725  26.346  1.00  0.00     0.134 A 
ATOM     67  C   UNL A   1      49.845  26.134  28.651  1.00  0.00     0.134 A 
ATOM     68  F   UNL A   1      48.844  27.189  25.322  1.00  0.00    -0.206 F 
ATOM     69  C   UNL A   1      50.891  26.337  26.086  1.00  0.00     0.040 A 
ATOM     70  C   UNL A   1      51.169  25.764  28.408  1.00  0.00     0.040 A 
ATOM     71  F   UNL A   1      49.383  26.033  29.906  1.00  0.00    -0.206 F 
ATOM     72  C   UNL A   1      51.695  25.860  27.120  1.00  0.00     0.006 A 
ENDBRANCH  51  65
BRANCH  52  73
ATOM     73  C   UNL A   1      39.426  28.855  29.200  1.00  0.00     0.057 A 
ATOM     74  C   UNL A   1      38.622  29.356  28.169  1.00  0.00     0.134 A 
ATOM     75  C   UNL A   1      38.831  28.676  30.454  1.00  0.00     0.134 A 
ATOM     76  F   UNL A   1      39.134  29.553  26.946  1.00  0.00    -0.206 F 
ATOM     77  C   UNL A   1      37.280  29.675  28.378  1.00  0.00     0.040 A 
ATOM     78  C   UNL A   1      37.483  28.966  30.672  1.00  0.00     0.040 A 
ATOM     79  F   UNL A   1      39.546  28.180  31.475  1.00  0.00    -0.206 F 
ATOM     80  C   UNL A   1      36.705  29.473  29.631  1.00  0.00     0.006 A 
ENDBRANCH  52  73
BRANCH  64  81
ATOM     81  C   UNL A   1      45.332  32.462  29.756  1.00  0.00     0.057 A 
ATOM     82  C   UNL A   1      45.615  32.772  31.092  1.00  0.00     0.134 A 
ATOM     83  C   UNL A   1      45.315  33.517  28.835  1.00  0.00     0.134 A 
ATOM     84  F   UNL A   1      45.644  31.808  32.024  1.00  0.00    -0.206 F 
ATOM     85  C   UNL A   1      45.876  34.082  31.496  1.00  0.00     0.040 A 
ATOM     86  C   UNL A   1      45.598  34.828  29.223  1.00  0.00     0.040 A 
ATOM     87  F   UNL A   1      45.068  33.282  27.538  1.00  0.00    -0.206 F 
ATOM     88  C   UNL A   1      45.876  35.113  30.559  1.00  0.00     0.006 A 
ENDBRANCH  64  81
ENDBRANCH  38  39
ENDBRANCH  30  33
ENDBRANCH  28  29
ENDBRANCH  27  28
ENDBRANCH  26  27
ENDBRANCH   1  26
TORSDOF 16
ENDMDL
