MODEL 1
REMARK VINA RESULT:     -11.4      0.000      0.000
REMARK SMILES CC[C@@H]1CCC[C@@H]([NH+]2CC(n3cc(C(=O)NCCCCCCNC(=O)c4ccc(-c5c6nc(c(-c7c(F)cccc7F)c7ccc([nH]7)c(-c7c(F)cccc7F)c7nc(c(-c8c(F)cccc8F)c8ccc5[nH]8)C=C7)C=C6)cc4)nn3)C2)C1
REMARK SMILES IDX 19 1 18 2 17 3 16 4 14 5 15 6 13 8 11 9 12 10 81 11 80 12
REMARK SMILES IDX 10 13 8 14 9 15 82 16 7 18 3 19 4 20 83 21 5 22 6 23 2 24
REMARK SMILES IDX 1 25 20 26 21 27 22 28 23 29 24 30 25 32 26 33 27 34 79 35
REMARK SMILES IDX 28 36 78 37 29 38 30 39 31 40 72 41 32 42 77 43 71 44 73 45
REMARK SMILES IDX 33 46 76 47 70 48 69 49 34 51 60 52 43 53 59 54 44 55 47 56
REMARK SMILES IDX 58 57 74 58 45 59 46 60 57 62 75 63 48 64 35 65 36 66 41 67
REMARK SMILES IDX 37 68 38 69 40 70 42 71 39 72 61 73 62 74 67 75 63 76 64 77
REMARK SMILES IDX 66 78 68 79 65 80 49 81 50 82 55 83 51 84 52 85 54 86 56 87
REMARK SMILES IDX 53 88
REMARK H PARENT 16 7 8 17 23 31 73 50 47 61
REMARK Flexibility Score: inf
ROOT
ATOM      1  C   UNL A   1      33.766  32.588  27.638  1.00  0.00     0.002 C 
ENDROOT
BRANCH   1   2
ATOM      2  C   UNL A   1      34.592  31.364  28.040  1.00  0.00     0.021 C 
BRANCH   2   3
ATOM      3  C   UNL A   1      33.992  30.054  27.536  1.00  0.00     0.116 C 
BRANCH   3   4
ATOM      4  N   UNL A   1      32.960  30.291  26.545  1.00  0.00    -0.351 N 
ATOM      5  C   UNL A   1      32.042  29.470  25.927  1.00  0.00     0.273 C 
ATOM      6  O   UNL A   1      31.235  30.017  25.176  1.00  0.00    -0.267 OA
ATOM      7  H   UNL A   1      32.903  31.229  26.254  1.00  0.00     0.163 HD
BRANCH   5   8
ATOM      8  C   UNL A   1      32.029  28.031  26.156  1.00  0.00     0.170 A 
ATOM      9  N   UNL A   1      32.370  25.882  26.167  1.00  0.00    -0.237 N 
ATOM     10  C   UNL A   1      32.834  27.049  25.639  1.00  0.00     0.145 A 
ATOM     11  N   UNL A   1      31.283  26.092  26.916  1.00  0.00    -0.066 NA
ATOM     12  N   UNL A   1      31.067  27.407  26.932  1.00  0.00    -0.125 NA
BRANCH   9  13
ATOM     13  C   UNL A   1      32.743  24.671  25.541  1.00  0.00     0.218 C 
ATOM     14  N   UNL A   1      32.812  22.582  25.664  1.00  0.00    -0.329 N 
ATOM     15  C   UNL A   1      31.717  23.562  25.426  1.00  0.00     0.296 C 
ATOM     16  C   UNL A   1      33.538  23.670  26.393  1.00  0.00     0.296 C 
ATOM     17  H   UNL A   1      32.592  21.673  26.073  1.00  0.00     0.348 HD
BRANCH  14  18
ATOM     18  C   UNL A   1      33.555  22.057  24.487  1.00  0.00     0.184 C 
ATOM     19  C   UNL A   1      32.739  19.610  24.246  1.00  0.00    -0.006 C 
ATOM     20  C   UNL A   1      32.252  19.906  22.817  1.00  0.00     0.004 C 
ATOM     21  C   UNL A   1      33.882  20.555  24.659  1.00  0.00     0.068 C 
ATOM     22  C   UNL A   1      31.968  21.380  22.557  1.00  0.00     0.006 C 
ATOM     23  C   UNL A   1      33.106  22.285  23.025  1.00  0.00     0.065 C 
BRANCH  19  24
ATOM     24  C   UNL A   1      33.107  18.123  24.365  1.00  0.00     0.000 C 
ATOM     25  C   UNL A   1      32.672  17.503  25.684  1.00  0.00     0.004 C 
ENDBRANCH  19  24
ENDBRANCH  14  18
ENDBRANCH   9  13
ENDBRANCH   5   8
ENDBRANCH   3   4
ENDBRANCH   2   3
ENDBRANCH   1   2
BRANCH   1  26
ATOM     26  C   UNL A   1      34.086  33.875  28.416  1.00  0.00     0.002 C 
BRANCH  26  27
ATOM     27  C   UNL A   1      32.894  34.794  28.732  1.00  0.00     0.021 C 
BRANCH  27  28
ATOM     28  C   UNL A   1      33.282  36.050  29.495  1.00  0.00     0.116 C 
BRANCH  28  29
ATOM     29  N   UNL A   1      32.566  36.157  30.761  1.00  0.00    -0.352 N 
ATOM     30  C   UNL A   1      32.727  35.415  31.913  1.00  0.00     0.251 C 
ATOM     31  H   UNL A   1      31.873  36.854  30.800  1.00  0.00     0.163 HD
ATOM     32  O   UNL A   1      31.840  35.355  32.747  1.00  0.00    -0.269 OA
BRANCH  30  33
ATOM     33  C   UNL A   1      33.993  34.689  32.119  1.00  0.00     0.039 A 
ATOM     34  C   UNL A   1      34.054  33.305  31.950  1.00  0.00     0.014 A 
ATOM     35  C   UNL A   1      35.129  35.413  32.477  1.00  0.00     0.014 A 
ATOM     36  C   UNL A   1      35.287  32.672  32.066  1.00  0.00     0.010 A 
ATOM     37  C   UNL A   1      36.365  34.816  32.439  1.00  0.00     0.010 A 
ATOM     38  C   UNL A   1      36.446  33.439  32.283  1.00  0.00    -0.014 A 
BRANCH  38  39
ATOM     39  C   UNL A   1      37.763  32.817  32.204  1.00  0.00     0.031 A 
ATOM     40  C   UNL A   1      38.477  32.778  33.505  1.00  0.00     0.074 A 
ATOM     41  C   UNL A   1      38.242  32.176  31.117  1.00  0.00     0.049 A 
ATOM     42  N   UNL A   1      39.483  33.508  33.850  1.00  0.00    -0.248 NA
ATOM     43  C   UNL A   1      37.917  31.976  34.603  1.00  0.00     0.031 C 
ATOM     44  C   UNL A   1      37.554  31.870  29.859  1.00  0.00     0.029 A 
ATOM     45  N   UNL A   1      39.453  31.574  30.943  1.00  0.00    -0.354 N 
ATOM     46  C   UNL A   1      39.843  33.080  35.122  1.00  0.00     0.074 A 
ATOM     47  C   UNL A   1      38.734  32.303  35.609  1.00  0.00     0.031 C 
ATOM     48  C   UNL A   1      38.263  30.954  29.162  1.00  0.00     0.029 A 
ATOM     49  C   UNL A   1      39.530  30.735  29.836  1.00  0.00     0.049 A 
ATOM     50  H   UNL A   1      40.212  31.721  31.553  1.00  0.00     0.167 HD
ATOM     51  C   UNL A   1      41.142  33.162  35.525  1.00  0.00     0.037 A 
ATOM     52  C   UNL A   1      40.558  29.910  29.507  1.00  0.00     0.037 A 
ATOM     53  C   UNL A   1      41.888  34.065  34.674  1.00  0.00     0.049 A 
ATOM     54  C   UNL A   1      41.764  30.412  30.207  1.00  0.00     0.074 A 
ATOM     55  C   UNL A   1      41.739  35.382  34.279  1.00  0.00     0.029 A 
ATOM     56  N   UNL A   1      42.759  33.508  33.769  1.00  0.00    -0.354 N 
ATOM     57  N   UNL A   1      42.361  31.530  29.906  1.00  0.00    -0.248 NA
ATOM     58  C   UNL A   1      42.037  29.897  31.540  1.00  0.00     0.031 C 
ATOM     59  C   UNL A   1      42.113  35.398  32.900  1.00  0.00     0.029 A 
ATOM     60  C   UNL A   1      42.551  34.118  32.561  1.00  0.00     0.049 A 
ATOM     61  H   UNL A   1      43.415  32.797  33.955  1.00  0.00     0.167 HD
ATOM     62  C   UNL A   1      42.676  32.092  31.134  1.00  0.00     0.074 A 
ATOM     63  C   UNL A   1      42.545  30.998  32.096  1.00  0.00     0.031 C 
ATOM     64  C   UNL A   1      42.717  33.448  31.294  1.00  0.00     0.037 A 
BRANCH  51  65
ATOM     65  C   UNL A   1      41.834  32.107  36.360  1.00  0.00     0.057 A 
ATOM     66  C   UNL A   1      42.648  32.528  37.429  1.00  0.00     0.134 A 
ATOM     67  C   UNL A   1      42.009  30.764  35.971  1.00  0.00     0.134 A 
ATOM     68  F   UNL A   1      42.575  33.783  37.898  1.00  0.00    -0.206 F 
ATOM     69  C   UNL A   1      43.645  31.713  37.979  1.00  0.00     0.040 A 
ATOM     70  C   UNL A   1      42.966  29.926  36.550  1.00  0.00     0.040 A 
ATOM     71  F   UNL A   1      41.350  30.211  34.948  1.00  0.00    -0.206 F 
ATOM     72  C   UNL A   1      43.816  30.412  37.528  1.00  0.00     0.006 A 
ENDBRANCH  51  65
BRANCH  52  73
ATOM     73  C   UNL A   1      40.529  28.572  28.868  1.00  0.00     0.057 A 
ATOM     74  C   UNL A   1      39.838  27.505  29.464  1.00  0.00     0.134 A 
ATOM     75  C   UNL A   1      40.908  28.384  27.528  1.00  0.00     0.134 A 
ATOM     76  F   UNL A   1      39.407  27.593  30.731  1.00  0.00    -0.206 F 
ATOM     77  C   UNL A   1      39.496  26.345  28.755  1.00  0.00     0.040 A 
ATOM     78  C   UNL A   1      40.580  27.228  26.811  1.00  0.00     0.040 A 
ATOM     79  F   UNL A   1      41.523  29.355  26.838  1.00  0.00    -0.206 F 
ATOM     80  C   UNL A   1      39.853  26.211  27.418  1.00  0.00     0.006 A 
ENDBRANCH  52  73
BRANCH  64  81
ATOM     81  C   UNL A   1      42.721  34.306  30.059  1.00  0.00     0.057 A 
ATOM     82  C   UNL A   1      41.573  34.821  29.437  1.00  0.00     0.134 A 
ATOM     83  C   UNL A   1      43.955  34.721  29.547  1.00  0.00     0.134 A 
ATOM     84  F   UNL A   1      40.346  34.565  29.911  1.00  0.00    -0.206 F 
ATOM     85  C   UNL A   1      41.654  35.667  28.325  1.00  0.00     0.040 A 
ATOM     86  C   UNL A   1      44.049  35.594  28.462  1.00  0.00     0.040 A 
ATOM     87  F   UNL A   1      45.097  34.313  30.123  1.00  0.00    -0.206 F 
ATOM     88  C   UNL A   1      42.896  36.059  27.837  1.00  0.00     0.006 A 
ENDBRANCH  64  81
ENDBRANCH  38  39
ENDBRANCH  30  33
ENDBRANCH  28  29
ENDBRANCH  27  28
ENDBRANCH  26  27
ENDBRANCH   1  26
TORSDOF 16
ENDMDL
MODEL 2
REMARK VINA RESULT:     -10.9      3.086      4.554
REMARK SMILES CC[C@@H]1CCC[C@@H]([NH+]2CC(n3cc(C(=O)NCCCCCCNC(=O)c4ccc(-c5c6nc(c(-c7c(F)cccc7F)c7ccc([nH]7)c(-c7c(F)cccc7F)c7nc(c(-c8c(F)cccc8F)c8ccc5[nH]8)C=C7)C=C6)cc4)nn3)C2)C1
REMARK SMILES IDX 19 1 18 2 17 3 16 4 14 5 15 6 13 8 11 9 12 10 81 11 80 12
REMARK SMILES IDX 10 13 8 14 9 15 82 16 7 18 3 19 4 20 83 21 5 22 6 23 2 24
REMARK SMILES IDX 1 25 20 26 21 27 22 28 23 29 24 30 25 32 26 33 27 34 79 35
REMARK SMILES IDX 28 36 78 37 29 38 30 39 31 40 72 41 32 42 77 43 71 44 73 45
REMARK SMILES IDX 33 46 76 47 70 48 69 49 34 51 60 52 43 53 59 54 44 55 47 56
REMARK SMILES IDX 58 57 74 58 45 59 46 60 57 62 75 63 48 64 35 65 36 66 41 67
REMARK SMILES IDX 37 68 38 69 40 70 42 71 39 72 61 73 62 74 67 75 63 76 64 77
REMARK SMILES IDX 66 78 68 79 65 80 49 81 50 82 55 83 51 84 52 85 54 86 56 87
REMARK SMILES IDX 53 88
REMARK H PARENT 16 7 8 17 23 31 73 50 47 61
REMARK Flexibility Score: inf
ROOT
ATOM      1  C   UNL A   1      33.435  29.138  27.254  1.00  0.00     0.002 C 
ENDROOT
BRANCH   1   2
ATOM      2  C   UNL A   1      32.114  29.359  26.514  1.00  0.00     0.021 C 
BRANCH   2   3
ATOM      3  C   UNL A   1      32.312  29.751  25.052  1.00  0.00     0.116 C 
BRANCH   3   4
ATOM      4  N   UNL A   1      31.044  29.995  24.392  1.00  0.00    -0.351 N 
ATOM      5  C   UNL A   1      30.207  29.202  23.638  1.00  0.00     0.273 C 
ATOM      6  O   UNL A   1      29.141  29.707  23.287  1.00  0.00    -0.267 OA
ATOM      7  H   UNL A   1      30.713  30.915  24.508  1.00  0.00     0.163 HD
BRANCH   5   8
ATOM      8  C   UNL A   1      30.568  27.837  23.279  1.00  0.00     0.170 A 
ATOM      9  N   UNL A   1      31.054  25.717  23.223  1.00  0.00    -0.237 N 
ATOM     10  C   UNL A   1      30.649  26.713  24.060  1.00  0.00     0.145 A 
ATOM     11  N   UNL A   1      31.297  26.189  21.997  1.00  0.00    -0.066 NA
ATOM     12  N   UNL A   1      30.991  27.486  22.009  1.00  0.00    -0.125 NA
BRANCH   9  13
ATOM     13  C   UNL A   1      31.587  24.540  23.796  1.00  0.00     0.218 C 
ATOM     14  N   UNL A   1      32.230  22.572  23.481  1.00  0.00    -0.329 N 
ATOM     15  C   UNL A   1      32.808  23.906  23.161  1.00  0.00     0.296 C 
ATOM     16  C   UNL A   1      30.881  23.221  23.446  1.00  0.00     0.296 C 
ATOM     17  H   UNL A   1      32.487  21.764  22.913  1.00  0.00     0.348 HD
BRANCH  14  18
ATOM     18  C   UNL A   1      32.561  21.960  24.797  1.00  0.00     0.184 C 
ATOM     19  C   UNL A   1      33.539  19.637  24.201  1.00  0.00    -0.006 C 
ATOM     20  C   UNL A   1      34.849  19.994  24.925  1.00  0.00     0.004 C 
ATOM     21  C   UNL A   1      32.347  20.429  24.767  1.00  0.00     0.068 C 
ATOM     22  C   UNL A   1      35.095  21.493  25.044  1.00  0.00     0.006 C 
ATOM     23  C   UNL A   1      33.872  22.246  25.565  1.00  0.00     0.065 C 
BRANCH  19  24
ATOM     24  C   UNL A   1      33.331  18.115  24.240  1.00  0.00     0.000 C 
ATOM     25  C   UNL A   1      32.546  17.650  25.458  1.00  0.00     0.004 C 
ENDBRANCH  19  24
ENDBRANCH  14  18
ENDBRANCH   9  13
ENDBRANCH   5   8
ENDBRANCH   3   4
ENDBRANCH   2   3
ENDBRANCH   1   2
BRANCH   1  26
ATOM     26  C   UNL A   1      34.346  30.374  27.344  1.00  0.00     0.002 C 
BRANCH  26  27
ATOM     27  C   UNL A   1      33.654  31.706  27.678  1.00  0.00     0.021 C 
BRANCH  27  28
ATOM     28  C   UNL A   1      34.609  32.777  28.179  1.00  0.00     0.116 C 
BRANCH  28  29
ATOM     29  N   UNL A   1      34.506  32.963  29.622  1.00  0.00    -0.352 N 
ATOM     30  C   UNL A   1      35.160  32.288  30.632  1.00  0.00     0.251 C 
ATOM     31  H   UNL A   1      33.885  33.668  29.916  1.00  0.00     0.163 HD
ATOM     32  O   UNL A   1      34.718  32.285  31.768  1.00  0.00    -0.269 OA
BRANCH  30  33
ATOM     33  C   UNL A   1      36.404  31.565  30.313  1.00  0.00     0.039 A 
ATOM     34  C   UNL A   1      37.599  32.259  30.115  1.00  0.00     0.014 A 
ATOM     35  C   UNL A   1      36.364  30.175  30.220  1.00  0.00     0.014 A 
ATOM     36  C   UNL A   1      38.765  31.531  29.905  1.00  0.00     0.010 A 
ATOM     37  C   UNL A   1      37.532  29.456  30.167  1.00  0.00     0.010 A 
ATOM     38  C   UNL A   1      38.730  30.126  29.961  1.00  0.00    -0.014 A 
BRANCH  38  39
ATOM     39  C   UNL A   1      39.971  29.360  29.945  1.00  0.00     0.031 A 
ATOM     40  C   UNL A   1      40.553  29.150  31.294  1.00  0.00     0.074 A 
ATOM     41  C   UNL A   1      40.474  28.741  28.855  1.00  0.00     0.049 A 
ATOM     42  N   UNL A   1      41.598  29.731  31.778  1.00  0.00    -0.248 NA
ATOM     43  C   UNL A   1      39.808  28.348  32.276  1.00  0.00     0.031 C 
ATOM     44  C   UNL A   1      39.875  28.603  27.525  1.00  0.00     0.029 A 
ATOM     45  N   UNL A   1      41.620  28.014  28.739  1.00  0.00    -0.354 N 
ATOM     46  C   UNL A   1      41.789  29.180  33.039  1.00  0.00     0.074 A 
ATOM     47  C   UNL A   1      40.559  28.508  33.370  1.00  0.00     0.031 C 
ATOM     48  C   UNL A   1      40.539  27.658  26.821  1.00  0.00     0.029 A 
ATOM     49  C   UNL A   1      41.706  27.247  27.580  1.00  0.00     0.049 A 
ATOM     50  H   UNL A   1      42.331  28.029  29.419  1.00  0.00     0.167 HD
ATOM     51  C   UNL A   1      43.045  29.080  33.554  1.00  0.00     0.037 A 
ATOM     52  C   UNL A   1      42.660  26.330  27.277  1.00  0.00     0.037 A 
ATOM     53  C   UNL A   1      43.963  29.944  32.841  1.00  0.00     0.049 A 
ATOM     54  C   UNL A   1      43.846  26.639  28.112  1.00  0.00     0.074 A 
ATOM     55  C   UNL A   1      44.000  31.293  32.538  1.00  0.00     0.029 A 
ATOM     56  N   UNL A   1      44.847  29.350  31.973  1.00  0.00    -0.354 N 
ATOM     57  N   UNL A   1      44.589  27.696  27.950  1.00  0.00    -0.248 NA
ATOM     58  C   UNL A   1      43.935  26.006  29.419  1.00  0.00     0.031 C 
ATOM     59  C   UNL A   1      44.499  31.357  31.202  1.00  0.00     0.029 A 
ATOM     60  C   UNL A   1      44.820  30.060  30.803  1.00  0.00     0.049 A 
ATOM     61  H   UNL A   1      45.399  28.556  32.158  1.00  0.00     0.167 HD
ATOM     62  C   UNL A   1      44.850  28.133  29.239  1.00  0.00     0.074 A 
ATOM     63  C   UNL A   1      44.510  27.001  30.099  1.00  0.00     0.031 C 
ATOM     64  C   UNL A   1      45.027  29.461  29.505  1.00  0.00     0.037 A 
BRANCH  51  65
ATOM     65  C   UNL A   1      43.535  27.898  34.361  1.00  0.00     0.057 A 
ATOM     66  C   UNL A   1      43.428  26.612  33.797  1.00  0.00     0.134 A 
ATOM     67  C   UNL A   1      43.781  27.920  35.749  1.00  0.00     0.134 A 
ATOM     68  F   UNL A   1      43.198  26.453  32.485  1.00  0.00    -0.206 F 
ATOM     69  C   UNL A   1      43.439  25.448  34.575  1.00  0.00     0.040 A 
ATOM     70  C   UNL A   1      43.847  26.761  36.526  1.00  0.00     0.040 A 
ATOM     71  F   UNL A   1      43.870  29.053  36.454  1.00  0.00    -0.206 F 
ATOM     72  C   UNL A   1      43.632  25.521  35.947  1.00  0.00     0.006 A 
ENDBRANCH  51  65
BRANCH  52  73
ATOM     73  C   UNL A   1      42.542  25.051  26.536  1.00  0.00     0.057 A 
ATOM     74  C   UNL A   1      43.327  24.804  25.397  1.00  0.00     0.134 A 
ATOM     75  C   UNL A   1      41.899  23.932  27.090  1.00  0.00     0.134 A 
ATOM     76  F   UNL A   1      44.006  25.799  24.808  1.00  0.00    -0.206 F 
ATOM     77  C   UNL A   1      43.504  23.515  24.875  1.00  0.00     0.040 A 
ATOM     78  C   UNL A   1      42.061  22.642  26.574  1.00  0.00     0.040 A 
ATOM     79  F   UNL A   1      41.168  24.035  28.209  1.00  0.00    -0.206 F 
ATOM     80  C   UNL A   1      42.883  22.426  25.475  1.00  0.00     0.006 A 
ENDBRANCH  52  73
BRANCH  64  81
ATOM     81  C   UNL A   1      45.240  30.393  28.346  1.00  0.00     0.057 A 
ATOM     82  C   UNL A   1      44.218  31.063  27.656  1.00  0.00     0.134 A 
ATOM     83  C   UNL A   1      46.555  30.713  27.988  1.00  0.00     0.134 A 
ATOM     84  F   UNL A   1      42.930  30.903  27.989  1.00  0.00    -0.206 F 
ATOM     85  C   UNL A   1      44.494  31.967  26.624  1.00  0.00     0.040 A 
ATOM     86  C   UNL A   1      46.844  31.641  26.986  1.00  0.00     0.040 A 
ATOM     87  F   UNL A   1      47.587  30.153  28.639  1.00  0.00    -0.206 F 
ATOM     88  C   UNL A   1      45.812  32.261  26.290  1.00  0.00     0.006 A 
ENDBRANCH  64  81
ENDBRANCH  38  39
ENDBRANCH  30  33
ENDBRANCH  28  29
ENDBRANCH  27  28
ENDBRANCH  26  27
ENDBRANCH   1  26
TORSDOF 16
ENDMDL
MODEL 3
REMARK VINA RESULT:     -10.7      1.843      2.522
REMARK SMILES CC[C@@H]1CCC[C@@H]([NH+]2CC(n3cc(C(=O)NCCCCCCNC(=O)c4ccc(-c5c6nc(c(-c7c(F)cccc7F)c7ccc([nH]7)c(-c7c(F)cccc7F)c7nc(c(-c8c(F)cccc8F)c8ccc5[nH]8)C=C7)C=C6)cc4)nn3)C2)C1
REMARK SMILES IDX 19 1 18 2 17 3 16 4 14 5 15 6 13 8 11 9 12 10 81 11 80 12
REMARK SMILES IDX 10 13 8 14 9 15 82 16 7 18 3 19 4 20 83 21 5 22 6 23 2 24
REMARK SMILES IDX 1 25 20 26 21 27 22 28 23 29 24 30 25 32 26 33 27 34 79 35
REMARK SMILES IDX 28 36 78 37 29 38 30 39 31 40 72 41 32 42 77 43 71 44 73 45
REMARK SMILES IDX 33 46 76 47 70 48 69 49 34 51 60 52 43 53 59 54 44 55 47 56
REMARK SMILES IDX 58 57 74 58 45 59 46 60 57 62 75 63 48 64 35 65 36 66 41 67
REMARK SMILES IDX 37 68 38 69 40 70 42 71 39 72 61 73 62 74 67 75 63 76 64 77
REMARK SMILES IDX 66 78 68 79 65 80 49 81 50 82 55 83 51 84 52 85 54 86 56 87
REMARK SMILES IDX 53 88
REMARK H PARENT 16 7 8 17 23 31 73 50 47 61
REMARK Flexibility Score: inf
ROOT
ATOM      1  C   UNL A   1      35.129  32.194  27.980  1.00  0.00     0.002 C 
ENDROOT
BRANCH   1   2
ATOM      2  C   UNL A   1      35.032  30.684  27.752  1.00  0.00     0.021 C 
BRANCH   2   3
ATOM      3  C   UNL A   1      33.637  30.240  27.319  1.00  0.00     0.116 C 
BRANCH   3   4
ATOM      4  N   UNL A   1      33.556  30.076  25.880  1.00  0.00    -0.351 N 
ATOM      5  C   UNL A   1      33.103  29.056  25.073  1.00  0.00     0.273 C 
ATOM      6  O   UNL A   1      33.098  29.276  23.862  1.00  0.00    -0.267 OA
ATOM      7  H   UNL A   1      33.892  30.853  25.378  1.00  0.00     0.163 HD
BRANCH   5   8
ATOM      8  C   UNL A   1      32.653  27.787  25.628  1.00  0.00     0.170 A 
ATOM      9  N   UNL A   1      32.425  25.738  26.324  1.00  0.00    -0.237 N 
ATOM     10  C   UNL A   1      33.323  26.599  25.771  1.00  0.00     0.145 A 
ATOM     11  N   UNL A   1      31.225  26.313  26.454  1.00  0.00    -0.066 NA
ATOM     12  N   UNL A   1      31.349  27.574  26.044  1.00  0.00    -0.125 NA
BRANCH   9  13
ATOM     13  C   UNL A   1      32.693  24.352  26.246  1.00  0.00     0.218 C 
ATOM     14  N   UNL A   1      32.495  22.587  25.136  1.00  0.00    -0.329 N 
ATOM     15  C   UNL A   1      33.341  23.803  24.991  1.00  0.00     0.296 C 
ATOM     16  C   UNL A   1      31.513  23.440  25.879  1.00  0.00     0.296 C 
ATOM     17  H   UNL A   1      32.258  22.038  24.309  1.00  0.00     0.348 HD
BRANCH  14  18
ATOM     18  C   UNL A   1      33.024  21.453  25.941  1.00  0.00     0.184 C 
ATOM     19  C   UNL A   1      33.248  19.507  24.247  1.00  0.00    -0.006 C 
ATOM     20  C   UNL A   1      34.751  19.400  24.557  1.00  0.00     0.004 C 
ATOM     21  C   UNL A   1      32.468  20.103  25.434  1.00  0.00     0.068 C 
ATOM     22  C   UNL A   1      35.354  20.681  25.120  1.00  0.00     0.006 C 
ATOM     23  C   UNL A   1      34.525  21.264  26.262  1.00  0.00     0.065 C 
BRANCH  19  24
ATOM     24  C   UNL A   1      32.718  18.136  23.800  1.00  0.00     0.000 C 
ATOM     25  C   UNL A   1      33.809  17.218  23.268  1.00  0.00     0.004 C 
ENDBRANCH  19  24
ENDBRANCH  14  18
ENDBRANCH   9  13
ENDBRANCH   5   8
ENDBRANCH   3   4
ENDBRANCH   2   3
ENDBRANCH   1   2
BRANCH   1  26
ATOM     26  C   UNL A   1      34.999  32.642  29.445  1.00  0.00     0.002 C 
BRANCH  26  27
ATOM     27  C   UNL A   1      33.930  33.708  29.737  1.00  0.00     0.021 C 
BRANCH  27  28
ATOM     28  C   UNL A   1      34.497  35.110  29.891  1.00  0.00     0.116 C 
BRANCH  28  29
ATOM     29  N   UNL A   1      34.262  35.646  31.226  1.00  0.00    -0.352 N 
ATOM     30  C   UNL A   1      34.673  35.148  32.446  1.00  0.00     0.251 C 
ATOM     31  H   UNL A   1      33.739  36.479  31.264  1.00  0.00     0.163 HD
ATOM     32  O   UNL A   1      34.110  35.475  33.476  1.00  0.00    -0.269 OA
BRANCH  30  33
ATOM     33  C   UNL A   1      35.805  34.206  32.482  1.00  0.00     0.039 A 
ATOM     34  C   UNL A   1      35.607  32.870  32.835  1.00  0.00     0.014 A 
ATOM     35  C   UNL A   1      37.076  34.673  32.149  1.00  0.00     0.014 A 
ATOM     36  C   UNL A   1      36.687  31.996  32.770  1.00  0.00     0.010 A 
ATOM     37  C   UNL A   1      38.100  33.785  31.936  1.00  0.00     0.010 A 
ATOM     38  C   UNL A   1      37.927  32.454  32.291  1.00  0.00    -0.014 A 
BRANCH  38  39
ATOM     39  C   UNL A   1      39.006  31.510  32.025  1.00  0.00     0.031 A 
ATOM     40  C   UNL A   1      39.720  31.068  33.249  1.00  0.00     0.074 A 
ATOM     41  C   UNL A   1      39.246  30.941  30.825  1.00  0.00     0.049 A 
ATOM     42  N   UNL A   1      40.904  31.424  33.617  1.00  0.00    -0.248 NA
ATOM     43  C   UNL A   1      38.988  30.291  34.262  1.00  0.00     0.031 C 
ATOM     44  C   UNL A   1      38.459  31.041  29.592  1.00  0.00     0.029 A 
ATOM     45  N   UNL A   1      40.226  30.059  30.477  1.00  0.00    -0.354 N 
ATOM     46  C   UNL A   1      41.166  30.717  34.785  1.00  0.00     0.074 A 
ATOM     47  C   UNL A   1      39.896  30.214  35.239  1.00  0.00     0.031 C 
ATOM     48  C   UNL A   1      38.852  30.085  28.720  1.00  0.00     0.029 A 
ATOM     49  C   UNL A   1      40.023  29.418  29.258  1.00  0.00     0.049 A 
ATOM     50  H   UNL A   1      41.014  29.890  31.041  1.00  0.00     0.167 HD
ATOM     51  C   UNL A   1      42.445  30.368  35.096  1.00  0.00     0.037 A 
ATOM     52  C   UNL A   1      40.758  28.401  28.739  1.00  0.00     0.037 A 
ATOM     53  C   UNL A   1      43.392  31.149  34.328  1.00  0.00     0.049 A 
ATOM     54  C   UNL A   1      42.080  28.429  29.409  1.00  0.00     0.074 A 
ATOM     55  C   UNL A   1      43.617  32.500  34.136  1.00  0.00     0.029 A 
ATOM     56  N   UNL A   1      44.037  30.521  33.289  1.00  0.00    -0.354 N 
ATOM     57  N   UNL A   1      42.964  29.369  29.227  1.00  0.00    -0.248 NA
ATOM     58  C   UNL A   1      42.236  27.654  30.631  1.00  0.00     0.031 C 
ATOM     59  C   UNL A   1      43.935  32.628  32.750  1.00  0.00     0.029 A 
ATOM     60  C   UNL A   1      43.974  31.347  32.200  1.00  0.00     0.049 A 
ATOM     61  H   UNL A   1      44.466  29.635  33.323  1.00  0.00     0.167 HD
ATOM     62  C   UNL A   1      43.466  29.619  30.494  1.00  0.00     0.074 A 
ATOM     63  C   UNL A   1      43.057  28.468  31.298  1.00  0.00     0.031 C 
ATOM     64  C   UNL A   1      43.900  30.866  30.841  1.00  0.00     0.037 A 
BRANCH  51  65
ATOM     65  C   UNL A   1      42.831  29.044  35.718  1.00  0.00     0.057 A 
ATOM     66  C   UNL A   1      43.812  29.039  36.728  1.00  0.00     0.134 A 
ATOM     67  C   UNL A   1      42.548  27.782  35.158  1.00  0.00     0.134 A 
ATOM     68  F   UNL A   1      44.171  30.176  37.345  1.00  0.00    -0.206 F 
ATOM     69  C   UNL A   1      44.540  27.891  37.062  1.00  0.00     0.040 A 
ATOM     70  C   UNL A   1      43.233  26.620  35.522  1.00  0.00     0.040 A 
ATOM     71  F   UNL A   1      41.675  27.608  34.160  1.00  0.00    -0.206 F 
ATOM     72  C   UNL A   1      44.262  26.679  36.447  1.00  0.00     0.006 A 
ENDBRANCH  51  65
BRANCH  52  73
ATOM     73  C   UNL A   1      40.326  27.243  27.920  1.00  0.00     0.057 A 
ATOM     74  C   UNL A   1      40.907  26.991  26.666  1.00  0.00     0.134 A 
ATOM     75  C   UNL A   1      39.569  26.192  28.466  1.00  0.00     0.134 A 
ATOM     76  F   UNL A   1      41.673  27.918  26.071  1.00  0.00    -0.206 F 
ATOM     77  C   UNL A   1      40.789  25.753  26.021  1.00  0.00     0.040 A 
ATOM     78  C   UNL A   1      39.437  24.954  27.828  1.00  0.00     0.040 A 
ATOM     79  F   UNL A   1      39.013  26.296  29.681  1.00  0.00    -0.206 F 
ATOM     80  C   UNL A   1      40.065  24.723  26.611  1.00  0.00     0.006 A 
ENDBRANCH  52  73
BRANCH  64  81
ATOM     81  C   UNL A   1      44.111  31.873  29.745  1.00  0.00     0.057 A 
ATOM     82  C   UNL A   1      43.149  32.796  29.307  1.00  0.00     0.134 A 
ATOM     83  C   UNL A   1      45.390  31.984  29.187  1.00  0.00     0.134 A 
ATOM     84  F   UNL A   1      41.924  32.839  29.849  1.00  0.00    -0.206 F 
ATOM     85  C   UNL A   1      43.435  33.748  28.323  1.00  0.00     0.040 A 
ATOM     86  C   UNL A   1      45.698  32.953  28.231  1.00  0.00     0.040 A 
ATOM     87  F   UNL A   1      46.377  31.170  29.594  1.00  0.00    -0.206 F 
ATOM     88  C   UNL A   1      44.715  33.831  27.785  1.00  0.00     0.006 A 
ENDBRANCH  64  81
ENDBRANCH  38  39
ENDBRANCH  30  33
ENDBRANCH  28  29
ENDBRANCH  27  28
ENDBRANCH  26  27
ENDBRANCH   1  26
TORSDOF 16
ENDMDL
