MODEL 1
REMARK VINA RESULT:     -11.2      0.000      0.000
REMARK SMILES Cc1cc(OCC(=O)Nc2sccc2C(=O)NCCCCCCNC(=O)c2ccc(-c3c4nc(c(-c5c(F)cccc5F)c5ccc([nH]5)c(-c5c(F)cccc5F)c5nc(c(-c6c(F)cccc6F)c6ccc3[nH]6)C=C5)C=C4)cc2)ccc1Cl
REMARK SMILES IDX 19 1 18 2 17 3 15 4 16 5 14 7 10 8 11 9 12 10 13 11 9 12
REMARK SMILES IDX 7 13 8 14 6 16 5 17 4 18 1 19 2 20 3 21 83 22 82 23 84 24
REMARK SMILES IDX 81 25 20 26 21 27 22 28 23 29 24 30 25 31 26 33 27 34 28 35
REMARK SMILES IDX 80 36 29 37 79 38 30 39 31 40 32 41 73 42 33 43 78 44 72 45
REMARK SMILES IDX 74 46 34 47 77 48 71 49 70 50 35 52 61 53 44 54 60 55 45 56
REMARK SMILES IDX 48 57 59 58 75 59 46 60 47 61 58 63 76 64 49 65 36 66 37 67
REMARK SMILES IDX 42 68 38 69 39 70 41 71 43 72 40 73 62 74 63 75 68 76 64 77
REMARK SMILES IDX 65 78 67 79 69 80 66 81 50 82 51 83 56 84 52 85 53 86 55 87
REMARK SMILES IDX 57 88 54 89
REMARK H PARENT 17 6 9 15 24 32 74 51 48 62
REMARK Flexibility Score: inf
ROOT
ATOM      1  C   UNL A   1      36.953  23.806  25.214  1.00  0.00     0.021 C 
ENDROOT
BRANCH   1   2
ATOM      2  C   UNL A   1      35.537  24.250  25.582  1.00  0.00     0.116 C 
BRANCH   2   3
ATOM      3  N   UNL A   1      34.730  24.582  24.426  1.00  0.00    -0.352 N 
ATOM      4  C   UNL A   1      33.589  25.338  24.336  1.00  0.00     0.254 C 
ATOM      5  O   UNL A   1      32.885  25.180  23.336  1.00  0.00    -0.269 OA
ATOM      6  H   UNL A   1      35.050  24.207  23.574  1.00  0.00     0.163 HD
BRANCH   4   7
ATOM      7  C   UNL A   1      33.135  26.189  25.430  1.00  0.00     0.074 A 
ATOM      8  C   UNL A   1      32.055  26.077  26.285  1.00  0.00     0.108 A 
ATOM      9  S   UNL A   1      31.746  27.538  27.131  1.00  0.00    -0.126 S 
ATOM     10  C   UNL A   1      33.223  28.219  26.635  1.00  0.00     0.068 A 
ATOM     11  C   UNL A   1      33.867  27.402  25.741  1.00  0.00     0.028 A 
BRANCH   8  12
ATOM     12  N   UNL A   1      31.080  25.159  26.585  1.00  0.00    -0.314 N 
ATOM     13  C   UNL A   1      31.113  23.809  26.764  1.00  0.00     0.262 C 
ATOM     14  O   UNL A   1      30.026  23.216  26.705  1.00  0.00    -0.271 OA
ATOM     15  H   UNL A   1      30.184  25.553  26.693  1.00  0.00     0.170 HD
BRANCH  13  16
ATOM     16  C   UNL A   1      32.353  23.063  27.283  1.00  0.00     0.329 C 
BRANCH  16  17
ATOM     17  O   UNL A   1      33.287  22.465  26.424  1.00  0.00    -0.484 OA
BRANCH  17  18
ATOM     18  C   UNL A   1      32.909  21.536  25.499  1.00  0.00     0.120 A 
ATOM     19  C   UNL A   1      31.890  20.939  21.869  1.00  0.00     0.046 C 
ATOM     20  C   UNL A   1      32.289  20.675  23.297  1.00  0.00    -0.029 A 
ATOM     21  C   UNL A   1      32.448  21.755  24.201  1.00  0.00     0.051 A 
ATOM     22  C   UNL A   1      32.590  19.376  23.732  1.00  0.00     0.044 A 
ATOM     23  C   UNL A   1      32.974  19.148  25.049  1.00  0.00     0.024 A 
ATOM     24  Cl  UNL A   1      32.541  18.021  22.663  1.00  0.00    -0.084 Cl
ATOM     25  C   UNL A   1      33.113  20.222  25.925  1.00  0.00     0.048 A 
ENDBRANCH  17  18
ENDBRANCH  16  17
ENDBRANCH  13  16
ENDBRANCH   8  12
ENDBRANCH   4   7
ENDBRANCH   2   3
ENDBRANCH   1   2
BRANCH   1  26
ATOM     26  C   UNL A   1      37.031  22.755  24.100  1.00  0.00     0.002 C 
BRANCH  26  27
ATOM     27  C   UNL A   1      36.342  21.422  24.396  1.00  0.00     0.002 C 
BRANCH  27  28
ATOM     28  C   UNL A   1      37.142  20.381  25.165  1.00  0.00     0.021 C 
BRANCH  28  29
ATOM     29  C   UNL A   1      38.574  20.786  25.474  1.00  0.00     0.116 C 
BRANCH  29  30
ATOM     30  N   UNL A   1      39.531  19.687  25.462  1.00  0.00    -0.352 N 
ATOM     31  C   UNL A   1      40.822  19.667  25.935  1.00  0.00     0.251 C 
ATOM     32  H   UNL A   1      39.210  18.846  25.063  1.00  0.00     0.163 HD
ATOM     33  O   UNL A   1      41.518  18.666  25.807  1.00  0.00    -0.269 OA
BRANCH  31  34
ATOM     34  C   UNL A   1      41.385  20.891  26.547  1.00  0.00     0.039 A 
ATOM     35  C   UNL A   1      41.968  21.851  25.719  1.00  0.00     0.014 A 
ATOM     36  C   UNL A   1      41.273  21.121  27.919  1.00  0.00     0.014 A 
ATOM     37  C   UNL A   1      42.357  23.078  26.258  1.00  0.00     0.010 A 
ATOM     38  C   UNL A   1      41.557  22.379  28.433  1.00  0.00     0.010 A 
ATOM     39  C   UNL A   1      42.109  23.369  27.610  1.00  0.00    -0.014 A 
BRANCH  39  40
ATOM     40  C   UNL A   1      42.421  24.703  28.176  1.00  0.00     0.031 A 
ATOM     41  C   UNL A   1      43.828  25.039  28.590  1.00  0.00     0.074 A 
ATOM     42  C   UNL A   1      41.427  25.590  28.374  1.00  0.00     0.049 A 
ATOM     43  N   UNL A   1      44.294  26.148  29.105  1.00  0.00    -0.248 NA
ATOM     44  C   UNL A   1      44.838  23.979  28.442  1.00  0.00     0.031 C 
ATOM     45  C   UNL A   1      40.009  25.351  28.097  1.00  0.00     0.029 A 
ATOM     46  N   UNL A   1      41.458  26.877  28.851  1.00  0.00    -0.354 N 
ATOM     47  C   UNL A   1      45.640  25.911  29.354  1.00  0.00     0.074 A 
ATOM     48  C   UNL A   1      45.900  24.532  29.003  1.00  0.00     0.031 C 
ATOM     49  C   UNL A   1      39.313  26.469  28.361  1.00  0.00     0.029 A 
ATOM     50  C   UNL A   1      40.231  27.493  28.849  1.00  0.00     0.049 A 
ATOM     51  H   UNL A   1      42.281  27.315  29.165  1.00  0.00     0.167 HD
ATOM     52  C   UNL A   1      46.584  26.772  29.801  1.00  0.00     0.037 A 
ATOM     53  C   UNL A   1      39.890  28.751  29.184  1.00  0.00     0.037 A 
ATOM     54  C   UNL A   1      46.329  28.152  30.113  1.00  0.00     0.049 A 
ATOM     55  C   UNL A   1      40.962  29.706  29.626  1.00  0.00     0.074 A 
ATOM     56  C   UNL A   1      47.226  29.128  30.511  1.00  0.00     0.029 A 
ATOM     57  N   UNL A   1      45.082  28.754  30.054  1.00  0.00    -0.354 N 
ATOM     58  N   UNL A   1      42.247  29.493  29.776  1.00  0.00    -0.248 NA
ATOM     59  C   UNL A   1      40.541  31.080  29.930  1.00  0.00     0.031 C 
ATOM     60  C   UNL A   1      46.514  30.314  30.722  1.00  0.00     0.029 A 
ATOM     61  C   UNL A   1      45.181  30.086  30.415  1.00  0.00     0.049 A 
ATOM     62  H   UNL A   1      44.247  28.299  29.792  1.00  0.00     0.167 HD
ATOM     63  C   UNL A   1      42.793  30.711  30.159  1.00  0.00     0.074 A 
ATOM     64  C   UNL A   1      41.699  31.660  30.207  1.00  0.00     0.031 C 
ATOM     65  C   UNL A   1      44.082  31.016  30.445  1.00  0.00     0.037 A 
BRANCH  52  66
ATOM     66  C   UNL A   1      47.979  26.241  29.955  1.00  0.00     0.057 A 
ATOM     67  C   UNL A   1      48.445  25.739  31.180  1.00  0.00     0.134 A 
ATOM     68  C   UNL A   1      48.866  26.223  28.873  1.00  0.00     0.134 A 
ATOM     69  F   UNL A   1      47.651  25.743  32.261  1.00  0.00    -0.206 F 
ATOM     70  C   UNL A   1      49.751  25.271  31.329  1.00  0.00     0.040 A 
ATOM     71  C   UNL A   1      50.166  25.730  29.002  1.00  0.00     0.040 A 
ATOM     72  F   UNL A   1      48.486  26.684  27.672  1.00  0.00    -0.206 F 
ATOM     73  C   UNL A   1      50.614  25.261  30.236  1.00  0.00     0.006 A 
ENDBRANCH  52  66
BRANCH  53  74
ATOM     74  C   UNL A   1      38.482  29.200  29.045  1.00  0.00     0.057 A 
ATOM     75  C   UNL A   1      37.610  29.180  30.141  1.00  0.00     0.134 A 
ATOM     76  C   UNL A   1      37.975  29.664  27.826  1.00  0.00     0.134 A 
ATOM     77  F   UNL A   1      38.035  28.733  31.333  1.00  0.00    -0.206 F 
ATOM     78  C   UNL A   1      36.279  29.586  30.027  1.00  0.00     0.040 A 
ATOM     79  C   UNL A   1      36.652  30.094  27.703  1.00  0.00     0.040 A 
ATOM     80  F   UNL A   1      38.762  29.718  26.742  1.00  0.00    -0.206 F 
ATOM     81  C   UNL A   1      35.799  30.049  28.803  1.00  0.00     0.006 A 
ENDBRANCH  53  74
BRANCH  65  82
ATOM     82  C   UNL A   1      44.384  32.444  30.793  1.00  0.00     0.057 A 
ATOM     83  C   UNL A   1      44.378  32.899  32.117  1.00  0.00     0.134 A 
ATOM     84  C   UNL A   1      44.714  33.365  29.791  1.00  0.00     0.134 A 
ATOM     85  F   UNL A   1      44.058  32.068  33.121  1.00  0.00    -0.206 F 
ATOM     86  C   UNL A   1      44.665  34.228  32.430  1.00  0.00     0.040 A 
ATOM     87  C   UNL A   1      45.028  34.689  30.094  1.00  0.00     0.040 A 
ATOM     88  F   UNL A   1      44.746  32.988  28.503  1.00  0.00    -0.206 F 
ATOM     89  C   UNL A   1      44.997  35.126  31.417  1.00  0.00     0.006 A 
ENDBRANCH  65  82
ENDBRANCH  39  40
ENDBRANCH  31  34
ENDBRANCH  29  30
ENDBRANCH  28  29
ENDBRANCH  27  28
ENDBRANCH  26  27
ENDBRANCH   1  26
TORSDOF 17
ENDMDL
MODEL 2
REMARK VINA RESULT:     -11.1      2.120      3.491
REMARK SMILES Cc1cc(OCC(=O)Nc2sccc2C(=O)NCCCCCCNC(=O)c2ccc(-c3c4nc(c(-c5c(F)cccc5F)c5ccc([nH]5)c(-c5c(F)cccc5F)c5nc(c(-c6c(F)cccc6F)c6ccc3[nH]6)C=C5)C=C4)cc2)ccc1Cl
REMARK SMILES IDX 19 1 18 2 17 3 15 4 16 5 14 7 10 8 11 9 12 10 13 11 9 12
REMARK SMILES IDX 7 13 8 14 6 16 5 17 4 18 1 19 2 20 3 21 83 22 82 23 84 24
REMARK SMILES IDX 81 25 20 26 21 27 22 28 23 29 24 30 25 31 26 33 27 34 28 35
REMARK SMILES IDX 80 36 29 37 79 38 30 39 31 40 32 41 73 42 33 43 78 44 72 45
REMARK SMILES IDX 74 46 34 47 77 48 71 49 70 50 35 52 61 53 44 54 60 55 45 56
REMARK SMILES IDX 48 57 59 58 75 59 46 60 47 61 58 63 76 64 49 65 36 66 37 67
REMARK SMILES IDX 42 68 38 69 39 70 41 71 43 72 40 73 62 74 63 75 68 76 64 77
REMARK SMILES IDX 65 78 67 79 69 80 66 81 50 82 51 83 56 84 52 85 53 86 55 87
REMARK SMILES IDX 57 88 54 89
REMARK H PARENT 17 6 9 15 24 32 74 51 48 62
REMARK Flexibility Score: inf
ROOT
ATOM      1  C   UNL A   1      35.650  21.714  26.507  1.00  0.00     0.021 C 
ENDROOT
BRANCH   1   2
ATOM      2  C   UNL A   1      34.165  21.461  26.773  1.00  0.00     0.116 C 
BRANCH   2   3
ATOM      3  N   UNL A   1      33.632  20.358  25.999  1.00  0.00    -0.352 N 
ATOM      4  C   UNL A   1      32.723  20.362  24.973  1.00  0.00     0.254 C 
ATOM      5  O   UNL A   1      32.153  19.298  24.720  1.00  0.00    -0.269 OA
ATOM      6  H   UNL A   1      33.977  19.471  26.248  1.00  0.00     0.163 HD
BRANCH   4   7
ATOM      7  C   UNL A   1      32.325  21.590  24.294  1.00  0.00     0.074 A 
ATOM      8  C   UNL A   1      31.331  22.508  24.577  1.00  0.00     0.108 A 
ATOM      9  S   UNL A   1      31.026  23.559  23.254  1.00  0.00    -0.126 S 
ATOM     10  C   UNL A   1      32.418  23.038  22.428  1.00  0.00     0.068 A 
ATOM     11  C   UNL A   1      33.021  21.996  23.087  1.00  0.00     0.028 A 
BRANCH   8  12
ATOM     12  N   UNL A   1      30.433  22.765  25.582  1.00  0.00    -0.314 N 
ATOM     13  C   UNL A   1      30.572  23.319  26.818  1.00  0.00     0.262 C 
ATOM     14  O   UNL A   1      29.647  23.124  27.621  1.00  0.00    -0.271 OA
ATOM     15  H   UNL A   1      29.510  22.497  25.368  1.00  0.00     0.170 HD
BRANCH  13  16
ATOM     16  C   UNL A   1      31.654  24.359  27.154  1.00  0.00     0.329 C 
BRANCH  16  17
ATOM     17  O   UNL A   1      31.499  25.725  26.877  1.00  0.00    -0.484 OA
BRANCH  17  18
ATOM     18  C   UNL A   1      31.882  26.255  25.679  1.00  0.00     0.120 A 
ATOM     19  C   UNL A   1      31.098  28.845  22.986  1.00  0.00     0.046 C 
ATOM     20  C   UNL A   1      31.819  27.778  23.768  1.00  0.00    -0.029 A 
ATOM     21  C   UNL A   1      31.193  27.174  24.886  1.00  0.00     0.051 A 
ATOM     22  C   UNL A   1      33.142  27.429  23.460  1.00  0.00     0.044 A 
ATOM     23  C   UNL A   1      33.801  26.455  24.201  1.00  0.00     0.024 A 
ATOM     24  Cl  UNL A   1      34.019  28.205  22.191  1.00  0.00    -0.084 Cl
ATOM     25  C   UNL A   1      33.165  25.864  25.289  1.00  0.00     0.048 A 
ENDBRANCH  17  18
ENDBRANCH  16  17
ENDBRANCH  13  16
ENDBRANCH   8  12
ENDBRANCH   4   7
ENDBRANCH   2   3
ENDBRANCH   1   2
BRANCH   1  26
ATOM     26  C   UNL A   1      35.975  22.243  25.105  1.00  0.00     0.002 C 
BRANCH  26  27
ATOM     27  C   UNL A   1      37.070  21.488  24.348  1.00  0.00     0.002 C 
BRANCH  27  28
ATOM     28  C   UNL A   1      37.625  20.231  25.001  1.00  0.00     0.021 C 
BRANCH  28  29
ATOM     29  C   UNL A   1      38.903  20.443  25.797  1.00  0.00     0.116 C 
BRANCH  29  30
ATOM     30  N   UNL A   1      39.853  19.341  25.724  1.00  0.00    -0.352 N 
ATOM     31  C   UNL A   1      41.205  19.354  25.975  1.00  0.00     0.251 C 
ATOM     32  H   UNL A   1      39.476  18.470  25.463  1.00  0.00     0.163 HD
ATOM     33  O   UNL A   1      41.877  18.340  25.824  1.00  0.00    -0.269 OA
BRANCH  31  34
ATOM     34  C   UNL A   1      41.853  20.624  26.370  1.00  0.00     0.039 A 
ATOM     35  C   UNL A   1      42.191  21.545  25.377  1.00  0.00     0.014 A 
ATOM     36  C   UNL A   1      42.059  20.934  27.715  1.00  0.00     0.014 A 
ATOM     37  C   UNL A   1      42.653  22.811  25.742  1.00  0.00     0.010 A 
ATOM     38  C   UNL A   1      42.412  22.227  28.079  1.00  0.00     0.010 A 
ATOM     39  C   UNL A   1      42.719  23.177  27.097  1.00  0.00    -0.014 A 
BRANCH  39  40
ATOM     40  C   UNL A   1      43.109  24.549  27.501  1.00  0.00     0.031 A 
ATOM     41  C   UNL A   1      44.552  24.971  27.453  1.00  0.00     0.074 A 
ATOM     42  C   UNL A   1      42.172  25.395  27.969  1.00  0.00     0.049 A 
ATOM     43  N   UNL A   1      45.086  26.124  27.767  1.00  0.00    -0.248 NA
ATOM     44  C   UNL A   1      45.530  23.955  27.031  1.00  0.00     0.031 C 
ATOM     45  C   UNL A   1      40.753  25.075  28.149  1.00  0.00     0.029 A 
ATOM     46  N   UNL A   1      42.270  26.702  28.376  1.00  0.00    -0.354 N 
ATOM     47  C   UNL A   1      46.455  25.963  27.597  1.00  0.00     0.074 A 
ATOM     48  C   UNL A   1      46.678  24.584  27.223  1.00  0.00     0.031 C 
ATOM     49  C   UNL A   1      40.106  26.170  28.581  1.00  0.00     0.029 A 
ATOM     50  C   UNL A   1      41.066  27.258  28.734  1.00  0.00     0.049 A 
ATOM     51  H   UNL A   1      43.122  27.194  28.409  1.00  0.00     0.167 HD
ATOM     52  C   UNL A   1      47.438  26.889  27.706  1.00  0.00     0.037 A 
ATOM     53  C   UNL A   1      40.769  28.512  29.122  1.00  0.00     0.037 A 
ATOM     54  C   UNL A   1      47.208  28.267  28.042  1.00  0.00     0.049 A 
ATOM     55  C   UNL A   1      41.866  29.537  29.185  1.00  0.00     0.074 A 
ATOM     56  C   UNL A   1      48.123  29.303  28.117  1.00  0.00     0.029 A 
ATOM     57  N   UNL A   1      45.968  28.805  28.352  1.00  0.00    -0.354 N 
ATOM     58  N   UNL A   1      43.145  29.393  28.938  1.00  0.00    -0.248 NA
ATOM     59  C   UNL A   1      41.476  30.901  29.563  1.00  0.00     0.031 C 
ATOM     60  C   UNL A   1      47.440  30.461  28.503  1.00  0.00     0.029 A 
ATOM     61  C   UNL A   1      46.093  30.155  28.627  1.00  0.00     0.049 A 
ATOM     62  H   UNL A   1      45.122  28.299  28.373  1.00  0.00     0.167 HD
ATOM     63  C   UNL A   1      43.708  30.652  29.099  1.00  0.00     0.074 A 
ATOM     64  C   UNL A   1      42.626  31.549  29.454  1.00  0.00     0.031 C 
ATOM     65  C   UNL A   1      45.002  31.032  28.967  1.00  0.00     0.037 A 
BRANCH  52  66
ATOM     66  C   UNL A   1      48.842  26.433  27.440  1.00  0.00     0.057 A 
ATOM     67  C   UNL A   1      49.680  25.985  28.472  1.00  0.00     0.134 A 
ATOM     68  C   UNL A   1      49.364  26.433  26.142  1.00  0.00     0.134 A 
ATOM     69  F   UNL A   1      49.247  25.976  29.742  1.00  0.00    -0.206 F 
ATOM     70  C   UNL A   1      50.995  25.588  28.227  1.00  0.00     0.040 A 
ATOM     71  C   UNL A   1      50.669  26.010  25.879  1.00  0.00     0.040 A 
ATOM     72  F   UNL A   1      48.618  26.845  25.106  1.00  0.00    -0.206 F 
ATOM     73  C   UNL A   1      51.491  25.595  26.926  1.00  0.00     0.006 A 
ENDBRANCH  52  66
BRANCH  53  74
ATOM     74  C   UNL A   1      39.361  28.886  29.409  1.00  0.00     0.057 A 
ATOM     75  C   UNL A   1      38.527  29.374  28.396  1.00  0.00     0.134 A 
ATOM     76  C   UNL A   1      38.815  28.762  30.692  1.00  0.00     0.134 A 
ATOM     77  F   UNL A   1      38.998  29.529  27.150  1.00  0.00    -0.206 F 
ATOM     78  C   UNL A   1      37.205  29.744  28.651  1.00  0.00     0.040 A 
ATOM     79  C   UNL A   1      37.488  29.107  30.956  1.00  0.00     0.040 A 
ATOM     80  F   UNL A   1      39.559  28.291  31.702  1.00  0.00    -0.206 F 
ATOM     81  C   UNL A   1      36.681  29.606  29.935  1.00  0.00     0.006 A 
ENDBRANCH  53  74
BRANCH  65  82
ATOM     82  C   UNL A   1      45.310  32.487  29.164  1.00  0.00     0.057 A 
ATOM     83  C   UNL A   1      45.146  33.423  28.136  1.00  0.00     0.134 A 
ATOM     84  C   UNL A   1      45.746  32.958  30.408  1.00  0.00     0.134 A 
ATOM     85  F   UNL A   1      44.743  33.032  26.917  1.00  0.00    -0.206 F 
ATOM     86  C   UNL A   1      45.432  34.775  28.332  1.00  0.00     0.040 A 
ATOM     87  C   UNL A   1      46.010  34.310  30.623  1.00  0.00     0.040 A 
ATOM     88  F   UNL A   1      45.914  32.112  31.436  1.00  0.00    -0.206 F 
ATOM     89  C   UNL A   1      45.859  35.223  29.580  1.00  0.00     0.006 A 
ENDBRANCH  65  82
ENDBRANCH  39  40
ENDBRANCH  31  34
ENDBRANCH  29  30
ENDBRANCH  28  29
ENDBRANCH  27  28
ENDBRANCH  26  27
ENDBRANCH   1  26
TORSDOF 17
ENDMDL
MODEL 3
REMARK VINA RESULT:     -11.1      1.795      6.800
REMARK SMILES Cc1cc(OCC(=O)Nc2sccc2C(=O)NCCCCCCNC(=O)c2ccc(-c3c4nc(c(-c5c(F)cccc5F)c5ccc([nH]5)c(-c5c(F)cccc5F)c5nc(c(-c6c(F)cccc6F)c6ccc3[nH]6)C=C5)C=C4)cc2)ccc1Cl
REMARK SMILES IDX 19 1 18 2 17 3 15 4 16 5 14 7 10 8 11 9 12 10 13 11 9 12
REMARK SMILES IDX 7 13 8 14 6 16 5 17 4 18 1 19 2 20 3 21 83 22 82 23 84 24
REMARK SMILES IDX 81 25 20 26 21 27 22 28 23 29 24 30 25 31 26 33 27 34 28 35
REMARK SMILES IDX 80 36 29 37 79 38 30 39 31 40 32 41 73 42 33 43 78 44 72 45
REMARK SMILES IDX 74 46 34 47 77 48 71 49 70 50 35 52 61 53 44 54 60 55 45 56
REMARK SMILES IDX 48 57 59 58 75 59 46 60 47 61 58 63 76 64 49 65 36 66 37 67
REMARK SMILES IDX 42 68 38 69 39 70 41 71 43 72 40 73 62 74 63 75 68 76 64 77
REMARK SMILES IDX 65 78 67 79 69 80 66 81 50 82 51 83 56 84 52 85 53 86 55 87
REMARK SMILES IDX 57 88 54 89
REMARK H PARENT 17 6 9 15 24 32 74 51 48 62
REMARK Flexibility Score: inf
ROOT
ATOM      1  C   UNL A   1      35.134  24.085  24.599  1.00  0.00     0.021 C 
ENDROOT
BRANCH   1   2
ATOM      2  C   UNL A   1      34.460  23.842  23.247  1.00  0.00     0.116 C 
BRANCH   2   3
ATOM      3  N   UNL A   1      33.041  24.134  23.262  1.00  0.00    -0.352 N 
ATOM      4  C   UNL A   1      31.969  23.284  23.348  1.00  0.00     0.254 C 
ATOM      5  O   UNL A   1      30.875  23.716  22.976  1.00  0.00    -0.269 OA
ATOM      6  H   UNL A   1      32.813  25.089  23.202  1.00  0.00     0.163 HD
BRANCH   4   7
ATOM      7  C   UNL A   1      32.119  21.882  23.720  1.00  0.00     0.074 A 
ATOM      8  C   UNL A   1      32.345  21.283  24.946  1.00  0.00     0.108 A 
ATOM      9  S   UNL A   1      32.833  19.645  24.784  1.00  0.00    -0.126 S 
ATOM     10  C   UNL A   1      32.427  19.613  23.133  1.00  0.00     0.068 A 
ATOM     11  C   UNL A   1      32.057  20.859  22.693  1.00  0.00     0.028 A 
BRANCH   8  12
ATOM     12  N   UNL A   1      32.395  21.647  26.268  1.00  0.00    -0.314 N 
ATOM     13  C   UNL A   1      31.785  22.642  26.969  1.00  0.00     0.262 C 
ATOM     14  O   UNL A   1      32.273  22.920  28.075  1.00  0.00    -0.271 OA
ATOM     15  H   UNL A   1      32.984  21.078  26.814  1.00  0.00     0.170 HD
BRANCH  13  16
ATOM     16  C   UNL A   1      30.415  23.222  26.582  1.00  0.00     0.329 C 
BRANCH  16  17
ATOM     17  O   UNL A   1      30.061  24.555  26.835  1.00  0.00    -0.484 OA
BRANCH  17  18
ATOM     18  C   UNL A   1      30.613  25.583  26.127  1.00  0.00     0.120 A 
ATOM     19  C   UNL A   1      33.805  27.541  25.385  1.00  0.00     0.046 C 
ATOM     20  C   UNL A   1      32.383  27.052  25.299  1.00  0.00    -0.029 A 
ATOM     21  C   UNL A   1      31.895  26.119  26.248  1.00  0.00     0.051 A 
ATOM     22  C   UNL A   1      31.550  27.441  24.239  1.00  0.00     0.044 A 
ATOM     23  C   UNL A   1      30.245  26.968  24.163  1.00  0.00     0.024 A 
ATOM     24  Cl  UNL A   1      32.106  28.476  22.974  1.00  0.00    -0.084 Cl
ATOM     25  C   UNL A   1      29.780  26.061  25.112  1.00  0.00     0.048 A 
ENDBRANCH  17  18
ENDBRANCH  16  17
ENDBRANCH  13  16
ENDBRANCH   8  12
ENDBRANCH   4   7
ENDBRANCH   2   3
ENDBRANCH   1   2
BRANCH   1  26
ATOM     26  C   UNL A   1      35.866  22.871  25.183  1.00  0.00     0.002 C 
BRANCH  26  27
ATOM     27  C   UNL A   1      36.941  22.250  24.287  1.00  0.00     0.002 C 
BRANCH  27  28
ATOM     28  C   UNL A   1      37.487  20.890  24.696  1.00  0.00     0.021 C 
BRANCH  28  29
ATOM     29  C   UNL A   1      38.622  20.942  25.706  1.00  0.00     0.116 C 
BRANCH  29  30
ATOM     30  N   UNL A   1      39.553  19.825  25.630  1.00  0.00    -0.352 N 
ATOM     31  C   UNL A   1      40.871  19.777  26.020  1.00  0.00     0.251 C 
ATOM     32  H   UNL A   1      39.191  18.992  25.249  1.00  0.00     0.163 HD
ATOM     33  O   UNL A   1      41.536  18.762  25.845  1.00  0.00    -0.269 OA
BRANCH  31  34
ATOM     34  C   UNL A   1      41.496  20.986  26.599  1.00  0.00     0.039 A 
ATOM     35  C   UNL A   1      42.053  21.934  25.738  1.00  0.00     0.014 A 
ATOM     36  C   UNL A   1      41.469  21.217  27.976  1.00  0.00     0.014 A 
ATOM     37  C   UNL A   1      42.501  23.151  26.255  1.00  0.00     0.010 A 
ATOM     38  C   UNL A   1      41.811  22.467  28.473  1.00  0.00     0.010 A 
ATOM     39  C   UNL A   1      42.337  23.445  27.619  1.00  0.00    -0.014 A 
BRANCH  39  40
ATOM     40  C   UNL A   1      42.713  24.771  28.167  1.00  0.00     0.031 A 
ATOM     41  C   UNL A   1      41.665  25.830  28.373  1.00  0.00     0.074 A 
ATOM     42  C   UNL A   1      44.007  25.041  28.421  1.00  0.00     0.049 A 
ATOM     43  N   UNL A   1      41.800  27.045  28.838  1.00  0.00    -0.248 NA
ATOM     44  C   UNL A   1      40.289  25.493  27.971  1.00  0.00     0.031 C 
ATOM     45  C   UNL A   1      45.128  24.129  28.179  1.00  0.00     0.029 A 
ATOM     46  N   UNL A   1      44.601  26.162  28.946  1.00  0.00    -0.354 N 
ATOM     47  C   UNL A   1      40.536  27.618  28.768  1.00  0.00     0.074 A 
ATOM     48  C   UNL A   1      39.663  26.645  28.149  1.00  0.00     0.031 C 
ATOM     49  C   UNL A   1      46.265  24.707  28.600  1.00  0.00     0.029 A 
ATOM     50  C   UNL A   1      45.958  26.036  29.116  1.00  0.00     0.049 A 
ATOM     51  H   UNL A   1      44.101  26.978  29.177  1.00  0.00     0.167 HD
ATOM     52  C   UNL A   1      40.129  28.831  29.211  1.00  0.00     0.037 A 
ATOM     53  C   UNL A   1      46.849  26.892  29.649  1.00  0.00     0.037 A 
ATOM     54  C   UNL A   1      40.992  29.780  29.859  1.00  0.00     0.049 A 
ATOM     55  C   UNL A   1      46.367  28.211  30.183  1.00  0.00     0.074 A 
ATOM     56  C   UNL A   1      40.670  31.011  30.403  1.00  0.00     0.029 A 
ATOM     57  N   UNL A   1      42.353  29.598  30.056  1.00  0.00    -0.354 N 
ATOM     58  N   UNL A   1      45.153  28.706  30.188  1.00  0.00    -0.248 NA
ATOM     59  C   UNL A   1      47.375  29.083  30.801  1.00  0.00     0.031 C 
ATOM     60  C   UNL A   1      41.843  31.587  30.904  1.00  0.00     0.029 A 
ATOM     61  C   UNL A   1      42.887  30.697  30.707  1.00  0.00     0.049 A 
ATOM     62  H   UNL A   1      42.863  28.804  29.775  1.00  0.00     0.167 HD
ATOM     63  C   UNL A   1      45.244  29.931  30.836  1.00  0.00     0.074 A 
ATOM     64  C   UNL A   1      46.632  30.097  31.220  1.00  0.00     0.031 C 
ATOM     65  C   UNL A   1      44.269  30.836  31.091  1.00  0.00     0.037 A 
BRANCH  52  66
ATOM     66  C   UNL A   1      38.682  29.180  29.021  1.00  0.00     0.057 A 
ATOM     67  C   UNL A   1      38.183  29.601  27.779  1.00  0.00     0.134 A 
ATOM     68  C   UNL A   1      37.776  29.091  30.083  1.00  0.00     0.134 A 
ATOM     69  F   UNL A   1      39.001  29.725  26.724  1.00  0.00    -0.206 F 
ATOM     70  C   UNL A   1      36.843  29.952  27.611  1.00  0.00     0.040 A 
ATOM     71  C   UNL A   1      36.426  29.411  29.920  1.00  0.00     0.040 A 
ATOM     72  F   UNL A   1      38.184  28.692  31.297  1.00  0.00    -0.206 F 
ATOM     73  C   UNL A   1      35.959  29.852  28.683  1.00  0.00     0.006 A 
ENDBRANCH  52  66
BRANCH  53  74
ATOM     74  C   UNL A   1      48.275  26.498  29.770  1.00  0.00     0.057 A 
ATOM     75  C   UNL A   1      48.731  25.785  30.886  1.00  0.00     0.134 A 
ATOM     76  C   UNL A   1      49.213  26.815  28.781  1.00  0.00     0.134 A 
ATOM     77  F   UNL A   1      47.882  25.465  31.875  1.00  0.00    -0.206 F 
ATOM     78  C   UNL A   1      50.071  25.418  31.024  1.00  0.00     0.040 A 
ATOM     79  C   UNL A   1      50.551  26.435  28.895  1.00  0.00     0.040 A 
ATOM     80  F   UNL A   1      48.837  27.487  27.683  1.00  0.00    -0.206 F 
ATOM     81  C   UNL A   1      50.984  25.740  30.022  1.00  0.00     0.006 A 
ENDBRANCH  53  74
BRANCH  65  82
ATOM     82  C   UNL A   1      44.661  32.066  31.855  1.00  0.00     0.057 A 
ATOM     83  C   UNL A   1      44.628  32.108  33.254  1.00  0.00     0.134 A 
ATOM     84  C   UNL A   1      45.105  33.210  31.181  1.00  0.00     0.134 A 
ATOM     85  F   UNL A   1      44.200  31.048  33.957  1.00  0.00    -0.206 F 
ATOM     86  C   UNL A   1      45.000  33.256  33.955  1.00  0.00     0.040 A 
ATOM     87  C   UNL A   1      45.503  34.354  31.872  1.00  0.00     0.040 A 
ATOM     88  F   UNL A   1      45.168  33.229  29.840  1.00  0.00    -0.206 F 
ATOM     89  C   UNL A   1      45.444  34.381  33.264  1.00  0.00     0.006 A 
ENDBRANCH  65  82
ENDBRANCH  39  40
ENDBRANCH  31  34
ENDBRANCH  29  30
ENDBRANCH  28  29
ENDBRANCH  27  28
ENDBRANCH  26  27
ENDBRANCH   1  26
TORSDOF 17
ENDMDL
