MODEL 1
REMARK VINA RESULT:      -9.8      0.000      0.000
REMARK SMILES C=CCN(CC(=O)NCCCCCCNC(=O)c1ccc(-c2c3nc(c(-c4c(F)cccc4F)c4ccc([nH]4)c(-c4c(F)cccc4F)c4nc(c(-c5c(F)cccc5F)c5ccc2[nH]5)C=C4)C=C3)cc1)C(=O)NCC(C)C
REMARK SMILES IDX 10 1 9 2 8 3 6 4 7 5 5 7 4 8 3 9 2 10 1 11 72 12 73 13 74 14
REMARK SMILES IDX 75 16 76 17 77 18 78 19 11 20 12 21 13 22 14 23 15 24 16 25
REMARK SMILES IDX 17 27 18 28 19 29 71 30 20 31 70 32 21 33 22 34 23 35 64 36
REMARK SMILES IDX 24 37 69 38 63 39 65 40 25 41 68 42 62 43 61 44 26 46 52 47
REMARK SMILES IDX 35 48 51 49 36 50 39 51 50 52 66 53 37 54 38 55 49 57 67 58
REMARK SMILES IDX 40 59 27 60 28 61 33 62 29 63 30 64 32 65 34 66 31 67 53 68
REMARK SMILES IDX 54 69 59 70 55 71 56 72 58 73 60 74 57 75 41 76 42 77 47 78
REMARK SMILES IDX 43 79 44 80 46 81 48 82 45 83
REMARK H PARENT 8 6 74 15 15 26 65 45 39 56
REMARK Flexibility Score: inf
ROOT
ATOM      1  C   UNL A   1      33.971  29.055  26.117  1.00  0.00     0.021 C 
ENDROOT
BRANCH   1   2
ATOM      2  C   UNL A   1      33.168  29.128  24.822  1.00  0.00     0.116 C 
BRANCH   2   3
ATOM      3  N   UNL A   1      33.979  29.004  23.634  1.00  0.00    -0.355 N 
ATOM      4  C   UNL A   1      34.078  27.953  22.774  1.00  0.00     0.239 C 
ATOM      5  O   UNL A   1      34.408  28.216  21.613  1.00  0.00    -0.273 OA
ATOM      6  H   UNL A   1      34.538  29.786  23.418  1.00  0.00     0.163 HD
BRANCH   4   7
ATOM      7  C   UNL A   1      33.637  26.528  23.150  1.00  0.00     0.221 C 
BRANCH   7   8
ATOM      8  N   UNL A   1      32.217  26.223  22.981  1.00  0.00    -0.312 N 
BRANCH   8   9
ATOM      9  C   UNL A   1      31.635  25.280  23.939  1.00  0.00     0.149 C 
BRANCH   9  10
ATOM     10  C   UNL A   1      31.943  25.664  25.354  1.00  0.00    -0.013 C 
ATOM     11  C   UNL A   1      31.093  26.369  26.115  1.00  0.00     0.006 C 
ENDBRANCH   9  10
ENDBRANCH   8   9
BRANCH   8  12
ATOM     12  C   UNL A   1      31.379  26.736  22.033  1.00  0.00     0.318 C 
ATOM     13  O   UNL A   1      31.387  26.314  20.871  1.00  0.00    -0.249 OA
ATOM     14  N   UNL A   1      30.496  27.723  22.251  1.00  0.00    -0.338 N 
ATOM     15  H   UNL A   1      29.988  27.909  21.428  1.00  0.00     0.165 HD
BRANCH  14  16
ATOM     16  C   UNL A   1      30.051  28.607  23.323  1.00  0.00     0.120 C 
BRANCH  16  17
ATOM     17  C   UNL A   1      29.087  29.687  22.794  1.00  0.00     0.002 C 
ATOM     18  C   UNL A   1      27.645  29.171  22.749  1.00  0.00     0.009 C 
ATOM     19  C   UNL A   1      29.139  30.945  23.662  1.00  0.00     0.009 C 
ENDBRANCH  16  17
ENDBRANCH  14  16
ENDBRANCH   8  12
ENDBRANCH   7   8
ENDBRANCH   4   7
ENDBRANCH   2   3
ENDBRANCH   1   2
BRANCH   1  20
ATOM     20  C   UNL A   1      33.292  29.712  27.323  1.00  0.00     0.002 C 
BRANCH  20  21
ATOM     21  C   UNL A   1      31.851  30.186  27.094  1.00  0.00     0.002 C 
BRANCH  21  22
ATOM     22  C   UNL A   1      31.683  31.690  26.859  1.00  0.00     0.021 C 
BRANCH  22  23
ATOM     23  C   UNL A   1      32.912  32.529  27.189  1.00  0.00     0.116 C 
BRANCH  23  24
ATOM     24  N   UNL A   1      32.567  33.906  27.509  1.00  0.00    -0.352 N 
ATOM     25  C   UNL A   1      33.050  34.721  28.500  1.00  0.00     0.251 C 
ATOM     26  H   UNL A   1      31.884  34.312  26.927  1.00  0.00     0.163 HD
ATOM     27  O   UNL A   1      32.494  35.790  28.748  1.00  0.00    -0.269 OA
BRANCH  25  28
ATOM     28  C   UNL A   1      34.227  34.306  29.290  1.00  0.00     0.039 A 
ATOM     29  C   UNL A   1      34.026  33.640  30.503  1.00  0.00     0.014 A 
ATOM     30  C   UNL A   1      35.524  34.563  28.836  1.00  0.00     0.014 A 
ATOM     31  C   UNL A   1      35.123  33.159  31.218  1.00  0.00     0.010 A 
ATOM     32  C   UNL A   1      36.613  34.021  29.513  1.00  0.00     0.010 A 
ATOM     33  C   UNL A   1      36.422  33.302  30.703  1.00  0.00    -0.014 A 
BRANCH  33  34
ATOM     34  C   UNL A   1      37.585  32.655  31.362  1.00  0.00     0.031 A 
ATOM     35  C   UNL A   1      38.257  31.466  30.740  1.00  0.00     0.074 A 
ATOM     36  C   UNL A   1      37.983  33.100  32.569  1.00  0.00     0.049 A 
ATOM     37  N   UNL A   1      39.243  30.740  31.201  1.00  0.00    -0.248 NA
ATOM     38  C   UNL A   1      37.738  31.021  29.439  1.00  0.00     0.031 C 
ATOM     39  C   UNL A   1      37.383  34.220  33.296  1.00  0.00     0.029 A 
ATOM     40  N   UNL A   1      38.978  32.657  33.403  1.00  0.00    -0.354 N 
ATOM     41  C   UNL A   1      39.458  29.748  30.254  1.00  0.00     0.074 A 
ATOM     42  C   UNL A   1      38.463  29.934  29.219  1.00  0.00     0.031 C 
ATOM     43  C   UNL A   1      38.042  34.397  34.451  1.00  0.00     0.029 A 
ATOM     44  C   UNL A   1      39.076  33.375  34.570  1.00  0.00     0.049 A 
ATOM     45  H   UNL A   1      39.567  31.898  33.186  1.00  0.00     0.167 HD
ATOM     46  C   UNL A   1      40.408  28.781  30.240  1.00  0.00     0.037 A 
ATOM     47  C   UNL A   1      39.899  33.221  35.624  1.00  0.00     0.037 A 
ATOM     48  C   UNL A   1      41.394  28.602  31.276  1.00  0.00     0.049 A 
ATOM     49  C   UNL A   1      40.909  32.109  35.612  1.00  0.00     0.074 A 
ATOM     50  C   UNL A   1      42.442  27.700  31.321  1.00  0.00     0.029 A 
ATOM     51  N   UNL A   1      41.442  29.330  32.457  1.00  0.00    -0.354 N 
ATOM     52  N   UNL A   1      41.156  31.229  34.673  1.00  0.00    -0.248 NA
ATOM     53  C   UNL A   1      41.749  31.966  36.810  1.00  0.00     0.031 C 
ATOM     54  C   UNL A   1      43.083  27.837  32.557  1.00  0.00     0.029 A 
ATOM     55  C   UNL A   1      42.472  28.863  33.260  1.00  0.00     0.049 A 
ATOM     56  H   UNL A   1      40.834  30.068  32.691  1.00  0.00     0.167 HD
ATOM     57  C   UNL A   1      42.188  30.436  35.157  1.00  0.00     0.074 A 
ATOM     58  C   UNL A   1      42.534  30.954  36.465  1.00  0.00     0.031 C 
ATOM     59  C   UNL A   1      42.793  29.374  34.569  1.00  0.00     0.037 A 
BRANCH  46  60
ATOM     60  C   UNL A   1      40.407  27.833  29.075  1.00  0.00     0.057 A 
ATOM     61  C   UNL A   1      41.166  28.072  27.922  1.00  0.00     0.134 A 
ATOM     62  C   UNL A   1      39.641  26.660  29.108  1.00  0.00     0.134 A 
ATOM     63  F   UNL A   1      41.916  29.180  27.818  1.00  0.00    -0.206 F 
ATOM     64  C   UNL A   1      41.131  27.204  26.829  1.00  0.00     0.040 A 
ATOM     65  C   UNL A   1      39.623  25.768  28.034  1.00  0.00     0.040 A 
ATOM     66  F   UNL A   1      38.898  26.361  30.183  1.00  0.00    -0.206 F 
ATOM     67  C   UNL A   1      40.360  26.045  26.886  1.00  0.00     0.006 A 
ENDBRANCH  46  60
BRANCH  47  68
ATOM     68  C   UNL A   1      39.810  34.161  36.770  1.00  0.00     0.057 A 
ATOM     69  C   UNL A   1      40.493  35.381  36.749  1.00  0.00     0.134 A 
ATOM     70  C   UNL A   1      39.023  33.879  37.894  1.00  0.00     0.134 A 
ATOM     71  F   UNL A   1      41.277  35.697  35.707  1.00  0.00    -0.206 F 
ATOM     72  C   UNL A   1      40.404  36.287  37.806  1.00  0.00     0.040 A 
ATOM     73  C   UNL A   1      38.905  34.787  38.948  1.00  0.00     0.040 A 
ATOM     74  F   UNL A   1      38.338  32.730  37.970  1.00  0.00    -0.206 F 
ATOM     75  C   UNL A   1      39.600  35.994  38.907  1.00  0.00     0.006 A 
ENDBRANCH  47  68
BRANCH  59  76
ATOM     76  C   UNL A   1      43.893  28.700  35.338  1.00  0.00     0.057 A 
ATOM     77  C   UNL A   1      43.650  27.578  36.140  1.00  0.00     0.134 A 
ATOM     78  C   UNL A   1      45.215  29.153  35.247  1.00  0.00     0.134 A 
ATOM     79  F   UNL A   1      42.403  27.103  36.284  1.00  0.00    -0.206 F 
ATOM     80  C   UNL A   1      44.678  26.941  36.836  1.00  0.00     0.040 A 
ATOM     81  C   UNL A   1      46.256  28.507  35.915  1.00  0.00     0.040 A 
ATOM     82  F   UNL A   1      45.520  30.219  34.492  1.00  0.00    -0.206 F 
ATOM     83  C   UNL A   1      45.988  27.400  36.718  1.00  0.00     0.006 A 
ENDBRANCH  59  76
ENDBRANCH  33  34
ENDBRANCH  25  28
ENDBRANCH  23  24
ENDBRANCH  22  23
ENDBRANCH  21  22
ENDBRANCH  20  21
ENDBRANCH   1  20
TORSDOF 19
ENDMDL
MODEL 2
REMARK VINA RESULT:      -9.7      1.823      3.216
REMARK SMILES C=CCN(CC(=O)NCCCCCCNC(=O)c1ccc(-c2c3nc(c(-c4c(F)cccc4F)c4ccc([nH]4)c(-c4c(F)cccc4F)c4nc(c(-c5c(F)cccc5F)c5ccc2[nH]5)C=C4)C=C3)cc1)C(=O)NCC(C)C
REMARK SMILES IDX 10 1 9 2 8 3 6 4 7 5 5 7 4 8 3 9 2 10 1 11 72 12 73 13 74 14
REMARK SMILES IDX 75 16 76 17 77 18 78 19 11 20 12 21 13 22 14 23 15 24 16 25
REMARK SMILES IDX 17 27 18 28 19 29 71 30 20 31 70 32 21 33 22 34 23 35 64 36
REMARK SMILES IDX 24 37 69 38 63 39 65 40 25 41 68 42 62 43 61 44 26 46 52 47
REMARK SMILES IDX 35 48 51 49 36 50 39 51 50 52 66 53 37 54 38 55 49 57 67 58
REMARK SMILES IDX 40 59 27 60 28 61 33 62 29 63 30 64 32 65 34 66 31 67 53 68
REMARK SMILES IDX 54 69 59 70 55 71 56 72 58 73 60 74 57 75 41 76 42 77 47 78
REMARK SMILES IDX 43 79 44 80 46 81 48 82 45 83
REMARK H PARENT 8 6 74 15 15 26 65 45 39 56
REMARK Flexibility Score: inf
ROOT
ATOM      1  C   UNL A   1      31.644  28.163  27.413  1.00  0.00     0.021 C 
ENDROOT
BRANCH   1   2
ATOM      2  C   UNL A   1      31.209  27.386  26.175  1.00  0.00     0.116 C 
BRANCH   2   3
ATOM      3  N   UNL A   1      30.839  26.019  26.453  1.00  0.00    -0.355 N 
ATOM      4  C   UNL A   1      31.640  24.925  26.571  1.00  0.00     0.239 C 
ATOM      5  O   UNL A   1      31.220  24.002  27.276  1.00  0.00    -0.273 OA
ATOM      6  H   UNL A   1      29.875  25.856  26.573  1.00  0.00     0.163 HD
BRANCH   4   7
ATOM      7  C   UNL A   1      33.074  24.883  26.014  1.00  0.00     0.221 C 
BRANCH   7   8
ATOM      8  N   UNL A   1      33.214  24.484  24.615  1.00  0.00    -0.312 N 
BRANCH   8   9
ATOM      9  C   UNL A   1      34.105  25.305  23.791  1.00  0.00     0.149 C 
BRANCH   9  10
ATOM     10  C   UNL A   1      33.444  26.576  23.353  1.00  0.00    -0.013 C 
ATOM     11  C   UNL A   1      33.879  27.787  23.729  1.00  0.00     0.006 C 
ENDBRANCH   9  10
ENDBRANCH   8   9
BRANCH   8  12
ATOM     12  C   UNL A   1      32.612  23.422  24.003  1.00  0.00     0.318 C 
ATOM     13  O   UNL A   1      31.554  23.557  23.377  1.00  0.00    -0.249 OA
ATOM     14  N   UNL A   1      33.081  22.165  24.023  1.00  0.00    -0.338 N 
ATOM     15  H   UNL A   1      32.492  21.577  23.497  1.00  0.00     0.165 HD
BRANCH  14  16
ATOM     16  C   UNL A   1      34.189  21.395  24.579  1.00  0.00     0.120 C 
BRANCH  16  17
ATOM     17  C   UNL A   1      33.737  19.981  24.989  1.00  0.00     0.002 C 
ATOM     18  C   UNL A   1      32.412  19.604  24.316  1.00  0.00     0.009 C 
ATOM     19  C   UNL A   1      34.794  18.937  24.626  1.00  0.00     0.009 C 
ENDBRANCH  16  17
ENDBRANCH  14  16
ENDBRANCH   8  12
ENDBRANCH   7   8
ENDBRANCH   4   7
ENDBRANCH   2   3
ENDBRANCH   1   2
BRANCH   1  20
ATOM     20  C   UNL A   1      32.495  29.403  27.120  1.00  0.00     0.002 C 
BRANCH  20  21
ATOM     21  C   UNL A   1      31.883  30.406  26.133  1.00  0.00     0.002 C 
BRANCH  21  22
ATOM     22  C   UNL A   1      31.552  31.784  26.715  1.00  0.00     0.021 C 
BRANCH  22  23
ATOM     23  C   UNL A   1      32.739  32.520  27.327  1.00  0.00     0.116 C 
BRANCH  23  24
ATOM     24  N   UNL A   1      32.446  33.924  27.571  1.00  0.00    -0.352 N 
ATOM     25  C   UNL A   1      32.990  34.783  28.491  1.00  0.00     0.251 C 
ATOM     26  H   UNL A   1      31.753  34.314  26.991  1.00  0.00     0.163 HD
ATOM     27  O   UNL A   1      32.475  35.882  28.691  1.00  0.00    -0.269 OA
BRANCH  25  28
ATOM     28  C   UNL A   1      34.183  34.381  29.263  1.00  0.00     0.039 A 
ATOM     29  C   UNL A   1      34.010  33.820  30.532  1.00  0.00     0.014 A 
ATOM     30  C   UNL A   1      35.468  34.547  28.738  1.00  0.00     0.014 A 
ATOM     31  C   UNL A   1      35.118  33.350  31.237  1.00  0.00     0.010 A 
ATOM     32  C   UNL A   1      36.564  34.014  29.410  1.00  0.00     0.010 A 
ATOM     33  C   UNL A   1      36.398  33.398  30.660  1.00  0.00    -0.014 A 
BRANCH  33  34
ATOM     34  C   UNL A   1      37.563  32.756  31.320  1.00  0.00     0.031 A 
ATOM     35  C   UNL A   1      38.221  31.551  30.714  1.00  0.00     0.074 A 
ATOM     36  C   UNL A   1      37.975  33.220  32.515  1.00  0.00     0.049 A 
ATOM     37  N   UNL A   1      39.207  30.826  31.179  1.00  0.00    -0.248 NA
ATOM     38  C   UNL A   1      37.687  31.085  29.426  1.00  0.00     0.031 C 
ATOM     39  C   UNL A   1      37.390  34.357  33.226  1.00  0.00     0.029 A 
ATOM     40  N   UNL A   1      38.975  32.786  33.348  1.00  0.00    -0.354 N 
ATOM     41  C   UNL A   1      39.406  29.815  30.249  1.00  0.00     0.074 A 
ATOM     42  C   UNL A   1      38.402  29.990  29.220  1.00  0.00     0.031 C 
ATOM     43  C   UNL A   1      38.061  34.551  34.372  1.00  0.00     0.029 A 
ATOM     44  C   UNL A   1      39.089  33.524  34.500  1.00  0.00     0.049 A 
ATOM     45  H   UNL A   1      39.557  32.019  33.139  1.00  0.00     0.167 HD
ATOM     46  C   UNL A   1      40.349  28.843  30.244  1.00  0.00     0.037 A 
ATOM     47  C   UNL A   1      39.920  33.384  35.549  1.00  0.00     0.037 A 
ATOM     48  C   UNL A   1      41.344  28.676  31.273  1.00  0.00     0.049 A 
ATOM     49  C   UNL A   1      40.923  32.266  35.549  1.00  0.00     0.074 A 
ATOM     50  C   UNL A   1      42.386  27.768  31.326  1.00  0.00     0.029 A 
ATOM     51  N   UNL A   1      41.408  29.425  32.441  1.00  0.00    -0.354 N 
ATOM     52  N   UNL A   1      41.155  31.367  34.624  1.00  0.00    -0.248 NA
ATOM     53  C   UNL A   1      41.773  32.139  36.740  1.00  0.00     0.031 C 
ATOM     54  C   UNL A   1      43.040  27.923  32.553  1.00  0.00     0.029 A 
ATOM     55  C   UNL A   1      42.442  28.966  33.243  1.00  0.00     0.049 A 
ATOM     56  H   UNL A   1      40.807  30.172  32.666  1.00  0.00     0.167 HD
ATOM     57  C   UNL A   1      42.187  30.576  35.112  1.00  0.00     0.074 A 
ATOM     58  C   UNL A   1      42.549  31.116  36.407  1.00  0.00     0.031 C 
ATOM     59  C   UNL A   1      42.779  29.499  34.539  1.00  0.00     0.037 A 
BRANCH  46  60
ATOM     60  C   UNL A   1      40.331  27.873  29.097  1.00  0.00     0.057 A 
ATOM     61  C   UNL A   1      41.102  28.072  27.943  1.00  0.00     0.134 A 
ATOM     62  C   UNL A   1      39.537  26.720  29.148  1.00  0.00     0.134 A 
ATOM     63  F   UNL A   1      41.880  29.159  27.824  1.00  0.00    -0.206 F 
ATOM     64  C   UNL A   1      41.052  27.184  26.867  1.00  0.00     0.040 A 
ATOM     65  C   UNL A   1      39.502  25.809  28.090  1.00  0.00     0.040 A 
ATOM     66  F   UNL A   1      38.780  26.460  30.224  1.00  0.00    -0.206 F 
ATOM     67  C   UNL A   1      40.251  26.046  26.941  1.00  0.00     0.006 A 
ENDBRANCH  46  60
BRANCH  47  68
ATOM     68  C   UNL A   1      39.849  34.346  36.678  1.00  0.00     0.057 A 
ATOM     69  C   UNL A   1      40.528  35.567  36.622  1.00  0.00     0.134 A 
ATOM     70  C   UNL A   1      39.082  34.084  37.821  1.00  0.00     0.134 A 
ATOM     71  F   UNL A   1      41.293  35.865  35.561  1.00  0.00    -0.206 F 
ATOM     72  C   UNL A   1      40.454  36.493  37.663  1.00  0.00     0.040 A 
ATOM     73  C   UNL A   1      38.979  35.012  38.859  1.00  0.00     0.040 A 
ATOM     74  F   UNL A   1      38.401  32.934  37.931  1.00  0.00    -0.206 F 
ATOM     75  C   UNL A   1      39.670  36.219  38.783  1.00  0.00     0.006 A 
ENDBRANCH  47  68
BRANCH  59  76
ATOM     76  C   UNL A   1      43.882  28.832  35.310  1.00  0.00     0.057 A 
ATOM     77  C   UNL A   1      45.222  29.208  35.152  1.00  0.00     0.134 A 
ATOM     78  C   UNL A   1      43.599  27.832  36.249  1.00  0.00     0.134 A 
ATOM     79  F   UNL A   1      45.564  30.148  34.257  1.00  0.00    -0.206 F 
ATOM     80  C   UNL A   1      46.242  28.600  35.886  1.00  0.00     0.040 A 
ATOM     81  C   UNL A   1      44.606  27.238  37.010  1.00  0.00     0.040 A 
ATOM     82  F   UNL A   1      42.336  27.429  36.455  1.00  0.00    -0.206 F 
ATOM     83  C   UNL A   1      45.934  27.618  36.825  1.00  0.00     0.006 A 
ENDBRANCH  59  76
ENDBRANCH  33  34
ENDBRANCH  25  28
ENDBRANCH  23  24
ENDBRANCH  22  23
ENDBRANCH  21  22
ENDBRANCH  20  21
ENDBRANCH   1  20
TORSDOF 19
ENDMDL
MODEL 3
REMARK VINA RESULT:      -9.7      5.328      9.584
REMARK SMILES C=CCN(CC(=O)NCCCCCCNC(=O)c1ccc(-c2c3nc(c(-c4c(F)cccc4F)c4ccc([nH]4)c(-c4c(F)cccc4F)c4nc(c(-c5c(F)cccc5F)c5ccc2[nH]5)C=C4)C=C3)cc1)C(=O)NCC(C)C
REMARK SMILES IDX 10 1 9 2 8 3 6 4 7 5 5 7 4 8 3 9 2 10 1 11 72 12 73 13 74 14
REMARK SMILES IDX 75 16 76 17 77 18 78 19 11 20 12 21 13 22 14 23 15 24 16 25
REMARK SMILES IDX 17 27 18 28 19 29 71 30 20 31 70 32 21 33 22 34 23 35 64 36
REMARK SMILES IDX 24 37 69 38 63 39 65 40 25 41 68 42 62 43 61 44 26 46 52 47
REMARK SMILES IDX 35 48 51 49 36 50 39 51 50 52 66 53 37 54 38 55 49 57 67 58
REMARK SMILES IDX 40 59 27 60 28 61 33 62 29 63 30 64 32 65 34 66 31 67 53 68
REMARK SMILES IDX 54 69 59 70 55 71 56 72 58 73 60 74 57 75 41 76 42 77 47 78
REMARK SMILES IDX 43 79 44 80 46 81 48 82 45 83
REMARK H PARENT 8 6 74 15 15 26 65 45 39 56
REMARK Flexibility Score: inf
ROOT
ATOM      1  C   UNL A   1      36.539  23.156  25.955  1.00  0.00     0.021 C 
ENDROOT
BRANCH   1   2
ATOM      2  C   UNL A   1      35.048  23.470  26.011  1.00  0.00     0.116 C 
BRANCH   2   3
ATOM      3  N   UNL A   1      34.610  24.370  24.971  1.00  0.00    -0.355 N 
ATOM      4  C   UNL A   1      33.828  25.480  25.076  1.00  0.00     0.239 C 
ATOM      5  O   UNL A   1      33.980  26.351  24.213  1.00  0.00    -0.273 OA
ATOM      6  H   UNL A   1      34.918  24.151  24.062  1.00  0.00     0.163 HD
BRANCH   4   7
ATOM      7  C   UNL A   1      32.921  25.744  26.291  1.00  0.00     0.221 C 
BRANCH   7   8
ATOM      8  N   UNL A   1      31.512  25.385  26.138  1.00  0.00    -0.312 N 
BRANCH   8   9
ATOM      9  C   UNL A   1      30.572  26.496  25.970  1.00  0.00     0.149 C 
BRANCH   9  10
ATOM     10  C   UNL A   1      30.449  26.909  24.535  1.00  0.00    -0.013 C 
ATOM     11  C   UNL A   1      30.873  28.098  24.084  1.00  0.00     0.006 C 
ENDBRANCH   9  10
ENDBRANCH   8   9
BRANCH   8  12
ATOM     12  C   UNL A   1      30.987  24.125  26.122  1.00  0.00     0.318 C 
ATOM     13  O   UNL A   1      30.654  23.555  27.168  1.00  0.00    -0.249 OA
ATOM     14  N   UNL A   1      30.793  23.394  25.014  1.00  0.00    -0.338 N 
ATOM     15  H   UNL A   1      30.384  22.529  25.248  1.00  0.00     0.165 HD
BRANCH  14  16
ATOM     16  C   UNL A   1      30.996  23.477  23.572  1.00  0.00     0.120 C 
BRANCH  16  17
ATOM     17  C   UNL A   1      31.899  22.335  23.068  1.00  0.00     0.002 C 
ATOM     18  C   UNL A   1      33.067  22.875  22.235  1.00  0.00     0.009 C 
ATOM     19  C   UNL A   1      32.456  21.516  24.234  1.00  0.00     0.009 C 
ENDBRANCH  16  17
ENDBRANCH  14  16
ENDBRANCH   8  12
ENDBRANCH   7   8
ENDBRANCH   4   7
ENDBRANCH   2   3
ENDBRANCH   1   2
BRANCH   1  20
ATOM     20  C   UNL A   1      36.954  22.244  24.794  1.00  0.00     0.002 C 
BRANCH  20  21
ATOM     21  C   UNL A   1      36.581  20.764  24.951  1.00  0.00     0.002 C 
BRANCH  21  22
ATOM     22  C   UNL A   1      37.757  19.784  24.935  1.00  0.00     0.021 C 
BRANCH  22  23
ATOM     23  C   UNL A   1      38.995  20.261  25.686  1.00  0.00     0.116 C 
BRANCH  23  24
ATOM     24  N   UNL A   1      39.983  19.204  25.841  1.00  0.00    -0.352 N 
ATOM     25  C   UNL A   1      41.328  19.294  26.095  1.00  0.00     0.251 C 
ATOM     26  H   UNL A   1      39.634  18.288  25.749  1.00  0.00     0.163 HD
ATOM     27  O   UNL A   1      42.045  18.300  25.991  1.00  0.00    -0.269 OA
BRANCH  25  28
ATOM     28  C   UNL A   1      41.924  20.593  26.469  1.00  0.00     0.039 A 
ATOM     29  C   UNL A   1      42.448  21.411  25.465  1.00  0.00     0.014 A 
ATOM     30  C   UNL A   1      41.959  21.008  27.804  1.00  0.00     0.014 A 
ATOM     31  C   UNL A   1      42.931  22.680  25.788  1.00  0.00     0.010 A 
ATOM     32  C   UNL A   1      42.376  22.300  28.115  1.00  0.00     0.010 A 
ATOM     33  C   UNL A   1      42.852  23.152  27.108  1.00  0.00    -0.014 A 
BRANCH  33  34
ATOM     34  C   UNL A   1      43.206  24.555  27.444  1.00  0.00     0.031 A 
ATOM     35  C   UNL A   1      44.639  25.003  27.458  1.00  0.00     0.074 A 
ATOM     36  C   UNL A   1      42.230  25.405  27.815  1.00  0.00     0.049 A 
ATOM     37  N   UNL A   1      45.136  26.168  27.786  1.00  0.00    -0.248 NA
ATOM     38  C   UNL A   1      45.646  24.003  27.077  1.00  0.00     0.031 C 
ATOM     39  C   UNL A   1      40.805  25.077  27.882  1.00  0.00     0.029 A 
ATOM     40  N   UNL A   1      42.288  26.715  28.217  1.00  0.00    -0.354 N 
ATOM     41  C   UNL A   1      46.513  26.041  27.659  1.00  0.00     0.074 A 
ATOM     42  C   UNL A   1      46.773  24.669  27.277  1.00  0.00     0.031 C 
ATOM     43  C   UNL A   1      40.121  26.165  28.268  1.00  0.00     0.029 A 
ATOM     44  C   UNL A   1      41.062  27.251  28.524  1.00  0.00     0.049 A 
ATOM     45  H   UNL A   1      43.129  27.224  28.279  1.00  0.00     0.167 HD
ATOM     46  C   UNL A   1      47.469  26.985  27.828  1.00  0.00     0.037 A 
ATOM     47  C   UNL A   1      40.730  28.475  28.974  1.00  0.00     0.037 A 
ATOM     48  C   UNL A   1      47.201  28.349  28.210  1.00  0.00     0.049 A 
ATOM     49  C   UNL A   1      41.811  29.491  29.206  1.00  0.00     0.074 A 
ATOM     50  C   UNL A   1      48.092  29.400  28.339  1.00  0.00     0.029 A 
ATOM     51  N   UNL A   1      45.948  28.845  28.542  1.00  0.00    -0.354 N 
ATOM     52  N   UNL A   1      43.102  29.382  29.003  1.00  0.00    -0.248 NA
ATOM     53  C   UNL A   1      41.392  30.795  29.738  1.00  0.00     0.031 C 
ATOM     54  C   UNL A   1      47.390  30.514  28.811  1.00  0.00     0.029 A 
ATOM     55  C   UNL A   1      46.050  30.175  28.924  1.00  0.00     0.049 A 
ATOM     56  H   UNL A   1      45.110  28.330  28.512  1.00  0.00     0.167 HD
ATOM     57  C   UNL A   1      43.648  30.607  29.366  1.00  0.00     0.074 A 
ATOM     58  C   UNL A   1      42.545  31.448  29.782  1.00  0.00     0.031 C 
ATOM     59  C   UNL A   1      44.947  30.996  29.355  1.00  0.00     0.037 A 
BRANCH  46  60
ATOM     60  C   UNL A   1      48.896  26.564  27.621  1.00  0.00     0.057 A 
ATOM     61  C   UNL A   1      49.500  26.583  26.356  1.00  0.00     0.134 A 
ATOM     62  C   UNL A   1      49.680  26.138  28.700  1.00  0.00     0.134 A 
ATOM     63  F   UNL A   1      48.805  26.972  25.276  1.00  0.00    -0.206 F 
ATOM     64  C   UNL A   1      50.816  26.155  26.166  1.00  0.00     0.040 A 
ATOM     65  C   UNL A   1      51.007  25.738  28.528  1.00  0.00     0.040 A 
ATOM     66  F   UNL A   1      49.172  26.103  29.941  1.00  0.00    -0.206 F 
ATOM     67  C   UNL A   1      51.574  25.734  27.256  1.00  0.00     0.006 A 
ENDBRANCH  46  60
BRANCH  47  68
ATOM     68  C   UNL A   1      39.303  28.810  29.212  1.00  0.00     0.057 A 
ATOM     69  C   UNL A   1      38.718  28.603  30.465  1.00  0.00     0.134 A 
ATOM     70  C   UNL A   1      38.501  29.368  28.208  1.00  0.00     0.134 A 
ATOM     71  F   UNL A   1      39.432  28.054  31.459  1.00  0.00    -0.206 F 
ATOM     72  C   UNL A   1      37.385  28.932  30.713  1.00  0.00     0.040 A 
ATOM     73  C   UNL A   1      37.173  29.725  28.449  1.00  0.00     0.040 A 
ATOM     74  F   UNL A   1      39.005  29.598  26.987  1.00  0.00    -0.206 F 
ATOM     75  C   UNL A   1      36.611  29.504  29.704  1.00  0.00     0.006 A 
ENDBRANCH  47  68
BRANCH  59  76
ATOM     76  C   UNL A   1      45.246  32.396  29.809  1.00  0.00     0.057 A 
ATOM     77  C   UNL A   1      45.172  33.486  28.932  1.00  0.00     0.134 A 
ATOM     78  C   UNL A   1      45.572  32.664  31.145  1.00  0.00     0.134 A 
ATOM     79  F   UNL A   1      44.881  33.297  27.636  1.00  0.00    -0.206 F 
ATOM     80  C   UNL A   1      45.430  34.788  29.362  1.00  0.00     0.040 A 
ATOM     81  C   UNL A   1      45.804  33.965  31.593  1.00  0.00     0.040 A 
ATOM     82  F   UNL A   1      45.654  31.668  32.039  1.00  0.00    -0.206 F 
ATOM     83  C   UNL A   1      45.739  35.032  30.700  1.00  0.00     0.006 A 
ENDBRANCH  59  76
ENDBRANCH  33  34
ENDBRANCH  25  28
ENDBRANCH  23  24
ENDBRANCH  22  23
ENDBRANCH  21  22
ENDBRANCH  20  21
ENDBRANCH   1  20
TORSDOF 19
ENDMDL
