MODEL 1
REMARK VINA RESULT:     -10.9      0.000      0.000
REMARK SMILES CO[C@@H]1C[C@H](C(=O)NCCCCCCNC(=O)c2ccc(-c3c4nc(c(-c5c(F)cccc5F)c5ccc([nH]5)c(-c5c(F)cccc5F)c5nc(c(-c6c(F)cccc6F)c6ccc3[nH]6)C=C5)C=C4)cc2)N(C(=O)[C@H](CC(C)C)NC(N)=O)C1
REMARK SMILES IDX 10 1 9 2 8 3 6 4 7 5 5 7 3 8 4 9 84 10 72 11 2 12 1 13 73 14
REMARK SMILES IDX 74 15 75 16 80 17 81 18 82 20 83 21 76 24 77 25 78 26 79 27
REMARK SMILES IDX 11 28 12 29 13 30 14 31 15 32 16 33 17 35 18 36 19 37 71 38
REMARK SMILES IDX 20 39 70 40 21 41 22 42 23 43 64 44 24 45 69 46 63 47 65 48
REMARK SMILES IDX 25 49 68 50 62 51 61 52 26 54 52 55 35 56 51 57 36 58 39 59
REMARK SMILES IDX 50 60 66 61 37 62 38 63 49 65 67 66 40 67 27 68 28 69 33 70
REMARK SMILES IDX 29 71 30 72 32 73 34 74 31 75 53 76 54 77 59 78 55 79 56 80
REMARK SMILES IDX 58 81 60 82 57 83 41 84 42 85 47 86 43 87 44 88 46 89 48 90
REMARK SMILES IDX 45 91
REMARK H PARENT 8 6 80 19 82 22 82 23 15 34 65 53 39 64
REMARK Flexibility Score: inf
ROOT
ATOM      1  C   UNL A   1      36.813  23.733  24.988  1.00  0.00     0.021 C 
ENDROOT
BRANCH   1   2
ATOM      2  C   UNL A   1      35.355  23.968  24.573  1.00  0.00     0.116 C 
BRANCH   2   3
ATOM      3  N   UNL A   1      34.753  24.983  25.409  1.00  0.00    -0.354 N 
ATOM      4  C   UNL A   1      33.635  25.735  25.260  1.00  0.00     0.242 C 
ATOM      5  O   UNL A   1      33.624  26.800  25.896  1.00  0.00    -0.273 OA
ATOM      6  H   UNL A   1      35.247  25.160  26.243  1.00  0.00     0.163 HD
BRANCH   4   7
ATOM      7  C   UNL A   1      32.467  25.452  24.277  1.00  0.00     0.177 C 
ATOM      8  C   UNL A   1      32.638  26.353  22.036  1.00  0.00     0.139 C 
ATOM      9  C   UNL A   1      32.060  26.641  23.417  1.00  0.00     0.069 C 
ATOM     10  C   UNL A   1      32.716  24.815  21.979  1.00  0.00     0.152 C 
ATOM     11  N   UNL A   1      32.501  24.334  23.347  1.00  0.00    -0.326 N 
BRANCH   8  12
ATOM     12  O   UNL A   1      33.917  26.956  21.843  1.00  0.00    -0.380 OA
ATOM     13  C   UNL A   1      33.988  28.295  22.329  1.00  0.00     0.195 C 
ENDBRANCH   8  12
BRANCH  11  14
ATOM     14  C   UNL A   1      32.192  22.997  23.533  1.00  0.00     0.246 C 
ATOM     15  O   UNL A   1      32.201  22.275  22.526  1.00  0.00    -0.272 OA
BRANCH  14  16
ATOM     16  C   UNL A   1      31.902  22.365  24.952  1.00  0.00     0.173 C 
BRANCH  16  17
ATOM     17  N   UNL A   1      30.623  22.753  25.549  1.00  0.00    -0.327 N 
ATOM     18  C   UNL A   1      30.515  23.452  26.711  1.00  0.00     0.312 C 
ATOM     19  H   UNL A   1      29.795  22.493  25.083  1.00  0.00     0.166 HD
ATOM     20  N   UNL A   1      29.243  23.853  26.957  1.00  0.00    -0.352 N 
ATOM     21  O   UNL A   1      31.440  23.743  27.448  1.00  0.00    -0.249 OA
ATOM     22  H   UNL A   1      28.519  23.600  26.339  1.00  0.00     0.161 HD
ATOM     23  H   UNL A   1      29.043  24.397  27.753  1.00  0.00     0.161 HD
ENDBRANCH  16  17
BRANCH  16  24
ATOM     24  C   UNL A   1      31.953  20.804  25.057  1.00  0.00     0.038 C 
BRANCH  24  25
ATOM     25  C   UNL A   1      33.152  20.117  25.735  1.00  0.00    -0.015 C 
ATOM     26  C   UNL A   1      34.121  19.531  24.707  1.00  0.00     0.007 C 
ATOM     27  C   UNL A   1      33.916  21.117  26.617  1.00  0.00     0.007 C 
ENDBRANCH  24  25
ENDBRANCH  16  24
ENDBRANCH  14  16
ENDBRANCH  11  14
ENDBRANCH   4   7
ENDBRANCH   2   3
ENDBRANCH   1   2
BRANCH   1  28
ATOM     28  C   UNL A   1      37.096  22.330  25.532  1.00  0.00     0.002 C 
BRANCH  28  29
ATOM     29  C   UNL A   1      37.276  21.249  24.461  1.00  0.00     0.002 C 
BRANCH  29  30
ATOM     30  C   UNL A   1      38.058  20.011  24.908  1.00  0.00     0.021 C 
BRANCH  30  31
ATOM     31  C   UNL A   1      39.136  20.281  25.953  1.00  0.00     0.116 C 
BRANCH  31  32
ATOM     32  N   UNL A   1      40.171  19.259  25.947  1.00  0.00    -0.352 N 
ATOM     33  C   UNL A   1      41.530  19.388  26.076  1.00  0.00     0.251 C 
ATOM     34  H   UNL A   1      39.847  18.336  25.832  1.00  0.00     0.163 HD
ATOM     35  O   UNL A   1      42.271  18.445  25.822  1.00  0.00    -0.269 OA
BRANCH  33  36
ATOM     36  C   UNL A   1      42.101  20.676  26.515  1.00  0.00     0.039 A 
ATOM     37  C   UNL A   1      42.574  21.572  25.553  1.00  0.00     0.014 A 
ATOM     38  C   UNL A   1      42.169  20.998  27.873  1.00  0.00     0.014 A 
ATOM     39  C   UNL A   1      43.055  22.820  25.950  1.00  0.00     0.010 A 
ATOM     40  C   UNL A   1      42.577  22.269  28.262  1.00  0.00     0.010 A 
ATOM     41  C   UNL A   1      43.022  23.194  27.304  1.00  0.00    -0.014 A 
BRANCH  41  42
ATOM     42  C   UNL A   1      43.432  24.551  27.738  1.00  0.00     0.031 A 
ATOM     43  C   UNL A   1      42.395  25.586  28.074  1.00  0.00     0.074 A 
ATOM     44  C   UNL A   1      44.741  24.873  27.760  1.00  0.00     0.049 A 
ATOM     45  N   UNL A   1      42.556  26.845  28.391  1.00  0.00    -0.248 NA
ATOM     46  C   UNL A   1      40.990  25.154  28.020  1.00  0.00     0.031 C 
ATOM     47  C   UNL A   1      45.838  23.969  27.412  1.00  0.00     0.029 A 
ATOM     48  N   UNL A   1      45.368  26.053  28.074  1.00  0.00    -0.354 N 
ATOM     49  C   UNL A   1      41.277  27.356  28.567  1.00  0.00     0.074 A 
ATOM     50  C   UNL A   1      40.349  26.288  28.264  1.00  0.00     0.031 C 
ATOM     51  C   UNL A   1      47.004  24.621  27.549  1.00  0.00     0.029 A 
ATOM     52  C   UNL A   1      46.735  25.999  27.947  1.00  0.00     0.049 A 
ATOM     53  H   UNL A   1      44.884  26.860  28.362  1.00  0.00     0.167 HD
ATOM     54  C   UNL A   1      40.909  28.596  28.968  1.00  0.00     0.037 A 
ATOM     55  C   UNL A   1      47.665  26.956  28.117  1.00  0.00     0.037 A 
ATOM     56  C   UNL A   1      41.837  29.653  29.276  1.00  0.00     0.049 A 
ATOM     57  C   UNL A   1      47.230  28.336  28.530  1.00  0.00     0.074 A 
ATOM     58  C   UNL A   1      41.567  30.930  29.736  1.00  0.00     0.029 A 
ATOM     59  N   UNL A   1      43.215  29.559  29.143  1.00  0.00    -0.354 N 
ATOM     60  N   UNL A   1      46.021  28.787  28.760  1.00  0.00    -0.248 NA
ATOM     61  C   UNL A   1      48.290  29.338  28.711  1.00  0.00     0.031 C 
ATOM     62  C   UNL A   1      42.777  31.625  29.831  1.00  0.00     0.029 A 
ATOM     63  C   UNL A   1      43.807  30.763  29.486  1.00  0.00     0.049 A 
ATOM     64  H   UNL A   1      43.701  28.754  28.851  1.00  0.00     0.167 HD
ATOM     65  C   UNL A   1      46.175  30.114  29.138  1.00  0.00     0.074 A 
ATOM     66  C   UNL A   1      47.596  30.391  29.122  1.00  0.00     0.031 C 
ATOM     67  C   UNL A   1      45.225  31.023  29.469  1.00  0.00     0.037 A 
BRANCH  54  68
ATOM     68  C   UNL A   1      39.438  28.877  29.093  1.00  0.00     0.057 A 
ATOM     69  C   UNL A   1      38.753  28.706  30.304  1.00  0.00     0.134 A 
ATOM     70  C   UNL A   1      38.703  29.351  27.999  1.00  0.00     0.134 A 
ATOM     71  F   UNL A   1      39.394  28.244  31.389  1.00  0.00    -0.206 F 
ATOM     72  C   UNL A   1      37.386  28.967  30.414  1.00  0.00     0.040 A 
ATOM     73  C   UNL A   1      37.343  29.646  28.106  1.00  0.00     0.040 A 
ATOM     74  F   UNL A   1      39.295  29.546  26.812  1.00  0.00    -0.206 F 
ATOM     75  C   UNL A   1      36.679  29.445  29.315  1.00  0.00     0.006 A 
ENDBRANCH  54  68
BRANCH  55  76
ATOM     76  C   UNL A   1      49.101  26.643  27.902  1.00  0.00     0.057 A 
ATOM     77  C   UNL A   1      49.713  26.863  26.663  1.00  0.00     0.134 A 
ATOM     78  C   UNL A   1      49.895  26.114  28.927  1.00  0.00     0.134 A 
ATOM     79  F   UNL A   1      49.002  27.351  25.636  1.00  0.00    -0.206 F 
ATOM     80  C   UNL A   1      51.055  26.548  26.443  1.00  0.00     0.040 A 
ATOM     81  C   UNL A   1      51.246  25.822  28.730  1.00  0.00     0.040 A 
ATOM     82  F   UNL A   1      49.372  25.887  30.142  1.00  0.00    -0.206 F 
ATOM     83  C   UNL A   1      51.827  26.031  27.482  1.00  0.00     0.006 A 
ENDBRANCH  55  76
BRANCH  67  84
ATOM     84  C   UNL A   1      45.691  32.392  29.872  1.00  0.00     0.057 A 
ATOM     85  C   UNL A   1      46.046  32.697  31.192  1.00  0.00     0.134 A 
ATOM     86  C   UNL A   1      45.832  33.406  28.914  1.00  0.00     0.134 A 
ATOM     87  F   UNL A   1      45.921  31.776  32.159  1.00  0.00    -0.206 F 
ATOM     88  C   UNL A   1      46.503  33.967  31.549  1.00  0.00     0.040 A 
ATOM     89  C   UNL A   1      46.316  34.669  29.254  1.00  0.00     0.040 A 
ATOM     90  F   UNL A   1      45.519  33.178  27.630  1.00  0.00    -0.206 F 
ATOM     91  C   UNL A   1      46.647  34.954  30.576  1.00  0.00     0.006 A 
ENDBRANCH  67  84
ENDBRANCH  41  42
ENDBRANCH  33  36
ENDBRANCH  31  32
ENDBRANCH  30  31
ENDBRANCH  29  30
ENDBRANCH  28  29
ENDBRANCH   1  28
TORSDOF 19
ENDMDL
MODEL 2
REMARK VINA RESULT:     -10.9      4.555      8.964
REMARK SMILES CO[C@@H]1C[C@H](C(=O)NCCCCCCNC(=O)c2ccc(-c3c4nc(c(-c5c(F)cccc5F)c5ccc([nH]5)c(-c5c(F)cccc5F)c5nc(c(-c6c(F)cccc6F)c6ccc3[nH]6)C=C5)C=C4)cc2)N(C(=O)[C@H](CC(C)C)NC(N)=O)C1
REMARK SMILES IDX 10 1 9 2 8 3 6 4 7 5 5 7 3 8 4 9 84 10 72 11 2 12 1 13 73 14
REMARK SMILES IDX 74 15 75 16 80 17 81 18 82 20 83 21 76 24 77 25 78 26 79 27
REMARK SMILES IDX 11 28 12 29 13 30 14 31 15 32 16 33 17 35 18 36 19 37 71 38
REMARK SMILES IDX 20 39 70 40 21 41 22 42 23 43 64 44 24 45 69 46 63 47 65 48
REMARK SMILES IDX 25 49 68 50 62 51 61 52 26 54 52 55 35 56 51 57 36 58 39 59
REMARK SMILES IDX 50 60 66 61 37 62 38 63 49 65 67 66 40 67 27 68 28 69 33 70
REMARK SMILES IDX 29 71 30 72 32 73 34 74 31 75 53 76 54 77 59 78 55 79 56 80
REMARK SMILES IDX 58 81 60 82 57 83 41 84 42 85 47 86 43 87 44 88 46 89 48 90
REMARK SMILES IDX 45 91
REMARK H PARENT 8 6 80 19 82 22 82 23 15 34 65 53 39 64
REMARK Flexibility Score: inf
ROOT
ATOM      1  C   UNL A   1      33.837  29.808  26.945  1.00  0.00     0.021 C 
ENDROOT
BRANCH   1   2
ATOM      2  C   UNL A   1      34.258  28.607  26.089  1.00  0.00     0.116 C 
BRANCH   2   3
ATOM      3  N   UNL A   1      34.229  28.957  24.686  1.00  0.00    -0.354 N 
ATOM      4  C   UNL A   1      33.690  28.336  23.608  1.00  0.00     0.242 C 
ATOM      5  O   UNL A   1      34.201  28.631  22.516  1.00  0.00    -0.273 OA
ATOM      6  H   UNL A   1      34.686  29.804  24.475  1.00  0.00     0.163 HD
BRANCH   4   7
ATOM      7  C   UNL A   1      32.618  27.215  23.640  1.00  0.00     0.177 C 
ATOM      8  C   UNL A   1      30.357  27.799  22.998  1.00  0.00     0.139 C 
ATOM      9  C   UNL A   1      31.270  27.640  24.209  1.00  0.00     0.069 C 
ATOM     10  C   UNL A   1      30.957  26.839  21.952  1.00  0.00     0.152 C 
ATOM     11  N   UNL A   1      32.277  26.446  22.452  1.00  0.00    -0.326 N 
BRANCH   8  12
ATOM     12  O   UNL A   1      30.312  29.142  22.521  1.00  0.00    -0.380 OA
ATOM     13  C   UNL A   1      29.653  30.036  23.416  1.00  0.00     0.195 C 
ENDBRANCH   8  12
BRANCH  11  14
ATOM     14  C   UNL A   1      32.894  25.344  21.884  1.00  0.00     0.246 C 
ATOM     15  O   UNL A   1      33.250  25.450  20.702  1.00  0.00    -0.272 OA
BRANCH  14  16
ATOM     16  C   UNL A   1      33.209  24.019  22.685  1.00  0.00     0.173 C 
BRANCH  16  17
ATOM     17  N   UNL A   1      32.830  22.781  22.002  1.00  0.00    -0.327 N 
ATOM     18  C   UNL A   1      32.143  21.770  22.599  1.00  0.00     0.312 C 
ATOM     19  H   UNL A   1      33.086  22.674  21.057  1.00  0.00     0.166 HD
ATOM     20  N   UNL A   1      31.747  20.821  21.715  1.00  0.00    -0.352 N 
ATOM     21  O   UNL A   1      31.857  21.714  23.782  1.00  0.00    -0.249 OA
ATOM     22  H   UNL A   1      31.995  20.898  20.766  1.00  0.00     0.161 HD
ATOM     23  H   UNL A   1      31.211  20.054  22.023  1.00  0.00     0.161 HD
ENDBRANCH  16  17
BRANCH  16  24
ATOM     24  C   UNL A   1      34.690  23.803  23.144  1.00  0.00     0.038 C 
BRANCH  24  25
ATOM     25  C   UNL A   1      34.985  23.186  24.523  1.00  0.00    -0.015 C 
ATOM     26  C   UNL A   1      35.786  21.888  24.400  1.00  0.00     0.007 C 
ATOM     27  C   UNL A   1      35.778  24.172  25.395  1.00  0.00     0.007 C 
ENDBRANCH  24  25
ENDBRANCH  16  24
ENDBRANCH  14  16
ENDBRANCH  11  14
ENDBRANCH   4   7
ENDBRANCH   2   3
ENDBRANCH   1   2
BRANCH   1  28
ATOM     28  C   UNL A   1      32.331  29.898  27.208  1.00  0.00     0.002 C 
BRANCH  28  29
ATOM     29  C   UNL A   1      31.564  30.815  26.250  1.00  0.00     0.002 C 
BRANCH  29  30
ATOM     30  C   UNL A   1      31.416  32.266  26.715  1.00  0.00     0.021 C 
BRANCH  30  31
ATOM     31  C   UNL A   1      32.716  32.929  27.159  1.00  0.00     0.116 C 
BRANCH  31  32
ATOM     32  N   UNL A   1      32.499  34.282  27.648  1.00  0.00    -0.352 N 
ATOM     33  C   UNL A   1      33.096  34.941  28.692  1.00  0.00     0.251 C 
ATOM     34  H   UNL A   1      31.823  34.802  27.156  1.00  0.00     0.163 HD
ATOM     35  O   UNL A   1      32.633  35.999  29.106  1.00  0.00    -0.269 OA
BRANCH  33  36
ATOM     36  C   UNL A   1      34.297  34.366  29.327  1.00  0.00     0.039 A 
ATOM     37  C   UNL A   1      34.151  33.592  30.480  1.00  0.00     0.014 A 
ATOM     38  C   UNL A   1      35.565  34.590  28.783  1.00  0.00     0.014 A 
ATOM     39  C   UNL A   1      35.272  32.987  31.052  1.00  0.00     0.010 A 
ATOM     40  C   UNL A   1      36.669  33.928  29.308  1.00  0.00     0.010 A 
ATOM     41  C   UNL A   1      36.533  33.117  30.447  1.00  0.00    -0.014 A 
BRANCH  41  42
ATOM     42  C   UNL A   1      37.718  32.401  30.977  1.00  0.00     0.031 A 
ATOM     43  C   UNL A   1      38.461  32.941  32.167  1.00  0.00     0.074 A 
ATOM     44  C   UNL A   1      38.168  31.303  30.339  1.00  0.00     0.049 A 
ATOM     45  N   UNL A   1      39.562  32.504  32.722  1.00  0.00    -0.248 NA
ATOM     46  C   UNL A   1      37.906  34.147  32.800  1.00  0.00     0.031 C 
ATOM     47  C   UNL A   1      37.560  30.708  29.148  1.00  0.00     0.029 A 
ATOM     48  N   UNL A   1      39.251  30.499  30.596  1.00  0.00    -0.354 N 
ATOM     49  C   UNL A   1      39.835  33.382  33.762  1.00  0.00     0.074 A 
ATOM     50  C   UNL A   1      38.818  34.411  33.724  1.00  0.00     0.031 C 
ATOM     51  C   UNL A   1      38.267  29.625  28.788  1.00  0.00     0.029 A 
ATOM     52  C   UNL A   1      39.403  29.475  29.691  1.00  0.00     0.049 A 
ATOM     53  H   UNL A   1      39.860  30.643  31.355  1.00  0.00     0.167 HD
ATOM     54  C   UNL A   1      40.829  33.324  34.680  1.00  0.00     0.037 A 
ATOM     55  C   UNL A   1      40.358  28.533  29.592  1.00  0.00     0.037 A 
ATOM     56  C   UNL A   1      41.834  32.293  34.717  1.00  0.00     0.049 A 
ATOM     57  C   UNL A   1      41.471  28.509  30.603  1.00  0.00     0.074 A 
ATOM     58  C   UNL A   1      42.855  32.118  35.634  1.00  0.00     0.029 A 
ATOM     59  N   UNL A   1      41.950  31.269  33.788  1.00  0.00    -0.354 N 
ATOM     60  N   UNL A   1      41.679  29.306  31.623  1.00  0.00    -0.248 NA
ATOM     61  C   UNL A   1      42.480  27.451  30.452  1.00  0.00     0.031 C 
ATOM     62  C   UNL A   1      43.621  31.019  35.231  1.00  0.00     0.029 A 
ATOM     63  C   UNL A   1      43.043  30.475  34.095  1.00  0.00     0.049 A 
ATOM     64  H   UNL A   1      41.345  31.126  33.025  1.00  0.00     0.167 HD
ATOM     65  C   UNL A   1      42.824  28.831  32.250  1.00  0.00     0.074 A 
ATOM     66  C   UNL A   1      43.257  27.668  31.504  1.00  0.00     0.031 C 
ATOM     67  C   UNL A   1      43.460  29.316  33.345  1.00  0.00     0.037 A 
BRANCH  54  68
ATOM     68  C   UNL A   1      40.879  34.409  35.718  1.00  0.00     0.057 A 
ATOM     69  C   UNL A   1      41.618  35.584  35.523  1.00  0.00     0.134 A 
ATOM     70  C   UNL A   1      40.158  34.293  36.913  1.00  0.00     0.134 A 
ATOM     71  F   UNL A   1      42.341  35.757  34.406  1.00  0.00    -0.206 F 
ATOM     72  C   UNL A   1      41.663  36.589  36.491  1.00  0.00     0.040 A 
ATOM     73  C   UNL A   1      40.169  35.305  37.874  1.00  0.00     0.040 A 
ATOM     74  F   UNL A   1      39.423  33.199  37.162  1.00  0.00    -0.206 F 
ATOM     75  C   UNL A   1      40.931  36.454  37.668  1.00  0.00     0.006 A 
ENDBRANCH  54  68
BRANCH  55  76
ATOM     76  C   UNL A   1      40.302  27.532  28.496  1.00  0.00     0.057 A 
ATOM     77  C   UNL A   1      40.922  27.770  27.265  1.00  0.00     0.134 A 
ATOM     78  C   UNL A   1      39.625  26.315  28.652  1.00  0.00     0.134 A 
ATOM     79  F   UNL A   1      41.571  28.923  27.047  1.00  0.00    -0.206 F 
ATOM     80  C   UNL A   1      40.854  26.846  26.220  1.00  0.00     0.040 A 
ATOM     81  C   UNL A   1      39.573  25.370  27.626  1.00  0.00     0.040 A 
ATOM     82  F   UNL A   1      39.016  26.022  29.811  1.00  0.00    -0.206 F 
ATOM     83  C   UNL A   1      40.182  25.638  26.403  1.00  0.00     0.006 A 
ENDBRANCH  55  76
BRANCH  67  84
ATOM     84  C   UNL A   1      44.673  28.572  33.823  1.00  0.00     0.057 A 
ATOM     85  C   UNL A   1      45.967  28.928  33.424  1.00  0.00     0.134 A 
ATOM     86  C   UNL A   1      44.546  27.514  34.734  1.00  0.00     0.134 A 
ATOM     87  F   UNL A   1      46.158  29.922  32.544  1.00  0.00    -0.206 F 
ATOM     88  C   UNL A   1      47.090  28.246  33.896  1.00  0.00     0.040 A 
ATOM     89  C   UNL A   1      45.662  26.844  35.236  1.00  0.00     0.040 A 
ATOM     90  F   UNL A   1      43.336  27.127  35.165  1.00  0.00    -0.206 F 
ATOM     91  C   UNL A   1      46.938  27.206  34.812  1.00  0.00     0.006 A 
ENDBRANCH  67  84
ENDBRANCH  41  42
ENDBRANCH  33  36
ENDBRANCH  31  32
ENDBRANCH  30  31
ENDBRANCH  29  30
ENDBRANCH  28  29
ENDBRANCH   1  28
TORSDOF 19
ENDMDL
MODEL 3
REMARK VINA RESULT:     -10.7      4.962      9.667
REMARK SMILES CO[C@@H]1C[C@H](C(=O)NCCCCCCNC(=O)c2ccc(-c3c4nc(c(-c5c(F)cccc5F)c5ccc([nH]5)c(-c5c(F)cccc5F)c5nc(c(-c6c(F)cccc6F)c6ccc3[nH]6)C=C5)C=C4)cc2)N(C(=O)[C@H](CC(C)C)NC(N)=O)C1
REMARK SMILES IDX 10 1 9 2 8 3 6 4 7 5 5 7 3 8 4 9 84 10 72 11 2 12 1 13 73 14
REMARK SMILES IDX 74 15 75 16 80 17 81 18 82 20 83 21 76 24 77 25 78 26 79 27
REMARK SMILES IDX 11 28 12 29 13 30 14 31 15 32 16 33 17 35 18 36 19 37 71 38
REMARK SMILES IDX 20 39 70 40 21 41 22 42 23 43 64 44 24 45 69 46 63 47 65 48
REMARK SMILES IDX 25 49 68 50 62 51 61 52 26 54 52 55 35 56 51 57 36 58 39 59
REMARK SMILES IDX 50 60 66 61 37 62 38 63 49 65 67 66 40 67 27 68 28 69 33 70
REMARK SMILES IDX 29 71 30 72 32 73 34 74 31 75 53 76 54 77 59 78 55 79 56 80
REMARK SMILES IDX 58 81 60 82 57 83 41 84 42 85 47 86 43 87 44 88 46 89 48 90
REMARK SMILES IDX 45 91
REMARK H PARENT 8 6 80 19 82 22 82 23 15 34 65 53 39 64
REMARK Flexibility Score: inf
ROOT
ATOM      1  C   UNL A   1      31.947  28.513  27.562  1.00  0.00     0.021 C 
ENDROOT
BRANCH   1   2
ATOM      2  C   UNL A   1      32.083  27.297  26.637  1.00  0.00     0.116 C 
BRANCH   2   3
ATOM      3  N   UNL A   1      31.051  26.327  26.929  1.00  0.00    -0.354 N 
ATOM      4  C   UNL A   1      30.481  25.354  26.176  1.00  0.00     0.242 C 
ATOM      5  O   UNL A   1      29.349  24.997  26.538  1.00  0.00    -0.273 OA
ATOM      6  H   UNL A   1      30.696  26.383  27.846  1.00  0.00     0.163 HD
BRANCH   4   7
ATOM      7  C   UNL A   1      31.049  24.770  24.854  1.00  0.00     0.177 C 
ATOM      8  C   UNL A   1      31.321  26.280  22.981  1.00  0.00     0.139 C 
ATOM      9  C   UNL A   1      30.358  25.268  23.592  1.00  0.00     0.069 C 
ATOM     10  C   UNL A   1      32.706  25.821  23.477  1.00  0.00     0.152 C 
ATOM     11  N   UNL A   1      32.467  24.835  24.535  1.00  0.00    -0.326 N 
BRANCH   8  12
ATOM     12  O   UNL A   1      31.031  27.618  23.380  1.00  0.00    -0.380 OA
ATOM     13  C   UNL A   1      31.738  28.598  22.623  1.00  0.00     0.195 C 
ENDBRANCH   8  12
BRANCH  11  14
ATOM     14  C   UNL A   1      33.518  24.022  24.924  1.00  0.00     0.246 C 
ATOM     15  O   UNL A   1      33.989  24.219  26.053  1.00  0.00    -0.272 OA
BRANCH  14  16
ATOM     16  C   UNL A   1      34.077  22.842  24.034  1.00  0.00     0.173 C 
BRANCH  16  17
ATOM     17  N   UNL A   1      33.210  22.447  22.922  1.00  0.00    -0.327 N 
ATOM     18  C   UNL A   1      32.343  21.400  22.977  1.00  0.00     0.312 C 
ATOM     19  H   UNL A   1      33.258  22.967  22.087  1.00  0.00     0.166 HD
ATOM     20  N   UNL A   1      31.521  21.351  21.899  1.00  0.00    -0.352 N 
ATOM     21  O   UNL A   1      32.255  20.604  23.895  1.00  0.00    -0.249 OA
ATOM     22  H   UNL A   1      31.620  22.011  21.175  1.00  0.00     0.161 HD
ATOM     23  H   UNL A   1      30.826  20.657  21.841  1.00  0.00     0.161 HD
ENDBRANCH  16  17
BRANCH  16  24
ATOM     24  C   UNL A   1      35.495  23.039  23.404  1.00  0.00     0.038 C 
BRANCH  24  25
ATOM     25  C   UNL A   1      36.740  22.489  24.125  1.00  0.00    -0.015 C 
ATOM     26  C   UNL A   1      37.277  23.482  25.158  1.00  0.00     0.007 C 
ATOM     27  C   UNL A   1      36.409  21.169  24.839  1.00  0.00     0.007 C 
ENDBRANCH  24  25
ENDBRANCH  16  24
ENDBRANCH  14  16
ENDBRANCH  11  14
ENDBRANCH   4   7
ENDBRANCH   2   3
ENDBRANCH   1   2
BRANCH   1  28
ATOM     28  C   UNL A   1      32.597  29.791  27.023  1.00  0.00     0.002 C 
BRANCH  28  29
ATOM     29  C   UNL A   1      31.705  30.626  26.098  1.00  0.00     0.002 C 
BRANCH  29  30
ATOM     30  C   UNL A   1      31.454  32.064  26.559  1.00  0.00     0.021 C 
BRANCH  30  31
ATOM     31  C   UNL A   1      32.617  32.705  27.311  1.00  0.00     0.116 C 
BRANCH  31  32
ATOM     32  N   UNL A   1      32.374  34.111  27.595  1.00  0.00    -0.352 N 
ATOM     33  C   UNL A   1      32.945  34.924  28.540  1.00  0.00     0.251 C 
ATOM     34  H   UNL A   1      31.699  34.543  27.024  1.00  0.00     0.163 HD
ATOM     35  O   UNL A   1      32.461  36.023  28.790  1.00  0.00    -0.269 OA
BRANCH  33  36
ATOM     36  C   UNL A   1      34.144  34.465  29.268  1.00  0.00     0.039 A 
ATOM     37  C   UNL A   1      33.996  33.919  30.545  1.00  0.00     0.014 A 
ATOM     38  C   UNL A   1      35.412  34.574  28.690  1.00  0.00     0.014 A 
ATOM     39  C   UNL A   1      35.113  33.421  31.216  1.00  0.00     0.010 A 
ATOM     40  C   UNL A   1      36.512  34.010  29.326  1.00  0.00     0.010 A 
ATOM     41  C   UNL A   1      36.373  33.426  30.595  1.00  0.00    -0.014 A 
BRANCH  41  42
ATOM     42  C   UNL A   1      37.555  32.810  31.246  1.00  0.00     0.031 A 
ATOM     43  C   UNL A   1      38.209  31.599  30.641  1.00  0.00     0.074 A 
ATOM     44  C   UNL A   1      37.994  33.300  32.422  1.00  0.00     0.049 A 
ATOM     45  N   UNL A   1      39.195  30.874  31.105  1.00  0.00    -0.248 NA
ATOM     46  C   UNL A   1      37.665  31.126  29.360  1.00  0.00     0.031 C 
ATOM     47  C   UNL A   1      37.414  34.442  33.130  1.00  0.00     0.029 A 
ATOM     48  N   UNL A   1      39.020  32.889  33.236  1.00  0.00    -0.354 N 
ATOM     49  C   UNL A   1      39.384  29.858  30.178  1.00  0.00     0.074 A 
ATOM     50  C   UNL A   1      38.373  30.024  29.156  1.00  0.00     0.031 C 
ATOM     51  C   UNL A   1      38.103  34.652  34.263  1.00  0.00     0.029 A 
ATOM     52  C   UNL A   1      39.141  33.634  34.385  1.00  0.00     0.049 A 
ATOM     53  H   UNL A   1      39.611  32.134  33.018  1.00  0.00     0.167 HD
ATOM     54  C   UNL A   1      40.330  28.889  30.167  1.00  0.00     0.037 A 
ATOM     55  C   UNL A   1      39.983  33.500  35.426  1.00  0.00     0.037 A 
ATOM     56  C   UNL A   1      41.338  28.733  31.182  1.00  0.00     0.049 A 
ATOM     57  C   UNL A   1      41.002  32.395  35.407  1.00  0.00     0.074 A 
ATOM     58  C   UNL A   1      42.370  27.813  31.238  1.00  0.00     0.029 A 
ATOM     59  N   UNL A   1      41.434  29.511  32.327  1.00  0.00    -0.354 N 
ATOM     60  N   UNL A   1      41.215  31.482  34.491  1.00  0.00    -0.248 NA
ATOM     61  C   UNL A   1      41.903  32.304  36.566  1.00  0.00     0.031 C 
ATOM     62  C   UNL A   1      43.057  27.999  32.442  1.00  0.00     0.029 A 
ATOM     63  C   UNL A   1      42.490  29.074  33.109  1.00  0.00     0.049 A 
ATOM     64  H   UNL A   1      40.840  30.264  32.550  1.00  0.00     0.167 HD
ATOM     65  C   UNL A   1      42.287  30.727  34.947  1.00  0.00     0.074 A 
ATOM     66  C   UNL A   1      42.691  31.298  36.214  1.00  0.00     0.031 C 
ATOM     67  C   UNL A   1      42.884  29.656  34.368  1.00  0.00     0.037 A 
BRANCH  54  68
ATOM     68  C   UNL A   1      40.314  27.918  29.019  1.00  0.00     0.057 A 
ATOM     69  C   UNL A   1      39.552  26.743  29.056  1.00  0.00     0.134 A 
ATOM     70  C   UNL A   1      41.046  28.174  27.853  1.00  0.00     0.134 A 
ATOM     71  F   UNL A   1      38.835  26.429  30.147  1.00  0.00    -0.206 F 
ATOM     72  C   UNL A   1      39.542  25.844  27.988  1.00  0.00     0.040 A 
ATOM     73  C   UNL A   1      41.019  27.299  26.766  1.00  0.00     0.040 A 
ATOM     74  F   UNL A   1      41.792  29.284  27.746  1.00  0.00    -0.206 F 
ATOM     75  C   UNL A   1      40.272  26.124  26.836  1.00  0.00     0.006 A 
ENDBRANCH  54  68
BRANCH  55  76
ATOM     76  C   UNL A   1      39.901  34.441  36.573  1.00  0.00     0.057 A 
ATOM     77  C   UNL A   1      40.594  35.657  36.563  1.00  0.00     0.134 A 
ATOM     78  C   UNL A   1      39.133  34.147  37.707  1.00  0.00     0.134 A 
ATOM     79  F   UNL A   1      41.361  35.988  35.515  1.00  0.00    -0.206 F 
ATOM     80  C   UNL A   1      40.544  36.536  37.647  1.00  0.00     0.040 A 
ATOM     81  C   UNL A   1      39.050  35.030  38.784  1.00  0.00     0.040 A 
ATOM     82  F   UNL A   1      38.438  33.002  37.776  1.00  0.00    -0.206 F 
ATOM     83  C   UNL A   1      39.765  36.225  38.759  1.00  0.00     0.006 A 
ENDBRANCH  55  76
BRANCH  67  84
ATOM     84  C   UNL A   1      44.057  29.050  35.083  1.00  0.00     0.057 A 
ATOM     85  C   UNL A   1      43.902  28.041  36.042  1.00  0.00     0.134 A 
ATOM     86  C   UNL A   1      45.364  29.450  34.771  1.00  0.00     0.134 A 
ATOM     87  F   UNL A   1      42.677  27.623  36.396  1.00  0.00    -0.206 F 
ATOM     88  C   UNL A   1      45.002  27.467  36.681  1.00  0.00     0.040 A 
ATOM     89  C   UNL A   1      46.472  28.862  35.381  1.00  0.00     0.040 A 
ATOM     90  F   UNL A   1      45.584  30.404  33.854  1.00  0.00    -0.206 F 
ATOM     91  C   UNL A   1      46.292  27.871  36.343  1.00  0.00     0.006 A 
ENDBRANCH  67  84
ENDBRANCH  41  42
ENDBRANCH  33  36
ENDBRANCH  31  32
ENDBRANCH  30  31
ENDBRANCH  29  30
ENDBRANCH  28  29
ENDBRANCH   1  28
TORSDOF 19
ENDMDL
