MODEL 1
REMARK VINA RESULT:     -11.1      0.000      0.000
REMARK SMILES C[C@H]1[NH2+]CC[C@H]1C(=O)N1CC(C(=O)NCCCCCCNC(=O)c2ccc(-c3c4nc(c(-c5c(F)cccc5F)c5ccc([nH]5)c(-c5c(F)cccc5F)c5nc(c(-c6c(F)cccc6F)c6ccc3[nH]6)C=C5)C=C4)cc2)C1
REMARK SMILES IDX 18 1 17 2 16 3 15 4 14 5 12 6 13 7 11 9 7 10 8 11 9 12 10 13
REMARK SMILES IDX 78 14 6 15 1 16 2 17 3 18 4 19 5 22 19 23 20 24 21 25 22 26
REMARK SMILES IDX 23 28 24 29 25 30 77 31 26 32 76 33 27 34 28 35 29 36 70 37
REMARK SMILES IDX 30 38 75 39 69 40 71 41 31 42 74 43 68 44 67 45 32 47 58 48
REMARK SMILES IDX 41 49 57 50 42 51 45 52 56 53 72 54 43 55 44 56 55 58 73 59
REMARK SMILES IDX 46 60 33 61 34 62 39 63 35 64 36 65 38 66 40 67 37 68 59 69
REMARK SMILES IDX 60 70 65 71 61 72 62 73 64 74 66 75 63 76 47 77 48 78 53 79
REMARK SMILES IDX 49 80 50 81 52 82 54 83 51 84
REMARK H PARENT 14 8 3 20 3 21 21 27 71 46 45 57
REMARK Flexibility Score: inf
ROOT
ATOM      1  C   UNL A   1      33.590  29.026  24.739  1.00  0.00     0.002 C 
ENDROOT
BRANCH   1   2
ATOM      2  C   UNL A   1      33.196  28.501  23.354  1.00  0.00     0.002 C 
BRANCH   2   3
ATOM      3  C   UNL A   1      31.707  28.618  23.010  1.00  0.00     0.021 C 
BRANCH   3   4
ATOM      4  C   UNL A   1      31.072  27.329  22.493  1.00  0.00     0.116 C 
BRANCH   4   5
ATOM      5  N   UNL A   1      31.795  26.788  21.359  1.00  0.00    -0.356 N 
ATOM      6  C   UNL A   1      32.520  25.631  21.211  1.00  0.00     0.226 C 
ATOM      7  O   UNL A   1      33.034  25.460  20.096  1.00  0.00    -0.275 OA
ATOM      8  H   UNL A   1      31.761  27.350  20.551  1.00  0.00     0.163 HD
BRANCH   6   9
ATOM      9  C   UNL A   1      32.694  24.617  22.346  1.00  0.00     0.117 C 
ATOM     10  C   UNL A   1      34.633  22.715  24.197  1.00  0.00     0.231 C 
ATOM     11  O   UNL A   1      33.792  22.372  25.026  1.00  0.00    -0.274 OA
ATOM     12  N   UNL A   1      34.357  23.651  23.216  1.00  0.00    -0.341 N 
ATOM     13  C   UNL A   1      33.613  24.895  23.523  1.00  0.00     0.134 C 
ATOM     14  C   UNL A   1      33.454  23.333  22.089  1.00  0.00     0.134 C 
BRANCH  10  15
ATOM     15  C   UNL A   1      36.050  22.156  24.221  1.00  0.00     0.142 C 
ATOM     16  C   UNL A   1      36.904  23.820  26.049  1.00  0.00     0.076 C 
ATOM     17  C   UNL A   1      37.174  23.034  24.770  1.00  0.00     0.192 C 
ATOM     18  N   UNL A   1      38.273  22.080  25.007  1.00  0.00    -0.343 N 
ATOM     19  C   UNL A   1      37.707  20.747  25.213  1.00  0.00     0.261 C 
ATOM     20  H   UNL A   1      38.798  22.362  25.835  1.00  0.00     0.346 HD
ATOM     21  H   UNL A   1      38.901  22.070  24.203  1.00  0.00     0.346 HD
ATOM     22  C   UNL A   1      36.208  20.853  24.989  1.00  0.00     0.081 C 
ENDBRANCH  10  15
ENDBRANCH   6   9
ENDBRANCH   4   5
ENDBRANCH   3   4
ENDBRANCH   2   3
ENDBRANCH   1   2
BRANCH   1  23
ATOM     23  C   UNL A   1      32.978  28.268  25.919  1.00  0.00     0.021 C 
BRANCH  23  24
ATOM     24  C   UNL A   1      33.659  28.521  27.259  1.00  0.00     0.116 C 
BRANCH  24  25
ATOM     25  N   UNL A   1      33.616  29.923  27.643  1.00  0.00    -0.352 N 
ATOM     26  C   UNL A   1      34.572  30.679  28.273  1.00  0.00     0.251 C 
ATOM     27  H   UNL A   1      32.781  30.397  27.420  1.00  0.00     0.163 HD
ATOM     28  O   UNL A   1      34.299  31.801  28.691  1.00  0.00    -0.269 OA
BRANCH  26  29
ATOM     29  C   UNL A   1      35.930  30.130  28.465  1.00  0.00     0.039 A 
ATOM     30  C   UNL A   1      36.836  30.172  27.403  1.00  0.00     0.014 A 
ATOM     31  C   UNL A   1      36.309  29.580  29.692  1.00  0.00     0.014 A 
ATOM     32  C   UNL A   1      38.143  29.718  27.590  1.00  0.00     0.010 A 
ATOM     33  C   UNL A   1      37.632  29.201  29.901  1.00  0.00     0.010 A 
ATOM     34  C   UNL A   1      38.562  29.261  28.851  1.00  0.00    -0.014 A 
BRANCH  34  35
ATOM     35  C   UNL A   1      39.962  28.832  29.094  1.00  0.00     0.031 A 
ATOM     36  C   UNL A   1      40.944  29.787  29.715  1.00  0.00     0.074 A 
ATOM     37  C   UNL A   1      40.368  27.611  28.693  1.00  0.00     0.049 A 
ATOM     38  N   UNL A   1      42.228  29.638  29.920  1.00  0.00    -0.248 NA
ATOM     39  C   UNL A   1      40.418  31.096  30.134  1.00  0.00     0.031 C 
ATOM     40  C   UNL A   1      39.524  26.607  28.046  1.00  0.00     0.029 A 
ATOM     41  N   UNL A   1      41.603  27.014  28.757  1.00  0.00    -0.354 N 
ATOM     42  C   UNL A   1      42.663  30.835  30.474  1.00  0.00     0.074 A 
ATOM     43  C   UNL A   1      41.521  31.720  30.521  1.00  0.00     0.031 C 
ATOM     44  C   UNL A   1      40.258  25.512  27.789  1.00  0.00     0.029 A 
ATOM     45  C   UNL A   1      41.635  25.753  28.211  1.00  0.00     0.049 A 
ATOM     46  H   UNL A   1      42.392  27.448  29.158  1.00  0.00     0.167 HD
ATOM     47  C   UNL A   1      43.899  31.159  30.922  1.00  0.00     0.037 A 
ATOM     48  C   UNL A   1      42.659  24.894  28.056  1.00  0.00     0.037 A 
ATOM     49  C   UNL A   1      45.029  30.269  30.892  1.00  0.00     0.049 A 
ATOM     50  C   UNL A   1      44.028  25.287  28.544  1.00  0.00     0.074 A 
ATOM     51  C   UNL A   1      46.308  30.484  31.374  1.00  0.00     0.029 A 
ATOM     52  N   UNL A   1      45.016  28.994  30.345  1.00  0.00    -0.354 N 
ATOM     53  N   UNL A   1      44.412  26.397  29.124  1.00  0.00    -0.248 NA
ATOM     54  C   UNL A   1      45.105  24.304  28.360  1.00  0.00     0.031 C 
ATOM     55  C   UNL A   1      47.084  29.362  31.070  1.00  0.00     0.029 A 
ATOM     56  C   UNL A   1      46.273  28.422  30.455  1.00  0.00     0.049 A 
ATOM     57  H   UNL A   1      44.230  28.560  29.941  1.00  0.00     0.167 HD
ATOM     58  C   UNL A   1      45.762  26.233  29.407  1.00  0.00     0.074 A 
ATOM     59  C   UNL A   1      46.129  24.912  28.941  1.00  0.00     0.031 C 
ATOM     60  C   UNL A   1      46.620  27.099  30.001  1.00  0.00     0.037 A 
BRANCH  47  61
ATOM     61  C   UNL A   1      44.095  32.540  31.481  1.00  0.00     0.057 A 
ATOM     62  C   UNL A   1      44.460  33.624  30.671  1.00  0.00     0.134 A 
ATOM     63  C   UNL A   1      43.877  32.798  32.840  1.00  0.00     0.134 A 
ATOM     64  F   UNL A   1      44.694  33.446  29.361  1.00  0.00    -0.206 F 
ATOM     65  C   UNL A   1      44.632  34.905  31.197  1.00  0.00     0.040 A 
ATOM     66  C   UNL A   1      44.015  34.082  33.373  1.00  0.00     0.040 A 
ATOM     67  F   UNL A   1      43.518  31.809  33.673  1.00  0.00    -0.206 F 
ATOM     68  C   UNL A   1      44.400  35.138  32.551  1.00  0.00     0.006 A 
ENDBRANCH  47  61
BRANCH  48  69
ATOM     69  C   UNL A   1      42.432  23.570  27.421  1.00  0.00     0.057 A 
ATOM     70  C   UNL A   1      42.095  22.449  28.187  1.00  0.00     0.134 A 
ATOM     71  C   UNL A   1      42.558  23.390  26.037  1.00  0.00     0.134 A 
ATOM     72  F   UNL A   1      41.978  22.552  29.519  1.00  0.00    -0.206 F 
ATOM     73  C   UNL A   1      41.914  21.192  27.606  1.00  0.00     0.040 A 
ATOM     74  C   UNL A   1      42.353  22.146  25.440  1.00  0.00     0.040 A 
ATOM     75  F   UNL A   1      42.869  24.427  25.244  1.00  0.00    -0.206 F 
ATOM     76  C   UNL A   1      42.039  21.040  26.227  1.00  0.00     0.006 A 
ENDBRANCH  48  69
BRANCH  60  77
ATOM     77  C   UNL A   1      48.028  26.630  30.231  1.00  0.00     0.057 A 
ATOM     78  C   UNL A   1      49.057  26.882  29.315  1.00  0.00     0.134 A 
ATOM     79  C   UNL A   1      48.367  25.963  31.418  1.00  0.00     0.134 A 
ATOM     80  F   UNL A   1      48.797  27.504  28.156  1.00  0.00    -0.206 F 
ATOM     81  C   UNL A   1      50.369  26.470  29.562  1.00  0.00     0.040 A 
ATOM     82  C   UNL A   1      49.679  25.575  31.688  1.00  0.00     0.040 A 
ATOM     83  F   UNL A   1      47.431  25.699  32.342  1.00  0.00    -0.206 F 
ATOM     84  C   UNL A   1      50.684  25.823  30.755  1.00  0.00     0.006 A 
ENDBRANCH  60  77
ENDBRANCH  34  35
ENDBRANCH  26  29
ENDBRANCH  24  25
ENDBRANCH  23  24
ENDBRANCH   1  23
TORSDOF 14
ENDMDL
MODEL 2
REMARK VINA RESULT:     -11.0      3.926      8.123
REMARK SMILES C[C@H]1[NH2+]CC[C@H]1C(=O)N1CC(C(=O)NCCCCCCNC(=O)c2ccc(-c3c4nc(c(-c5c(F)cccc5F)c5ccc([nH]5)c(-c5c(F)cccc5F)c5nc(c(-c6c(F)cccc6F)c6ccc3[nH]6)C=C5)C=C4)cc2)C1
REMARK SMILES IDX 18 1 17 2 16 3 15 4 14 5 12 6 13 7 11 9 7 10 8 11 9 12 10 13
REMARK SMILES IDX 78 14 6 15 1 16 2 17 3 18 4 19 5 22 19 23 20 24 21 25 22 26
REMARK SMILES IDX 23 28 24 29 25 30 77 31 26 32 76 33 27 34 28 35 29 36 70 37
REMARK SMILES IDX 30 38 75 39 69 40 71 41 31 42 74 43 68 44 67 45 32 47 58 48
REMARK SMILES IDX 41 49 57 50 42 51 45 52 56 53 72 54 43 55 44 56 55 58 73 59
REMARK SMILES IDX 46 60 33 61 34 62 39 63 35 64 36 65 38 66 40 67 37 68 59 69
REMARK SMILES IDX 60 70 65 71 61 72 62 73 64 74 66 75 63 76 47 77 48 78 53 79
REMARK SMILES IDX 49 80 50 81 52 82 54 83 51 84
REMARK H PARENT 14 8 3 20 3 21 21 27 71 46 45 57
REMARK Flexibility Score: inf
ROOT
ATOM      1  C   UNL A   1      31.633  30.691  26.333  1.00  0.00     0.002 C 
ENDROOT
BRANCH   1   2
ATOM      2  C   UNL A   1      32.681  29.993  27.206  1.00  0.00     0.002 C 
BRANCH   2   3
ATOM      3  C   UNL A   1      32.599  28.463  27.230  1.00  0.00     0.021 C 
BRANCH   3   4
ATOM      4  C   UNL A   1      31.354  27.883  26.563  1.00  0.00     0.116 C 
BRANCH   4   5
ATOM      5  N   UNL A   1      31.082  26.531  27.009  1.00  0.00    -0.356 N 
ATOM      6  C   UNL A   1      31.514  25.316  26.539  1.00  0.00     0.226 C 
ATOM      7  O   UNL A   1      31.085  24.324  27.146  1.00  0.00    -0.275 OA
ATOM      8  H   UNL A   1      30.482  26.474  27.787  1.00  0.00     0.163 HD
BRANCH   6   9
ATOM      9  C   UNL A   1      32.457  25.184  25.339  1.00  0.00     0.117 C 
ATOM     10  C   UNL A   1      34.726  23.492  23.668  1.00  0.00     0.231 C 
ATOM     11  O   UNL A   1      34.747  24.191  22.656  1.00  0.00    -0.274 OA
ATOM     12  N   UNL A   1      33.817  23.706  24.688  1.00  0.00    -0.341 N 
ATOM     13  C   UNL A   1      32.390  23.988  24.405  1.00  0.00     0.134 C 
ATOM     14  C   UNL A   1      33.924  24.887  25.572  1.00  0.00     0.134 C 
BRANCH  10  15
ATOM     15  C   UNL A   1      35.680  22.317  23.846  1.00  0.00     0.142 C 
ATOM     16  C   UNL A   1      37.342  23.624  25.385  1.00  0.00     0.076 C 
ATOM     17  C   UNL A   1      37.119  22.602  24.276  1.00  0.00     0.192 C 
ATOM     18  N   UNL A   1      37.614  21.286  24.719  1.00  0.00    -0.343 N 
ATOM     19  C   UNL A   1      36.475  20.466  25.132  1.00  0.00     0.261 C 
ATOM     20  H   UNL A   1      38.252  21.407  25.505  1.00  0.00     0.346 HD
ATOM     21  H   UNL A   1      38.110  20.828  23.954  1.00  0.00     0.346 HD
ATOM     22  C   UNL A   1      35.215  21.262  24.836  1.00  0.00     0.081 C 
ENDBRANCH  10  15
ENDBRANCH   6   9
ENDBRANCH   4   5
ENDBRANCH   3   4
ENDBRANCH   2   3
ENDBRANCH   1   2
BRANCH   1  23
ATOM     23  C   UNL A   1      31.477  32.192  26.579  1.00  0.00     0.021 C 
BRANCH  23  24
ATOM     24  C   UNL A   1      32.655  32.844  27.296  1.00  0.00     0.116 C 
BRANCH  24  25
ATOM     25  N   UNL A   1      32.396  34.236  27.628  1.00  0.00    -0.352 N 
ATOM     26  C   UNL A   1      32.978  35.020  28.592  1.00  0.00     0.251 C 
ATOM     27  H   UNL A   1      31.704  34.679  27.084  1.00  0.00     0.163 HD
ATOM     28  O   UNL A   1      32.509  36.122  28.862  1.00  0.00    -0.269 OA
BRANCH  26  29
ATOM     29  C   UNL A   1      34.163  34.524  29.321  1.00  0.00     0.039 A 
ATOM     30  C   UNL A   1      33.999  33.992  30.602  1.00  0.00     0.014 A 
ATOM     31  C   UNL A   1      35.433  34.581  28.740  1.00  0.00     0.014 A 
ATOM     32  C   UNL A   1      35.100  33.459  31.276  1.00  0.00     0.010 A 
ATOM     33  C   UNL A   1      36.513  33.979  29.378  1.00  0.00     0.010 A 
ATOM     34  C   UNL A   1      36.360  33.418  30.655  1.00  0.00    -0.014 A 
BRANCH  34  35
ATOM     35  C   UNL A   1      37.533  32.800  31.324  1.00  0.00     0.031 A 
ATOM     36  C   UNL A   1      38.201  31.600  30.711  1.00  0.00     0.074 A 
ATOM     37  C   UNL A   1      37.952  33.273  32.514  1.00  0.00     0.049 A 
ATOM     38  N   UNL A   1      39.172  30.861  31.186  1.00  0.00    -0.248 NA
ATOM     39  C   UNL A   1      37.690  31.153  29.406  1.00  0.00     0.031 C 
ATOM     40  C   UNL A   1      37.365  34.406  33.230  1.00  0.00     0.029 A 
ATOM     41  N   UNL A   1      38.963  32.846  33.340  1.00  0.00    -0.354 N 
ATOM     42  C   UNL A   1      39.375  29.857  30.247  1.00  0.00     0.074 A 
ATOM     43  C   UNL A   1      38.391  30.046  29.205  1.00  0.00     0.031 C 
ATOM     44  C   UNL A   1      38.036  34.597  34.377  1.00  0.00     0.029 A 
ATOM     45  C   UNL A   1      39.069  33.574  34.501  1.00  0.00     0.049 A 
ATOM     46  H   UNL A   1      39.555  32.091  33.121  1.00  0.00     0.167 HD
ATOM     47  C   UNL A   1      40.311  28.879  30.244  1.00  0.00     0.037 A 
ATOM     48  C   UNL A   1      39.897  33.424  35.553  1.00  0.00     0.037 A 
ATOM     49  C   UNL A   1      41.302  28.706  31.273  1.00  0.00     0.049 A 
ATOM     50  C   UNL A   1      40.915  32.316  35.534  1.00  0.00     0.074 A 
ATOM     51  C   UNL A   1      42.330  27.781  31.333  1.00  0.00     0.029 A 
ATOM     52  N   UNL A   1      41.388  29.474  32.426  1.00  0.00    -0.354 N 
ATOM     53  N   UNL A   1      41.138  31.413  34.612  1.00  0.00    -0.248 NA
ATOM     54  C   UNL A   1      41.801  32.210  36.702  1.00  0.00     0.031 C 
ATOM     55  C   UNL A   1      43.002  27.952  32.547  1.00  0.00     0.029 A 
ATOM     56  C   UNL A   1      42.434  29.025  33.214  1.00  0.00     0.049 A 
ATOM     57  H   UNL A   1      40.794  30.227  32.649  1.00  0.00     0.167 HD
ATOM     58  C   UNL A   1      42.209  30.656  35.069  1.00  0.00     0.074 A 
ATOM     59  C   UNL A   1      42.597  31.211  36.349  1.00  0.00     0.031 C 
ATOM     60  C   UNL A   1      42.819  29.597  34.480  1.00  0.00     0.037 A 
BRANCH  47  61
ATOM     61  C   UNL A   1      40.305  27.915  29.092  1.00  0.00     0.057 A 
ATOM     62  C   UNL A   1      39.532  26.746  29.108  1.00  0.00     0.134 A 
ATOM     63  C   UNL A   1      41.050  28.178  27.937  1.00  0.00     0.134 A 
ATOM     64  F   UNL A   1      38.802  26.426  30.188  1.00  0.00    -0.206 F 
ATOM     65  C   UNL A   1      39.526  25.859  28.029  1.00  0.00     0.040 A 
ATOM     66  C   UNL A   1      41.027  27.315  26.838  1.00  0.00     0.040 A 
ATOM     67  F   UNL A   1      41.807  29.283  27.849  1.00  0.00    -0.206 F 
ATOM     68  C   UNL A   1      40.268  26.148  26.887  1.00  0.00     0.006 A 
ENDBRANCH  47  61
BRANCH  48  69
ATOM     69  C   UNL A   1      39.809  34.355  36.708  1.00  0.00     0.057 A 
ATOM     70  C   UNL A   1      40.444  35.601  36.682  1.00  0.00     0.134 A 
ATOM     71  C   UNL A   1      39.101  34.017  37.868  1.00  0.00     0.134 A 
ATOM     72  F   UNL A   1      41.153  35.975  35.607  1.00  0.00    -0.206 F 
ATOM     73  C   UNL A   1      40.399  36.469  37.776  1.00  0.00     0.040 A 
ATOM     74  C   UNL A   1      39.024  34.885  38.957  1.00  0.00     0.040 A 
ATOM     75  F   UNL A   1      38.462  32.840  37.953  1.00  0.00    -0.206 F 
ATOM     76  C   UNL A   1      39.683  36.112  38.916  1.00  0.00     0.006 A 
ENDBRANCH  48  69
BRANCH  60  77
ATOM     77  C   UNL A   1      44.002  28.999  35.184  1.00  0.00     0.057 A 
ATOM     78  C   UNL A   1      45.311  29.436  34.946  1.00  0.00     0.134 A 
ATOM     79  C   UNL A   1      43.819  28.006  36.157  1.00  0.00     0.134 A 
ATOM     80  F   UNL A   1      45.556  30.375  34.021  1.00  0.00    -0.206 F 
ATOM     81  C   UNL A   1      46.397  28.894  35.637  1.00  0.00     0.040 A 
ATOM     82  C   UNL A   1      44.892  27.478  36.874  1.00  0.00     0.040 A 
ATOM     83  F   UNL A   1      42.590  27.548  36.441  1.00  0.00    -0.206 F 
ATOM     84  C   UNL A   1      46.188  27.919  36.610  1.00  0.00     0.006 A 
ENDBRANCH  60  77
ENDBRANCH  34  35
ENDBRANCH  26  29
ENDBRANCH  24  25
ENDBRANCH  23  24
ENDBRANCH   1  23
TORSDOF 14
ENDMDL
MODEL 3
REMARK VINA RESULT:     -10.9      3.479      4.967
REMARK SMILES C[C@H]1[NH2+]CC[C@H]1C(=O)N1CC(C(=O)NCCCCCCNC(=O)c2ccc(-c3c4nc(c(-c5c(F)cccc5F)c5ccc([nH]5)c(-c5c(F)cccc5F)c5nc(c(-c6c(F)cccc6F)c6ccc3[nH]6)C=C5)C=C4)cc2)C1
REMARK SMILES IDX 18 1 17 2 16 3 15 4 14 5 12 6 13 7 11 9 7 10 8 11 9 12 10 13
REMARK SMILES IDX 78 14 6 15 1 16 2 17 3 18 4 19 5 22 19 23 20 24 21 25 22 26
REMARK SMILES IDX 23 28 24 29 25 30 77 31 26 32 76 33 27 34 28 35 29 36 70 37
REMARK SMILES IDX 30 38 75 39 69 40 71 41 31 42 74 43 68 44 67 45 32 47 58 48
REMARK SMILES IDX 41 49 57 50 42 51 45 52 56 53 72 54 43 55 44 56 55 58 73 59
REMARK SMILES IDX 46 60 33 61 34 62 39 63 35 64 36 65 38 66 40 67 37 68 59 69
REMARK SMILES IDX 60 70 65 71 61 72 62 73 64 74 66 75 63 76 47 77 48 78 53 79
REMARK SMILES IDX 49 80 50 81 52 82 54 83 51 84
REMARK H PARENT 14 8 3 20 3 21 21 27 71 46 45 57
REMARK Flexibility Score: inf
ROOT
ATOM      1  C   UNL A   1      31.476  30.838  26.181  1.00  0.00     0.002 C 
ENDROOT
BRANCH   1   2
ATOM      2  C   UNL A   1      32.505  30.034  26.981  1.00  0.00     0.002 C 
BRANCH   2   3
ATOM      3  C   UNL A   1      32.029  28.659  27.464  1.00  0.00     0.021 C 
BRANCH   3   4
ATOM      4  C   UNL A   1      31.397  27.789  26.379  1.00  0.00     0.116 C 
BRANCH   4   5
ATOM      5  N   UNL A   1      31.058  26.470  26.875  1.00  0.00    -0.356 N 
ATOM      6  C   UNL A   1      31.398  25.217  26.429  1.00  0.00     0.226 C 
ATOM      7  O   UNL A   1      30.930  24.272  27.079  1.00  0.00    -0.275 OA
ATOM      8  H   UNL A   1      30.482  26.472  27.674  1.00  0.00     0.163 HD
BRANCH   6   9
ATOM      9  C   UNL A   1      32.290  24.993  25.204  1.00  0.00     0.117 C 
ATOM     10  C   UNL A   1      34.579  23.240  23.626  1.00  0.00     0.231 C 
ATOM     11  O   UNL A   1      34.509  23.810  22.538  1.00  0.00    -0.274 OA
ATOM     12  N   UNL A   1      33.707  23.525  24.661  1.00  0.00    -0.341 N 
ATOM     13  C   UNL A   1      32.254  23.690  24.425  1.00  0.00     0.134 C 
ATOM     14  C   UNL A   1      33.782  24.810  25.390  1.00  0.00     0.134 C 
BRANCH  10  15
ATOM     15  C   UNL A   1      35.613  22.152  23.890  1.00  0.00     0.142 C 
ATOM     16  C   UNL A   1      37.201  23.700  25.275  1.00  0.00     0.076 C 
ATOM     17  C   UNL A   1      37.034  22.569  24.266  1.00  0.00     0.192 C 
ATOM     18  N   UNL A   1      37.622  21.334  24.817  1.00  0.00    -0.343 N 
ATOM     19  C   UNL A   1      36.546  20.482  25.323  1.00  0.00     0.261 C 
ATOM     20  H   UNL A   1      38.261  21.568  25.576  1.00  0.00     0.346 HD
ATOM     21  H   UNL A   1      38.139  20.842  24.087  1.00  0.00     0.346 HD
ATOM     22  C   UNL A   1      35.232  21.162  24.980  1.00  0.00     0.081 C 
ENDBRANCH  10  15
ENDBRANCH   6   9
ENDBRANCH   4   5
ENDBRANCH   3   4
ENDBRANCH   2   3
ENDBRANCH   1   2
BRANCH   1  23
ATOM     23  C   UNL A   1      31.357  32.312  26.571  1.00  0.00     0.021 C 
BRANCH  23  24
ATOM     24  C   UNL A   1      32.621  32.913  27.176  1.00  0.00     0.116 C 
BRANCH  24  25
ATOM     25  N   UNL A   1      32.408  34.264  27.669  1.00  0.00    -0.352 N 
ATOM     26  C   UNL A   1      33.026  34.916  28.706  1.00  0.00     0.251 C 
ATOM     27  H   UNL A   1      31.723  34.786  27.190  1.00  0.00     0.163 HD
ATOM     28  O   UNL A   1      32.593  35.993  29.108  1.00  0.00    -0.269 OA
BRANCH  26  29
ATOM     29  C   UNL A   1      34.206  34.308  29.354  1.00  0.00     0.039 A 
ATOM     30  C   UNL A   1      34.022  33.500  30.478  1.00  0.00     0.014 A 
ATOM     31  C   UNL A   1      35.490  34.531  28.850  1.00  0.00     0.014 A 
ATOM     32  C   UNL A   1      35.121  32.865  31.061  1.00  0.00     0.010 A 
ATOM     33  C   UNL A   1      36.572  33.836  29.383  1.00  0.00     0.010 A 
ATOM     34  C   UNL A   1      36.400  33.000  30.497  1.00  0.00    -0.014 A 
BRANCH  34  35
ATOM     35  C   UNL A   1      37.574  32.287  31.058  1.00  0.00     0.031 A 
ATOM     36  C   UNL A   1      38.252  32.811  32.295  1.00  0.00     0.074 A 
ATOM     37  C   UNL A   1      38.074  31.211  30.418  1.00  0.00     0.049 A 
ATOM     38  N   UNL A   1      39.344  32.389  32.882  1.00  0.00    -0.248 NA
ATOM     39  C   UNL A   1      37.639  33.982  32.938  1.00  0.00     0.031 C 
ATOM     40  C   UNL A   1      37.531  30.627  29.191  1.00  0.00     0.029 A 
ATOM     41  N   UNL A   1      39.164  30.426  30.705  1.00  0.00    -0.354 N 
ATOM     42  C   UNL A   1      39.554  33.251  33.950  1.00  0.00     0.074 A 
ATOM     43  C   UNL A   1      38.512  34.253  33.898  1.00  0.00     0.031 C 
ATOM     44  C   UNL A   1      38.277  29.567  28.840  1.00  0.00     0.029 A 
ATOM     45  C   UNL A   1      39.376  29.423  29.789  1.00  0.00     0.049 A 
ATOM     46  H   UNL A   1      39.738  30.568  31.492  1.00  0.00     0.167 HD
ATOM     47  C   UNL A   1      40.516  33.200  34.902  1.00  0.00     0.037 A 
ATOM     48  C   UNL A   1      40.354  28.501  29.715  1.00  0.00     0.037 A 
ATOM     49  C   UNL A   1      41.539  32.191  34.962  1.00  0.00     0.049 A 
ATOM     50  C   UNL A   1      41.424  28.478  30.774  1.00  0.00     0.074 A 
ATOM     51  C   UNL A   1      42.525  32.019  35.919  1.00  0.00     0.029 A 
ATOM     52  N   UNL A   1      41.711  31.181  34.025  1.00  0.00    -0.354 N 
ATOM     53  N   UNL A   1      41.575  29.260  31.814  1.00  0.00    -0.248 NA
ATOM     54  C   UNL A   1      42.458  27.440  30.650  1.00  0.00     0.031 C 
ATOM     55  C   UNL A   1      43.327  30.942  35.531  1.00  0.00     0.029 A 
ATOM     56  C   UNL A   1      42.803  30.402  34.368  1.00  0.00     0.049 A 
ATOM     57  H   UNL A   1      41.141  31.041  33.236  1.00  0.00     0.167 HD
ATOM     58  C   UNL A   1      42.694  28.788  32.488  1.00  0.00     0.074 A 
ATOM     59  C   UNL A   1      43.180  27.647  31.742  1.00  0.00     0.031 C 
ATOM     60  C   UNL A   1      43.267  29.258  33.624  1.00  0.00     0.037 A 
BRANCH  47  61
ATOM     61  C   UNL A   1      40.510  34.273  35.954  1.00  0.00     0.057 A 
ATOM     62  C   UNL A   1      41.246  35.457  35.811  1.00  0.00     0.134 A 
ATOM     63  C   UNL A   1      39.728  34.136  37.108  1.00  0.00     0.134 A 
ATOM     64  F   UNL A   1      42.025  35.648  34.735  1.00  0.00    -0.206 F 
ATOM     65  C   UNL A   1      41.228  36.451  36.790  1.00  0.00     0.040 A 
ATOM     66  C   UNL A   1      39.676  35.139  38.080  1.00  0.00     0.040 A 
ATOM     67  F   UNL A   1      38.992  33.033  37.307  1.00  0.00    -0.206 F 
ATOM     68  C   UNL A   1      40.434  36.297  37.925  1.00  0.00     0.006 A 
ENDBRANCH  47  61
BRANCH  48  69
ATOM     69  C   UNL A   1      40.363  27.511  28.607  1.00  0.00     0.057 A 
ATOM     70  C   UNL A   1      39.646  26.313  28.701  1.00  0.00     0.134 A 
ATOM     71  C   UNL A   1      41.096  27.732  27.435  1.00  0.00     0.134 A 
ATOM     72  F   UNL A   1      38.940  26.035  29.807  1.00  0.00    -0.206 F 
ATOM     73  C   UNL A   1      39.676  25.359  27.682  1.00  0.00     0.040 A 
ATOM     74  C   UNL A   1      41.113  26.801  26.396  1.00  0.00     0.040 A 
ATOM     75  F   UNL A   1      41.798  28.865  27.277  1.00  0.00    -0.206 F 
ATOM     76  C   UNL A   1      40.408  25.606  26.522  1.00  0.00     0.006 A 
ENDBRANCH  48  69
BRANCH  60  77
ATOM     77  C   UNL A   1      44.452  28.510  34.162  1.00  0.00     0.057 A 
ATOM     78  C   UNL A   1      44.314  27.412  35.021  1.00  0.00     0.134 A 
ATOM     79  C   UNL A   1      45.751  28.865  33.769  1.00  0.00     0.134 A 
ATOM     80  F   UNL A   1      43.101  27.029  35.444  1.00  0.00    -0.206 F 
ATOM     81  C   UNL A   1      45.426  26.705  35.484  1.00  0.00     0.040 A 
ATOM     82  C   UNL A   1      46.866  28.147  34.201  1.00  0.00     0.040 A 
ATOM     83  F   UNL A   1      45.954  29.901  32.941  1.00  0.00    -0.206 F 
ATOM     84  C   UNL A   1      46.706  27.067  35.066  1.00  0.00     0.006 A 
ENDBRANCH  60  77
ENDBRANCH  34  35
ENDBRANCH  26  29
ENDBRANCH  24  25
ENDBRANCH  23  24
ENDBRANCH   1  23
TORSDOF 14
ENDMDL
