MODEL 1
REMARK VINA RESULT:     -10.2      0.000      0.000
REMARK SMILES CN(CCOCC1CC1)C(=O)N1CC[C@H](C(=O)NCCCCCCNC(=O)c2ccc(-c3c4nc(c(-c5c(F)cccc5F)c5ccc([nH]5)c(-c5c(F)cccc5F)c5nc(c(-c6c(F)cccc6F)c6ccc3[nH]6)C=C5)C=C4)cc2)C1
REMARK SMILES IDX 19 1 18 2 16 3 17 4 15 6 12 7 13 8 82 9 14 10 10 11 11 12
REMARK SMILES IDX 2 13 1 14 3 15 4 16 5 17 6 18 7 19 8 20 9 21 20 22 21 23
REMARK SMILES IDX 22 24 23 25 24 26 25 27 26 28 27 30 28 31 29 32 81 33 30 34
REMARK SMILES IDX 80 35 31 36 32 37 33 38 74 39 34 40 79 41 73 42 75 43 35 44
REMARK SMILES IDX 78 45 72 46 71 47 36 49 62 50 45 51 61 52 46 53 49 54 60 55
REMARK SMILES IDX 76 56 47 57 48 58 59 60 77 61 50 62 37 63 38 64 43 65 39 66
REMARK SMILES IDX 40 67 42 68 44 69 41 70 63 71 64 72 69 73 65 74 66 75 68 76
REMARK SMILES IDX 70 77 67 78 51 79 52 80 57 81 53 82 54 83 56 84 58 85 55 86
REMARK H PARENT 18 5 25 29 75 48 49 59
REMARK Flexibility Score: inf
ROOT
ATOM      1  C   UNL A   1      33.844  30.409  27.023  1.00  0.00     0.116 C 
ENDROOT
BRANCH   1   2
ATOM      2  N   UNL A   1      32.749  29.700  27.652  1.00  0.00    -0.356 N 
ATOM      3  C   UNL A   1      32.080  28.579  27.267  1.00  0.00     0.224 C 
ATOM      4  O   UNL A   1      31.196  28.156  28.016  1.00  0.00    -0.275 OA
ATOM      5  H   UNL A   1      32.435  30.094  28.498  1.00  0.00     0.163 HD
BRANCH   3   6
ATOM      6  C   UNL A   1      32.371  27.866  25.957  1.00  0.00     0.100 C 
ATOM      7  N   UNL A   1      32.123  25.512  25.712  1.00  0.00    -0.324 N 
ATOM      8  C   UNL A   1      33.506  25.824  25.366  1.00  0.00     0.122 C 
ATOM      9  C   UNL A   1      31.368  26.761  25.646  1.00  0.00     0.134 C 
ATOM     10  C   UNL A   1      33.753  27.216  25.924  1.00  0.00     0.037 C 
BRANCH   7  11
ATOM     11  C   UNL A   1      31.421  24.361  25.980  1.00  0.00     0.319 C 
ATOM     12  O   UNL A   1      30.787  24.295  27.041  1.00  0.00    -0.248 OA
BRANCH  11  13
ATOM     13  N   UNL A   1      31.402  23.284  25.117  1.00  0.00    -0.325 N 
ATOM     14  C   UNL A   1      31.091  23.565  23.715  1.00  0.00     0.148 C 
BRANCH  13  15
ATOM     15  C   UNL A   1      31.669  21.875  25.398  1.00  0.00     0.149 C 
BRANCH  15  16
ATOM     16  C   UNL A   1      32.270  21.088  24.219  1.00  0.00     0.181 C 
BRANCH  16  17
ATOM     17  O   UNL A   1      33.648  20.738  24.332  1.00  0.00    -0.379 OA
BRANCH  17  18
ATOM     18  C   UNL A   1      33.930  19.371  24.624  1.00  0.00     0.163 C 
BRANCH  18  19
ATOM     19  C   UNL A   1      32.868  18.436  24.152  1.00  0.00     0.015 C 
ATOM     20  C   UNL A   1      33.156  17.422  23.070  1.00  0.00     0.006 C 
ATOM     21  C   UNL A   1      33.032  16.974  24.496  1.00  0.00     0.006 C 
ENDBRANCH  18  19
ENDBRANCH  17  18
ENDBRANCH  16  17
ENDBRANCH  15  16
ENDBRANCH  13  15
ENDBRANCH  11  13
ENDBRANCH   7  11
ENDBRANCH   3   6
ENDBRANCH   1   2
BRANCH   1  22
ATOM     22  C   UNL A   1      34.689  31.193  28.016  1.00  0.00     0.021 C 
BRANCH  22  23
ATOM     23  C   UNL A   1      34.600  32.705  27.838  1.00  0.00     0.002 C 
BRANCH  23  24
ATOM     24  C   UNL A   1      34.162  33.464  29.093  1.00  0.00     0.002 C 
BRANCH  24  25
ATOM     25  C   UNL A   1      33.103  34.544  28.855  1.00  0.00     0.021 C 
BRANCH  25  26
ATOM     26  C   UNL A   1      33.461  35.909  29.432  1.00  0.00     0.116 C 
BRANCH  26  27
ATOM     27  N   UNL A   1      32.554  36.299  30.499  1.00  0.00    -0.352 N 
ATOM     28  C   UNL A   1      32.532  35.888  31.806  1.00  0.00     0.251 C 
ATOM     29  H   UNL A   1      31.859  36.950  30.248  1.00  0.00     0.163 HD
ATOM     30  O   UNL A   1      31.568  36.136  32.526  1.00  0.00    -0.269 OA
BRANCH  28  31
ATOM     31  C   UNL A   1      33.678  35.129  32.338  1.00  0.00     0.039 A 
ATOM     32  C   UNL A   1      33.477  33.836  32.822  1.00  0.00     0.014 A 
ATOM     33  C   UNL A   1      34.955  35.697  32.334  1.00  0.00     0.014 A 
ATOM     34  C   UNL A   1      34.572  33.084  33.247  1.00  0.00     0.010 A 
ATOM     35  C   UNL A   1      36.052  34.921  32.684  1.00  0.00     0.010 A 
ATOM     36  C   UNL A   1      35.872  33.608  33.146  1.00  0.00    -0.014 A 
BRANCH  36  37
ATOM     37  C   UNL A   1      37.064  32.808  33.516  1.00  0.00     0.031 A 
ATOM     38  C   UNL A   1      37.792  33.103  34.798  1.00  0.00     0.074 A 
ATOM     39  C   UNL A   1      37.542  31.884  32.661  1.00  0.00     0.049 A 
ATOM     40  N   UNL A   1      38.922  32.615  35.238  1.00  0.00    -0.248 NA
ATOM     41  C   UNL A   1      37.180  34.104  35.687  1.00  0.00     0.031 C 
ATOM     42  C   UNL A   1      36.942  31.530  31.373  1.00  0.00     0.029 A 
ATOM     43  N   UNL A   1      38.655  31.085  32.738  1.00  0.00    -0.354 N 
ATOM     44  C   UNL A   1      39.164  33.258  36.445  1.00  0.00     0.074 A 
ATOM     45  C   UNL A   1      38.093  34.210  36.640  1.00  0.00     0.031 C 
ATOM     46  C   UNL A   1      37.685  30.577  30.788  1.00  0.00     0.029 A 
ATOM     47  C   UNL A   1      38.839  30.288  31.634  1.00  0.00     0.049 A 
ATOM     48  H   UNL A   1      39.265  31.085  33.511  1.00  0.00     0.167 HD
ATOM     49  C   UNL A   1      40.177  33.057  37.320  1.00  0.00     0.037 A 
ATOM     50  C   UNL A   1      39.837  29.436  31.329  1.00  0.00     0.037 A 
ATOM     51  C   UNL A   1      41.229  32.094  37.127  1.00  0.00     0.049 A 
ATOM     52  C   UNL A   1      40.971  29.257  32.301  1.00  0.00     0.074 A 
ATOM     53  C   UNL A   1      42.273  31.778  37.978  1.00  0.00     0.029 A 
ATOM     54  N   UNL A   1      41.372  31.296  36.001  1.00  0.00    -0.354 N 
ATOM     55  N   UNL A   1      41.159  29.830  33.465  1.00  0.00    -0.248 NA
ATOM     56  C   UNL A   1      42.031  28.314  31.918  1.00  0.00     0.031 C 
ATOM     57  C   UNL A   1      43.079  30.829  37.343  1.00  0.00     0.029 A 
ATOM     58  C   UNL A   1      42.504  30.508  36.124  1.00  0.00     0.049 A 
ATOM     59  H   UNL A   1      40.759  31.291  35.230  1.00  0.00     0.167 HD
ATOM     60  C   UNL A   1      42.335  29.291  33.970  1.00  0.00     0.074 A 
ATOM     61  C   UNL A   1      42.815  28.342  32.987  1.00  0.00     0.031 C 
ATOM     62  C   UNL A   1      42.959  29.555  35.144  1.00  0.00     0.037 A 
BRANCH  49  63
ATOM     63  C   UNL A   1      40.198  33.898  38.564  1.00  0.00     0.057 A 
ATOM     64  C   UNL A   1      40.898  35.111  38.628  1.00  0.00     0.134 A 
ATOM     65  C   UNL A   1      39.478  33.510  39.701  1.00  0.00     0.134 A 
ATOM     66  F   UNL A   1      41.618  35.536  37.578  1.00  0.00    -0.206 F 
ATOM     67  C   UNL A   1      40.905  35.890  39.785  1.00  0.00     0.040 A 
ATOM     68  C   UNL A   1      39.451  34.296  40.854  1.00  0.00     0.040 A 
ATOM     69  F   UNL A   1      38.780  32.363  39.707  1.00  0.00    -0.206 F 
ATOM     70  C   UNL A   1      40.173  35.487  40.900  1.00  0.00     0.006 A 
ENDBRANCH  49  63
BRANCH  50  71
ATOM     71  C   UNL A   1      39.806  28.681  30.050  1.00  0.00     0.057 A 
ATOM     72  C   UNL A   1      40.419  29.187  28.898  1.00  0.00     0.134 A 
ATOM     73  C   UNL A   1      39.155  27.445  29.943  1.00  0.00     0.134 A 
ATOM     74  F   UNL A   1      41.045  30.374  28.932  1.00  0.00    -0.206 F 
ATOM     75  C   UNL A   1      40.370  28.504  27.681  1.00  0.00     0.040 A 
ATOM     76  C   UNL A   1      39.121  26.738  28.740  1.00  0.00     0.040 A 
ATOM     77  F   UNL A   1      38.553  26.901  31.011  1.00  0.00    -0.206 F 
ATOM     78  C   UNL A   1      39.722  27.273  27.602  1.00  0.00     0.006 A 
ENDBRANCH  50  71
BRANCH  62  79
ATOM     79  C   UNL A   1      44.202  28.775  35.462  1.00  0.00     0.057 A 
ATOM     80  C   UNL A   1      44.158  27.548  36.134  1.00  0.00     0.134 A 
ATOM     81  C   UNL A   1      45.452  29.227  35.019  1.00  0.00     0.134 A 
ATOM     82  F   UNL A   1      42.994  27.066  36.595  1.00  0.00    -0.206 F 
ATOM     83  C   UNL A   1      45.315  26.803  36.365  1.00  0.00     0.040 A 
ATOM     84  C   UNL A   1      46.612  28.478  35.218  1.00  0.00     0.040 A 
ATOM     85  F   UNL A   1      45.562  30.390  34.360  1.00  0.00    -0.206 F 
ATOM     86  C   UNL A   1      46.545  27.263  35.896  1.00  0.00     0.006 A 
ENDBRANCH  62  79
ENDBRANCH  36  37
ENDBRANCH  28  31
ENDBRANCH  26  27
ENDBRANCH  25  26
ENDBRANCH  24  25
ENDBRANCH  23  24
ENDBRANCH  22  23
ENDBRANCH   1  22
TORSDOF 20
ENDMDL
MODEL 2
REMARK VINA RESULT:     -10.1      1.755      2.459
REMARK SMILES CN(CCOCC1CC1)C(=O)N1CC[C@H](C(=O)NCCCCCCNC(=O)c2ccc(-c3c4nc(c(-c5c(F)cccc5F)c5ccc([nH]5)c(-c5c(F)cccc5F)c5nc(c(-c6c(F)cccc6F)c6ccc3[nH]6)C=C5)C=C4)cc2)C1
REMARK SMILES IDX 19 1 18 2 16 3 17 4 15 6 12 7 13 8 82 9 14 10 10 11 11 12
REMARK SMILES IDX 2 13 1 14 3 15 4 16 5 17 6 18 7 19 8 20 9 21 20 22 21 23
REMARK SMILES IDX 22 24 23 25 24 26 25 27 26 28 27 30 28 31 29 32 81 33 30 34
REMARK SMILES IDX 80 35 31 36 32 37 33 38 74 39 34 40 79 41 73 42 75 43 35 44
REMARK SMILES IDX 78 45 72 46 71 47 36 49 62 50 45 51 61 52 46 53 49 54 60 55
REMARK SMILES IDX 76 56 47 57 48 58 59 60 77 61 50 62 37 63 38 64 43 65 39 66
REMARK SMILES IDX 40 67 42 68 44 69 41 70 63 71 64 72 69 73 65 74 66 75 68 76
REMARK SMILES IDX 70 77 67 78 51 79 52 80 57 81 53 82 54 83 56 84 58 85 55 86
REMARK H PARENT 18 5 25 29 75 48 49 59
REMARK Flexibility Score: inf
ROOT
ATOM      1  C   UNL A   1      33.422  31.190  27.589  1.00  0.00     0.116 C 
ENDROOT
BRANCH   1   2
ATOM      2  N   UNL A   1      33.218  29.757  27.624  1.00  0.00    -0.356 N 
ATOM      3  C   UNL A   1      33.141  28.847  26.615  1.00  0.00     0.224 C 
ATOM      4  O   UNL A   1      32.995  27.662  26.925  1.00  0.00    -0.275 OA
ATOM      5  H   UNL A   1      33.118  29.378  28.527  1.00  0.00     0.163 HD
BRANCH   3   6
ATOM      6  C   UNL A   1      33.203  29.247  25.150  1.00  0.00     0.100 C 
ATOM      7  N   UNL A   1      31.773  28.282  23.510  1.00  0.00    -0.324 N 
ATOM      8  C   UNL A   1      33.142  28.035  23.069  1.00  0.00     0.122 C 
ATOM      9  C   UNL A   1      31.826  29.352  24.504  1.00  0.00     0.134 C 
ATOM     10  C   UNL A   1      34.006  28.269  24.297  1.00  0.00     0.037 C 
BRANCH   7  11
ATOM     11  C   UNL A   1      30.532  27.813  23.150  1.00  0.00     0.319 C 
ATOM     12  O   UNL A   1      29.834  28.515  22.406  1.00  0.00    -0.248 OA
BRANCH  11  13
ATOM     13  N   UNL A   1      30.041  26.600  23.586  1.00  0.00    -0.325 N 
ATOM     14  C   UNL A   1      28.611  26.538  23.898  1.00  0.00     0.148 C 
BRANCH  13  15
ATOM     15  C   UNL A   1      30.747  25.335  23.772  1.00  0.00     0.149 C 
BRANCH  15  16
ATOM     16  C   UNL A   1      31.489  25.204  25.116  1.00  0.00     0.181 C 
BRANCH  16  17
ATOM     17  O   UNL A   1      32.295  24.039  25.279  1.00  0.00    -0.379 OA
BRANCH  17  18
ATOM     18  C   UNL A   1      33.451  24.183  26.102  1.00  0.00     0.163 C 
BRANCH  18  19
ATOM     19  C   UNL A   1      34.652  24.654  25.355  1.00  0.00     0.015 C 
ATOM     20  C   UNL A   1      35.814  23.724  25.095  1.00  0.00     0.006 C 
ATOM     21  C   UNL A   1      34.879  24.078  23.978  1.00  0.00     0.006 C 
ENDBRANCH  18  19
ENDBRANCH  17  18
ENDBRANCH  16  17
ENDBRANCH  15  16
ENDBRANCH  13  15
ENDBRANCH  11  13
ENDBRANCH   7  11
ENDBRANCH   3   6
ENDBRANCH   1   2
BRANCH   1  22
ATOM     22  C   UNL A   1      34.872  31.587  27.821  1.00  0.00     0.021 C 
BRANCH  22  23
ATOM     23  C   UNL A   1      35.074  33.084  28.033  1.00  0.00     0.002 C 
BRANCH  23  24
ATOM     24  C   UNL A   1      34.370  33.649  29.269  1.00  0.00     0.002 C 
BRANCH  24  25
ATOM     25  C   UNL A   1      33.236  34.635  28.971  1.00  0.00     0.021 C 
BRANCH  25  26
ATOM     26  C   UNL A   1      33.482  36.045  29.494  1.00  0.00     0.116 C 
BRANCH  26  27
ATOM     27  N   UNL A   1      32.559  36.392  30.563  1.00  0.00    -0.352 N 
ATOM     28  C   UNL A   1      32.527  35.940  31.856  1.00  0.00     0.251 C 
ATOM     29  H   UNL A   1      31.860  37.044  30.325  1.00  0.00     0.163 HD
ATOM     30  O   UNL A   1      31.554  36.156  32.572  1.00  0.00    -0.269 OA
BRANCH  28  31
ATOM     31  C   UNL A   1      33.676  35.176  32.376  1.00  0.00     0.039 A 
ATOM     32  C   UNL A   1      33.473  33.885  32.866  1.00  0.00     0.014 A 
ATOM     33  C   UNL A   1      34.956  35.737  32.356  1.00  0.00     0.014 A 
ATOM     34  C   UNL A   1      34.569  33.129  33.280  1.00  0.00     0.010 A 
ATOM     35  C   UNL A   1      36.053  34.956  32.696  1.00  0.00     0.010 A 
ATOM     36  C   UNL A   1      35.870  33.645  33.163  1.00  0.00    -0.014 A 
BRANCH  36  37
ATOM     37  C   UNL A   1      37.062  32.840  33.521  1.00  0.00     0.031 A 
ATOM     38  C   UNL A   1      37.794  33.120  34.804  1.00  0.00     0.074 A 
ATOM     39  C   UNL A   1      37.537  31.924  32.654  1.00  0.00     0.049 A 
ATOM     40  N   UNL A   1      38.925  32.625  35.236  1.00  0.00    -0.248 NA
ATOM     41  C   UNL A   1      37.187  34.112  35.706  1.00  0.00     0.031 C 
ATOM     42  C   UNL A   1      36.932  31.585  31.365  1.00  0.00     0.029 A 
ATOM     43  N   UNL A   1      38.649  31.123  32.720  1.00  0.00    -0.354 N 
ATOM     44  C   UNL A   1      39.172  33.255  36.449  1.00  0.00     0.074 A 
ATOM     45  C   UNL A   1      38.102  34.207  36.657  1.00  0.00     0.031 C 
ATOM     46  C   UNL A   1      37.672  30.637  30.768  1.00  0.00     0.029 A 
ATOM     47  C   UNL A   1      38.829  30.337  31.607  1.00  0.00     0.049 A 
ATOM     48  H   UNL A   1      39.261  31.114  33.491  1.00  0.00     0.167 HD
ATOM     49  C   UNL A   1      40.187  33.043  37.319  1.00  0.00     0.037 A 
ATOM     50  C   UNL A   1      39.825  29.488  31.290  1.00  0.00     0.037 A 
ATOM     51  C   UNL A   1      41.236  32.081  37.112  1.00  0.00     0.049 A 
ATOM     52  C   UNL A   1      40.961  29.296  32.257  1.00  0.00     0.074 A 
ATOM     53  C   UNL A   1      42.282  31.754  37.957  1.00  0.00     0.029 A 
ATOM     54  N   UNL A   1      41.375  31.295  35.978  1.00  0.00    -0.354 N 
ATOM     55  N   UNL A   1      41.153  29.857  33.426  1.00  0.00    -0.248 NA
ATOM     56  C   UNL A   1      42.019  28.356  31.861  1.00  0.00     0.031 C 
ATOM     57  C   UNL A   1      43.086  30.811  37.310  1.00  0.00     0.029 A 
ATOM     58  C   UNL A   1      42.506  30.504  36.089  1.00  0.00     0.049 A 
ATOM     59  H   UNL A   1      40.760  31.299  35.208  1.00  0.00     0.167 HD
ATOM     60  C   UNL A   1      42.330  29.310  33.922  1.00  0.00     0.074 A 
ATOM     61  C   UNL A   1      42.806  28.372  32.928  1.00  0.00     0.031 C 
ATOM     62  C   UNL A   1      42.957  29.560  35.098  1.00  0.00     0.037 A 
BRANCH  49  63
ATOM     63  C   UNL A   1      40.212  33.871  38.572  1.00  0.00     0.057 A 
ATOM     64  C   UNL A   1      39.544  33.473  39.737  1.00  0.00     0.134 A 
ATOM     65  C   UNL A   1      40.947  35.063  38.624  1.00  0.00     0.134 A 
ATOM     66  F   UNL A   1      38.814  32.348  39.752  1.00  0.00    -0.206 F 
ATOM     67  C   UNL A   1      39.580  34.245  40.899  1.00  0.00     0.040 A 
ATOM     68  C   UNL A   1      41.017  35.827  39.790  1.00  0.00     0.040 A 
ATOM     69  F   UNL A   1      41.616  35.500  37.547  1.00  0.00    -0.206 F 
ATOM     70  C   UNL A   1      40.326  35.422  40.930  1.00  0.00     0.006 A 
ENDBRANCH  49  63
BRANCH  50  71
ATOM     71  C   UNL A   1      39.789  28.746  30.003  1.00  0.00     0.057 A 
ATOM     72  C   UNL A   1      39.136  27.513  29.898  1.00  0.00     0.134 A 
ATOM     73  C   UNL A   1      40.415  29.243  28.852  1.00  0.00     0.134 A 
ATOM     74  F   UNL A   1      38.532  26.976  30.970  1.00  0.00    -0.206 F 
ATOM     75  C   UNL A   1      39.123  26.789  28.704  1.00  0.00     0.040 A 
ATOM     76  C   UNL A   1      40.386  28.544  27.644  1.00  0.00     0.040 A 
ATOM     77  F   UNL A   1      41.052  30.423  28.882  1.00  0.00    -0.206 F 
ATOM     78  C   UNL A   1      39.746  27.308  27.572  1.00  0.00     0.006 A 
ENDBRANCH  50  71
BRANCH  62  79
ATOM     79  C   UNL A   1      44.200  28.776  35.404  1.00  0.00     0.057 A 
ATOM     80  C   UNL A   1      44.156  27.540  36.059  1.00  0.00     0.134 A 
ATOM     81  C   UNL A   1      45.450  29.233  34.966  1.00  0.00     0.134 A 
ATOM     82  F   UNL A   1      42.992  27.052  36.514  1.00  0.00    -0.206 F 
ATOM     83  C   UNL A   1      45.313  26.790  36.279  1.00  0.00     0.040 A 
ATOM     84  C   UNL A   1      46.609  28.480  35.153  1.00  0.00     0.040 A 
ATOM     85  F   UNL A   1      45.561  30.405  34.323  1.00  0.00    -0.206 F 
ATOM     86  C   UNL A   1      46.543  27.256  35.815  1.00  0.00     0.006 A 
ENDBRANCH  62  79
ENDBRANCH  36  37
ENDBRANCH  28  31
ENDBRANCH  26  27
ENDBRANCH  25  26
ENDBRANCH  24  25
ENDBRANCH  23  24
ENDBRANCH  22  23
ENDBRANCH   1  22
TORSDOF 20
ENDMDL
MODEL 3
REMARK VINA RESULT:     -10.0      1.961      6.627
REMARK SMILES CN(CCOCC1CC1)C(=O)N1CC[C@H](C(=O)NCCCCCCNC(=O)c2ccc(-c3c4nc(c(-c5c(F)cccc5F)c5ccc([nH]5)c(-c5c(F)cccc5F)c5nc(c(-c6c(F)cccc6F)c6ccc3[nH]6)C=C5)C=C4)cc2)C1
REMARK SMILES IDX 19 1 18 2 16 3 17 4 15 6 12 7 13 8 82 9 14 10 10 11 11 12
REMARK SMILES IDX 2 13 1 14 3 15 4 16 5 17 6 18 7 19 8 20 9 21 20 22 21 23
REMARK SMILES IDX 22 24 23 25 24 26 25 27 26 28 27 30 28 31 29 32 81 33 30 34
REMARK SMILES IDX 80 35 31 36 32 37 33 38 74 39 34 40 79 41 73 42 75 43 35 44
REMARK SMILES IDX 78 45 72 46 71 47 36 49 62 50 45 51 61 52 46 53 49 54 60 55
REMARK SMILES IDX 76 56 47 57 48 58 59 60 77 61 50 62 37 63 38 64 43 65 39 66
REMARK SMILES IDX 40 67 42 68 44 69 41 70 63 71 64 72 69 73 65 74 66 75 68 76
REMARK SMILES IDX 70 77 67 78 51 79 52 80 57 81 53 82 54 83 56 84 58 85 55 86
REMARK H PARENT 18 5 25 29 75 48 49 59
REMARK Flexibility Score: inf
ROOT
ATOM      1  C   UNL A   1      32.882  29.348  24.653  1.00  0.00     0.116 C 
ENDROOT
BRANCH   1   2
ATOM      2  N   UNL A   1      33.665  29.076  23.465  1.00  0.00    -0.356 N 
ATOM      3  C   UNL A   1      33.610  28.040  22.586  1.00  0.00     0.224 C 
ATOM      4  O   UNL A   1      34.378  28.068  21.621  1.00  0.00    -0.275 OA
ATOM      5  H   UNL A   1      34.350  29.753  23.260  1.00  0.00     0.163 HD
BRANCH   3   6
ATOM      6  C   UNL A   1      32.666  26.862  22.771  1.00  0.00     0.100 C 
ATOM      7  N   UNL A   1      33.350  24.843  23.828  1.00  0.00    -0.324 N 
ATOM      8  C   UNL A   1      32.874  24.477  22.498  1.00  0.00     0.122 C 
ATOM      9  C   UNL A   1      32.829  26.176  24.123  1.00  0.00     0.134 C 
ATOM     10  C   UNL A   1      32.849  25.778  21.712  1.00  0.00     0.037 C 
BRANCH   7  11
ATOM     11  C   UNL A   1      34.058  24.207  24.820  1.00  0.00     0.319 C 
ATOM     12  O   UNL A   1      34.698  24.901  25.621  1.00  0.00    -0.248 OA
BRANCH  11  13
ATOM     13  N   UNL A   1      34.082  22.834  24.951  1.00  0.00    -0.325 N 
ATOM     14  C   UNL A   1      35.140  22.118  24.234  1.00  0.00     0.148 C 
BRANCH  13  15
ATOM     15  C   UNL A   1      33.200  21.968  25.730  1.00  0.00     0.149 C 
BRANCH  15  16
ATOM     16  C   UNL A   1      32.108  21.257  24.909  1.00  0.00     0.181 C 
BRANCH  16  17
ATOM     17  O   UNL A   1      32.111  19.832  24.957  1.00  0.00    -0.379 OA
BRANCH  17  18
ATOM     18  C   UNL A   1      32.701  19.165  23.843  1.00  0.00     0.163 C 
BRANCH  18  19
ATOM     19  C   UNL A   1      33.145  17.776  24.155  1.00  0.00     0.015 C 
ATOM     20  C   UNL A   1      33.908  16.961  23.137  1.00  0.00     0.006 C 
ATOM     21  C   UNL A   1      34.629  17.545  24.315  1.00  0.00     0.006 C 
ENDBRANCH  18  19
ENDBRANCH  17  18
ENDBRANCH  16  17
ENDBRANCH  15  16
ENDBRANCH  13  15
ENDBRANCH  11  13
ENDBRANCH   7  11
ENDBRANCH   3   6
ENDBRANCH   1   2
BRANCH   1  22
ATOM     22  C   UNL A   1      33.694  29.238  25.935  1.00  0.00     0.021 C 
BRANCH  22  23
ATOM     23  C   UNL A   1      33.103  30.015  27.107  1.00  0.00     0.002 C 
BRANCH  23  24
ATOM     24  C   UNL A   1      31.674  30.514  26.878  1.00  0.00     0.002 C 
BRANCH  24  25
ATOM     25  C   UNL A   1      31.517  32.037  26.867  1.00  0.00     0.021 C 
BRANCH  25  26
ATOM     26  C   UNL A   1      32.761  32.797  27.313  1.00  0.00     0.116 C 
BRANCH  26  27
ATOM     27  N   UNL A   1      32.464  34.188  27.614  1.00  0.00    -0.352 N 
ATOM     28  C   UNL A   1      32.986  34.987  28.596  1.00  0.00     0.251 C 
ATOM     29  H   UNL A   1      31.796  34.615  27.031  1.00  0.00     0.163 HD
ATOM     30  O   UNL A   1      32.471  36.070  28.864  1.00  0.00    -0.269 OA
BRANCH  28  31
ATOM     31  C   UNL A   1      34.172  34.526  29.342  1.00  0.00     0.039 A 
ATOM     32  C   UNL A   1      34.004  33.943  30.599  1.00  0.00     0.014 A 
ATOM     33  C   UNL A   1      35.445  34.654  28.780  1.00  0.00     0.014 A 
ATOM     34  C   UNL A   1      35.114  33.428  31.269  1.00  0.00     0.010 A 
ATOM     35  C   UNL A   1      36.536  34.073  29.414  1.00  0.00     0.010 A 
ATOM     36  C   UNL A   1      36.382  33.456  30.665  1.00  0.00    -0.014 A 
BRANCH  36  37
ATOM     37  C   UNL A   1      37.568  32.850  31.316  1.00  0.00     0.031 A 
ATOM     38  C   UNL A   1      38.220  31.643  30.702  1.00  0.00     0.074 A 
ATOM     39  C   UNL A   1      38.000  33.329  32.498  1.00  0.00     0.049 A 
ATOM     40  N   UNL A   1      39.176  30.888  31.178  1.00  0.00    -0.248 NA
ATOM     41  C   UNL A   1      37.705  31.209  29.393  1.00  0.00     0.031 C 
ATOM     42  C   UNL A   1      37.430  34.475  33.208  1.00  0.00     0.029 A 
ATOM     43  N   UNL A   1      39.009  32.897  33.322  1.00  0.00    -0.354 N 
ATOM     44  C   UNL A   1      39.367  29.885  30.237  1.00  0.00     0.074 A 
ATOM     45  C   UNL A   1      38.390  30.095  29.190  1.00  0.00     0.031 C 
ATOM     46  C   UNL A   1      38.106  34.665  34.353  1.00  0.00     0.029 A 
ATOM     47  C   UNL A   1      39.122  33.625  34.483  1.00  0.00     0.049 A 
ATOM     48  H   UNL A   1      39.595  32.137  33.103  1.00  0.00     0.167 HD
ATOM     49  C   UNL A   1      40.286  28.892  30.236  1.00  0.00     0.037 A 
ATOM     50  C   UNL A   1      39.939  33.459  35.541  1.00  0.00     0.037 A 
ATOM     51  C   UNL A   1      41.266  28.702  31.272  1.00  0.00     0.049 A 
ATOM     52  C   UNL A   1      40.928  32.325  35.533  1.00  0.00     0.074 A 
ATOM     53  C   UNL A   1      42.275  27.756  31.340  1.00  0.00     0.029 A 
ATOM     54  N   UNL A   1      41.357  29.468  32.424  1.00  0.00    -0.354 N 
ATOM     55  N   UNL A   1      41.136  31.417  34.611  1.00  0.00    -0.248 NA
ATOM     56  C   UNL A   1      41.796  32.193  36.712  1.00  0.00     0.031 C 
ATOM     57  C   UNL A   1      42.939  27.916  32.558  1.00  0.00     0.029 A 
ATOM     58  C   UNL A   1      42.386  28.999  33.222  1.00  0.00     0.049 A 
ATOM     59  H   UNL A   1      40.775  30.233  32.642  1.00  0.00     0.167 HD
ATOM     60  C   UNL A   1      42.181  30.631  35.079  1.00  0.00     0.074 A 
ATOM     61  C   UNL A   1      42.566  31.171  36.365  1.00  0.00     0.031 C 
ATOM     62  C   UNL A   1      42.770  29.559  34.493  1.00  0.00     0.037 A 
BRANCH  49  63
ATOM     63  C   UNL A   1      40.272  27.932  29.081  1.00  0.00     0.057 A 
ATOM     64  C   UNL A   1      39.510  26.757  29.102  1.00  0.00     0.134 A 
ATOM     65  C   UNL A   1      41.001  28.207  27.916  1.00  0.00     0.134 A 
ATOM     66  F   UNL A   1      38.797  26.428  30.191  1.00  0.00    -0.206 F 
ATOM     67  C   UNL A   1      39.496  25.875  28.020  1.00  0.00     0.040 A 
ATOM     68  C   UNL A   1      40.971  27.349  26.815  1.00  0.00     0.040 A 
ATOM     69  F   UNL A   1      41.748  29.317  27.825  1.00  0.00    -0.206 F 
ATOM     70  C   UNL A   1      40.222  26.175  26.869  1.00  0.00     0.006 A 
ENDBRANCH  49  63
BRANCH  50  71
ATOM     71  C   UNL A   1      39.863  34.394  36.693  1.00  0.00     0.057 A 
ATOM     72  C   UNL A   1      40.578  35.597  36.695  1.00  0.00     0.134 A 
ATOM     73  C   UNL A   1      39.087  34.103  37.823  1.00  0.00     0.134 A 
ATOM     74  F   UNL A   1      41.352  35.923  35.649  1.00  0.00    -0.206 F 
ATOM     75  C   UNL A   1      40.542  36.469  37.785  1.00  0.00     0.040 A 
ATOM     76  C   UNL A   1      39.020  34.979  38.908  1.00  0.00     0.040 A 
ATOM     77  F   UNL A   1      38.372  32.970  37.883  1.00  0.00    -0.206 F 
ATOM     78  C   UNL A   1      39.757  36.162  38.894  1.00  0.00     0.006 A 
ENDBRANCH  50  71
BRANCH  62  79
ATOM     79  C   UNL A   1      43.928  28.926  35.208  1.00  0.00     0.057 A 
ATOM     80  C   UNL A   1      45.253  29.299  34.953  1.00  0.00     0.134 A 
ATOM     81  C   UNL A   1      43.704  27.983  36.220  1.00  0.00     0.134 A 
ATOM     82  F   UNL A   1      45.536  30.188  33.989  1.00  0.00    -0.206 F 
ATOM     83  C   UNL A   1      46.315  28.749  35.671  1.00  0.00     0.040 A 
ATOM     84  C   UNL A   1      44.754  27.447  36.965  1.00  0.00     0.040 A 
ATOM     85  F   UNL A   1      42.457  27.589  36.521  1.00  0.00    -0.206 F 
ATOM     86  C   UNL A   1      46.066  27.828  36.688  1.00  0.00     0.006 A 
ENDBRANCH  62  79
ENDBRANCH  36  37
ENDBRANCH  28  31
ENDBRANCH  26  27
ENDBRANCH  25  26
ENDBRANCH  24  25
ENDBRANCH  23  24
ENDBRANCH  22  23
ENDBRANCH   1  22
TORSDOF 20
ENDMDL
