MODEL 1
REMARK VINA RESULT:     -13.2      0.000      0.000
REMARK SMILES Cc1cc([N+](=O)[O-])ccc1-c1ccc(/C=C/C(=O)Nc2ccc(O)c(C(=O)NCCCCCCNC(=O)c3ccc(-c4c5nc(c(-c6c(F)cccc6F)c6ccc([nH]6)c(-c6c(F)cccc6F)c6nc(c(-c7c(F)cccc7F)c7ccc4[nH]7)C=C6)C=C5)cc3)c2)o1
REMARK SMILES IDX 30 1 29 2 28 3 26 4 27 5 25 7 20 8 21 9 92 10 22 11 23 12
REMARK SMILES IDX 19 13 17 14 18 15 16 17 15 18 14 19 11 20 12 21 93 22 13 23
REMARK SMILES IDX 10 24 1 25 2 26 3 27 4 28 9 29 8 30 5 31 6 32 7 33 24 34
REMARK SMILES IDX 31 36 32 37 33 38 34 39 35 40 36 41 37 43 38 44 39 45 91 46
REMARK SMILES IDX 40 47 90 48 41 49 42 50 43 51 84 52 44 53 89 54 83 55 85 56
REMARK SMILES IDX 45 57 88 58 82 59 81 60 46 62 72 63 55 64 71 65 56 66 59 67
REMARK SMILES IDX 70 68 86 69 57 70 58 71 69 73 87 74 60 75 47 76 48 77 53 78
REMARK SMILES IDX 49 79 50 80 52 81 54 82 51 83 73 84 74 85 79 86 75 87 76 88
REMARK SMILES IDX 78 89 80 90 77 91 61 92 62 93 67 94 63 95 64 96 66 97 68 98
REMARK SMILES IDX 65 99
REMARK H PARENT 28 6 19 16 24 35 35 42 85 61 59 72
REMARK Flexibility Score: inf
ROOT
ATOM      1  C   UNL A   1      34.294  28.594  25.566  1.00  0.00     0.021 C 
ENDROOT
BRANCH   1   2
ATOM      2  C   UNL A   1      33.999  28.583  24.071  1.00  0.00     0.116 C 
BRANCH   2   3
ATOM      3  N   UNL A   1      32.772  29.228  23.645  1.00  0.00    -0.352 N 
ATOM      4  C   UNL A   1      31.538  28.685  23.350  1.00  0.00     0.255 C 
ATOM      5  O   UNL A   1      30.624  29.450  23.042  1.00  0.00    -0.269 OA
ATOM      6  H   UNL A   1      32.828  30.207  23.551  1.00  0.00     0.163 HD
BRANCH   4   7
ATOM      7  C   UNL A   1      31.269  27.216  23.364  1.00  0.00     0.083 A 
ATOM      8  C   UNL A   1      30.325  25.322  24.560  1.00  0.00     0.042 A 
ATOM      9  C   UNL A   1      30.601  24.494  23.473  1.00  0.00     0.030 A 
ATOM     10  C   UNL A   1      30.528  26.702  24.447  1.00  0.00     0.043 A 
ATOM     11  C   UNL A   1      31.355  24.980  22.416  1.00  0.00     0.049 A 
ATOM     12  C   UNL A   1      31.795  26.299  22.449  1.00  0.00     0.128 A 
BRANCH   8  13
ATOM     13  N   UNL A   1      29.989  24.786  25.817  1.00  0.00    -0.322 N 
ATOM     14  C   UNL A   1      30.492  23.648  26.417  1.00  0.00     0.248 C 
ATOM     15  O   UNL A   1      29.986  23.205  27.445  1.00  0.00    -0.270 OA
ATOM     16  H   UNL A   1      29.313  25.282  26.332  1.00  0.00     0.170 HD
BRANCH  14  17
ATOM     17  C   UNL A   1      31.698  22.975  25.849  1.00  0.00     0.075 C 
ATOM     18  C   UNL A   1      32.923  23.488  26.044  1.00  0.00     0.053 C 
BRANCH  18  19
ATOM     19  C   UNL A   1      34.059  23.020  25.332  1.00  0.00     0.127 A 
ATOM     20  C   UNL A   1      36.030  22.112  24.885  1.00  0.00     0.135 A 
ATOM     21  C   UNL A   1      35.579  22.627  23.693  1.00  0.00     0.051 A 
ATOM     22  O   UNL A   1      35.094  22.281  25.862  1.00  0.00    -0.457 OA
ATOM     23  C   UNL A   1      34.350  23.244  23.989  1.00  0.00     0.051 A 
BRANCH  20  24
ATOM     24  C   UNL A   1      37.298  21.532  25.283  1.00  0.00     0.021 A 
ATOM     25  C   UNL A   1      38.110  23.780  26.222  1.00  0.00     0.045 C 
ATOM     26  C   UNL A   1      38.299  22.319  25.896  1.00  0.00    -0.033 A 
ATOM     27  C   UNL A   1      39.546  21.740  26.190  1.00  0.00     0.089 A 
ATOM     28  C   UNL A   1      39.782  20.391  25.903  1.00  0.00     0.269 A 
ATOM     29  C   UNL A   1      37.546  20.176  25.016  1.00  0.00     0.019 A 
ATOM     30  C   UNL A   1      38.784  19.602  25.322  1.00  0.00     0.086 A 
BRANCH  28  31
ATOM     31  N   UNL A   1      41.093  19.805  26.208  1.00  0.00     0.062 N 
ATOM     32  O   UNL A   1      41.362  19.583  27.398  1.00  0.00    -0.258 OA
ATOM     33  O   UNL A   1      41.856  19.571  25.260  1.00  0.00    -0.258 OA
ENDBRANCH  28  31
ENDBRANCH  20  24
ENDBRANCH  18  19
ENDBRANCH  14  17
ENDBRANCH   8  13
BRANCH  12  34
ATOM     34  O   UNL A   1      32.875  26.555  21.650  1.00  0.00    -0.507 OA
ATOM     35  H   UNL A   1      32.954  27.383  21.219  1.00  0.00     0.293 HD
ENDBRANCH  12  34
ENDBRANCH   4   7
ENDBRANCH   2   3
ENDBRANCH   1   2
BRANCH   1  36
ATOM     36  C   UNL A   1      33.251  28.001  26.522  1.00  0.00     0.002 C 
BRANCH  36  37
ATOM     37  C   UNL A   1      32.315  28.937  27.299  1.00  0.00     0.002 C 
BRANCH  37  38
ATOM     38  C   UNL A   1      32.609  30.437  27.296  1.00  0.00     0.021 C 
BRANCH  38  39
ATOM     39  C   UNL A   1      34.077  30.836  27.311  1.00  0.00     0.116 C 
BRANCH  39  40
ATOM     40  N   UNL A   1      34.491  31.596  28.484  1.00  0.00    -0.352 N 
ATOM     41  C   UNL A   1      35.572  31.354  29.324  1.00  0.00     0.251 C 
ATOM     42  H   UNL A   1      33.937  32.379  28.709  1.00  0.00     0.163 HD
ATOM     43  O   UNL A   1      35.838  32.098  30.244  1.00  0.00    -0.269 OA
BRANCH  41  44
ATOM     44  C   UNL A   1      36.474  30.225  28.982  1.00  0.00     0.039 A 
ATOM     45  C   UNL A   1      36.682  29.249  29.960  1.00  0.00     0.014 A 
ATOM     46  C   UNL A   1      37.287  30.290  27.852  1.00  0.00     0.014 A 
ATOM     47  C   UNL A   1      37.864  28.518  29.938  1.00  0.00     0.010 A 
ATOM     48  C   UNL A   1      38.499  29.624  27.873  1.00  0.00     0.010 A 
ATOM     49  C   UNL A   1      38.818  28.809  28.964  1.00  0.00    -0.014 A 
BRANCH  49  50
ATOM     50  C   UNL A   1      40.222  28.448  29.129  1.00  0.00     0.031 A 
ATOM     51  C   UNL A   1      40.733  27.144  28.668  1.00  0.00     0.074 A 
ATOM     52  C   UNL A   1      41.064  29.329  29.719  1.00  0.00     0.049 A 
ATOM     53  N   UNL A   1      41.808  26.598  29.132  1.00  0.00    -0.248 NA
ATOM     54  C   UNL A   1      40.029  26.300  27.705  1.00  0.00     0.031 C 
ATOM     55  C   UNL A   1      42.523  29.274  29.771  1.00  0.00     0.029 A 
ATOM     56  N   UNL A   1      40.722  30.337  30.634  1.00  0.00    -0.354 N 
ATOM     57  C   UNL A   1      42.108  25.537  28.315  1.00  0.00     0.074 A 
ATOM     58  C   UNL A   1      40.901  25.294  27.568  1.00  0.00     0.031 C 
ATOM     59  C   UNL A   1      42.943  29.961  30.845  1.00  0.00     0.029 A 
ATOM     60  C   UNL A   1      41.760  30.354  31.590  1.00  0.00     0.049 A 
ATOM     61  H   UNL A   1      39.924  30.913  30.613  1.00  0.00     0.167 HD
ATOM     62  C   UNL A   1      43.396  25.108  28.247  1.00  0.00     0.037 A 
ATOM     63  C   UNL A   1      41.537  30.073  32.906  1.00  0.00     0.037 A 
ATOM     64  C   UNL A   1      44.195  25.628  29.358  1.00  0.00     0.049 A 
ATOM     65  C   UNL A   1      42.381  28.948  33.456  1.00  0.00     0.074 A 
ATOM     66  C   UNL A   1      45.230  26.541  29.450  1.00  0.00     0.029 A 
ATOM     67  N   UNL A   1      43.801  25.345  30.665  1.00  0.00    -0.354 N 
ATOM     68  N   UNL A   1      42.993  28.065  32.716  1.00  0.00    -0.248 NA
ATOM     69  C   UNL A   1      42.562  28.701  34.883  1.00  0.00     0.031 C 
ATOM     70  C   UNL A   1      45.395  26.873  30.823  1.00  0.00     0.029 A 
ATOM     71  C   UNL A   1      44.495  26.126  31.565  1.00  0.00     0.049 A 
ATOM     72  H   UNL A   1      43.120  24.678  30.912  1.00  0.00     0.167 HD
ATOM     73  C   UNL A   1      43.587  27.126  33.521  1.00  0.00     0.074 A 
ATOM     74  C   UNL A   1      43.322  27.592  34.869  1.00  0.00     0.031 C 
ATOM     75  C   UNL A   1      44.221  26.034  32.996  1.00  0.00     0.037 A 
BRANCH  62  76
ATOM     76  C   UNL A   1      44.002  24.388  27.058  1.00  0.00     0.057 A 
ATOM     77  C   UNL A   1      44.781  25.095  26.120  1.00  0.00     0.134 A 
ATOM     78  C   UNL A   1      43.737  23.050  26.690  1.00  0.00     0.134 A 
ATOM     79  F   UNL A   1      45.106  26.382  26.313  1.00  0.00    -0.206 F 
ATOM     80  C   UNL A   1      45.245  24.525  24.923  1.00  0.00     0.040 A 
ATOM     81  C   UNL A   1      44.242  22.453  25.526  1.00  0.00     0.040 A 
ATOM     82  F   UNL A   1      42.921  22.258  27.392  1.00  0.00    -0.206 F 
ATOM     83  C   UNL A   1      44.985  23.195  24.627  1.00  0.00     0.006 A 
ENDBRANCH  62  76
BRANCH  63  84
ATOM     84  C   UNL A   1      40.163  30.398  33.368  1.00  0.00     0.057 A 
ATOM     85  C   UNL A   1      39.838  31.736  33.656  1.00  0.00     0.134 A 
ATOM     86  C   UNL A   1      39.101  29.503  33.216  1.00  0.00     0.134 A 
ATOM     87  F   UNL A   1      40.810  32.649  33.810  1.00  0.00    -0.206 F 
ATOM     88  C   UNL A   1      38.515  32.183  33.688  1.00  0.00     0.040 A 
ATOM     89  C   UNL A   1      37.771  29.938  33.260  1.00  0.00     0.040 A 
ATOM     90  F   UNL A   1      39.329  28.217  32.917  1.00  0.00    -0.206 F 
ATOM     91  C   UNL A   1      37.477  31.286  33.462  1.00  0.00     0.006 A 
ENDBRANCH  63  84
BRANCH  75  92
ATOM     92  C   UNL A   1      44.701  24.818  33.762  1.00  0.00     0.057 A 
ATOM     93  C   UNL A   1      46.043  24.427  33.893  1.00  0.00     0.134 A 
ATOM     94  C   UNL A   1      43.790  24.051  34.527  1.00  0.00     0.134 A 
ATOM     95  F   UNL A   1      47.040  25.128  33.339  1.00  0.00    -0.206 F 
ATOM     96  C   UNL A   1      46.440  23.321  34.662  1.00  0.00     0.040 A 
ATOM     97  C   UNL A   1      44.181  22.982  35.341  1.00  0.00     0.040 A 
ATOM     98  F   UNL A   1      42.476  24.322  34.541  1.00  0.00    -0.206 F 
ATOM     99  C   UNL A   1      45.510  22.599  35.397  1.00  0.00     0.006 A 
ENDBRANCH  75  92
ENDBRANCH  49  50
ENDBRANCH  41  44
ENDBRANCH  39  40
ENDBRANCH  38  39
ENDBRANCH  37  38
ENDBRANCH  36  37
ENDBRANCH   1  36
TORSDOF 19
ENDMDL
MODEL 2
REMARK VINA RESULT:     -12.5      2.636      4.026
REMARK SMILES Cc1cc([N+](=O)[O-])ccc1-c1ccc(/C=C/C(=O)Nc2ccc(O)c(C(=O)NCCCCCCNC(=O)c3ccc(-c4c5nc(c(-c6c(F)cccc6F)c6ccc([nH]6)c(-c6c(F)cccc6F)c6nc(c(-c7c(F)cccc7F)c7ccc4[nH]7)C=C6)C=C5)cc3)c2)o1
REMARK SMILES IDX 30 1 29 2 28 3 26 4 27 5 25 7 20 8 21 9 92 10 22 11 23 12
REMARK SMILES IDX 19 13 17 14 18 15 16 17 15 18 14 19 11 20 12 21 93 22 13 23
REMARK SMILES IDX 10 24 1 25 2 26 3 27 4 28 9 29 8 30 5 31 6 32 7 33 24 34
REMARK SMILES IDX 31 36 32 37 33 38 34 39 35 40 36 41 37 43 38 44 39 45 91 46
REMARK SMILES IDX 40 47 90 48 41 49 42 50 43 51 84 52 44 53 89 54 83 55 85 56
REMARK SMILES IDX 45 57 88 58 82 59 81 60 46 62 72 63 55 64 71 65 56 66 59 67
REMARK SMILES IDX 70 68 86 69 57 70 58 71 69 73 87 74 60 75 47 76 48 77 53 78
REMARK SMILES IDX 49 79 50 80 52 81 54 82 51 83 73 84 74 85 79 86 75 87 76 88
REMARK SMILES IDX 78 89 80 90 77 91 61 92 62 93 67 94 63 95 64 96 66 97 68 98
REMARK SMILES IDX 65 99
REMARK H PARENT 28 6 19 16 24 35 35 42 85 61 59 72
REMARK Flexibility Score: inf
ROOT
ATOM      1  C   UNL A   1      31.419  29.710  26.847  1.00  0.00     0.021 C 
ENDROOT
BRANCH   1   2
ATOM      2  C   UNL A   1      31.804  30.921  26.005  1.00  0.00     0.116 C 
BRANCH   2   3
ATOM      3  N   UNL A   1      30.721  31.634  25.356  1.00  0.00    -0.352 N 
ATOM      4  C   UNL A   1      29.819  31.204  24.404  1.00  0.00     0.255 C 
ATOM      5  O   UNL A   1      28.953  31.993  24.026  1.00  0.00    -0.269 OA
ATOM      6  H   UNL A   1      30.612  32.571  25.638  1.00  0.00     0.163 HD
BRANCH   4   7
ATOM      7  C   UNL A   1      29.861  29.841  23.797  1.00  0.00     0.083 A 
ATOM      8  C   UNL A   1      31.210  28.109  22.754  1.00  0.00     0.042 A 
ATOM      9  C   UNL A   1      30.107  27.256  22.735  1.00  0.00     0.030 A 
ATOM     10  C   UNL A   1      31.120  29.341  23.412  1.00  0.00     0.043 A 
ATOM     11  C   UNL A   1      28.858  27.746  23.082  1.00  0.00     0.049 A 
ATOM     12  C   UNL A   1      28.736  29.075  23.473  1.00  0.00     0.128 A 
BRANCH   8  13
ATOM     13  N   UNL A   1      32.363  27.824  21.999  1.00  0.00    -0.322 N 
ATOM     14  C   UNL A   1      33.281  26.811  22.198  1.00  0.00     0.248 C 
ATOM     15  O   UNL A   1      34.332  26.782  21.563  1.00  0.00    -0.270 OA
ATOM     16  H   UNL A   1      32.538  28.420  21.236  1.00  0.00     0.170 HD
BRANCH  14  17
ATOM     17  C   UNL A   1      32.975  25.704  23.153  1.00  0.00     0.075 C 
ATOM     18  C   UNL A   1      33.891  25.300  24.048  1.00  0.00     0.053 C 
BRANCH  18  19
ATOM     19  C   UNL A   1      33.732  24.109  24.805  1.00  0.00     0.127 A 
ATOM     20  C   UNL A   1      33.670  21.965  25.358  1.00  0.00     0.135 A 
ATOM     21  C   UNL A   1      33.202  22.646  26.456  1.00  0.00     0.051 A 
ATOM     22  O   UNL A   1      34.057  22.838  24.385  1.00  0.00    -0.457 OA
ATOM     23  C   UNL A   1      33.198  24.003  26.086  1.00  0.00     0.051 A 
BRANCH  20  24
ATOM     24  C   UNL A   1      33.735  20.552  25.036  1.00  0.00     0.021 A 
ATOM     25  C   UNL A   1      36.301  20.575  25.152  1.00  0.00     0.045 C 
ATOM     26  C   UNL A   1      34.978  19.889  24.914  1.00  0.00    -0.033 A 
ATOM     27  C   UNL A   1      35.003  18.541  24.518  1.00  0.00     0.089 A 
ATOM     28  C   UNL A   1      33.807  17.856  24.275  1.00  0.00     0.269 A 
ATOM     29  C   UNL A   1      32.545  19.845  24.804  1.00  0.00     0.019 A 
ATOM     30  C   UNL A   1      32.575  18.500  24.423  1.00  0.00     0.086 A 
BRANCH  28  31
ATOM     31  N   UNL A   1      33.851  16.450  23.853  1.00  0.00     0.062 N 
ATOM     32  O   UNL A   1      33.667  15.582  24.720  1.00  0.00    -0.258 OA
ATOM     33  O   UNL A   1      34.077  16.212  22.658  1.00  0.00    -0.258 OA
ENDBRANCH  28  31
ENDBRANCH  20  24
ENDBRANCH  18  19
ENDBRANCH  14  17
ENDBRANCH   8  13
BRANCH  12  34
ATOM     34  O   UNL A   1      27.476  29.590  23.346  1.00  0.00    -0.507 OA
ATOM     35  H   UNL A   1      27.229  30.351  23.832  1.00  0.00     0.293 HD
ENDBRANCH  12  34
ENDBRANCH   4   7
ENDBRANCH   2   3
ENDBRANCH   1   2
BRANCH   1  36
ATOM     36  C   UNL A   1      32.475  28.625  27.093  1.00  0.00     0.002 C 
BRANCH  36  37
ATOM     37  C   UNL A   1      33.946  28.908  26.755  1.00  0.00     0.002 C 
BRANCH  37  38
ATOM     38  C   UNL A   1      34.843  29.515  27.833  1.00  0.00     0.021 C 
BRANCH  38  39
ATOM     39  C   UNL A   1      35.269  30.960  27.619  1.00  0.00     0.116 C 
BRANCH  39  40
ATOM     40  N   UNL A   1      34.285  31.953  28.030  1.00  0.00    -0.352 N 
ATOM     41  C   UNL A   1      34.404  32.914  29.029  1.00  0.00     0.251 C 
ATOM     42  H   UNL A   1      33.430  31.944  27.541  1.00  0.00     0.163 HD
ATOM     43  O   UNL A   1      33.522  33.720  29.239  1.00  0.00    -0.269 OA
BRANCH  41  44
ATOM     44  C   UNL A   1      35.700  33.009  29.746  1.00  0.00     0.039 A 
ATOM     45  C   UNL A   1      36.736  33.703  29.113  1.00  0.00     0.014 A 
ATOM     46  C   UNL A   1      35.951  32.210  30.859  1.00  0.00     0.014 A 
ATOM     47  C   UNL A   1      38.051  33.379  29.427  1.00  0.00     0.010 A 
ATOM     48  C   UNL A   1      37.254  31.827  31.116  1.00  0.00     0.010 A 
ATOM     49  C   UNL A   1      38.292  32.348  30.335  1.00  0.00    -0.014 A 
BRANCH  49  50
ATOM     50  C   UNL A   1      39.567  31.642  30.378  1.00  0.00     0.031 A 
ATOM     51  C   UNL A   1      39.740  30.338  29.712  1.00  0.00     0.074 A 
ATOM     52  C   UNL A   1      40.606  32.198  31.046  1.00  0.00     0.049 A 
ATOM     53  N   UNL A   1      40.656  29.488  30.040  1.00  0.00    -0.248 NA
ATOM     54  C   UNL A   1      38.840  29.841  28.674  1.00  0.00     0.031 C 
ATOM     55  C   UNL A   1      42.008  31.789  31.018  1.00  0.00     0.029 A 
ATOM     56  N   UNL A   1      40.532  33.109  32.111  1.00  0.00    -0.354 N 
ATOM     57  C   UNL A   1      40.678  28.522  29.067  1.00  0.00     0.074 A 
ATOM     58  C   UNL A   1      39.439  28.688  28.352  1.00  0.00     0.031 C 
ATOM     59  C   UNL A   1      42.597  32.187  32.157  1.00  0.00     0.029 A 
ATOM     60  C   UNL A   1      41.555  32.734  33.008  1.00  0.00     0.049 A 
ATOM     61  H   UNL A   1      39.897  33.856  32.211  1.00  0.00     0.167 HD
ATOM     62  C   UNL A   1      41.822  27.812  28.876  1.00  0.00     0.037 A 
ATOM     63  C   UNL A   1      41.287  32.321  34.280  1.00  0.00     0.037 A 
ATOM     64  C   UNL A   1      42.737  27.954  30.010  1.00  0.00     0.049 A 
ATOM     65  C   UNL A   1      41.838  30.957  34.622  1.00  0.00     0.074 A 
ATOM     66  C   UNL A   1      43.964  28.569  30.180  1.00  0.00     0.029 A 
ATOM     67  N   UNL A   1      42.303  27.581  31.280  1.00  0.00    -0.354 N 
ATOM     68  N   UNL A   1      42.207  30.075  33.735  1.00  0.00    -0.248 NA
ATOM     69  C   UNL A   1      41.972  30.463  35.989  1.00  0.00     0.031 C 
ATOM     70  C   UNL A   1      44.223  28.642  31.577  1.00  0.00     0.029 A 
ATOM     71  C   UNL A   1      43.178  28.029  32.248  1.00  0.00     0.049 A 
ATOM     72  H   UNL A   1      41.484  27.066  31.462  1.00  0.00     0.167 HD
ATOM     73  C   UNL A   1      42.566  28.912  34.368  1.00  0.00     0.074 A 
ATOM     74  C   UNL A   1      42.439  29.220  35.780  1.00  0.00     0.031 C 
ATOM     75  C   UNL A   1      42.908  27.792  33.663  1.00  0.00     0.037 A 
BRANCH  62  76
ATOM     76  C   UNL A   1      42.219  27.155  27.568  1.00  0.00     0.057 A 
ATOM     77  C   UNL A   1      42.562  25.789  27.534  1.00  0.00     0.134 A 
ATOM     78  C   UNL A   1      42.434  27.830  26.346  1.00  0.00     0.134 A 
ATOM     79  F   UNL A   1      42.433  25.011  28.619  1.00  0.00    -0.206 F 
ATOM     80  C   UNL A   1      43.081  25.156  26.392  1.00  0.00     0.040 A 
ATOM     81  C   UNL A   1      42.897  27.197  25.184  1.00  0.00     0.040 A 
ATOM     82  F   UNL A   1      42.278  29.151  26.215  1.00  0.00    -0.206 F 
ATOM     83  C   UNL A   1      43.239  25.858  25.207  1.00  0.00     0.006 A 
ENDBRANCH  62  76
BRANCH  63  84
ATOM     84  C   UNL A   1      40.039  32.891  34.850  1.00  0.00     0.057 A 
ATOM     85  C   UNL A   1      38.851  32.141  34.781  1.00  0.00     0.134 A 
ATOM     86  C   UNL A   1      40.057  33.976  35.730  1.00  0.00     0.134 A 
ATOM     87  F   UNL A   1      38.768  31.084  33.958  1.00  0.00    -0.206 F 
ATOM     88  C   UNL A   1      37.768  32.395  35.624  1.00  0.00     0.040 A 
ATOM     89  C   UNL A   1      38.971  34.248  36.572  1.00  0.00     0.040 A 
ATOM     90  F   UNL A   1      41.159  34.724  35.871  1.00  0.00    -0.206 F 
ATOM     91  C   UNL A   1      37.838  33.436  36.544  1.00  0.00     0.006 A 
ENDBRANCH  63  84
BRANCH  75  92
ATOM     92  C   UNL A   1      43.087  26.395  34.223  1.00  0.00     0.057 A 
ATOM     93  C   UNL A   1      42.083  25.649  34.861  1.00  0.00     0.134 A 
ATOM     94  C   UNL A   1      44.294  25.688  34.007  1.00  0.00     0.134 A 
ATOM     95  F   UNL A   1      40.843  26.127  35.022  1.00  0.00    -0.206 F 
ATOM     96  C   UNL A   1      42.285  24.335  35.313  1.00  0.00     0.040 A 
ATOM     97  C   UNL A   1      44.488  24.360  34.403  1.00  0.00     0.040 A 
ATOM     98  F   UNL A   1      45.337  26.248  33.376  1.00  0.00    -0.206 F 
ATOM     99  C   UNL A   1      43.487  23.681  35.077  1.00  0.00     0.006 A 
ENDBRANCH  75  92
ENDBRANCH  49  50
ENDBRANCH  41  44
ENDBRANCH  39  40
ENDBRANCH  38  39
ENDBRANCH  37  38
ENDBRANCH  36  37
ENDBRANCH   1  36
TORSDOF 19
ENDMDL
MODEL 3
REMARK VINA RESULT:     -12.5      2.023      3.119
REMARK SMILES Cc1cc([N+](=O)[O-])ccc1-c1ccc(/C=C/C(=O)Nc2ccc(O)c(C(=O)NCCCCCCNC(=O)c3ccc(-c4c5nc(c(-c6c(F)cccc6F)c6ccc([nH]6)c(-c6c(F)cccc6F)c6nc(c(-c7c(F)cccc7F)c7ccc4[nH]7)C=C6)C=C5)cc3)c2)o1
REMARK SMILES IDX 30 1 29 2 28 3 26 4 27 5 25 7 20 8 21 9 92 10 22 11 23 12
REMARK SMILES IDX 19 13 17 14 18 15 16 17 15 18 14 19 11 20 12 21 93 22 13 23
REMARK SMILES IDX 10 24 1 25 2 26 3 27 4 28 9 29 8 30 5 31 6 32 7 33 24 34
REMARK SMILES IDX 31 36 32 37 33 38 34 39 35 40 36 41 37 43 38 44 39 45 91 46
REMARK SMILES IDX 40 47 90 48 41 49 42 50 43 51 84 52 44 53 89 54 83 55 85 56
REMARK SMILES IDX 45 57 88 58 82 59 81 60 46 62 72 63 55 64 71 65 56 66 59 67
REMARK SMILES IDX 70 68 86 69 57 70 58 71 69 73 87 74 60 75 47 76 48 77 53 78
REMARK SMILES IDX 49 79 50 80 52 81 54 82 51 83 73 84 74 85 79 86 75 87 76 88
REMARK SMILES IDX 78 89 80 90 77 91 61 92 62 93 67 94 63 95 64 96 66 97 68 98
REMARK SMILES IDX 65 99
REMARK H PARENT 28 6 19 16 24 35 35 42 85 61 59 72
REMARK Flexibility Score: inf
ROOT
ATOM      1  C   UNL A   1      31.905  29.569  26.340  1.00  0.00     0.021 C 
ENDROOT
BRANCH   1   2
ATOM      2  C   UNL A   1      32.063  29.625  24.826  1.00  0.00     0.116 C 
BRANCH   2   3
ATOM      3  N   UNL A   1      30.916  30.088  24.069  1.00  0.00    -0.352 N 
ATOM      4  C   UNL A   1      29.947  29.371  23.395  1.00  0.00     0.255 C 
ATOM      5  O   UNL A   1      29.037  29.994  22.849  1.00  0.00    -0.269 OA
ATOM      6  H   UNL A   1      30.811  31.066  24.028  1.00  0.00     0.163 HD
BRANCH   4   7
ATOM      7  C   UNL A   1      29.967  27.882  23.279  1.00  0.00     0.083 A 
ATOM      8  C   UNL A   1      31.012  25.923  22.291  1.00  0.00     0.042 A 
ATOM      9  C   UNL A   1      30.190  25.095  23.055  1.00  0.00     0.030 A 
ATOM     10  C   UNL A   1      30.997  27.305  22.511  1.00  0.00     0.043 A 
ATOM     11  C   UNL A   1      29.154  25.650  23.790  1.00  0.00     0.049 A 
ATOM     12  C   UNL A   1      28.976  27.029  23.776  1.00  0.00     0.128 A 
BRANCH   8  13
ATOM     13  N   UNL A   1      31.746  25.416  21.203  1.00  0.00    -0.322 N 
ATOM     14  C   UNL A   1      32.909  24.672  21.235  1.00  0.00     0.248 C 
ATOM     15  O   UNL A   1      33.534  24.440  20.203  1.00  0.00    -0.270 OA
ATOM     16  H   UNL A   1      31.387  25.617  20.308  1.00  0.00     0.170 HD
BRANCH  14  17
ATOM     17  C   UNL A   1      33.389  24.093  22.525  1.00  0.00     0.075 C 
ATOM     18  C   UNL A   1      34.057  24.852  23.409  1.00  0.00     0.053 C 
BRANCH  18  19
ATOM     19  C   UNL A   1      34.731  24.292  24.526  1.00  0.00     0.127 A 
ATOM     20  C   UNL A   1      36.341  23.518  25.837  1.00  0.00     0.135 A 
ATOM     21  C   UNL A   1      35.167  23.265  26.503  1.00  0.00     0.051 A 
ATOM     22  O   UNL A   1      36.097  24.197  24.680  1.00  0.00    -0.457 OA
ATOM     23  C   UNL A   1      34.143  23.714  25.648  1.00  0.00     0.051 A 
BRANCH  20  24
ATOM     24  C   UNL A   1      37.716  23.130  26.092  1.00  0.00     0.021 A 
ATOM     25  C   UNL A   1      37.376  20.884  24.894  1.00  0.00     0.045 C 
ATOM     26  C   UNL A   1      38.209  21.874  25.670  1.00  0.00    -0.033 A 
ATOM     27  C   UNL A   1      39.520  21.500  26.011  1.00  0.00     0.089 A 
ATOM     28  C   UNL A   1      40.336  22.374  26.737  1.00  0.00     0.269 A 
ATOM     29  C   UNL A   1      38.553  24.001  26.806  1.00  0.00     0.019 A 
ATOM     30  C   UNL A   1      39.861  23.629  27.132  1.00  0.00     0.086 A 
BRANCH  28  31
ATOM     31  N   UNL A   1      41.701  21.964  27.092  1.00  0.00     0.062 N 
ATOM     32  O   UNL A   1      42.077  22.161  28.257  1.00  0.00    -0.258 OA
ATOM     33  O   UNL A   1      42.398  21.450  26.206  1.00  0.00    -0.258 OA
ENDBRANCH  28  31
ENDBRANCH  20  24
ENDBRANCH  18  19
ENDBRANCH  14  17
ENDBRANCH   8  13
BRANCH  12  34
ATOM     34  O   UNL A   1      27.718  27.441  24.116  1.00  0.00    -0.507 OA
ATOM     35  H   UNL A   1      26.977  26.904  23.914  1.00  0.00     0.293 HD
ENDBRANCH  12  34
ENDBRANCH   4   7
ENDBRANCH   2   3
ENDBRANCH   1   2
BRANCH   1  36
ATOM     36  C   UNL A   1      32.818  28.626  27.135  1.00  0.00     0.002 C 
BRANCH  36  37
ATOM     37  C   UNL A   1      34.342  28.745  26.990  1.00  0.00     0.002 C 
BRANCH  37  38
ATOM     38  C   UNL A   1      35.111  29.601  27.996  1.00  0.00     0.021 C 
BRANCH  38  39
ATOM     39  C   UNL A   1      35.356  31.049  27.597  1.00  0.00     0.116 C 
BRANCH  39  40
ATOM     40  N   UNL A   1      34.359  31.994  28.087  1.00  0.00    -0.352 N 
ATOM     41  C   UNL A   1      34.474  32.886  29.148  1.00  0.00     0.251 C 
ATOM     42  H   UNL A   1      33.499  32.002  27.607  1.00  0.00     0.163 HD
ATOM     43  O   UNL A   1      33.581  33.659  29.423  1.00  0.00    -0.269 OA
BRANCH  41  44
ATOM     44  C   UNL A   1      35.776  32.956  29.855  1.00  0.00     0.039 A 
ATOM     45  C   UNL A   1      36.811  33.658  29.230  1.00  0.00     0.014 A 
ATOM     46  C   UNL A   1      36.032  32.128  30.947  1.00  0.00     0.014 A 
ATOM     47  C   UNL A   1      38.127  33.318  29.525  1.00  0.00     0.010 A 
ATOM     48  C   UNL A   1      37.335  31.731  31.183  1.00  0.00     0.010 A 
ATOM     49  C   UNL A   1      38.369  32.264  30.406  1.00  0.00    -0.014 A 
BRANCH  49  50
ATOM     50  C   UNL A   1      39.640  31.550  30.421  1.00  0.00     0.031 A 
ATOM     51  C   UNL A   1      39.794  30.252  29.737  1.00  0.00     0.074 A 
ATOM     52  C   UNL A   1      40.693  32.091  31.079  1.00  0.00     0.049 A 
ATOM     53  N   UNL A   1      40.709  29.392  30.042  1.00  0.00    -0.248 NA
ATOM     54  C   UNL A   1      38.874  29.773  28.709  1.00  0.00     0.031 C 
ATOM     55  C   UNL A   1      42.092  31.673  31.024  1.00  0.00     0.029 A 
ATOM     56  N   UNL A   1      40.642  32.991  32.155  1.00  0.00    -0.354 N 
ATOM     57  C   UNL A   1      40.709  28.437  29.057  1.00  0.00     0.074 A 
ATOM     58  C   UNL A   1      39.460  28.620  28.364  1.00  0.00     0.031 C 
ATOM     59  C   UNL A   1      42.701  32.054  32.158  1.00  0.00     0.029 A 
ATOM     60  C   UNL A   1      41.676  32.598  33.031  1.00  0.00     0.049 A 
ATOM     61  H   UNL A   1      40.014  33.740  32.273  1.00  0.00     0.167 HD
ATOM     62  C   UNL A   1      41.845  27.722  28.840  1.00  0.00     0.037 A 
ATOM     63  C   UNL A   1      41.426  32.173  34.302  1.00  0.00     0.037 A 
ATOM     64  C   UNL A   1      42.779  27.845  29.961  1.00  0.00     0.049 A 
ATOM     65  C   UNL A   1      41.973  30.801  34.620  1.00  0.00     0.074 A 
ATOM     66  C   UNL A   1      44.013  28.450  30.119  1.00  0.00     0.029 A 
ATOM     67  N   UNL A   1      42.363  27.460  31.234  1.00  0.00    -0.354 N 
ATOM     68  N   UNL A   1      42.322  29.927  33.718  1.00  0.00    -0.248 NA
ATOM     69  C   UNL A   1      42.126  30.291  35.979  1.00  0.00     0.031 C 
ATOM     70  C   UNL A   1      44.294  28.505  31.512  1.00  0.00     0.029 A 
ATOM     71  C   UNL A   1      43.256  27.892  32.192  1.00  0.00     0.049 A 
ATOM     72  H   UNL A   1      41.543  26.949  31.423  1.00  0.00     0.167 HD
ATOM     73  C   UNL A   1      42.683  28.754  34.332  1.00  0.00     0.074 A 
ATOM     74  C   UNL A   1      42.581  29.047  35.749  1.00  0.00     0.031 C 
ATOM     75  C   UNL A   1      43.007  27.640  33.609  1.00  0.00     0.037 A 
BRANCH  62  76
ATOM     76  C   UNL A   1      42.217  27.077  27.519  1.00  0.00     0.057 A 
ATOM     77  C   UNL A   1      42.738  25.768  27.488  1.00  0.00     0.134 A 
ATOM     78  C   UNL A   1      42.236  27.731  26.266  1.00  0.00     0.134 A 
ATOM     79  F   UNL A   1      42.807  25.019  28.599  1.00  0.00    -0.206 F 
ATOM     80  C   UNL A   1      43.240  25.170  26.321  1.00  0.00     0.040 A 
ATOM     81  C   UNL A   1      42.682  27.124  25.084  1.00  0.00     0.040 A 
ATOM     82  F   UNL A   1      41.892  29.014  26.118  1.00  0.00    -0.206 F 
ATOM     83  C   UNL A   1      43.203  25.843  25.110  1.00  0.00     0.006 A 
ENDBRANCH  62  76
BRANCH  63  84
ATOM     84  C   UNL A   1      40.191  32.745  34.898  1.00  0.00     0.057 A 
ATOM     85  C   UNL A   1      40.235  34.036  35.452  1.00  0.00     0.134 A 
ATOM     86  C   UNL A   1      38.928  32.203  34.644  1.00  0.00     0.134 A 
ATOM     87  F   UNL A   1      41.416  34.617  35.717  1.00  0.00    -0.206 F 
ATOM     88  C   UNL A   1      39.079  34.796  35.647  1.00  0.00     0.040 A 
ATOM     89  C   UNL A   1      37.762  32.951  34.848  1.00  0.00     0.040 A 
ATOM     90  F   UNL A   1      38.803  30.988  34.095  1.00  0.00    -0.206 F 
ATOM     91  C   UNL A   1      37.838  34.262  35.318  1.00  0.00     0.006 A 
ENDBRANCH  63  84
BRANCH  75  92
ATOM     92  C   UNL A   1      43.185  26.236  34.150  1.00  0.00     0.057 A 
ATOM     93  C   UNL A   1      44.395  25.523  34.157  1.00  0.00     0.134 A 
ATOM     94  C   UNL A   1      42.122  25.591  34.826  1.00  0.00     0.134 A 
ATOM     95  F   UNL A   1      45.527  26.051  33.675  1.00  0.00    -0.206 F 
ATOM     96  C   UNL A   1      44.519  24.244  34.722  1.00  0.00     0.040 A 
ATOM     97  C   UNL A   1      42.250  24.341  35.442  1.00  0.00     0.040 A 
ATOM     98  F   UNL A   1      40.912  26.158  34.943  1.00  0.00    -0.206 F 
ATOM     99  C   UNL A   1      43.448  23.652  35.377  1.00  0.00     0.006 A 
ENDBRANCH  75  92
ENDBRANCH  49  50
ENDBRANCH  41  44
ENDBRANCH  39  40
ENDBRANCH  38  39
ENDBRANCH  37  38
ENDBRANCH  36  37
ENDBRANCH   1  36
TORSDOF 19
ENDMDL
