MODEL 1
REMARK VINA RESULT:     -12.6      0.000      0.000
REMARK SMILES Cc1cc([N+](=O)[O-])ccc1NC(=O)[C@@H]1[C@@H](C(=O)NCCCCCCNC(=O)c2ccc(-c3c4nc(c(-c5c(F)cccc5F)c5ccc([nH]5)c(-c5c(F)cccc5F)c5nc(c(-c6c(F)cccc6F)c6ccc3[nH]6)C=C5)C=C4)cc2)[C@H]2C=C[C@@H]1C2
REMARK SMILES IDX 21 1 20 2 19 3 18 4 16 5 17 6 15 8 14 9 85 10 82 11 84 12
REMARK SMILES IDX 86 13 83 14 12 15 11 16 13 18 10 19 1 20 2 21 3 22 4 23 9 24
REMARK SMILES IDX 8 25 5 26 6 27 7 28 22 29 23 30 24 31 25 32 26 33 27 35
REMARK SMILES IDX 28 36 29 37 81 38 30 39 80 40 31 41 32 42 33 43 74 44 34 45
REMARK SMILES IDX 79 46 73 47 75 48 35 49 78 50 72 51 71 52 36 54 62 55 45 56
REMARK SMILES IDX 61 57 46 58 49 59 60 60 76 61 47 62 48 63 59 65 77 66 50 67
REMARK SMILES IDX 37 68 38 69 43 70 39 71 40 72 42 73 44 74 41 75 63 76 64 77
REMARK SMILES IDX 69 78 65 79 66 80 68 81 70 82 67 83 51 84 52 85 57 86 53 87
REMARK SMILES IDX 54 88 56 89 58 90 55 91
REMARK H PARENT 18 7 11 17 25 34 75 53 49 64
REMARK Flexibility Score: inf
ROOT
ATOM      1  C   UNL A   1      34.259  30.377  27.263  1.00  0.00     0.002 C 
ENDROOT
BRANCH   1   2
ATOM      2  C   UNL A   1      32.741  30.526  27.087  1.00  0.00     0.021 C 
BRANCH   2   3
ATOM      3  C   UNL A   1      31.876  29.305  27.400  1.00  0.00     0.116 C 
BRANCH   3   4
ATOM      4  N   UNL A   1      32.534  28.048  27.138  1.00  0.00    -0.356 N 
ATOM      5  C   UNL A   1      32.622  27.341  25.978  1.00  0.00     0.224 C 
ATOM      6  O   UNL A   1      33.303  26.314  26.009  1.00  0.00    -0.275 OA
ATOM      7  H   UNL A   1      32.985  27.641  27.913  1.00  0.00     0.163 HD
BRANCH   5   8
ATOM      8  C   UNL A   1      31.833  27.758  24.736  1.00  0.00     0.098 C 
ATOM      9  C   UNL A   1      31.677  26.545  23.733  1.00  0.00     0.099 C 
ATOM     10  C   UNL A   1      32.133  27.162  22.385  1.00  0.00     0.025 C 
ATOM     11  C   UNL A   1      32.496  28.827  23.828  1.00  0.00     0.025 C 
ATOM     12  C   UNL A   1      33.630  27.352  22.475  1.00  0.00    -0.027 C 
ATOM     13  C   UNL A   1      31.704  28.622  22.533  1.00  0.00     0.017 C 
ATOM     14  C   UNL A   1      33.848  28.344  23.351  1.00  0.00    -0.027 C 
BRANCH   9  15
ATOM     15  C   UNL A   1      30.284  25.952  23.644  1.00  0.00     0.228 C 
ATOM     16  N   UNL A   1      30.056  24.606  23.796  1.00  0.00    -0.326 N 
ATOM     17  H   UNL A   1      29.107  24.361  23.699  1.00  0.00     0.169 HD
ATOM     18  O   UNL A   1      29.306  26.658  23.379  1.00  0.00    -0.274 OA
BRANCH  16  19
ATOM     19  C   UNL A   1      30.893  23.498  24.061  1.00  0.00     0.044 A 
ATOM     20  C   UNL A   1      30.449  23.721  26.601  1.00  0.00     0.047 C 
ATOM     21  C   UNL A   1      31.015  23.024  25.389  1.00  0.00    -0.021 A 
ATOM     22  C   UNL A   1      31.725  21.827  25.639  1.00  0.00     0.091 A 
ATOM     23  C   UNL A   1      32.319  21.119  24.590  1.00  0.00     0.269 A 
ATOM     24  C   UNL A   1      31.602  22.827  23.055  1.00  0.00     0.033 A 
ATOM     25  C   UNL A   1      32.288  21.635  23.300  1.00  0.00     0.088 A 
BRANCH  23  26
ATOM     26  N   UNL A   1      32.979  19.835  24.842  1.00  0.00     0.062 N 
ATOM     27  O   UNL A   1      32.275  18.892  25.226  1.00  0.00    -0.258 OA
ATOM     28  O   UNL A   1      34.200  19.767  24.639  1.00  0.00    -0.258 OA
ENDBRANCH  23  26
ENDBRANCH  16  19
ENDBRANCH   9  15
ENDBRANCH   5   8
ENDBRANCH   3   4
ENDBRANCH   2   3
ENDBRANCH   1   2
BRANCH   1  29
ATOM     29  C   UNL A   1      35.043  31.578  27.809  1.00  0.00     0.002 C 
BRANCH  29  30
ATOM     30  C   UNL A   1      34.584  32.167  29.142  1.00  0.00     0.021 C 
BRANCH  30  31
ATOM     31  C   UNL A   1      34.512  33.685  29.199  1.00  0.00     0.116 C 
BRANCH  31  32
ATOM     32  N   UNL A   1      33.694  34.237  30.268  1.00  0.00    -0.352 N 
ATOM     33  C   UNL A   1      33.955  34.276  31.633  1.00  0.00     0.251 C 
ATOM     34  H   UNL A   1      32.841  34.638  29.987  1.00  0.00     0.163 HD
ATOM     35  O   UNL A   1      33.138  34.745  32.400  1.00  0.00    -0.269 OA
BRANCH  33  36
ATOM     36  C   UNL A   1      35.296  33.861  32.131  1.00  0.00     0.039 A 
ATOM     37  C   UNL A   1      36.384  34.694  31.843  1.00  0.00     0.014 A 
ATOM     38  C   UNL A   1      35.515  32.599  32.677  1.00  0.00     0.014 A 
ATOM     39  C   UNL A   1      37.672  34.162  31.846  1.00  0.00     0.010 A 
ATOM     40  C   UNL A   1      36.775  32.039  32.589  1.00  0.00     0.010 A 
ATOM     41  C   UNL A   1      37.841  32.801  32.107  1.00  0.00    -0.014 A 
BRANCH  41  42
ATOM     42  C   UNL A   1      39.062  32.080  31.774  1.00  0.00     0.031 A 
ATOM     43  C   UNL A   1      39.035  30.917  30.868  1.00  0.00     0.074 A 
ATOM     44  C   UNL A   1      40.245  32.469  32.301  1.00  0.00     0.049 A 
ATOM     45  N   UNL A   1      39.807  29.892  31.006  1.00  0.00    -0.248 NA
ATOM     46  C   UNL A   1      38.115  30.807  29.743  1.00  0.00     0.031 C 
ATOM     47  C   UNL A   1      41.573  31.989  31.927  1.00  0.00     0.029 A 
ATOM     48  N   UNL A   1      40.461  33.243  33.444  1.00  0.00    -0.354 N 
ATOM     49  C   UNL A   1      39.684  29.126  29.872  1.00  0.00     0.074 A 
ATOM     50  C   UNL A   1      38.566  29.694  29.151  1.00  0.00     0.031 C 
ATOM     51  C   UNL A   1      42.422  32.234  32.937  1.00  0.00     0.029 A 
ATOM     52  C   UNL A   1      41.646  32.768  34.041  1.00  0.00     0.049 A 
ATOM     53  H   UNL A   1      39.893  33.979  33.770  1.00  0.00     0.167 HD
ATOM     54  C   UNL A   1      40.625  28.186  29.579  1.00  0.00     0.037 A 
ATOM     55  C   UNL A   1      41.673  32.299  35.320  1.00  0.00     0.037 A 
ATOM     56  C   UNL A   1      41.717  28.200  30.544  1.00  0.00     0.049 A 
ATOM     57  C   UNL A   1      42.152  30.874  35.439  1.00  0.00     0.074 A 
ATOM     58  C   UNL A   1      42.958  28.818  30.518  1.00  0.00     0.029 A 
ATOM     59  N   UNL A   1      41.513  27.776  31.850  1.00  0.00    -0.354 N 
ATOM     60  N   UNL A   1      42.162  30.029  34.447  1.00  0.00    -0.248 NA
ATOM     61  C   UNL A   1      42.632  30.277  36.683  1.00  0.00     0.031 C 
ATOM     62  C   UNL A   1      43.508  28.761  31.817  1.00  0.00     0.029 A 
ATOM     63  C   UNL A   1      42.605  28.105  32.632  1.00  0.00     0.049 A 
ATOM     64  H   UNL A   1      40.709  27.309  32.172  1.00  0.00     0.167 HD
ATOM     65  C   UNL A   1      42.604  28.806  34.887  1.00  0.00     0.074 A 
ATOM     66  C   UNL A   1      42.906  29.020  36.288  1.00  0.00     0.031 C 
ATOM     67  C   UNL A   1      42.670  27.734  34.039  1.00  0.00     0.037 A 
BRANCH  54  68
ATOM     68  C   UNL A   1      40.706  27.490  28.243  1.00  0.00     0.057 A 
ATOM     69  C   UNL A   1      40.118  26.226  28.036  1.00  0.00     0.134 A 
ATOM     70  C   UNL A   1      41.379  28.012  27.127  1.00  0.00     0.134 A 
ATOM     71  F   UNL A   1      39.349  25.641  28.963  1.00  0.00    -0.206 F 
ATOM     72  C   UNL A   1      40.294  25.488  26.860  1.00  0.00     0.040 A 
ATOM     73  C   UNL A   1      41.602  27.267  25.960  1.00  0.00     0.040 A 
ATOM     74  F   UNL A   1      41.821  29.278  27.112  1.00  0.00    -0.206 F 
ATOM     75  C   UNL A   1      41.072  25.991  25.830  1.00  0.00     0.006 A 
ENDBRANCH  54  68
BRANCH  55  76
ATOM     76  C   UNL A   1      40.661  32.932  36.200  1.00  0.00     0.057 A 
ATOM     77  C   UNL A   1      39.435  32.273  36.392  1.00  0.00     0.134 A 
ATOM     78  C   UNL A   1      41.017  33.907  37.135  1.00  0.00     0.134 A 
ATOM     79  F   UNL A   1      39.039  31.324  35.529  1.00  0.00    -0.206 F 
ATOM     80  C   UNL A   1      38.652  32.490  37.528  1.00  0.00     0.040 A 
ATOM     81  C   UNL A   1      40.236  34.140  38.272  1.00  0.00     0.040 A 
ATOM     82  F   UNL A   1      42.183  34.562  37.029  1.00  0.00    -0.206 F 
ATOM     83  C   UNL A   1      39.072  33.402  38.492  1.00  0.00     0.006 A 
ENDBRANCH  55  76
BRANCH  67  84
ATOM     84  C   UNL A   1      42.911  26.279  34.389  1.00  0.00     0.057 A 
ATOM     85  C   UNL A   1      42.044  25.478  35.146  1.00  0.00     0.134 A 
ATOM     86  C   UNL A   1      44.014  25.582  33.833  1.00  0.00     0.134 A 
ATOM     87  F   UNL A   1      40.901  25.955  35.651  1.00  0.00    -0.206 F 
ATOM     88  C   UNL A   1      42.281  24.112  35.375  1.00  0.00     0.040 A 
ATOM     89  C   UNL A   1      44.229  24.212  34.008  1.00  0.00     0.040 A 
ATOM     90  F   UNL A   1      44.929  26.193  33.065  1.00  0.00    -0.206 F 
ATOM     91  C   UNL A   1      43.368  23.471  34.796  1.00  0.00     0.006 A 
ENDBRANCH  67  84
ENDBRANCH  41  42
ENDBRANCH  33  36
ENDBRANCH  31  32
ENDBRANCH  30  31
ENDBRANCH  29  30
ENDBRANCH   1  29
TORSDOF 16
ENDMDL
MODEL 2
REMARK VINA RESULT:     -12.5      1.322      1.853
REMARK SMILES Cc1cc([N+](=O)[O-])ccc1NC(=O)[C@@H]1[C@@H](C(=O)NCCCCCCNC(=O)c2ccc(-c3c4nc(c(-c5c(F)cccc5F)c5ccc([nH]5)c(-c5c(F)cccc5F)c5nc(c(-c6c(F)cccc6F)c6ccc3[nH]6)C=C5)C=C4)cc2)[C@H]2C=C[C@@H]1C2
REMARK SMILES IDX 21 1 20 2 19 3 18 4 16 5 17 6 15 8 14 9 85 10 82 11 84 12
REMARK SMILES IDX 86 13 83 14 12 15 11 16 13 18 10 19 1 20 2 21 3 22 4 23 9 24
REMARK SMILES IDX 8 25 5 26 6 27 7 28 22 29 23 30 24 31 25 32 26 33 27 35
REMARK SMILES IDX 28 36 29 37 81 38 30 39 80 40 31 41 32 42 33 43 74 44 34 45
REMARK SMILES IDX 79 46 73 47 75 48 35 49 78 50 72 51 71 52 36 54 62 55 45 56
REMARK SMILES IDX 61 57 46 58 49 59 60 60 76 61 47 62 48 63 59 65 77 66 50 67
REMARK SMILES IDX 37 68 38 69 43 70 39 71 40 72 42 73 44 74 41 75 63 76 64 77
REMARK SMILES IDX 69 78 65 79 66 80 68 81 70 82 67 83 51 84 52 85 57 86 53 87
REMARK SMILES IDX 54 88 56 89 58 90 55 91
REMARK H PARENT 18 7 11 17 25 34 75 53 49 64
REMARK Flexibility Score: inf
ROOT
ATOM      1  C   UNL A   1      34.483  30.538  27.453  1.00  0.00     0.002 C 
ENDROOT
BRANCH   1   2
ATOM      2  C   UNL A   1      32.995  30.339  27.133  1.00  0.00     0.021 C 
BRANCH   2   3
ATOM      3  C   UNL A   1      32.428  28.928  27.285  1.00  0.00     0.116 C 
BRANCH   3   4
ATOM      4  N   UNL A   1      33.310  27.895  26.798  1.00  0.00    -0.356 N 
ATOM      5  C   UNL A   1      33.011  26.732  26.157  1.00  0.00     0.224 C 
ATOM      6  O   UNL A   1      33.966  26.045  25.787  1.00  0.00    -0.275 OA
ATOM      7  H   UNL A   1      34.269  28.054  26.952  1.00  0.00     0.163 HD
BRANCH   5   8
ATOM      8  C   UNL A   1      31.563  26.267  25.997  1.00  0.00     0.098 C 
ATOM      9  C   UNL A   1      31.504  24.751  25.548  1.00  0.00     0.099 C 
ATOM     10  C   UNL A   1      30.537  24.797  24.336  1.00  0.00     0.025 C 
ATOM     11  C   UNL A   1      30.740  26.954  24.875  1.00  0.00     0.025 C 
ATOM     12  C   UNL A   1      31.284  25.468  23.206  1.00  0.00    -0.027 C 
ATOM     13  C   UNL A   1      29.600  25.945  24.709  1.00  0.00     0.017 C 
ATOM     14  C   UNL A   1      31.417  26.761  23.536  1.00  0.00    -0.027 C 
BRANCH   9  15
ATOM     15  C   UNL A   1      31.034  23.777  26.612  1.00  0.00     0.228 C 
ATOM     16  N   UNL A   1      31.814  22.728  27.031  1.00  0.00    -0.326 N 
ATOM     17  H   UNL A   1      31.377  22.170  27.715  1.00  0.00     0.169 HD
ATOM     18  O   UNL A   1      29.905  23.867  27.105  1.00  0.00    -0.274 OA
BRANCH  16  19
ATOM     19  C   UNL A   1      33.110  22.277  26.690  1.00  0.00     0.044 A 
ATOM     20  C   UNL A   1      32.116  20.521  25.070  1.00  0.00     0.047 C 
ATOM     21  C   UNL A   1      33.258  21.282  25.695  1.00  0.00    -0.021 A 
ATOM     22  C   UNL A   1      34.553  20.938  25.241  1.00  0.00     0.091 A 
ATOM     23  C   UNL A   1      35.684  21.559  25.779  1.00  0.00     0.269 A 
ATOM     24  C   UNL A   1      34.271  22.788  27.288  1.00  0.00     0.033 A 
ATOM     25  C   UNL A   1      35.548  22.461  26.828  1.00  0.00     0.088 A 
BRANCH  23  26
ATOM     26  N   UNL A   1      37.017  21.262  25.246  1.00  0.00     0.062 N 
ATOM     27  O   UNL A   1      37.165  20.199  24.628  1.00  0.00    -0.258 OA
ATOM     28  O   UNL A   1      37.910  22.100  25.432  1.00  0.00    -0.258 OA
ENDBRANCH  23  26
ENDBRANCH  16  19
ENDBRANCH   9  15
ENDBRANCH   5   8
ENDBRANCH   3   4
ENDBRANCH   2   3
ENDBRANCH   1   2
BRANCH   1  29
ATOM     29  C   UNL A   1      34.948  31.936  27.884  1.00  0.00     0.002 C 
BRANCH  29  30
ATOM     30  C   UNL A   1      34.476  32.441  29.246  1.00  0.00     0.021 C 
BRANCH  30  31
ATOM     31  C   UNL A   1      34.373  33.952  29.386  1.00  0.00     0.116 C 
BRANCH  31  32
ATOM     32  N   UNL A   1      33.541  34.428  30.481  1.00  0.00    -0.352 N 
ATOM     33  C   UNL A   1      33.785  34.372  31.848  1.00  0.00     0.251 C 
ATOM     34  H   UNL A   1      32.690  34.847  30.217  1.00  0.00     0.163 HD
ATOM     35  O   UNL A   1      32.958  34.787  32.635  1.00  0.00    -0.269 OA
BRANCH  33  36
ATOM     36  C   UNL A   1      35.120  33.926  32.332  1.00  0.00     0.039 A 
ATOM     37  C   UNL A   1      36.215  34.762  32.087  1.00  0.00     0.014 A 
ATOM     38  C   UNL A   1      35.327  32.638  32.822  1.00  0.00     0.014 A 
ATOM     39  C   UNL A   1      37.500  34.221  32.072  1.00  0.00     0.010 A 
ATOM     40  C   UNL A   1      36.584  32.073  32.714  1.00  0.00     0.010 A 
ATOM     41  C   UNL A   1      37.657  32.848  32.272  1.00  0.00    -0.014 A 
BRANCH  41  42
ATOM     42  C   UNL A   1      38.875  32.134  31.912  1.00  0.00     0.031 A 
ATOM     43  C   UNL A   1      38.832  30.962  31.019  1.00  0.00     0.074 A 
ATOM     44  C   UNL A   1      40.069  32.538  32.401  1.00  0.00     0.049 A 
ATOM     45  N   UNL A   1      39.617  29.944  31.146  1.00  0.00    -0.248 NA
ATOM     46  C   UNL A   1      37.882  30.832  29.921  1.00  0.00     0.031 C 
ATOM     47  C   UNL A   1      41.390  32.065  31.996  1.00  0.00     0.029 A 
ATOM     48  N   UNL A   1      40.310  33.326  33.531  1.00  0.00    -0.354 N 
ATOM     49  C   UNL A   1      39.468  29.166  30.024  1.00  0.00     0.074 A 
ATOM     50  C   UNL A   1      38.325  29.717  29.329  1.00  0.00     0.031 C 
ATOM     51  C   UNL A   1      42.264  32.327  32.979  1.00  0.00     0.029 A 
ATOM     52  C   UNL A   1      41.515  32.867  34.098  1.00  0.00     0.049 A 
ATOM     53  H   UNL A   1      39.746  34.060  33.865  1.00  0.00     0.167 HD
ATOM     54  C   UNL A   1      40.409  28.230  29.714  1.00  0.00     0.037 A 
ATOM     55  C   UNL A   1      41.582  32.411  35.381  1.00  0.00     0.037 A 
ATOM     56  C   UNL A   1      41.528  28.263  30.648  1.00  0.00     0.049 A 
ATOM     57  C   UNL A   1      42.077  30.991  35.501  1.00  0.00     0.074 A 
ATOM     58  C   UNL A   1      42.761  28.891  30.581  1.00  0.00     0.029 A 
ATOM     59  N   UNL A   1      41.364  27.851  31.963  1.00  0.00    -0.354 N 
ATOM     60  N   UNL A   1      42.065  30.137  34.518  1.00  0.00    -0.248 NA
ATOM     61  C   UNL A   1      42.595  30.412  36.737  1.00  0.00     0.031 C 
ATOM     62  C   UNL A   1      43.348  28.852  31.864  1.00  0.00     0.029 A 
ATOM     63  C   UNL A   1      42.474  28.198  32.711  1.00  0.00     0.049 A 
ATOM     64  H   UNL A   1      40.573  27.380  32.313  1.00  0.00     0.167 HD
ATOM     65  C   UNL A   1      42.531  28.921  34.957  1.00  0.00     0.074 A 
ATOM     66  C   UNL A   1      42.870  29.153  36.347  1.00  0.00     0.031 C 
ATOM     67  C   UNL A   1      42.581  27.842  34.119  1.00  0.00     0.037 A 
BRANCH  54  68
ATOM     68  C   UNL A   1      40.458  27.521  28.384  1.00  0.00     0.057 A 
ATOM     69  C   UNL A   1      39.867  26.254  28.204  1.00  0.00     0.134 A 
ATOM     70  C   UNL A   1      41.103  28.032  27.246  1.00  0.00     0.134 A 
ATOM     71  F   UNL A   1      39.122  25.678  29.154  1.00  0.00    -0.206 F 
ATOM     72  C   UNL A   1      40.015  25.505  27.031  1.00  0.00     0.040 A 
ATOM     73  C   UNL A   1      41.299  27.276  26.082  1.00  0.00     0.040 A 
ATOM     74  F   UNL A   1      41.543  29.298  27.208  1.00  0.00    -0.206 F 
ATOM     75  C   UNL A   1      40.768  25.998  25.977  1.00  0.00     0.006 A 
ENDBRANCH  54  68
BRANCH  55  76
ATOM     76  C   UNL A   1      40.590  33.045  36.283  1.00  0.00     0.057 A 
ATOM     77  C   UNL A   1      39.382  32.370  36.529  1.00  0.00     0.134 A 
ATOM     78  C   UNL A   1      40.961  34.045  37.185  1.00  0.00     0.134 A 
ATOM     79  F   UNL A   1      38.974  31.397  35.700  1.00  0.00    -0.206 F 
ATOM     80  C   UNL A   1      38.635  32.597  37.687  1.00  0.00     0.040 A 
ATOM     81  C   UNL A   1      40.215  34.287  38.344  1.00  0.00     0.040 A 
ATOM     82  F   UNL A   1      42.110  34.717  37.026  1.00  0.00    -0.206 F 
ATOM     83  C   UNL A   1      39.072  33.535  38.618  1.00  0.00     0.006 A 
ENDBRANCH  55  76
BRANCH  67  84
ATOM     84  C   UNL A   1      42.844  26.392  34.477  1.00  0.00     0.057 A 
ATOM     85  C   UNL A   1      41.956  25.560  35.173  1.00  0.00     0.134 A 
ATOM     86  C   UNL A   1      44.002  25.733  33.990  1.00  0.00     0.134 A 
ATOM     87  F   UNL A   1      40.769  25.998  35.605  1.00  0.00    -0.206 F 
ATOM     88  C   UNL A   1      42.220  24.201  35.410  1.00  0.00     0.040 A 
ATOM     89  C   UNL A   1      44.248  24.369  34.173  1.00  0.00     0.040 A 
ATOM     90  F   UNL A   1      44.946  26.377  33.286  1.00  0.00    -0.206 F 
ATOM     91  C   UNL A   1      43.361  23.597  34.900  1.00  0.00     0.006 A 
ENDBRANCH  67  84
ENDBRANCH  41  42
ENDBRANCH  33  36
ENDBRANCH  31  32
ENDBRANCH  30  31
ENDBRANCH  29  30
ENDBRANCH   1  29
TORSDOF 16
ENDMDL
MODEL 3
REMARK VINA RESULT:     -12.5      4.619      9.612
REMARK SMILES Cc1cc([N+](=O)[O-])ccc1NC(=O)[C@@H]1[C@@H](C(=O)NCCCCCCNC(=O)c2ccc(-c3c4nc(c(-c5c(F)cccc5F)c5ccc([nH]5)c(-c5c(F)cccc5F)c5nc(c(-c6c(F)cccc6F)c6ccc3[nH]6)C=C5)C=C4)cc2)[C@H]2C=C[C@@H]1C2
REMARK SMILES IDX 21 1 20 2 19 3 18 4 16 5 17 6 15 8 14 9 85 10 82 11 84 12
REMARK SMILES IDX 86 13 83 14 12 15 11 16 13 18 10 19 1 20 2 21 3 22 4 23 9 24
REMARK SMILES IDX 8 25 5 26 6 27 7 28 22 29 23 30 24 31 25 32 26 33 27 35
REMARK SMILES IDX 28 36 29 37 81 38 30 39 80 40 31 41 32 42 33 43 74 44 34 45
REMARK SMILES IDX 79 46 73 47 75 48 35 49 78 50 72 51 71 52 36 54 62 55 45 56
REMARK SMILES IDX 61 57 46 58 49 59 60 60 76 61 47 62 48 63 59 65 77 66 50 67
REMARK SMILES IDX 37 68 38 69 43 70 39 71 40 72 42 73 44 74 41 75 63 76 64 77
REMARK SMILES IDX 69 78 65 79 66 80 68 81 70 82 67 83 51 84 52 85 57 86 53 87
REMARK SMILES IDX 54 88 56 89 58 90 55 91
REMARK H PARENT 18 7 11 17 25 34 75 53 49 64
REMARK Flexibility Score: inf
ROOT
ATOM      1  C   UNL A   1      38.524  22.326  25.785  1.00  0.00     0.002 C 
ENDROOT
BRANCH   1   2
ATOM      2  C   UNL A   1      37.899  23.710  26.011  1.00  0.00     0.021 C 
BRANCH   2   3
ATOM      3  C   UNL A   1      36.390  23.838  25.811  1.00  0.00     0.116 C 
BRANCH   3   4
ATOM      4  N   UNL A   1      35.928  23.324  24.544  1.00  0.00    -0.356 N 
ATOM      5  C   UNL A   1      34.832  23.671  23.815  1.00  0.00     0.224 C 
ATOM      6  O   UNL A   1      34.698  23.116  22.723  1.00  0.00    -0.275 OA
ATOM      7  H   UNL A   1      36.488  22.617  24.149  1.00  0.00     0.163 HD
BRANCH   5   8
ATOM      8  C   UNL A   1      33.780  24.628  24.377  1.00  0.00     0.098 C 
ATOM      9  C   UNL A   1      32.324  24.178  23.952  1.00  0.00     0.099 C 
ATOM     10  C   UNL A   1      31.719  25.489  23.385  1.00  0.00     0.025 C 
ATOM     11  C   UNL A   1      33.821  26.084  23.843  1.00  0.00     0.025 C 
ATOM     12  C   UNL A   1      32.404  25.750  22.063  1.00  0.00    -0.027 C 
ATOM     13  C   UNL A   1      32.416  26.560  24.224  1.00  0.00     0.017 C 
ATOM     14  C   UNL A   1      33.671  26.096  22.338  1.00  0.00    -0.027 C 
BRANCH   9  15
ATOM     15  C   UNL A   1      31.474  23.597  25.067  1.00  0.00     0.228 C 
ATOM     16  N   UNL A   1      31.527  22.266  25.401  1.00  0.00    -0.326 N 
ATOM     17  H   UNL A   1      30.912  22.026  26.132  1.00  0.00     0.169 HD
ATOM     18  O   UNL A   1      30.663  24.297  25.681  1.00  0.00    -0.274 OA
BRANCH  16  19
ATOM     19  C   UNL A   1      32.275  21.167  24.920  1.00  0.00     0.044 A 
ATOM     20  C   UNL A   1      33.908  21.353  26.919  1.00  0.00     0.047 C 
ATOM     21  C   UNL A   1      33.360  20.680  25.686  1.00  0.00    -0.021 A 
ATOM     22  C   UNL A   1      34.014  19.489  25.289  1.00  0.00     0.091 A 
ATOM     23  C   UNL A   1      33.608  18.803  24.141  1.00  0.00     0.269 A 
ATOM     24  C   UNL A   1      31.977  20.518  23.714  1.00  0.00     0.033 A 
ATOM     25  C   UNL A   1      32.611  19.334  23.331  1.00  0.00     0.088 A 
BRANCH  23  26
ATOM     26  N   UNL A   1      34.231  17.526  23.782  1.00  0.00     0.062 N 
ATOM     27  O   UNL A   1      35.108  17.081  24.535  1.00  0.00    -0.258 OA
ATOM     28  O   UNL A   1      33.831  16.960  22.754  1.00  0.00    -0.258 OA
ENDBRANCH  23  26
ENDBRANCH  16  19
ENDBRANCH   9  15
ENDBRANCH   5   8
ENDBRANCH   3   4
ENDBRANCH   2   3
ENDBRANCH   1   2
BRANCH   1  29
ATOM     29  C   UNL A   1      39.995  22.126  26.179  1.00  0.00     0.002 C 
BRANCH  29  30
ATOM     30  C   UNL A   1      40.452  20.699  26.475  1.00  0.00     0.021 C 
BRANCH  30  31
ATOM     31  C   UNL A   1      41.932  20.534  26.785  1.00  0.00     0.116 C 
BRANCH  31  32
ATOM     32  N   UNL A   1      42.746  20.002  25.703  1.00  0.00    -0.352 N 
ATOM     33  C   UNL A   1      43.691  20.655  24.921  1.00  0.00     0.251 C 
ATOM     34  H   UNL A   1      42.609  19.049  25.497  1.00  0.00     0.163 HD
ATOM     35  O   UNL A   1      44.259  20.064  24.025  1.00  0.00    -0.269 OA
BRANCH  33  36
ATOM     36  C   UNL A   1      44.098  22.043  25.277  1.00  0.00     0.039 A 
ATOM     37  C   UNL A   1      45.051  22.202  26.289  1.00  0.00     0.014 A 
ATOM     38  C   UNL A   1      43.416  23.153  24.785  1.00  0.00     0.014 A 
ATOM     39  C   UNL A   1      45.118  23.410  26.981  1.00  0.00     0.010 A 
ATOM     40  C   UNL A   1      43.407  24.319  25.528  1.00  0.00     0.010 A 
ATOM     41  C   UNL A   1      44.207  24.421  26.667  1.00  0.00    -0.014 A 
BRANCH  41  42
ATOM     42  C   UNL A   1      43.943  25.548  27.552  1.00  0.00     0.031 A 
ATOM     43  C   UNL A   1      42.600  26.150  27.635  1.00  0.00     0.074 A 
ATOM     44  C   UNL A   1      44.937  26.062  28.311  1.00  0.00     0.049 A 
ATOM     45  N   UNL A   1      42.399  27.412  27.817  1.00  0.00    -0.248 NA
ATOM     46  C   UNL A   1      41.372  25.378  27.495  1.00  0.00     0.031 C 
ATOM     47  C   UNL A   1      44.804  27.048  29.380  1.00  0.00     0.029 A 
ATOM     48  N   UNL A   1      46.315  25.939  28.116  1.00  0.00    -0.354 N 
ATOM     49  C   UNL A   1      41.062  27.583  28.081  1.00  0.00     0.074 A 
ATOM     50  C   UNL A   1      40.452  26.302  27.794  1.00  0.00     0.031 C 
ATOM     51  C   UNL A   1      45.993  27.641  29.572  1.00  0.00     0.029 A 
ATOM     52  C   UNL A   1      46.899  27.145  28.553  1.00  0.00     0.049 A 
ATOM     53  H   UNL A   1      46.788  25.159  27.746  1.00  0.00     0.167 HD
ATOM     54  C   UNL A   1      40.622  28.738  28.655  1.00  0.00     0.037 A 
ATOM     55  C   UNL A   1      47.654  27.923  27.727  1.00  0.00     0.037 A 
ATOM     56  C   UNL A   1      41.727  29.629  28.983  1.00  0.00     0.049 A 
ATOM     57  C   UNL A   1      47.130  29.327  27.560  1.00  0.00     0.074 A 
ATOM     58  C   UNL A   1      42.431  29.825  30.161  1.00  0.00     0.029 A 
ATOM     59  N   UNL A   1      42.455  30.253  27.978  1.00  0.00    -0.354 N 
ATOM     60  N   UNL A   1      45.903  29.676  27.824  1.00  0.00    -0.248 NA
ATOM     61  C   UNL A   1      47.931  30.441  27.061  1.00  0.00     0.031 C 
ATOM     62  C   UNL A   1      43.588  30.578  29.866  1.00  0.00     0.029 A 
ATOM     63  C   UNL A   1      43.587  30.843  28.509  1.00  0.00     0.049 A 
ATOM     64  H   UNL A   1      42.201  30.273  27.027  1.00  0.00     0.167 HD
ATOM     65  C   UNL A   1      45.726  31.005  27.523  1.00  0.00     0.074 A 
ATOM     66  C   UNL A   1      47.031  31.442  27.070  1.00  0.00     0.031 C 
ATOM     67  C   UNL A   1      44.506  31.606  27.676  1.00  0.00     0.037 A 
BRANCH  54  68
ATOM     68  C   UNL A   1      39.229  28.904  29.209  1.00  0.00     0.057 A 
ATOM     69  C   UNL A   1      38.192  29.464  28.435  1.00  0.00     0.134 A 
ATOM     70  C   UNL A   1      38.857  28.552  30.516  1.00  0.00     0.134 A 
ATOM     71  F   UNL A   1      38.352  29.750  27.137  1.00  0.00    -0.206 F 
ATOM     72  C   UNL A   1      36.929  29.765  28.958  1.00  0.00     0.040 A 
ATOM     73  C   UNL A   1      37.613  28.888  31.067  1.00  0.00     0.040 A 
ATOM     74  F   UNL A   1      39.677  27.839  31.302  1.00  0.00    -0.206 F 
ATOM     75  C   UNL A   1      36.648  29.514  30.291  1.00  0.00     0.006 A 
ENDBRANCH  54  68
BRANCH  55  76
ATOM     76  C   UNL A   1      48.364  27.150  26.679  1.00  0.00     0.057 A 
ATOM     77  C   UNL A   1      47.789  27.074  25.399  1.00  0.00     0.134 A 
ATOM     78  C   UNL A   1      49.725  26.855  26.789  1.00  0.00     0.134 A 
ATOM     79  F   UNL A   1      46.486  27.350  25.228  1.00  0.00    -0.206 F 
ATOM     80  C   UNL A   1      48.559  26.830  24.259  1.00  0.00     0.040 A 
ATOM     81  C   UNL A   1      50.504  26.600  25.655  1.00  0.00     0.040 A 
ATOM     82  F   UNL A   1      50.346  26.928  27.974  1.00  0.00    -0.206 F 
ATOM     83  C   UNL A   1      49.930  26.628  24.383  1.00  0.00     0.006 A 
ENDBRANCH  55  76
BRANCH  67  84
ATOM     84  C   UNL A   1      44.072  32.974  27.190  1.00  0.00     0.057 A 
ATOM     85  C   UNL A   1      43.876  33.329  25.848  1.00  0.00     0.134 A 
ATOM     86  C   UNL A   1      43.695  33.978  28.120  1.00  0.00     0.134 A 
ATOM     87  F   UNL A   1      44.080  32.460  24.851  1.00  0.00    -0.206 F 
ATOM     88  C   UNL A   1      43.398  34.591  25.459  1.00  0.00     0.040 A 
ATOM     89  C   UNL A   1      43.166  35.216  27.746  1.00  0.00     0.040 A 
ATOM     90  F   UNL A   1      43.798  33.796  29.445  1.00  0.00    -0.206 F 
ATOM     91  C   UNL A   1      43.028  35.535  26.408  1.00  0.00     0.006 A 
ENDBRANCH  67  84
ENDBRANCH  41  42
ENDBRANCH  33  36
ENDBRANCH  31  32
ENDBRANCH  30  31
ENDBRANCH  29  30
ENDBRANCH   1  29
TORSDOF 16
ENDMDL
