MODEL 1
REMARK VINA RESULT:     -13.4      0.000      0.000
REMARK SMILES Cc1ccccc1C(=O)Nc1ccc(OCC(=O)NCCCCCCNC(=O)c2ccc(-c3c4nc(c(-c5c(F)cccc5F)c5ccc([nH]5)c(-c5c(F)cccc5F)c5nc(c(-c6c(F)cccc6F)c6ccc3[nH]6)C=C5)C=C4)cc2)c(-c2nc3ccccc3s2)c1
REMARK SMILES IDX 21 1 20 2 19 3 17 4 18 5 16 7 15 8 14 9 11 10 12 11 93 12
REMARK SMILES IDX 13 13 83 14 10 15 8 16 9 17 7 19 1 20 2 21 3 22 4 23 6 24
REMARK SMILES IDX 5 25 84 26 85 27 92 28 86 29 91 30 87 31 90 32 88 33 89 34
REMARK SMILES IDX 22 35 23 36 24 37 25 38 26 39 27 40 28 42 29 43 30 44 82 45
REMARK SMILES IDX 31 46 81 47 32 48 33 49 34 50 75 51 35 52 80 53 74 54 76 55
REMARK SMILES IDX 36 56 79 57 73 58 72 59 37 61 63 62 46 63 62 64 47 65 50 66
REMARK SMILES IDX 61 67 77 68 48 69 49 70 60 72 78 73 51 74 38 75 39 76 44 77
REMARK SMILES IDX 40 78 41 79 43 80 45 81 42 82 64 83 65 84 70 85 66 86 67 87
REMARK SMILES IDX 69 88 71 89 68 90 52 91 53 92 58 93 54 94 55 95 57 96 59 97
REMARK SMILES IDX 56 98
REMARK H PARENT 19 6 10 18 26 41 76 60 50 71
REMARK Flexibility Score: inf
ROOT
ATOM      1  C   UNL A   1      38.650  22.648  26.312  1.00  0.00     0.021 C 
ENDROOT
BRANCH   1   2
ATOM      2  C   UNL A   1      37.614  23.679  25.873  1.00  0.00     0.116 C 
BRANCH   2   3
ATOM      3  N   UNL A   1      37.382  23.615  24.451  1.00  0.00    -0.353 N 
ATOM      4  C   UNL A   1      36.557  22.824  23.718  1.00  0.00     0.257 C 
ATOM      5  O   UNL A   1      36.632  22.963  22.497  1.00  0.00    -0.271 OA
ATOM      6  H   UNL A   1      37.912  24.254  23.922  1.00  0.00     0.163 HD
BRANCH   4   7
ATOM      7  C   UNL A   1      35.549  21.866  24.409  1.00  0.00     0.329 C 
BRANCH   7   8
ATOM      8  O   UNL A   1      34.593  22.268  25.386  1.00  0.00    -0.483 OA
BRANCH   8   9
ATOM      9  C   UNL A   1      33.482  22.875  24.873  1.00  0.00     0.130 A 
ATOM     10  C   UNL A   1      31.248  24.272  23.950  1.00  0.00     0.042 A 
ATOM     11  C   UNL A   1      32.406  24.969  24.289  1.00  0.00     0.030 A 
ATOM     12  C   UNL A   1      31.265  22.875  23.936  1.00  0.00     0.041 A 
ATOM     13  C   UNL A   1      33.506  24.275  24.790  1.00  0.00     0.049 A 
ATOM     14  C   UNL A   1      32.401  22.141  24.347  1.00  0.00     0.055 A 
BRANCH  10  15
ATOM     15  N   UNL A   1      30.100  25.026  23.676  1.00  0.00    -0.322 N 
ATOM     16  C   UNL A   1      29.674  26.234  24.189  1.00  0.00     0.255 C 
ATOM     17  O   UNL A   1      28.520  26.597  23.949  1.00  0.00    -0.269 OA
ATOM     18  H   UNL A   1      29.498  24.629  23.007  1.00  0.00     0.170 HD
BRANCH  16  19
ATOM     19  C   UNL A   1      30.568  27.165  24.941  1.00  0.00     0.043 A 
ATOM     20  C   UNL A   1      30.912  28.885  23.046  1.00  0.00     0.045 C 
ATOM     21  C   UNL A   1      31.152  28.340  24.425  1.00  0.00    -0.038 A 
ATOM     22  C   UNL A   1      31.996  29.102  25.256  1.00  0.00     0.004 A 
ATOM     23  C   UNL A   1      32.160  28.785  26.603  1.00  0.00     0.000 A 
ATOM     24  C   UNL A   1      30.715  26.881  26.313  1.00  0.00     0.014 A 
ATOM     25  C   UNL A   1      31.494  27.692  27.140  1.00  0.00     0.001 A 
ENDBRANCH  16  19
ENDBRANCH  10  15
BRANCH  14  26
ATOM     26  C   UNL A   1      32.321  20.662  24.254  1.00  0.00     0.128 A 
ATOM     27  N   UNL A   1      32.231  19.873  25.312  1.00  0.00    -0.236 NA
ATOM     28  S   UNL A   1      32.336  19.785  22.768  1.00  0.00    -0.114 S 
ATOM     29  C   UNL A   1      32.577  18.580  24.963  1.00  0.00     0.082 A 
ATOM     30  C   UNL A   1      32.828  18.379  23.609  1.00  0.00     0.055 A 
ATOM     31  C   UNL A   1      32.747  17.499  25.847  1.00  0.00     0.030 A 
ATOM     32  C   UNL A   1      33.368  17.184  23.113  1.00  0.00     0.021 A 
ATOM     33  C   UNL A   1      33.263  16.292  25.366  1.00  0.00     0.002 A 
ATOM     34  C   UNL A   1      33.602  16.151  24.022  1.00  0.00     0.002 A 
ENDBRANCH  14  26
ENDBRANCH   8   9
ENDBRANCH   7   8
ENDBRANCH   4   7
ENDBRANCH   2   3
ENDBRANCH   1   2
BRANCH   1  35
ATOM     35  C   UNL A   1      39.961  23.202  26.889  1.00  0.00     0.002 C 
BRANCH  35  36
ATOM     36  C   UNL A   1      40.813  22.259  27.753  1.00  0.00     0.002 C 
BRANCH  36  37
ATOM     37  C   UNL A   1      42.089  21.703  27.123  1.00  0.00     0.021 C 
BRANCH  37  38
ATOM     38  C   UNL A   1      42.318  22.103  25.676  1.00  0.00     0.116 C 
BRANCH  38  39
ATOM     39  N   UNL A   1      43.359  21.358  24.990  1.00  0.00    -0.352 N 
ATOM     40  C   UNL A   1      44.685  21.706  24.765  1.00  0.00     0.251 C 
ATOM     41  H   UNL A   1      43.086  20.482  24.633  1.00  0.00     0.163 HD
ATOM     42  O   UNL A   1      45.405  20.973  24.115  1.00  0.00    -0.269 OA
BRANCH  40  43
ATOM     43  C   UNL A   1      45.255  22.897  25.453  1.00  0.00     0.039 A 
ATOM     44  C   UNL A   1      45.621  22.748  26.796  1.00  0.00     0.014 A 
ATOM     45  C   UNL A   1      45.203  24.166  24.886  1.00  0.00     0.014 A 
ATOM     46  C   UNL A   1      45.645  23.867  27.625  1.00  0.00     0.010 A 
ATOM     47  C   UNL A   1      45.115  25.262  25.718  1.00  0.00     0.010 A 
ATOM     48  C   UNL A   1      45.264  25.098  27.096  1.00  0.00    -0.014 A 
BRANCH  48  49
ATOM     49  C   UNL A   1      44.898  26.240  27.920  1.00  0.00     0.031 A 
ATOM     50  C   UNL A   1      43.495  26.681  27.998  1.00  0.00     0.074 A 
ATOM     51  C   UNL A   1      45.843  26.864  28.658  1.00  0.00     0.049 A 
ATOM     52  N   UNL A   1      43.140  27.901  28.210  1.00  0.00    -0.248 NA
ATOM     53  C   UNL A   1      42.370  25.770  27.816  1.00  0.00     0.031 C 
ATOM     54  C   UNL A   1      45.633  27.864  29.701  1.00  0.00     0.029 A 
ATOM     55  N   UNL A   1      47.230  26.853  28.461  1.00  0.00    -0.354 N 
ATOM     56  C   UNL A   1      41.791  27.897  28.462  1.00  0.00     0.074 A 
ATOM     57  C   UNL A   1      41.343  26.561  28.139  1.00  0.00     0.031 C 
ATOM     58  C   UNL A   1      46.765  28.569  29.861  1.00  0.00     0.029 A 
ATOM     59  C   UNL A   1      47.695  28.131  28.835  1.00  0.00     0.049 A 
ATOM     60  H   UNL A   1      47.772  26.102  28.126  1.00  0.00     0.167 HD
ATOM     61  C   UNL A   1      41.209  28.974  29.060  1.00  0.00     0.037 A 
ATOM     62  C   UNL A   1      48.311  28.953  27.938  1.00  0.00     0.037 A 
ATOM     63  C   UNL A   1      42.182  30.021  29.345  1.00  0.00     0.049 A 
ATOM     64  C   UNL A   1      47.593  30.262  27.718  1.00  0.00     0.074 A 
ATOM     65  C   UNL A   1      42.905  30.328  30.487  1.00  0.00     0.029 A 
ATOM     66  N   UNL A   1      42.787  30.709  28.300  1.00  0.00    -0.354 N 
ATOM     67  N   UNL A   1      46.341  30.463  28.021  1.00  0.00    -0.248 NA
ATOM     68  C   UNL A   1      48.217  31.441  27.124  1.00  0.00     0.031 C 
ATOM     69  C   UNL A   1      43.979  31.171  30.117  1.00  0.00     0.029 A 
ATOM     70  C   UNL A   1      43.899  31.393  28.755  1.00  0.00     0.049 A 
ATOM     71  H   UNL A   1      42.470  30.709  27.368  1.00  0.00     0.167 HD
ATOM     72  C   UNL A   1      45.980  31.739  27.669  1.00  0.00     0.074 A 
ATOM     73  C   UNL A   1      47.195  32.317  27.128  1.00  0.00     0.031 C 
ATOM     74  C   UNL A   1      44.707  32.201  27.855  1.00  0.00     0.037 A 
BRANCH  61  75
ATOM     75  C   UNL A   1      39.830  28.899  29.659  1.00  0.00     0.057 A 
ATOM     76  C   UNL A   1      38.688  29.254  28.919  1.00  0.00     0.134 A 
ATOM     77  C   UNL A   1      39.582  28.533  30.992  1.00  0.00     0.134 A 
ATOM     78  F   UNL A   1      38.753  29.548  27.615  1.00  0.00    -0.206 F 
ATOM     79  C   UNL A   1      37.414  29.345  29.491  1.00  0.00     0.040 A 
ATOM     80  C   UNL A   1      38.321  28.665  31.591  1.00  0.00     0.040 A 
ATOM     81  F   UNL A   1      40.555  28.023  31.762  1.00  0.00    -0.206 F 
ATOM     82  C   UNL A   1      37.232  29.087  30.840  1.00  0.00     0.006 A 
ENDBRANCH  61  75
BRANCH  62  83
ATOM     83  C   UNL A   1      49.094  28.213  26.914  1.00  0.00     0.057 A 
ATOM     84  C   UNL A   1      50.364  27.731  27.270  1.00  0.00     0.134 A 
ATOM     85  C   UNL A   1      48.477  27.630  25.804  1.00  0.00     0.134 A 
ATOM     86  F   UNL A   1      51.010  28.251  28.327  1.00  0.00    -0.206 F 
ATOM     87  C   UNL A   1      50.943  26.632  26.631  1.00  0.00     0.040 A 
ATOM     88  C   UNL A   1      49.053  26.534  25.150  1.00  0.00     0.040 A 
ATOM     89  F   UNL A   1      47.256  28.023  25.415  1.00  0.00    -0.206 F 
ATOM     90  C   UNL A   1      50.266  26.004  25.591  1.00  0.00     0.006 A 
ENDBRANCH  62  83
BRANCH  74  91
ATOM     91  C   UNL A   1      44.120  33.487  27.316  1.00  0.00     0.057 A 
ATOM     92  C   UNL A   1      43.818  33.721  25.969  1.00  0.00     0.134 A 
ATOM     93  C   UNL A   1      43.695  34.506  28.205  1.00  0.00     0.134 A 
ATOM     94  F   UNL A   1      44.058  32.803  25.024  1.00  0.00    -0.206 F 
ATOM     95  C   UNL A   1      43.191  34.896  25.529  1.00  0.00     0.040 A 
ATOM     96  C   UNL A   1      43.019  35.655  27.784  1.00  0.00     0.040 A 
ATOM     97  F   UNL A   1      43.892  34.420  29.528  1.00  0.00    -0.206 F 
ATOM     98  C   UNL A   1      42.777  35.863  26.438  1.00  0.00     0.006 A 
ENDBRANCH  74  91
ENDBRANCH  48  49
ENDBRANCH  40  43
ENDBRANCH  38  39
ENDBRANCH  37  38
ENDBRANCH  36  37
ENDBRANCH  35  36
ENDBRANCH   1  35
TORSDOF 18
ENDMDL
MODEL 2
REMARK VINA RESULT:     -13.0      4.540     10.371
REMARK SMILES Cc1ccccc1C(=O)Nc1ccc(OCC(=O)NCCCCCCNC(=O)c2ccc(-c3c4nc(c(-c5c(F)cccc5F)c5ccc([nH]5)c(-c5c(F)cccc5F)c5nc(c(-c6c(F)cccc6F)c6ccc3[nH]6)C=C5)C=C4)cc2)c(-c2nc3ccccc3s2)c1
REMARK SMILES IDX 21 1 20 2 19 3 17 4 18 5 16 7 15 8 14 9 11 10 12 11 93 12
REMARK SMILES IDX 13 13 83 14 10 15 8 16 9 17 7 19 1 20 2 21 3 22 4 23 6 24
REMARK SMILES IDX 5 25 84 26 85 27 92 28 86 29 91 30 87 31 90 32 88 33 89 34
REMARK SMILES IDX 22 35 23 36 24 37 25 38 26 39 27 40 28 42 29 43 30 44 82 45
REMARK SMILES IDX 31 46 81 47 32 48 33 49 34 50 75 51 35 52 80 53 74 54 76 55
REMARK SMILES IDX 36 56 79 57 73 58 72 59 37 61 63 62 46 63 62 64 47 65 50 66
REMARK SMILES IDX 61 67 77 68 48 69 49 70 60 72 78 73 51 74 38 75 39 76 44 77
REMARK SMILES IDX 40 78 41 79 43 80 45 81 42 82 64 83 65 84 70 85 66 86 67 87
REMARK SMILES IDX 69 88 71 89 68 90 52 91 53 92 58 93 54 94 55 95 57 96 59 97
REMARK SMILES IDX 56 98
REMARK H PARENT 19 6 10 18 26 41 76 60 50 71
REMARK Flexibility Score: inf
ROOT
ATOM      1  C   UNL A   1      32.264  32.802  27.143  1.00  0.00     0.021 C 
ENDROOT
BRANCH   1   2
ATOM      2  C   UNL A   1      32.105  31.303  26.903  1.00  0.00     0.116 C 
BRANCH   2   3
ATOM      3  N   UNL A   1      33.336  30.598  27.166  1.00  0.00    -0.353 N 
ATOM      4  C   UNL A   1      33.740  29.350  26.814  1.00  0.00     0.257 C 
ATOM      5  O   UNL A   1      34.839  29.004  27.250  1.00  0.00    -0.271 OA
ATOM      6  H   UNL A   1      33.996  31.109  27.688  1.00  0.00     0.163 HD
BRANCH   4   7
ATOM      7  C   UNL A   1      32.880  28.470  25.868  1.00  0.00     0.329 C 
BRANCH   7   8
ATOM      8  O   UNL A   1      31.625  27.892  26.220  1.00  0.00    -0.483 OA
BRANCH   8   9
ATOM      9  C   UNL A   1      31.496  26.575  25.882  1.00  0.00     0.130 A 
ATOM     10  C   UNL A   1      31.412  23.851  25.275  1.00  0.00     0.042 A 
ATOM     11  C   UNL A   1      31.974  24.274  26.479  1.00  0.00     0.030 A 
ATOM     12  C   UNL A   1      30.767  24.779  24.454  1.00  0.00     0.041 A 
ATOM     13  C   UNL A   1      32.054  25.636  26.761  1.00  0.00     0.049 A 
ATOM     14  C   UNL A   1      30.747  26.159  24.763  1.00  0.00     0.055 A 
BRANCH  10  15
ATOM     15  N   UNL A   1      31.563  22.501  24.933  1.00  0.00    -0.322 N 
ATOM     16  C   UNL A   1      32.670  21.803  24.495  1.00  0.00     0.255 C 
ATOM     17  O   UNL A   1      32.505  20.664  24.053  1.00  0.00    -0.269 OA
ATOM     18  H   UNL A   1      30.745  21.961  25.020  1.00  0.00     0.170 HD
BRANCH  16  19
ATOM     19  C   UNL A   1      34.066  22.323  24.615  1.00  0.00     0.043 A 
ATOM     20  C   UNL A   1      34.442  21.669  27.086  1.00  0.00     0.045 C 
ATOM     21  C   UNL A   1      34.855  22.293  25.784  1.00  0.00    -0.038 A 
ATOM     22  C   UNL A   1      36.150  22.848  25.743  1.00  0.00     0.004 A 
ATOM     23  C   UNL A   1      36.702  23.306  24.549  1.00  0.00     0.000 A 
ATOM     24  C   UNL A   1      34.653  22.754  23.410  1.00  0.00     0.014 A 
ATOM     25  C   UNL A   1      35.965  23.229  23.375  1.00  0.00     0.001 A 
ENDBRANCH  16  19
ENDBRANCH  10  15
BRANCH  14  26
ATOM     26  C   UNL A   1      30.000  27.048  23.840  1.00  0.00     0.128 A 
ATOM     27  N   UNL A   1      30.590  27.890  23.008  1.00  0.00    -0.236 NA
ATOM     28  S   UNL A   1      28.278  27.102  23.732  1.00  0.00    -0.114 S 
ATOM     29  C   UNL A   1      29.684  28.846  22.587  1.00  0.00     0.082 A 
ATOM     30  C   UNL A   1      28.376  28.657  23.026  1.00  0.00     0.055 A 
ATOM     31  C   UNL A   1      29.978  29.989  21.822  1.00  0.00     0.030 A 
ATOM     32  C   UNL A   1      27.376  29.623  22.849  1.00  0.00     0.021 A 
ATOM     33  C   UNL A   1      28.986  30.953  21.616  1.00  0.00     0.002 A 
ATOM     34  C   UNL A   1      27.712  30.786  22.155  1.00  0.00     0.002 A 
ENDBRANCH  14  26
ENDBRANCH   8   9
ENDBRANCH   7   8
ENDBRANCH   4   7
ENDBRANCH   2   3
ENDBRANCH   1   2
BRANCH   1  35
ATOM     35  C   UNL A   1      33.423  33.226  28.057  1.00  0.00     0.002 C 
BRANCH  35  36
ATOM     36  C   UNL A   1      33.959  34.659  27.908  1.00  0.00     0.002 C 
BRANCH  36  37
ATOM     37  C   UNL A   1      33.494  35.685  28.941  1.00  0.00     0.021 C 
BRANCH  37  38
ATOM     38  C   UNL A   1      33.115  35.108  30.293  1.00  0.00     0.116 C 
BRANCH  38  39
ATOM     39  N   UNL A   1      33.880  35.622  31.417  1.00  0.00    -0.352 N 
ATOM     40  C   UNL A   1      35.018  35.099  32.017  1.00  0.00     0.251 C 
ATOM     41  H   UNL A   1      33.543  36.460  31.809  1.00  0.00     0.163 HD
ATOM     42  O   UNL A   1      35.496  35.641  32.994  1.00  0.00    -0.269 OA
BRANCH  40  43
ATOM     43  C   UNL A   1      35.734  33.967  31.365  1.00  0.00     0.039 A 
ATOM     44  C   UNL A   1      35.790  32.755  32.063  1.00  0.00     0.014 A 
ATOM     45  C   UNL A   1      36.528  34.155  30.238  1.00  0.00     0.014 A 
ATOM     46  C   UNL A   1      36.833  31.868  31.808  1.00  0.00     0.010 A 
ATOM     47  C   UNL A   1      37.624  33.338  30.054  1.00  0.00     0.010 A 
ATOM     48  C   UNL A   1      37.813  32.236  30.889  1.00  0.00    -0.014 A 
BRANCH  48  49
ATOM     49  C   UNL A   1      39.112  31.586  30.808  1.00  0.00     0.031 A 
ATOM     50  C   UNL A   1      39.285  30.369  29.997  1.00  0.00     0.074 A 
ATOM     51  C   UNL A   1      40.176  32.135  31.436  1.00  0.00     0.049 A 
ATOM     52  N   UNL A   1      40.149  29.451  30.261  1.00  0.00    -0.248 NA
ATOM     53  C   UNL A   1      38.467  30.079  28.824  1.00  0.00     0.031 C 
ATOM     54  C   UNL A   1      41.580  31.762  31.287  1.00  0.00     0.029 A 
ATOM     55  N   UNL A   1      40.166  33.032  32.512  1.00  0.00    -0.354 N 
ATOM     56  C   UNL A   1      40.197  28.609  29.178  1.00  0.00     0.074 A 
ATOM     57  C   UNL A   1      39.086  28.999  28.339  1.00  0.00     0.031 C 
ATOM     58  C   UNL A   1      42.256  32.175  32.371  1.00  0.00     0.029 A 
ATOM     59  C   UNL A   1      41.284  32.709  33.310  1.00  0.00     0.049 A 
ATOM     60  H   UNL A   1      39.509  33.746  32.678  1.00  0.00     0.167 HD
ATOM     61  C   UNL A   1      41.255  27.765  29.021  1.00  0.00     0.037 A 
ATOM     62  C   UNL A   1      41.140  32.298  34.601  1.00  0.00     0.037 A 
ATOM     63  C   UNL A   1      42.219  27.905  30.104  1.00  0.00     0.049 A 
ATOM     64  C   UNL A   1      41.676  30.911  34.863  1.00  0.00     0.074 A 
ATOM     65  C   UNL A   1      43.386  28.644  30.218  1.00  0.00     0.029 A 
ATOM     66  N   UNL A   1      41.875  27.513  31.393  1.00  0.00    -0.354 N 
ATOM     67  N   UNL A   1      41.899  30.031  33.928  1.00  0.00    -0.248 NA
ATOM     68  C   UNL A   1      41.987  30.399  36.196  1.00  0.00     0.031 C 
ATOM     69  C   UNL A   1      43.721  28.735  31.589  1.00  0.00     0.029 A 
ATOM     70  C   UNL A   1      42.770  28.035  32.308  1.00  0.00     0.049 A 
ATOM     71  H   UNL A   1      41.105  26.945  31.622  1.00  0.00     0.167 HD
ATOM     72  C   UNL A   1      42.351  28.864  34.492  1.00  0.00     0.074 A 
ATOM     73  C   UNL A   1      42.406  29.152  35.912  1.00  0.00     0.031 C 
ATOM     74  C   UNL A   1      42.636  27.764  33.732  1.00  0.00     0.037 A 
BRANCH  61  75
ATOM     75  C   UNL A   1      41.530  27.076  27.712  1.00  0.00     0.057 A 
ATOM     76  C   UNL A   1      41.255  25.709  27.529  1.00  0.00     0.134 A 
ATOM     77  C   UNL A   1      42.125  27.713  26.610  1.00  0.00     0.134 A 
ATOM     78  F   UNL A   1      40.617  24.987  28.457  1.00  0.00    -0.206 F 
ATOM     79  C   UNL A   1      41.642  25.006  26.383  1.00  0.00     0.040 A 
ATOM     80  C   UNL A   1      42.561  27.012  25.476  1.00  0.00     0.040 A 
ATOM     81  F   UNL A   1      42.296  29.043  26.589  1.00  0.00    -0.206 F 
ATOM     82  C   UNL A   1      42.332  25.647  25.366  1.00  0.00     0.006 A 
ENDBRANCH  61  75
BRANCH  62  83
ATOM     83  C   UNL A   1      39.971  32.915  35.280  1.00  0.00     0.057 A 
ATOM     84  C   UNL A   1      38.789  32.163  35.382  1.00  0.00     0.134 A 
ATOM     85  C   UNL A   1      40.121  33.992  36.159  1.00  0.00     0.134 A 
ATOM     86  F   UNL A   1      38.584  31.116  34.566  1.00  0.00    -0.206 F 
ATOM     87  C   UNL A   1      37.854  32.390  36.396  1.00  0.00     0.040 A 
ATOM     88  C   UNL A   1      39.185  34.234  37.172  1.00  0.00     0.040 A 
ATOM     89  F   UNL A   1      41.230  34.744  36.136  1.00  0.00    -0.206 F 
ATOM     90  C   UNL A   1      38.072  33.406  37.320  1.00  0.00     0.006 A 
ENDBRANCH  62  83
BRANCH  74  91
ATOM     91  C   UNL A   1      42.922  26.365  34.230  1.00  0.00     0.057 A 
ATOM     92  C   UNL A   1      42.019  25.580  34.959  1.00  0.00     0.134 A 
ATOM     93  C   UNL A   1      44.111  25.697  33.845  1.00  0.00     0.134 A 
ATOM     94  F   UNL A   1      40.807  26.035  35.301  1.00  0.00    -0.206 F 
ATOM     95  C   UNL A   1      42.295  24.254  35.322  1.00  0.00     0.040 A 
ATOM     96  C   UNL A   1      44.372  24.360  34.153  1.00  0.00     0.040 A 
ATOM     97  F   UNL A   1      45.064  26.307  33.126  1.00  0.00    -0.206 F 
ATOM     98  C   UNL A   1      43.468  23.634  34.909  1.00  0.00     0.006 A 
ENDBRANCH  74  91
ENDBRANCH  48  49
ENDBRANCH  40  43
ENDBRANCH  38  39
ENDBRANCH  37  38
ENDBRANCH  36  37
ENDBRANCH  35  36
ENDBRANCH   1  35
TORSDOF 18
ENDMDL
MODEL 3
REMARK VINA RESULT:     -12.7      1.336      2.101
REMARK SMILES Cc1ccccc1C(=O)Nc1ccc(OCC(=O)NCCCCCCNC(=O)c2ccc(-c3c4nc(c(-c5c(F)cccc5F)c5ccc([nH]5)c(-c5c(F)cccc5F)c5nc(c(-c6c(F)cccc6F)c6ccc3[nH]6)C=C5)C=C4)cc2)c(-c2nc3ccccc3s2)c1
REMARK SMILES IDX 21 1 20 2 19 3 17 4 18 5 16 7 15 8 14 9 11 10 12 11 93 12
REMARK SMILES IDX 13 13 83 14 10 15 8 16 9 17 7 19 1 20 2 21 3 22 4 23 6 24
REMARK SMILES IDX 5 25 84 26 85 27 92 28 86 29 91 30 87 31 90 32 88 33 89 34
REMARK SMILES IDX 22 35 23 36 24 37 25 38 26 39 27 40 28 42 29 43 30 44 82 45
REMARK SMILES IDX 31 46 81 47 32 48 33 49 34 50 75 51 35 52 80 53 74 54 76 55
REMARK SMILES IDX 36 56 79 57 73 58 72 59 37 61 63 62 46 63 62 64 47 65 50 66
REMARK SMILES IDX 61 67 77 68 48 69 49 70 60 72 78 73 51 74 38 75 39 76 44 77
REMARK SMILES IDX 40 78 41 79 43 80 45 81 42 82 64 83 65 84 70 85 66 86 67 87
REMARK SMILES IDX 69 88 71 89 68 90 52 91 53 92 58 93 54 94 55 95 57 96 59 97
REMARK SMILES IDX 56 98
REMARK H PARENT 19 6 10 18 26 41 76 60 50 71
REMARK Flexibility Score: inf
ROOT
ATOM      1  C   UNL A   1      39.817  22.710  26.826  1.00  0.00     0.021 C 
ENDROOT
BRANCH   1   2
ATOM      2  C   UNL A   1      38.423  22.797  26.212  1.00  0.00     0.116 C 
BRANCH   2   3
ATOM      3  N   UNL A   1      37.962  21.501  25.777  1.00  0.00    -0.353 N 
ATOM      4  C   UNL A   1      36.842  21.134  25.103  1.00  0.00     0.257 C 
ATOM      5  O   UNL A   1      36.695  19.923  24.933  1.00  0.00    -0.271 OA
ATOM      6  H   UNL A   1      38.563  20.755  26.008  1.00  0.00     0.163 HD
BRANCH   4   7
ATOM      7  C   UNL A   1      35.866  22.201  24.538  1.00  0.00     0.329 C 
BRANCH   7   8
ATOM      8  O   UNL A   1      34.932  22.939  25.324  1.00  0.00    -0.483 OA
BRANCH   8   9
ATOM      9  C   UNL A   1      34.047  23.683  24.597  1.00  0.00     0.130 A 
ATOM     10  C   UNL A   1      32.286  25.362  23.229  1.00  0.00     0.042 A 
ATOM     11  C   UNL A   1      33.503  25.864  23.686  1.00  0.00     0.030 A 
ATOM     12  C   UNL A   1      32.023  23.994  23.331  1.00  0.00     0.041 A 
ATOM     13  C   UNL A   1      34.363  25.036  24.406  1.00  0.00     0.049 A 
ATOM     14  C   UNL A   1      32.922  23.110  23.972  1.00  0.00     0.055 A 
BRANCH  10  15
ATOM     15  N   UNL A   1      31.361  26.283  22.721  1.00  0.00    -0.322 N 
ATOM     16  C   UNL A   1      30.692  27.321  23.337  1.00  0.00     0.255 C 
ATOM     17  O   UNL A   1      29.764  27.861  22.731  1.00  0.00    -0.269 OA
ATOM     18  H   UNL A   1      31.154  26.173  21.765  1.00  0.00     0.170 HD
BRANCH  16  19
ATOM     19  C   UNL A   1      31.094  27.881  24.663  1.00  0.00     0.043 A 
ATOM     20  C   UNL A   1      30.361  25.865  26.101  1.00  0.00     0.045 C 
ATOM     21  C   UNL A   1      30.921  27.246  25.910  1.00  0.00    -0.038 A 
ATOM     22  C   UNL A   1      31.332  27.918  27.078  1.00  0.00     0.004 A 
ATOM     23  C   UNL A   1      32.014  29.130  27.011  1.00  0.00     0.000 A 
ATOM     24  C   UNL A   1      31.818  29.088  24.611  1.00  0.00     0.014 A 
ATOM     25  C   UNL A   1      32.286  29.701  25.774  1.00  0.00     0.001 A 
ENDBRANCH  16  19
ENDBRANCH  10  15
BRANCH  14  26
ATOM     26  C   UNL A   1      32.560  21.672  23.988  1.00  0.00     0.128 A 
ATOM     27  N   UNL A   1      32.552  20.938  25.088  1.00  0.00    -0.236 NA
ATOM     28  S   UNL A   1      32.106  20.774  22.586  1.00  0.00    -0.114 S 
ATOM     29  C   UNL A   1      32.580  19.595  24.757  1.00  0.00     0.082 A 
ATOM     30  C   UNL A   1      32.502  19.319  23.395  1.00  0.00     0.055 A 
ATOM     31  C   UNL A   1      32.733  18.522  25.654  1.00  0.00     0.030 A 
ATOM     32  C   UNL A   1      32.703  18.033  22.875  1.00  0.00     0.021 A 
ATOM     33  C   UNL A   1      32.912  17.228  25.154  1.00  0.00     0.002 A 
ATOM     34  C   UNL A   1      32.932  16.996  23.780  1.00  0.00     0.002 A 
ENDBRANCH  14  26
ENDBRANCH   8   9
ENDBRANCH   7   8
ENDBRANCH   4   7
ENDBRANCH   2   3
ENDBRANCH   1   2
BRANCH   1  35
ATOM     35  C   UNL A   1      40.792  21.724  26.167  1.00  0.00     0.002 C 
BRANCH  35  36
ATOM     36  C   UNL A   1      41.150  20.449  26.946  1.00  0.00     0.002 C 
BRANCH  36  37
ATOM     37  C   UNL A   1      42.546  19.868  26.724  1.00  0.00     0.021 C 
BRANCH  37  38
ATOM     38  C   UNL A   1      43.216  20.286  25.427  1.00  0.00     0.116 C 
BRANCH  38  39
ATOM     39  N   UNL A   1      44.596  20.721  25.560  1.00  0.00    -0.352 N 
ATOM     40  C   UNL A   1      45.092  21.954  25.963  1.00  0.00     0.251 C 
ATOM     41  H   UNL A   1      45.276  20.046  25.332  1.00  0.00     0.163 HD
ATOM     42  O   UNL A   1      46.291  22.159  25.962  1.00  0.00    -0.269 OA
BRANCH  40  43
ATOM     43  C   UNL A   1      44.162  22.963  26.544  1.00  0.00     0.039 A 
ATOM     44  C   UNL A   1      43.921  24.119  25.793  1.00  0.00     0.014 A 
ATOM     45  C   UNL A   1      43.744  22.897  27.868  1.00  0.00     0.014 A 
ATOM     46  C   UNL A   1      43.532  25.288  26.444  1.00  0.00     0.010 A 
ATOM     47  C   UNL A   1      43.468  24.071  28.537  1.00  0.00     0.010 A 
ATOM     48  C   UNL A   1      43.435  25.276  27.834  1.00  0.00    -0.014 A 
BRANCH  48  49
ATOM     49  C   UNL A   1      43.403  26.487  28.639  1.00  0.00     0.031 A 
ATOM     50  C   UNL A   1      42.130  27.188  28.878  1.00  0.00     0.074 A 
ATOM     51  C   UNL A   1      44.540  26.938  29.216  1.00  0.00     0.049 A 
ATOM     52  N   UNL A   1      42.038  28.458  29.072  1.00  0.00    -0.248 NA
ATOM     53  C   UNL A   1      40.842  26.502  28.890  1.00  0.00     0.031 C 
ATOM     54  C   UNL A   1      44.663  27.986  30.225  1.00  0.00     0.029 A 
ATOM     55  N   UNL A   1      45.860  26.660  28.839  1.00  0.00    -0.354 N 
ATOM     56  C   UNL A   1      40.759  28.716  29.498  1.00  0.00     0.074 A 
ATOM     57  C   UNL A   1      40.033  27.481  29.304  1.00  0.00     0.031 C 
ATOM     58  C   UNL A   1      45.916  28.468  30.199  1.00  0.00     0.029 A 
ATOM     59  C   UNL A   1      46.600  27.836  29.084  1.00  0.00     0.049 A 
ATOM     60  H   UNL A   1      46.203  25.812  28.475  1.00  0.00     0.167 HD
ATOM     61  C   UNL A   1      40.474  29.899  30.112  1.00  0.00     0.037 A 
ATOM     62  C   UNL A   1      47.227  28.503  28.074  1.00  0.00     0.037 A 
ATOM     63  C   UNL A   1      41.653  30.748  30.214  1.00  0.00     0.049 A 
ATOM     64  C   UNL A   1      46.739  29.919  27.884  1.00  0.00     0.074 A 
ATOM     65  C   UNL A   1      42.571  30.941  31.235  1.00  0.00     0.029 A 
ATOM     66  N   UNL A   1      42.225  31.283  29.065  1.00  0.00    -0.354 N 
ATOM     67  N   UNL A   1      45.599  30.361  28.337  1.00  0.00    -0.248 NA
ATOM     68  C   UNL A   1      47.482  30.943  27.154  1.00  0.00     0.031 C 
ATOM     69  C   UNL A   1      43.721  31.556  30.686  1.00  0.00     0.029 A 
ATOM     70  C   UNL A   1      43.495  31.755  29.336  1.00  0.00     0.049 A 
ATOM     71  H   UNL A   1      41.788  31.320  28.184  1.00  0.00     0.167 HD
ATOM     72  C   UNL A   1      45.435  31.673  27.971  1.00  0.00     0.074 A 
ATOM     73  C   UNL A   1      46.650  31.997  27.248  1.00  0.00     0.031 C 
ATOM     74  C   UNL A   1      44.307  32.373  28.299  1.00  0.00     0.037 A 
BRANCH  61  75
ATOM     75  C   UNL A   1      39.201  30.101  30.888  1.00  0.00     0.057 A 
ATOM     76  C   UNL A   1      39.036  29.570  32.180  1.00  0.00     0.134 A 
ATOM     77  C   UNL A   1      38.079  30.773  30.376  1.00  0.00     0.134 A 
ATOM     78  F   UNL A   1      40.040  28.974  32.833  1.00  0.00    -0.206 F 
ATOM     79  C   UNL A   1      37.814  29.606  32.863  1.00  0.00     0.040 A 
ATOM     80  C   UNL A   1      36.836  30.775  31.026  1.00  0.00     0.040 A 
ATOM     81  F   UNL A   1      38.149  31.460  29.226  1.00  0.00    -0.206 F 
ATOM     82  C   UNL A   1      36.698  30.176  32.272  1.00  0.00     0.006 A 
ENDBRANCH  61  75
BRANCH  62  83
ATOM     83  C   UNL A   1      47.711  27.603  26.996  1.00  0.00     0.057 A 
ATOM     84  C   UNL A   1      48.879  26.857  27.228  1.00  0.00     0.134 A 
ATOM     85  C   UNL A   1      46.862  27.161  25.977  1.00  0.00     0.134 A 
ATOM     86  F   UNL A   1      49.736  27.230  28.192  1.00  0.00    -0.206 F 
ATOM     87  C   UNL A   1      49.130  25.653  26.565  1.00  0.00     0.040 A 
ATOM     88  C   UNL A   1      47.111  25.961  25.299  1.00  0.00     0.040 A 
ATOM     89  F   UNL A   1      45.720  27.809  25.709  1.00  0.00    -0.206 F 
ATOM     90  C   UNL A   1      48.221  25.182  25.623  1.00  0.00     0.006 A 
ENDBRANCH  62  83
BRANCH  74  91
ATOM     91  C   UNL A   1      43.899  33.733  27.777  1.00  0.00     0.057 A 
ATOM     92  C   UNL A   1      43.849  34.900  28.550  1.00  0.00     0.134 A 
ATOM     93  C   UNL A   1      43.677  33.929  26.391  1.00  0.00     0.134 A 
ATOM     94  F   UNL A   1      44.144  34.893  29.856  1.00  0.00    -0.206 F 
ATOM     95  C   UNL A   1      43.550  36.156  28.001  1.00  0.00     0.040 A 
ATOM     96  C   UNL A   1      43.435  35.184  25.825  1.00  0.00     0.040 A 
ATOM     97  F   UNL A   1      43.713  32.914  25.516  1.00  0.00    -0.206 F 
ATOM     98  C   UNL A   1      43.355  36.305  26.633  1.00  0.00     0.006 A 
ENDBRANCH  74  91
ENDBRANCH  48  49
ENDBRANCH  40  43
ENDBRANCH  38  39
ENDBRANCH  37  38
ENDBRANCH  36  37
ENDBRANCH  35  36
ENDBRANCH   1  35
TORSDOF 18
ENDMDL
