MODEL 1
REMARK VINA RESULT:     -11.9      0.000      0.000
REMARK SMILES CCn1c(N2CCC(C(=O)NCCCCCCNC(=O)c3ccc(-c4c5nc(c(-c6c(F)cccc6F)c6ccc([nH]6)c(-c6c(F)cccc6F)c6nc(c(-c7c(F)cccc7F)c7ccc4[nH]7)C=C6)C=C5)cc3)CC2)nc2cc(C)ccc21
REMARK SMILES IDX 14 1 13 2 12 3 11 4 9 5 10 6 8 8 5 9 6 10 76 11 7 12 75 13
REMARK SMILES IDX 4 14 3 15 84 16 77 17 78 18 83 19 79 20 82 21 80 22 81 23
REMARK SMILES IDX 2 24 1 25 15 26 16 27 17 28 18 29 19 30 20 32 21 33 22 34
REMARK SMILES IDX 74 35 23 36 73 37 24 38 25 39 26 40 67 41 27 42 72 43 66 44
REMARK SMILES IDX 68 45 28 46 71 47 65 48 64 49 29 51 55 52 38 53 54 54 39 55
REMARK SMILES IDX 42 56 53 57 69 58 40 59 41 60 52 62 70 63 43 64 30 65 31 66
REMARK SMILES IDX 36 67 32 68 33 69 35 70 37 71 34 72 56 73 57 74 62 75 58 76
REMARK SMILES IDX 59 77 61 78 63 79 60 80 44 81 45 82 50 83 46 84 47 85 49 86
REMARK SMILES IDX 51 87 48 88
REMARK H PARENT 11 7 18 31 68 50 42 61
REMARK Flexibility Score: inf
ROOT
ATOM      1  C   UNL A   1      34.051  28.371  26.517  1.00  0.00     0.002 C 
ENDROOT
BRANCH   1   2
ATOM      2  C   UNL A   1      32.659  28.714  25.976  1.00  0.00     0.021 C 
BRANCH   2   3
ATOM      3  C   UNL A   1      32.627  28.970  24.472  1.00  0.00     0.116 C 
BRANCH   3   4
ATOM      4  N   UNL A   1      31.318  29.439  24.049  1.00  0.00    -0.356 N 
ATOM      5  C   UNL A   1      30.265  28.766  23.510  1.00  0.00     0.223 C 
ATOM      6  O   UNL A   1      29.266  29.415  23.190  1.00  0.00    -0.275 OA
ATOM      7  H   UNL A   1      31.167  30.404  24.174  1.00  0.00     0.163 HD
BRANCH   5   8
ATOM      8  C   UNL A   1      30.289  27.256  23.335  1.00  0.00     0.082 C 
ATOM      9  N   UNL A   1      31.679  24.802  23.789  1.00  0.00    -0.342 N 
ATOM     10  C   UNL A   1      31.646  25.299  22.423  1.00  0.00     0.120 C 
ATOM     11  C   UNL A   1      30.518  25.070  24.620  1.00  0.00     0.120 C 
ATOM     12  C   UNL A   1      31.408  26.801  22.387  1.00  0.00     0.035 C 
ATOM     13  C   UNL A   1      30.256  26.564  24.704  1.00  0.00     0.035 C 
BRANCH   9  14
ATOM     14  C   UNL A   1      32.835  24.318  24.304  1.00  0.00     0.206 A 
ATOM     15  N   UNL A   1      33.041  22.963  24.480  1.00  0.00    -0.310 N 
ATOM     16  C   UNL A   1      34.329  22.776  24.933  1.00  0.00     0.070 A 
ATOM     17  N   UNL A   1      33.930  24.993  24.583  1.00  0.00    -0.213 NA
ATOM     18  C   UNL A   1      34.856  24.061  24.994  1.00  0.00     0.091 A 
ATOM     19  C   UNL A   1      35.073  21.635  25.257  1.00  0.00     0.029 A 
ATOM     20  C   UNL A   1      36.187  24.232  25.419  1.00  0.00     0.034 A 
ATOM     21  C   UNL A   1      36.393  21.825  25.674  1.00  0.00     0.006 A 
ATOM     22  C   UNL A   1      36.957  23.104  25.761  1.00  0.00    -0.049 A 
ATOM     23  C   UNL A   1      38.377  23.276  26.218  1.00  0.00     0.044 C 
BRANCH  15  24
ATOM     24  C   UNL A   1      32.139  21.892  24.106  1.00  0.00     0.122 C 
ATOM     25  C   UNL A   1      32.210  21.566  22.624  1.00  0.00     0.028 C 
ENDBRANCH  15  24
ENDBRANCH   9  14
ENDBRANCH   5   8
ENDBRANCH   3   4
ENDBRANCH   2   3
ENDBRANCH   1   2
BRANCH   1  26
ATOM     26  C   UNL A   1      34.721  29.485  27.326  1.00  0.00     0.002 C 
BRANCH  26  27
ATOM     27  C   UNL A   1      33.866  30.737  27.552  1.00  0.00     0.021 C 
BRANCH  27  28
ATOM     28  C   UNL A   1      34.645  31.961  28.040  1.00  0.00     0.116 C 
BRANCH  28  29
ATOM     29  N   UNL A   1      34.497  32.210  29.460  1.00  0.00    -0.352 N 
ATOM     30  C   UNL A   1      35.250  31.951  30.570  1.00  0.00     0.251 C 
ATOM     31  H   UNL A   1      33.655  32.674  29.675  1.00  0.00     0.163 HD
ATOM     32  O   UNL A   1      34.806  32.382  31.639  1.00  0.00    -0.269 OA
BRANCH  30  33
ATOM     33  C   UNL A   1      36.519  31.171  30.589  1.00  0.00     0.039 A 
ATOM     34  C   UNL A   1      37.803  31.709  30.525  1.00  0.00     0.014 A 
ATOM     35  C   UNL A   1      36.388  29.770  30.645  1.00  0.00     0.014 A 
ATOM     36  C   UNL A   1      38.914  30.877  30.446  1.00  0.00     0.010 A 
ATOM     37  C   UNL A   1      37.499  28.930  30.592  1.00  0.00     0.010 A 
ATOM     38  C   UNL A   1      38.766  29.486  30.457  1.00  0.00    -0.014 A 
BRANCH  38  39
ATOM     39  C   UNL A   1      39.991  28.691  30.410  1.00  0.00     0.031 A 
ATOM     40  C   UNL A   1      40.729  28.590  31.697  1.00  0.00     0.074 A 
ATOM     41  C   UNL A   1      40.443  28.025  29.327  1.00  0.00     0.049 A 
ATOM     42  N   UNL A   1      41.899  29.062  31.981  1.00  0.00    -0.248 NA
ATOM     43  C   UNL A   1      40.046  27.954  32.834  1.00  0.00     0.031 C 
ATOM     44  C   UNL A   1      39.710  27.745  28.091  1.00  0.00     0.029 A 
ATOM     45  N   UNL A   1      41.640  27.385  29.138  1.00  0.00    -0.354 N 
ATOM     46  C   UNL A   1      42.192  28.609  33.265  1.00  0.00     0.074 A 
ATOM     47  C   UNL A   1      40.972  28.053  33.789  1.00  0.00     0.031 C 
ATOM     48  C   UNL A   1      40.389  26.824  27.373  1.00  0.00     0.029 A 
ATOM     49  C   UNL A   1      41.670  26.575  28.014  1.00  0.00     0.049 A 
ATOM     50  H   UNL A   1      42.408  27.491  29.744  1.00  0.00     0.167 HD
ATOM     51  C   UNL A   1      43.481  28.495  33.686  1.00  0.00     0.037 A 
ATOM     52  C   UNL A   1      42.657  25.737  27.621  1.00  0.00     0.037 A 
ATOM     53  C   UNL A   1      44.385  29.224  32.838  1.00  0.00     0.049 A 
ATOM     54  C   UNL A   1      43.937  26.162  28.225  1.00  0.00     0.074 A 
ATOM     55  C   UNL A   1      44.868  30.507  32.711  1.00  0.00     0.029 A 
ATOM     56  N   UNL A   1      44.746  28.542  31.712  1.00  0.00    -0.354 N 
ATOM     57  N   UNL A   1      44.566  27.257  27.900  1.00  0.00    -0.248 NA
ATOM     58  C   UNL A   1      44.440  25.484  29.416  1.00  0.00     0.031 C 
ATOM     59  C   UNL A   1      45.446  30.598  31.407  1.00  0.00     0.029 A 
ATOM     60  C   UNL A   1      45.303  29.367  30.775  1.00  0.00     0.049 A 
ATOM     61  H   UNL A   1      44.619  27.574  31.589  1.00  0.00     0.167 HD
ATOM     62  C   UNL A   1      45.234  27.617  29.050  1.00  0.00     0.074 A 
ATOM     63  C   UNL A   1      45.282  26.416  29.871  1.00  0.00     0.031 C 
ATOM     64  C   UNL A   1      45.366  28.927  29.402  1.00  0.00     0.037 A 
BRANCH  51  65
ATOM     65  C   UNL A   1      44.011  27.348  34.525  1.00  0.00     0.057 A 
ATOM     66  C   UNL A   1      44.243  27.424  35.913  1.00  0.00     0.134 A 
ATOM     67  C   UNL A   1      43.941  26.038  34.007  1.00  0.00     0.134 A 
ATOM     68  F   UNL A   1      44.271  28.587  36.574  1.00  0.00    -0.206 F 
ATOM     69  C   UNL A   1      44.353  26.291  36.728  1.00  0.00     0.040 A 
ATOM     70  C   UNL A   1      44.001  24.899  34.821  1.00  0.00     0.040 A 
ATOM     71  F   UNL A   1      43.725  25.825  32.700  1.00  0.00    -0.206 F 
ATOM     72  C   UNL A   1      44.195  25.025  36.189  1.00  0.00     0.006 A 
ENDBRANCH  51  65
BRANCH  52  73
ATOM     73  C   UNL A   1      42.537  24.484  26.851  1.00  0.00     0.057 A 
ATOM     74  C   UNL A   1      42.165  23.286  27.484  1.00  0.00     0.134 A 
ATOM     75  C   UNL A   1      43.023  24.372  25.543  1.00  0.00     0.134 A 
ATOM     76  F   UNL A   1      41.758  23.280  28.762  1.00  0.00    -0.206 F 
ATOM     77  C   UNL A   1      42.281  22.044  26.856  1.00  0.00     0.040 A 
ATOM     78  C   UNL A   1      43.150  23.133  24.905  1.00  0.00     0.040 A 
ATOM     79  F   UNL A   1      43.439  25.458  24.875  1.00  0.00    -0.206 F 
ATOM     80  C   UNL A   1      42.788  21.963  25.565  1.00  0.00     0.006 A 
ENDBRANCH  52  73
BRANCH  64  81
ATOM     81  C   UNL A   1      45.350  29.940  28.307  1.00  0.00     0.057 A 
ATOM     82  C   UNL A   1      46.562  30.290  27.704  1.00  0.00     0.134 A 
ATOM     83  C   UNL A   1      44.195  30.590  27.855  1.00  0.00     0.134 A 
ATOM     84  F   UNL A   1      47.712  29.734  28.119  1.00  0.00    -0.206 F 
ATOM     85  C   UNL A   1      46.627  31.232  26.677  1.00  0.00     0.040 A 
ATOM     86  C   UNL A   1      44.242  31.512  26.806  1.00  0.00     0.040 A 
ATOM     87  F   UNL A   1      43.005  30.369  28.430  1.00  0.00    -0.206 F 
ATOM     88  C   UNL A   1      45.461  31.836  26.214  1.00  0.00     0.006 A 
ENDBRANCH  64  81
ENDBRANCH  38  39
ENDBRANCH  30  33
ENDBRANCH  28  29
ENDBRANCH  27  28
ENDBRANCH  26  27
ENDBRANCH   1  26
TORSDOF 15
ENDMDL
MODEL 2
REMARK VINA RESULT:     -11.8      2.992      8.107
REMARK SMILES CCn1c(N2CCC(C(=O)NCCCCCCNC(=O)c3ccc(-c4c5nc(c(-c6c(F)cccc6F)c6ccc([nH]6)c(-c6c(F)cccc6F)c6nc(c(-c7c(F)cccc7F)c7ccc4[nH]7)C=C6)C=C5)cc3)CC2)nc2cc(C)ccc21
REMARK SMILES IDX 14 1 13 2 12 3 11 4 9 5 10 6 8 8 5 9 6 10 76 11 7 12 75 13
REMARK SMILES IDX 4 14 3 15 84 16 77 17 78 18 83 19 79 20 82 21 80 22 81 23
REMARK SMILES IDX 2 24 1 25 15 26 16 27 17 28 18 29 19 30 20 32 21 33 22 34
REMARK SMILES IDX 74 35 23 36 73 37 24 38 25 39 26 40 67 41 27 42 72 43 66 44
REMARK SMILES IDX 68 45 28 46 71 47 65 48 64 49 29 51 55 52 38 53 54 54 39 55
REMARK SMILES IDX 42 56 53 57 69 58 40 59 41 60 52 62 70 63 43 64 30 65 31 66
REMARK SMILES IDX 36 67 32 68 33 69 35 70 37 71 34 72 56 73 57 74 62 75 58 76
REMARK SMILES IDX 59 77 61 78 63 79 60 80 44 81 45 82 50 83 46 84 47 85 49 86
REMARK SMILES IDX 51 87 48 88
REMARK H PARENT 11 7 18 31 68 50 42 61
REMARK Flexibility Score: inf
ROOT
ATOM      1  C   UNL A   1      36.785  23.224  25.625  1.00  0.00     0.002 C 
ENDROOT
BRANCH   1   2
ATOM      2  C   UNL A   1      36.133  21.838  25.619  1.00  0.00     0.021 C 
BRANCH   2   3
ATOM      3  C   UNL A   1      34.780  21.788  26.321  1.00  0.00     0.116 C 
BRANCH   3   4
ATOM      4  N   UNL A   1      34.108  20.523  26.072  1.00  0.00    -0.356 N 
ATOM      5  C   UNL A   1      32.939  20.251  25.431  1.00  0.00     0.223 C 
ATOM      6  O   UNL A   1      32.558  19.078  25.396  1.00  0.00    -0.275 OA
ATOM      7  H   UNL A   1      34.576  19.733  26.426  1.00  0.00     0.163 HD
BRANCH   5   8
ATOM      8  C   UNL A   1      32.133  21.341  24.743  1.00  0.00     0.082 C 
ATOM      9  N   UNL A   1      31.747  24.138  24.308  1.00  0.00    -0.342 N 
ATOM     10  C   UNL A   1      30.759  23.454  25.127  1.00  0.00     0.120 C 
ATOM     11  C   UNL A   1      32.356  23.377  23.230  1.00  0.00     0.120 C 
ATOM     12  C   UNL A   1      31.332  22.187  25.743  1.00  0.00     0.035 C 
ATOM     13  C   UNL A   1      33.026  22.126  23.773  1.00  0.00     0.035 C 
BRANCH   9  14
ATOM     14  C   UNL A   1      32.224  25.346  24.693  1.00  0.00     0.206 A 
ATOM     15  N   UNL A   1      31.749  26.523  24.147  1.00  0.00    -0.310 N 
ATOM     16  C   UNL A   1      32.355  27.577  24.795  1.00  0.00     0.070 A 
ATOM     17  N   UNL A   1      33.065  25.597  25.674  1.00  0.00    -0.213 NA
ATOM     18  C   UNL A   1      33.176  26.969  25.737  1.00  0.00     0.091 A 
ATOM     19  C   UNL A   1      32.242  28.967  24.671  1.00  0.00     0.029 A 
ATOM     20  C   UNL A   1      33.947  27.777  26.593  1.00  0.00     0.034 A 
ATOM     21  C   UNL A   1      33.014  29.753  25.532  1.00  0.00     0.006 A 
ATOM     22  C   UNL A   1      33.864  29.179  26.486  1.00  0.00    -0.049 A 
ATOM     23  C   UNL A   1      34.684  30.050  27.392  1.00  0.00     0.044 C 
BRANCH  15  24
ATOM     24  C   UNL A   1      30.680  26.660  23.177  1.00  0.00     0.122 C 
ATOM     25  C   UNL A   1      29.314  26.765  23.834  1.00  0.00     0.028 C 
ENDBRANCH  15  24
ENDBRANCH   9  14
ENDBRANCH   5   8
ENDBRANCH   3   4
ENDBRANCH   2   3
ENDBRANCH   1   2
BRANCH   1  26
ATOM     26  C   UNL A   1      38.240  23.250  26.103  1.00  0.00     0.002 C 
BRANCH  26  27
ATOM     27  C   UNL A   1      38.963  21.899  26.078  1.00  0.00     0.021 C 
BRANCH  27  28
ATOM     28  C   UNL A   1      40.337  21.900  26.752  1.00  0.00     0.116 C 
BRANCH  28  29
ATOM     29  N   UNL A   1      41.424  22.207  25.844  1.00  0.00    -0.352 N 
ATOM     30  C   UNL A   1      42.245  23.281  25.649  1.00  0.00     0.251 C 
ATOM     31  H   UNL A   1      41.614  21.469  25.220  1.00  0.00     0.163 HD
ATOM     32  O   UNL A   1      43.121  23.146  24.788  1.00  0.00    -0.269 OA
BRANCH  30  33
ATOM     33  C   UNL A   1      42.139  24.588  26.356  1.00  0.00     0.039 A 
ATOM     34  C   UNL A   1      42.673  24.878  27.609  1.00  0.00     0.014 A 
ATOM     35  C   UNL A   1      41.404  25.594  25.698  1.00  0.00     0.014 A 
ATOM     36  C   UNL A   1      42.423  26.103  28.219  1.00  0.00     0.010 A 
ATOM     37  C   UNL A   1      41.171  26.834  26.291  1.00  0.00     0.010 A 
ATOM     38  C   UNL A   1      41.654  27.076  27.572  1.00  0.00    -0.014 A 
BRANCH  38  39
ATOM     39  C   UNL A   1      41.476  28.348  28.270  1.00  0.00     0.031 A 
ATOM     40  C   UNL A   1      42.589  29.320  28.106  1.00  0.00     0.074 A 
ATOM     41  C   UNL A   1      40.383  28.697  28.979  1.00  0.00     0.049 A 
ATOM     42  N   UNL A   1      43.401  29.758  29.011  1.00  0.00    -0.248 NA
ATOM     43  C   UNL A   1      42.884  29.805  26.749  1.00  0.00     0.031 C 
ATOM     44  C   UNL A   1      39.083  28.023  28.991  1.00  0.00     0.029 A 
ATOM     45  N   UNL A   1      40.182  29.788  29.785  1.00  0.00    -0.354 N 
ATOM     46  C   UNL A   1      44.181  30.729  28.386  1.00  0.00     0.074 A 
ATOM     47  C   UNL A   1      43.916  30.619  26.975  1.00  0.00     0.031 C 
ATOM     48  C   UNL A   1      38.174  28.824  29.590  1.00  0.00     0.029 A 
ATOM     49  C   UNL A   1      38.858  29.983  30.143  1.00  0.00     0.049 A 
ATOM     50  H   UNL A   1      40.912  30.378  30.083  1.00  0.00     0.167 HD
ATOM     51  C   UNL A   1      44.780  31.714  29.111  1.00  0.00     0.037 A 
ATOM     52  C   UNL A   1      38.328  31.021  30.830  1.00  0.00     0.037 A 
ATOM     53  C   UNL A   1      44.818  31.396  30.513  1.00  0.00     0.049 A 
ATOM     54  C   UNL A   1      39.384  31.674  31.632  1.00  0.00     0.074 A 
ATOM     55  C   UNL A   1      45.617  30.695  31.387  1.00  0.00     0.029 A 
ATOM     56  N   UNL A   1      43.658  31.688  31.169  1.00  0.00    -0.354 N 
ATOM     57  N   UNL A   1      39.961  31.123  32.662  1.00  0.00    -0.248 NA
ATOM     58  C   UNL A   1      40.017  32.896  31.142  1.00  0.00     0.031 C 
ATOM     59  C   UNL A   1      44.841  30.486  32.570  1.00  0.00     0.029 A 
ATOM     60  C   UNL A   1      43.591  31.067  32.385  1.00  0.00     0.049 A 
ATOM     61  H   UNL A   1      42.954  32.275  30.810  1.00  0.00     0.167 HD
ATOM     62  C   UNL A   1      41.226  31.669  32.674  1.00  0.00     0.074 A 
ATOM     63  C   UNL A   1      41.144  32.872  31.859  1.00  0.00     0.031 C 
ATOM     64  C   UNL A   1      42.308  30.921  33.029  1.00  0.00     0.037 A 
BRANCH  51  65
ATOM     65  C   UNL A   1      44.874  33.163  28.674  1.00  0.00     0.057 A 
ATOM     66  C   UNL A   1      46.029  33.748  28.117  1.00  0.00     0.134 A 
ATOM     67  C   UNL A   1      43.683  33.889  28.467  1.00  0.00     0.134 A 
ATOM     68  F   UNL A   1      47.228  33.157  28.165  1.00  0.00    -0.206 F 
ATOM     69  C   UNL A   1      45.996  34.936  27.377  1.00  0.00     0.040 A 
ATOM     70  C   UNL A   1      43.633  35.052  27.687  1.00  0.00     0.040 A 
ATOM     71  F   UNL A   1      42.512  33.442  28.947  1.00  0.00    -0.206 F 
ATOM     72  C   UNL A   1      44.792  35.572  27.128  1.00  0.00     0.006 A 
ENDBRANCH  51  65
BRANCH  52  73
ATOM     73  C   UNL A   1      36.966  31.581  30.731  1.00  0.00     0.057 A 
ATOM     74  C   UNL A   1      36.580  32.333  29.608  1.00  0.00     0.134 A 
ATOM     75  C   UNL A   1      36.099  31.613  31.830  1.00  0.00     0.134 A 
ATOM     76  F   UNL A   1      37.379  32.426  28.534  1.00  0.00    -0.206 F 
ATOM     77  C   UNL A   1      35.404  33.084  29.582  1.00  0.00     0.040 A 
ATOM     78  C   UNL A   1      34.920  32.367  31.819  1.00  0.00     0.040 A 
ATOM     79  F   UNL A   1      36.405  30.958  32.959  1.00  0.00    -0.206 F 
ATOM     80  C   UNL A   1      34.574  33.114  30.697  1.00  0.00     0.006 A 
ENDBRANCH  52  73
BRANCH  64  81
ATOM     81  C   UNL A   1      42.080  29.773  33.954  1.00  0.00     0.057 A 
ATOM     82  C   UNL A   1      41.863  28.506  33.402  1.00  0.00     0.134 A 
ATOM     83  C   UNL A   1      42.040  29.883  35.349  1.00  0.00     0.134 A 
ATOM     84  F   UNL A   1      41.848  28.340  32.070  1.00  0.00    -0.206 F 
ATOM     85  C   UNL A   1      41.639  27.385  34.202  1.00  0.00     0.040 A 
ATOM     86  C   UNL A   1      41.848  28.763  36.162  1.00  0.00     0.040 A 
ATOM     87  F   UNL A   1      42.161  31.072  35.955  1.00  0.00    -0.206 F 
ATOM     88  C   UNL A   1      41.646  27.510  35.589  1.00  0.00     0.006 A 
ENDBRANCH  64  81
ENDBRANCH  38  39
ENDBRANCH  30  33
ENDBRANCH  28  29
ENDBRANCH  27  28
ENDBRANCH  26  27
ENDBRANCH   1  26
TORSDOF 15
ENDMDL
MODEL 3
REMARK VINA RESULT:     -11.7      2.025      6.149
REMARK SMILES CCn1c(N2CCC(C(=O)NCCCCCCNC(=O)c3ccc(-c4c5nc(c(-c6c(F)cccc6F)c6ccc([nH]6)c(-c6c(F)cccc6F)c6nc(c(-c7c(F)cccc7F)c7ccc4[nH]7)C=C6)C=C5)cc3)CC2)nc2cc(C)ccc21
REMARK SMILES IDX 14 1 13 2 12 3 11 4 9 5 10 6 8 8 5 9 6 10 76 11 7 12 75 13
REMARK SMILES IDX 4 14 3 15 84 16 77 17 78 18 83 19 79 20 82 21 80 22 81 23
REMARK SMILES IDX 2 24 1 25 15 26 16 27 17 28 18 29 19 30 20 32 21 33 22 34
REMARK SMILES IDX 74 35 23 36 73 37 24 38 25 39 26 40 67 41 27 42 72 43 66 44
REMARK SMILES IDX 68 45 28 46 71 47 65 48 64 49 29 51 55 52 38 53 54 54 39 55
REMARK SMILES IDX 42 56 53 57 69 58 40 59 41 60 52 62 70 63 43 64 30 65 31 66
REMARK SMILES IDX 36 67 32 68 33 69 35 70 37 71 34 72 56 73 57 74 62 75 58 76
REMARK SMILES IDX 59 77 61 78 63 79 60 80 44 81 45 82 50 83 46 84 47 85 49 86
REMARK SMILES IDX 51 87 48 88
REMARK H PARENT 11 7 18 31 68 50 42 61
REMARK Flexibility Score: inf
ROOT
ATOM      1  C   UNL A   1      31.278  29.294  25.433  1.00  0.00     0.002 C 
ENDROOT
BRANCH   1   2
ATOM      2  C   UNL A   1      30.773  29.983  24.161  1.00  0.00     0.021 C 
BRANCH   2   3
ATOM      3  C   UNL A   1      30.790  29.087  22.926  1.00  0.00     0.116 C 
BRANCH   3   4
ATOM      4  N   UNL A   1      32.130  28.983  22.374  1.00  0.00    -0.356 N 
ATOM      5  C   UNL A   1      32.980  27.922  22.303  1.00  0.00     0.223 C 
ATOM      6  O   UNL A   1      34.099  28.110  21.819  1.00  0.00    -0.275 OA
ATOM      7  H   UNL A   1      32.481  29.817  21.987  1.00  0.00     0.163 HD
BRANCH   5   8
ATOM      8  C   UNL A   1      32.566  26.534  22.766  1.00  0.00     0.082 C 
ATOM      9  N   UNL A   1      33.357  24.050  23.930  1.00  0.00    -0.342 N 
ATOM     10  C   UNL A   1      33.037  24.042  22.512  1.00  0.00     0.120 C 
ATOM     11  C   UNL A   1      32.613  24.970  24.773  1.00  0.00     0.120 C 
ATOM     12  C   UNL A   1      33.188  25.427  21.903  1.00  0.00     0.035 C 
ATOM     13  C   UNL A   1      32.777  26.397  24.279  1.00  0.00     0.035 C 
BRANCH   9  14
ATOM     14  C   UNL A   1      34.453  23.390  24.380  1.00  0.00     0.206 A 
ATOM     15  N   UNL A   1      34.515  22.010  24.396  1.00  0.00    -0.310 N 
ATOM     16  C   UNL A   1      35.772  21.638  24.816  1.00  0.00     0.070 A 
ATOM     17  N   UNL A   1      35.610  23.910  24.728  1.00  0.00    -0.213 NA
ATOM     18  C   UNL A   1      36.431  22.844  25.023  1.00  0.00     0.091 A 
ATOM     19  C   UNL A   1      36.390  20.395  25.001  1.00  0.00     0.029 A 
ATOM     20  C   UNL A   1      37.770  22.825  25.456  1.00  0.00     0.034 A 
ATOM     21  C   UNL A   1      37.721  20.396  25.430  1.00  0.00     0.006 A 
ATOM     22  C   UNL A   1      38.415  21.590  25.661  1.00  0.00    -0.049 A 
ATOM     23  C   UNL A   1      39.842  21.557  26.126  1.00  0.00     0.044 C 
BRANCH  15  24
ATOM     24  C   UNL A   1      33.507  21.090  23.906  1.00  0.00     0.122 C 
ATOM     25  C   UNL A   1      32.502  20.710  24.980  1.00  0.00     0.028 C 
ENDBRANCH  15  24
ENDBRANCH   9  14
ENDBRANCH   5   8
ENDBRANCH   3   4
ENDBRANCH   2   3
ENDBRANCH   1   2
BRANCH   1  26
ATOM     26  C   UNL A   1      32.704  29.670  25.848  1.00  0.00     0.002 C 
BRANCH  26  27
ATOM     27  C   UNL A   1      33.378  28.703  26.828  1.00  0.00     0.021 C 
BRANCH  27  28
ATOM     28  C   UNL A   1      34.847  29.018  27.122  1.00  0.00     0.116 C 
BRANCH  28  29
ATOM     29  N   UNL A   1      35.041  29.766  28.348  1.00  0.00    -0.352 N 
ATOM     30  C   UNL A   1      36.107  30.033  29.159  1.00  0.00     0.251 C 
ATOM     31  H   UNL A   1      34.208  30.179  28.674  1.00  0.00     0.163 HD
ATOM     32  O   UNL A   1      35.888  30.783  30.115  1.00  0.00    -0.269 OA
BRANCH  30  33
ATOM     33  C   UNL A   1      37.476  29.467  28.998  1.00  0.00     0.039 A 
ATOM     34  C   UNL A   1      38.134  28.660  29.924  1.00  0.00     0.014 A 
ATOM     35  C   UNL A   1      38.159  29.815  27.817  1.00  0.00     0.014 A 
ATOM     36  C   UNL A   1      39.453  28.274  29.714  1.00  0.00     0.010 A 
ATOM     37  C   UNL A   1      39.473  29.410  27.587  1.00  0.00     0.010 A 
ATOM     38  C   UNL A   1      40.134  28.664  28.556  1.00  0.00    -0.014 A 
BRANCH  38  39
ATOM     39  C   UNL A   1      41.503  28.179  28.400  1.00  0.00     0.031 A 
ATOM     40  C   UNL A   1      41.637  26.884  27.683  1.00  0.00     0.074 A 
ATOM     41  C   UNL A   1      42.610  28.837  28.802  1.00  0.00     0.049 A 
ATOM     42  N   UNL A   1      42.053  25.754  28.155  1.00  0.00    -0.248 NA
ATOM     43  C   UNL A   1      41.175  26.818  26.289  1.00  0.00     0.031 C 
ATOM     44  C   UNL A   1      42.703  30.236  29.227  1.00  0.00     0.029 A 
ATOM     45  N   UNL A   1      43.911  28.408  28.840  1.00  0.00    -0.354 N 
ATOM     46  C   UNL A   1      42.102  24.882  27.069  1.00  0.00     0.074 A 
ATOM     47  C   UNL A   1      41.427  25.544  25.984  1.00  0.00     0.031 C 
ATOM     48  C   UNL A   1      44.004  30.598  29.277  1.00  0.00     0.029 A 
ATOM     49  C   UNL A   1      44.830  29.423  29.049  1.00  0.00     0.049 A 
ATOM     50  H   UNL A   1      44.169  27.464  28.729  1.00  0.00     0.167 HD
ATOM     51  C   UNL A   1      42.925  23.798  27.084  1.00  0.00     0.037 A 
ATOM     52  C   UNL A   1      46.181  29.338  29.026  1.00  0.00     0.037 A 
ATOM     53  C   UNL A   1      43.384  23.494  28.413  1.00  0.00     0.049 A 
ATOM     54  C   UNL A   1      46.593  27.943  29.284  1.00  0.00     0.074 A 
ATOM     55  C   UNL A   1      42.950  22.790  29.514  1.00  0.00     0.029 A 
ATOM     56  N   UNL A   1      44.451  24.246  28.806  1.00  0.00    -0.354 N 
ATOM     57  N   UNL A   1      46.449  27.342  30.431  1.00  0.00    -0.248 NA
ATOM     58  C   UNL A   1      46.962  27.076  28.168  1.00  0.00     0.031 C 
ATOM     59  C   UNL A   1      43.743  23.234  30.618  1.00  0.00     0.029 A 
ATOM     60  C   UNL A   1      44.639  24.194  30.160  1.00  0.00     0.049 A 
ATOM     61  H   UNL A   1      45.018  24.764  28.191  1.00  0.00     0.167 HD
ATOM     62  C   UNL A   1      46.290  26.014  30.100  1.00  0.00     0.074 A 
ATOM     63  C   UNL A   1      46.801  25.882  28.744  1.00  0.00     0.031 C 
ATOM     64  C   UNL A   1      45.433  25.216  30.798  1.00  0.00     0.037 A 
BRANCH  51  65
ATOM     65  C   UNL A   1      43.730  23.316  25.892  1.00  0.00     0.057 A 
ATOM     66  C   UNL A   1      44.664  24.109  25.196  1.00  0.00     0.134 A 
ATOM     67  C   UNL A   1      43.844  21.929  25.665  1.00  0.00     0.134 A 
ATOM     68  F   UNL A   1      44.736  25.436  25.350  1.00  0.00    -0.206 F 
ATOM     69  C   UNL A   1      45.659  23.565  24.374  1.00  0.00     0.040 A 
ATOM     70  C   UNL A   1      44.866  21.373  24.884  1.00  0.00     0.040 A 
ATOM     71  F   UNL A   1      43.015  21.062  26.266  1.00  0.00    -0.206 F 
ATOM     72  C   UNL A   1      45.786  22.192  24.246  1.00  0.00     0.006 A 
ENDBRANCH  51  65
BRANCH  52  73
ATOM     73  C   UNL A   1      47.154  30.382  28.652  1.00  0.00     0.057 A 
ATOM     74  C   UNL A   1      47.213  30.869  27.334  1.00  0.00     0.134 A 
ATOM     75  C   UNL A   1      48.209  30.745  29.497  1.00  0.00     0.134 A 
ATOM     76  F   UNL A   1      46.290  30.515  26.428  1.00  0.00    -0.206 F 
ATOM     77  C   UNL A   1      48.269  31.662  26.879  1.00  0.00     0.040 A 
ATOM     78  C   UNL A   1      49.276  31.534  29.052  1.00  0.00     0.040 A 
ATOM     79  F   UNL A   1      48.257  30.295  30.759  1.00  0.00    -0.206 F 
ATOM     80  C   UNL A   1      49.313  31.987  27.736  1.00  0.00     0.006 A 
ENDBRANCH  52  73
BRANCH  64  81
ATOM     81  C   UNL A   1      45.157  25.577  32.218  1.00  0.00     0.057 A 
ATOM     82  C   UNL A   1      44.049  26.383  32.499  1.00  0.00     0.134 A 
ATOM     83  C   UNL A   1      45.954  25.182  33.299  1.00  0.00     0.134 A 
ATOM     84  F   UNL A   1      43.266  26.831  31.503  1.00  0.00    -0.206 F 
ATOM     85  C   UNL A   1      43.729  26.765  33.802  1.00  0.00     0.040 A 
ATOM     86  C   UNL A   1      45.627  25.531  34.612  1.00  0.00     0.040 A 
ATOM     87  F   UNL A   1      47.076  24.473  33.110  1.00  0.00    -0.206 F 
ATOM     88  C   UNL A   1      44.512  26.326  34.866  1.00  0.00     0.006 A 
ENDBRANCH  64  81
ENDBRANCH  38  39
ENDBRANCH  30  33
ENDBRANCH  28  29
ENDBRANCH  27  28
ENDBRANCH  26  27
ENDBRANCH   1  26
TORSDOF 15
ENDMDL
