MODEL 1
REMARK VINA RESULT:     -11.3      0.000      0.000
REMARK SMILES CC[NH2+][C@@]1(C(=O)NCCCCCCNC(=O)c2ccc(-c3c4nc(c(-c5c(F)cccc5F)c5ccc([nH]5)c(-c5c(F)cccc5F)c5nc(c(-c6c(F)cccc6F)c6ccc3[nH]6)C=C5)C=C4)cc2)CC[C@H](Oc2ccc3c(c2)OCO3)C1
REMARK SMILES IDX 10 1 9 2 8 3 7 4 5 5 6 6 4 8 71 9 84 10 72 11 73 12 3 13
REMARK SMILES IDX 2 16 1 17 74 18 75 19 76 20 80 21 77 22 79 23 78 24 81 25
REMARK SMILES IDX 83 26 82 27 11 28 12 29 13 30 14 31 15 32 16 34 17 35 18 36
REMARK SMILES IDX 70 37 19 38 69 39 20 40 21 41 22 42 63 43 23 44 68 45 62 46
REMARK SMILES IDX 64 47 24 48 67 49 61 50 60 51 25 53 51 54 34 55 50 56 35 57
REMARK SMILES IDX 38 58 49 59 65 60 36 61 37 62 48 64 66 65 39 66 26 67 27 68
REMARK SMILES IDX 32 69 28 70 29 71 31 72 33 73 30 74 52 75 53 76 58 77 54 78
REMARK SMILES IDX 55 79 57 80 59 81 56 82 40 83 41 84 46 85 42 86 43 87 45 88
REMARK SMILES IDX 47 89 44 90
REMARK H PARENT 7 7 3 14 3 15 14 33 64 52 38 63
REMARK Flexibility Score: inf
ROOT
ATOM      1  C   UNL A   1      36.020  22.175  24.515  1.00  0.00     0.002 C 
ENDROOT
BRANCH   1   2
ATOM      2  C   UNL A   1      34.934  23.033  25.162  1.00  0.00     0.021 C 
BRANCH   2   3
ATOM      3  C   UNL A   1      34.896  24.503  24.760  1.00  0.00     0.116 C 
BRANCH   3   4
ATOM      4  N   UNL A   1      34.384  24.717  23.428  1.00  0.00    -0.351 N 
ATOM      5  C   UNL A   1      33.501  25.626  22.922  1.00  0.00     0.281 C 
ATOM      6  O   UNL A   1      33.259  25.474  21.718  1.00  0.00    -0.268 OA
ATOM      7  H   UNL A   1      34.738  24.089  22.758  1.00  0.00     0.163 HD
BRANCH   5   8
ATOM      8  C   UNL A   1      32.816  26.768  23.790  1.00  0.00     0.179 C 
ATOM      9  C   UNL A   1      31.992  26.261  25.003  1.00  0.00     0.083 C 
ATOM     10  C   UNL A   1      31.811  27.560  22.909  1.00  0.00     0.124 C 
ATOM     11  C   UNL A   1      30.524  26.566  24.731  1.00  0.00     0.052 C 
ATOM     12  C   UNL A   1      30.549  27.740  23.760  1.00  0.00     0.180 C 
BRANCH   8  13
ATOM     13  N   UNL A   1      33.872  27.713  24.274  1.00  0.00    -0.334 N 
ATOM     14  H   UNL A   1      34.781  27.344  23.992  1.00  0.00     0.347 HD
ATOM     15  H   UNL A   1      33.657  28.620  23.858  1.00  0.00     0.347 HD
BRANCH  13  16
ATOM     16  C   UNL A   1      33.899  27.925  25.728  1.00  0.00     0.257 C 
ATOM     17  C   UNL A   1      33.405  29.325  26.066  1.00  0.00     0.071 C 
ENDBRANCH  13  16
ENDBRANCH   8  13
BRANCH  12  18
ATOM     18  O   UNL A   1      29.360  28.039  23.018  1.00  0.00    -0.490 OA
BRANCH  18  19
ATOM     19  C   UNL A   1      29.004  29.344  22.833  1.00  0.00     0.123 A 
ATOM     20  C   UNL A   1      29.306  30.319  23.802  1.00  0.00     0.050 A 
ATOM     21  C   UNL A   1      28.502  29.725  21.586  1.00  0.00     0.097 A 
ATOM     22  C   UNL A   1      29.030  31.671  23.572  1.00  0.00     0.054 A 
ATOM     23  C   UNL A   1      28.260  31.067  21.375  1.00  0.00     0.169 A 
ATOM     24  C   UNL A   1      28.507  32.012  22.345  1.00  0.00     0.166 A 
ATOM     25  O   UNL A   1      27.758  31.616  20.236  1.00  0.00    -0.453 OA
ATOM     26  O   UNL A   1      28.179  33.266  21.941  1.00  0.00    -0.454 OA
ATOM     27  C   UNL A   1      27.679  33.003  20.612  1.00  0.00     0.468 C 
ENDBRANCH  18  19
ENDBRANCH  12  18
ENDBRANCH   5   8
ENDBRANCH   3   4
ENDBRANCH   2   3
ENDBRANCH   1   2
BRANCH   1  28
ATOM     28  C   UNL A   1      36.058  20.701  24.930  1.00  0.00     0.002 C 
BRANCH  28  29
ATOM     29  C   UNL A   1      37.384  19.951  24.739  1.00  0.00     0.021 C 
BRANCH  29  30
ATOM     30  C   UNL A   1      38.514  20.278  25.719  1.00  0.00     0.116 C 
BRANCH  30  31
ATOM     31  N   UNL A   1      39.628  19.349  25.651  1.00  0.00    -0.352 N 
ATOM     32  C   UNL A   1      40.942  19.545  26.001  1.00  0.00     0.251 C 
ATOM     33  H   UNL A   1      39.411  18.453  25.304  1.00  0.00     0.163 HD
ATOM     34  O   UNL A   1      41.768  18.650  25.818  1.00  0.00    -0.269 OA
BRANCH  32  35
ATOM     35  C   UNL A   1      41.393  20.832  26.577  1.00  0.00     0.039 A 
ATOM     36  C   UNL A   1      41.846  21.839  25.723  1.00  0.00     0.014 A 
ATOM     37  C   UNL A   1      41.426  21.038  27.958  1.00  0.00     0.014 A 
ATOM     38  C   UNL A   1      42.277  23.064  26.250  1.00  0.00     0.010 A 
ATOM     39  C   UNL A   1      41.805  22.282  28.481  1.00  0.00     0.010 A 
ATOM     40  C   UNL A   1      42.231  23.316  27.634  1.00  0.00    -0.014 A 
BRANCH  40  41
ATOM     41  C   UNL A   1      42.582  24.665  28.175  1.00  0.00     0.031 A 
ATOM     42  C   UNL A   1      41.538  25.729  28.406  1.00  0.00     0.074 A 
ATOM     43  C   UNL A   1      43.873  24.964  28.431  1.00  0.00     0.049 A 
ATOM     44  N   UNL A   1      41.688  26.950  28.864  1.00  0.00    -0.248 NA
ATOM     45  C   UNL A   1      40.150  25.391  28.060  1.00  0.00     0.031 C 
ATOM     46  C   UNL A   1      45.011  24.072  28.198  1.00  0.00     0.029 A 
ATOM     47  N   UNL A   1      44.448  26.101  28.948  1.00  0.00    -0.354 N 
ATOM     48  C   UNL A   1      40.427  27.534  28.831  1.00  0.00     0.074 A 
ATOM     49  C   UNL A   1      39.526  26.541  28.282  1.00  0.00     0.031 C 
ATOM     50  C   UNL A   1      46.135  24.675  28.611  1.00  0.00     0.029 A 
ATOM     51  C   UNL A   1      45.810  26.010  29.106  1.00  0.00     0.049 A 
ATOM     52  H   UNL A   1      43.931  26.906  29.185  1.00  0.00     0.167 HD
ATOM     53  C   UNL A   1      40.047  28.771  29.236  1.00  0.00     0.037 A 
ATOM     54  C   UNL A   1      46.703  26.891  29.597  1.00  0.00     0.037 A 
ATOM     55  C   UNL A   1      40.916  29.749  29.839  1.00  0.00     0.049 A 
ATOM     56  C   UNL A   1      46.247  28.235  30.088  1.00  0.00     0.074 A 
ATOM     57  C   UNL A   1      40.584  30.990  30.362  1.00  0.00     0.029 A 
ATOM     58  N   UNL A   1      42.283  29.601  30.007  1.00  0.00    -0.354 N 
ATOM     59  N   UNL A   1      45.039  28.737  30.119  1.00  0.00    -0.248 NA
ATOM     60  C   UNL A   1      47.284  29.134  30.621  1.00  0.00     0.031 C 
ATOM     61  C   UNL A   1      41.755  31.605  30.818  1.00  0.00     0.029 A 
ATOM     62  C   UNL A   1      42.809  30.734  30.611  1.00  0.00     0.049 A 
ATOM     63  H   UNL A   1      42.803  28.811  29.736  1.00  0.00     0.167 HD
ATOM     64  C   UNL A   1      45.164  29.994  30.694  1.00  0.00     0.074 A 
ATOM     65  C   UNL A   1      46.565  30.178  31.008  1.00  0.00     0.031 C 
ATOM     66  C   UNL A   1      44.200  30.913  30.938  1.00  0.00     0.037 A 
BRANCH  53  67
ATOM     67  C   UNL A   1      38.604  29.149  29.057  1.00  0.00     0.057 A 
ATOM     68  C   UNL A   1      37.689  29.084  30.115  1.00  0.00     0.134 A 
ATOM     69  C   UNL A   1      38.146  29.660  27.835  1.00  0.00     0.134 A 
ATOM     70  F   UNL A   1      38.065  28.604  31.309  1.00  0.00    -0.206 F 
ATOM     71  C   UNL A   1      36.364  29.493  29.959  1.00  0.00     0.040 A 
ATOM     72  C   UNL A   1      36.829  30.094  27.674  1.00  0.00     0.040 A 
ATOM     73  F   UNL A   1      38.976  29.764  26.787  1.00  0.00    -0.206 F 
ATOM     74  C   UNL A   1      35.933  30.007  28.737  1.00  0.00     0.006 A 
ENDBRANCH  53  67
BRANCH  54  75
ATOM     75  C   UNL A   1      48.135  26.515  29.685  1.00  0.00     0.057 A 
ATOM     76  C   UNL A   1      49.028  26.854  28.661  1.00  0.00     0.134 A 
ATOM     77  C   UNL A   1      48.640  25.805  30.779  1.00  0.00     0.134 A 
ATOM     78  F   UNL A   1      48.594  27.516  27.579  1.00  0.00    -0.206 F 
ATOM     79  C   UNL A   1      50.373  26.486  28.715  1.00  0.00     0.040 A 
ATOM     80  C   UNL A   1      49.988  25.449  30.856  1.00  0.00     0.040 A 
ATOM     81  F   UNL A   1      47.834  25.458  31.792  1.00  0.00    -0.206 F 
ATOM     82  C   UNL A   1      50.856  25.784  29.819  1.00  0.00     0.006 A 
ENDBRANCH  54  75
BRANCH  66  83
ATOM     83  C   UNL A   1      44.612  32.188  31.610  1.00  0.00     0.057 A 
ATOM     84  C   UNL A   1      44.682  32.300  33.005  1.00  0.00     0.134 A 
ATOM     85  C   UNL A   1      44.976  33.309  30.853  1.00  0.00     0.134 A 
ATOM     86  F   UNL A   1      44.332  31.268  33.788  1.00  0.00    -0.206 F 
ATOM     87  C   UNL A   1      45.082  33.487  33.622  1.00  0.00     0.040 A 
ATOM     88  C   UNL A   1      45.398  34.494  31.458  1.00  0.00     0.040 A 
ATOM     89  F   UNL A   1      44.936  33.266  29.513  1.00  0.00    -0.206 F 
ATOM     90  C   UNL A   1      45.447  34.587  32.847  1.00  0.00     0.006 A 
ENDBRANCH  66  83
ENDBRANCH  40  41
ENDBRANCH  32  35
ENDBRANCH  30  31
ENDBRANCH  29  30
ENDBRANCH  28  29
ENDBRANCH   1  28
TORSDOF 17
ENDMDL
MODEL 2
REMARK VINA RESULT:     -11.2      2.241      3.351
REMARK SMILES CC[NH2+][C@@]1(C(=O)NCCCCCCNC(=O)c2ccc(-c3c4nc(c(-c5c(F)cccc5F)c5ccc([nH]5)c(-c5c(F)cccc5F)c5nc(c(-c6c(F)cccc6F)c6ccc3[nH]6)C=C5)C=C4)cc2)CC[C@H](Oc2ccc3c(c2)OCO3)C1
REMARK SMILES IDX 10 1 9 2 8 3 7 4 5 5 6 6 4 8 71 9 84 10 72 11 73 12 3 13
REMARK SMILES IDX 2 16 1 17 74 18 75 19 76 20 80 21 77 22 79 23 78 24 81 25
REMARK SMILES IDX 83 26 82 27 11 28 12 29 13 30 14 31 15 32 16 34 17 35 18 36
REMARK SMILES IDX 70 37 19 38 69 39 20 40 21 41 22 42 63 43 23 44 68 45 62 46
REMARK SMILES IDX 64 47 24 48 67 49 61 50 60 51 25 53 51 54 34 55 50 56 35 57
REMARK SMILES IDX 38 58 49 59 65 60 36 61 37 62 48 64 66 65 39 66 26 67 27 68
REMARK SMILES IDX 32 69 28 70 29 71 31 72 33 73 30 74 52 75 53 76 58 77 54 78
REMARK SMILES IDX 55 79 57 80 59 81 56 82 40 83 41 84 46 85 42 86 43 87 45 88
REMARK SMILES IDX 47 89 44 90
REMARK H PARENT 7 7 3 14 3 15 14 33 64 52 38 63
REMARK Flexibility Score: inf
ROOT
ATOM      1  C   UNL A   1      37.024  21.855  24.323  1.00  0.00     0.002 C 
ENDROOT
BRANCH   1   2
ATOM      2  C   UNL A   1      37.247  23.013  25.294  1.00  0.00     0.021 C 
BRANCH   2   3
ATOM      3  C   UNL A   1      36.000  23.630  25.919  1.00  0.00     0.116 C 
BRANCH   3   4
ATOM      4  N   UNL A   1      35.271  22.713  26.762  1.00  0.00    -0.351 N 
ATOM      5  C   UNL A   1      33.998  22.227  26.699  1.00  0.00     0.281 C 
ATOM      6  O   UNL A   1      33.698  21.483  27.642  1.00  0.00    -0.268 OA
ATOM      7  H   UNL A   1      35.791  22.376  27.527  1.00  0.00     0.163 HD
BRANCH   5   8
ATOM      8  C   UNL A   1      32.971  22.591  25.542  1.00  0.00     0.179 C 
ATOM      9  C   UNL A   1      33.340  22.033  24.142  1.00  0.00     0.083 C 
ATOM     10  C   UNL A   1      32.906  24.134  25.369  1.00  0.00     0.124 C 
ATOM     11  C   UNL A   1      33.682  23.214  23.243  1.00  0.00     0.052 C 
ATOM     12  C   UNL A   1      32.939  24.393  23.858  1.00  0.00     0.180 C 
BRANCH   8  13
ATOM     13  N   UNL A   1      31.610  22.097  25.925  1.00  0.00    -0.334 N 
ATOM     14  H   UNL A   1      31.284  21.468  25.192  1.00  0.00     0.347 HD
ATOM     15  H   UNL A   1      31.716  21.642  26.832  1.00  0.00     0.347 HD
BRANCH  13  16
ATOM     16  C   UNL A   1      30.597  23.145  26.109  1.00  0.00     0.257 C 
ATOM     17  C   UNL A   1      29.661  22.781  27.253  1.00  0.00     0.071 C 
ENDBRANCH  13  16
ENDBRANCH   8  13
BRANCH  12  18
ATOM     18  O   UNL A   1      33.332  25.719  23.484  1.00  0.00    -0.490 OA
BRANCH  18  19
ATOM     19  C   UNL A   1      32.451  26.748  23.663  1.00  0.00     0.123 A 
ATOM     20  C   UNL A   1      32.540  27.586  24.789  1.00  0.00     0.050 A 
ATOM     21  C   UNL A   1      31.580  27.066  22.618  1.00  0.00     0.097 A 
ATOM     22  C   UNL A   1      31.703  28.698  24.927  1.00  0.00     0.054 A 
ATOM     23  C   UNL A   1      30.781  28.182  22.766  1.00  0.00     0.169 A 
ATOM     24  C   UNL A   1      30.834  28.969  23.893  1.00  0.00     0.166 A 
ATOM     25  O   UNL A   1      29.867  28.631  21.864  1.00  0.00    -0.453 OA
ATOM     26  O   UNL A   1      29.951  30.000  23.846  1.00  0.00    -0.454 OA
ATOM     27  C   UNL A   1      29.323  29.763  22.568  1.00  0.00     0.468 C 
ENDBRANCH  18  19
ENDBRANCH  12  18
ENDBRANCH   5   8
ENDBRANCH   3   4
ENDBRANCH   2   3
ENDBRANCH   1   2
BRANCH   1  28
ATOM     28  C   UNL A   1      36.977  20.453  24.938  1.00  0.00     0.002 C 
BRANCH  28  29
ATOM     29  C   UNL A   1      38.256  19.607  24.857  1.00  0.00     0.021 C 
BRANCH  29  30
ATOM     30  C   UNL A   1      39.299  19.818  25.956  1.00  0.00     0.116 C 
BRANCH  30  31
ATOM     31  N   UNL A   1      40.382  18.851  25.923  1.00  0.00    -0.352 N 
ATOM     32  C   UNL A   1      41.730  19.054  26.093  1.00  0.00     0.251 C 
ATOM     33  H   UNL A   1      40.112  17.920  25.753  1.00  0.00     0.163 HD
ATOM     34  O   UNL A   1      42.514  18.112  25.972  1.00  0.00    -0.269 OA
BRANCH  32  35
ATOM     35  C   UNL A   1      42.265  20.400  26.398  1.00  0.00     0.039 A 
ATOM     36  C   UNL A   1      42.850  21.148  25.375  1.00  0.00     0.014 A 
ATOM     37  C   UNL A   1      42.248  20.911  27.697  1.00  0.00     0.014 A 
ATOM     38  C   UNL A   1      43.363  22.424  25.645  1.00  0.00     0.010 A 
ATOM     39  C   UNL A   1      42.710  22.209  27.955  1.00  0.00     0.010 A 
ATOM     40  C   UNL A   1      43.270  22.988  26.931  1.00  0.00    -0.014 A 
BRANCH  40  41
ATOM     41  C   UNL A   1      43.714  24.394  27.182  1.00  0.00     0.031 A 
ATOM     42  C   UNL A   1      42.749  25.469  27.619  1.00  0.00     0.074 A 
ATOM     43  C   UNL A   1      45.004  24.731  26.977  1.00  0.00     0.049 A 
ATOM     44  N   UNL A   1      42.982  26.736  27.868  1.00  0.00    -0.248 NA
ATOM     45  C   UNL A   1      41.340  25.082  27.775  1.00  0.00     0.031 C 
ATOM     46  C   UNL A   1      46.048  23.827  26.489  1.00  0.00     0.029 A 
ATOM     47  N   UNL A   1      45.662  25.925  27.156  1.00  0.00    -0.354 N 
ATOM     48  C   UNL A   1      41.751  27.302  28.178  1.00  0.00     0.074 A 
ATOM     49  C   UNL A   1      40.768  26.245  28.059  1.00  0.00     0.031 C 
ATOM     50  C   UNL A   1      47.217  24.483  26.452  1.00  0.00     0.029 A 
ATOM     51  C   UNL A   1      47.006  25.864  26.877  1.00  0.00     0.049 A 
ATOM     52  H   UNL A   1      45.211  26.748  27.456  1.00  0.00     0.167 HD
ATOM     53  C   UNL A   1      41.464  28.575  28.547  1.00  0.00     0.037 A 
ATOM     54  C   UNL A   1      47.968  26.803  26.958  1.00  0.00     0.037 A 
ATOM     55  C   UNL A   1      42.435  29.624  28.730  1.00  0.00     0.049 A 
ATOM     56  C   UNL A   1      47.631  28.192  27.421  1.00  0.00     0.074 A 
ATOM     57  C   UNL A   1      42.230  30.915  29.194  1.00  0.00     0.029 A 
ATOM     58  N   UNL A   1      43.789  29.508  28.466  1.00  0.00    -0.354 N 
ATOM     59  N   UNL A   1      46.474  28.684  27.783  1.00  0.00    -0.248 NA
ATOM     60  C   UNL A   1      48.742  29.156  27.492  1.00  0.00     0.031 C 
ATOM     61  C   UNL A   1      43.456  31.589  29.181  1.00  0.00     0.029 A 
ATOM     62  C   UNL A   1      44.428  30.707  28.743  1.00  0.00     0.049 A 
ATOM     63  H   UNL A   1      44.231  28.696  28.130  1.00  0.00     0.167 HD
ATOM     64  C   UNL A   1      46.719  30.002  28.147  1.00  0.00     0.074 A 
ATOM     65  C   UNL A   1      48.136  30.232  27.974  1.00  0.00     0.031 C 
ATOM     66  C   UNL A   1      45.841  30.935  28.586  1.00  0.00     0.037 A 
BRANCH  53  67
ATOM     67  C   UNL A   1      40.023  28.919  28.801  1.00  0.00     0.057 A 
ATOM     68  C   UNL A   1      39.148  29.242  27.757  1.00  0.00     0.134 A 
ATOM     69  C   UNL A   1      39.489  28.847  30.094  1.00  0.00     0.134 A 
ATOM     70  F   UNL A   1      39.597  29.329  26.496  1.00  0.00    -0.206 F 
ATOM     71  C   UNL A   1      37.797  29.503  27.992  1.00  0.00     0.040 A 
ATOM     72  C   UNL A   1      38.136  29.082  30.339  1.00  0.00     0.040 A 
ATOM     73  F   UNL A   1      40.270  28.526  31.137  1.00  0.00    -0.206 F 
ATOM     74  C   UNL A   1      37.286  29.415  29.286  1.00  0.00     0.006 A 
ENDBRANCH  53  67
BRANCH  54  75
ATOM     75  C   UNL A   1      49.369  26.452  26.622  1.00  0.00     0.057 A 
ATOM     76  C   UNL A   1      49.876  26.676  25.337  1.00  0.00     0.134 A 
ATOM     77  C   UNL A   1      50.227  25.878  27.567  1.00  0.00     0.134 A 
ATOM     78  F   UNL A   1      49.091  27.204  24.385  1.00  0.00    -0.206 F 
ATOM     79  C   UNL A   1      51.183  26.328  24.997  1.00  0.00     0.040 A 
ATOM     80  C   UNL A   1      51.544  25.545  27.247  1.00  0.00     0.040 A 
ATOM     81  F   UNL A   1      49.800  25.645  28.816  1.00  0.00    -0.206 F 
ATOM     82  C   UNL A   1      52.022  25.763  25.956  1.00  0.00     0.006 A 
ENDBRANCH  54  75
BRANCH  66  83
ATOM     83  C   UNL A   1      46.388  32.283  28.948  1.00  0.00     0.057 A 
ATOM     84  C   UNL A   1      46.847  32.573  30.240  1.00  0.00     0.134 A 
ATOM     85  C   UNL A   1      46.487  33.296  27.985  1.00  0.00     0.134 A 
ATOM     86  F   UNL A   1      46.766  31.652  31.212  1.00  0.00    -0.206 F 
ATOM     87  C   UNL A   1      47.368  33.827  30.564  1.00  0.00     0.040 A 
ATOM     88  C   UNL A   1      47.026  34.546  28.292  1.00  0.00     0.040 A 
ATOM     89  F   UNL A   1      46.070  33.082  26.728  1.00  0.00    -0.206 F 
ATOM     90  C   UNL A   1      47.465  34.816  29.586  1.00  0.00     0.006 A 
ENDBRANCH  66  83
ENDBRANCH  40  41
ENDBRANCH  32  35
ENDBRANCH  30  31
ENDBRANCH  29  30
ENDBRANCH  28  29
ENDBRANCH   1  28
TORSDOF 17
ENDMDL
MODEL 3
REMARK VINA RESULT:     -11.1      4.006      9.423
REMARK SMILES CC[NH2+][C@@]1(C(=O)NCCCCCCNC(=O)c2ccc(-c3c4nc(c(-c5c(F)cccc5F)c5ccc([nH]5)c(-c5c(F)cccc5F)c5nc(c(-c6c(F)cccc6F)c6ccc3[nH]6)C=C5)C=C4)cc2)CC[C@H](Oc2ccc3c(c2)OCO3)C1
REMARK SMILES IDX 10 1 9 2 8 3 7 4 5 5 6 6 4 8 71 9 84 10 72 11 73 12 3 13
REMARK SMILES IDX 2 16 1 17 74 18 75 19 76 20 80 21 77 22 79 23 78 24 81 25
REMARK SMILES IDX 83 26 82 27 11 28 12 29 13 30 14 31 15 32 16 34 17 35 18 36
REMARK SMILES IDX 70 37 19 38 69 39 20 40 21 41 22 42 63 43 23 44 68 45 62 46
REMARK SMILES IDX 64 47 24 48 67 49 61 50 60 51 25 53 51 54 34 55 50 56 35 57
REMARK SMILES IDX 38 58 49 59 65 60 36 61 37 62 48 64 66 65 39 66 26 67 27 68
REMARK SMILES IDX 32 69 28 70 29 71 31 72 33 73 30 74 52 75 53 76 58 77 54 78
REMARK SMILES IDX 55 79 57 80 59 81 56 82 40 83 41 84 46 85 42 86 43 87 45 88
REMARK SMILES IDX 47 89 44 90
REMARK H PARENT 7 7 3 14 3 15 14 33 64 52 38 63
REMARK Flexibility Score: inf
ROOT
ATOM      1  C   UNL A   1      31.890  29.662  27.081  1.00  0.00     0.002 C 
ENDROOT
BRANCH   1   2
ATOM      2  C   UNL A   1      33.386  29.400  27.249  1.00  0.00     0.021 C 
BRANCH   2   3
ATOM      3  C   UNL A   1      34.027  28.440  26.253  1.00  0.00     0.116 C 
BRANCH   3   4
ATOM      4  N   UNL A   1      34.016  28.933  24.897  1.00  0.00    -0.351 N 
ATOM      5  C   UNL A   1      33.473  28.439  23.748  1.00  0.00     0.281 C 
ATOM      6  O   UNL A   1      33.712  29.124  22.745  1.00  0.00    -0.268 OA
ATOM      7  H   UNL A   1      34.492  29.788  24.779  1.00  0.00     0.163 HD
BRANCH   5   8
ATOM      8  C   UNL A   1      32.627  27.095  23.678  1.00  0.00     0.179 C 
ATOM      9  C   UNL A   1      31.365  27.070  24.579  1.00  0.00     0.083 C 
ATOM     10  C   UNL A   1      33.502  25.904  24.160  1.00  0.00     0.124 C 
ATOM     11  C   UNL A   1      31.593  26.039  25.677  1.00  0.00     0.052 C 
ATOM     12  C   UNL A   1      32.611  25.071  25.088  1.00  0.00     0.180 C 
BRANCH   8  13
ATOM     13  N   UNL A   1      32.223  26.845  22.258  1.00  0.00    -0.334 N 
ATOM     14  H   UNL A   1      31.267  26.489  22.259  1.00  0.00     0.347 HD
ATOM     15  H   UNL A   1      32.322  27.737  21.772  1.00  0.00     0.347 HD
BRANCH  13  16
ATOM     16  C   UNL A   1      33.066  25.887  21.530  1.00  0.00     0.257 C 
ATOM     17  C   UNL A   1      32.452  25.567  20.174  1.00  0.00     0.071 C 
ENDBRANCH  13  16
ENDBRANCH   8  13
BRANCH  12  18
ATOM     18  O   UNL A   1      33.319  24.199  25.978  1.00  0.00    -0.490 OA
BRANCH  18  19
ATOM     19  C   UNL A   1      33.605  22.926  25.573  1.00  0.00     0.123 A 
ATOM     20  C   UNL A   1      34.937  22.491  25.447  1.00  0.00     0.050 A 
ATOM     21  C   UNL A   1      32.554  22.011  25.466  1.00  0.00     0.097 A 
ATOM     22  C   UNL A   1      35.233  21.162  25.127  1.00  0.00     0.054 A 
ATOM     23  C   UNL A   1      32.873  20.701  25.173  1.00  0.00     0.169 A 
ATOM     24  C   UNL A   1      34.175  20.290  24.999  1.00  0.00     0.166 A 
ATOM     25  O   UNL A   1      31.984  19.683  25.016  1.00  0.00    -0.453 OA
ATOM     26  O   UNL A   1      34.264  18.969  24.696  1.00  0.00    -0.454 OA
ATOM     27  C   UNL A   1      32.870  18.597  24.682  1.00  0.00     0.468 C 
ENDBRANCH  18  19
ENDBRANCH  12  18
ENDBRANCH   5   8
ENDBRANCH   3   4
ENDBRANCH   2   3
ENDBRANCH   1   2
BRANCH   1  28
ATOM     28  C   UNL A   1      31.500  30.730  26.055  1.00  0.00     0.002 C 
BRANCH  28  29
ATOM     29  C   UNL A   1      31.316  32.165  26.570  1.00  0.00     0.021 C 
BRANCH  29  30
ATOM     30  C   UNL A   1      32.568  32.889  27.071  1.00  0.00     0.116 C 
BRANCH  30  31
ATOM     31  N   UNL A   1      32.292  34.188  27.660  1.00  0.00    -0.352 N 
ATOM     32  C   UNL A   1      32.985  34.861  28.637  1.00  0.00     0.251 C 
ATOM     33  H   UNL A   1      31.496  34.649  27.310  1.00  0.00     0.163 HD
ATOM     34  O   UNL A   1      32.564  35.939  29.056  1.00  0.00    -0.269 OA
BRANCH  32  35
ATOM     35  C   UNL A   1      34.226  34.298  29.215  1.00  0.00     0.039 A 
ATOM     36  C   UNL A   1      34.147  33.531  30.379  1.00  0.00     0.014 A 
ATOM     37  C   UNL A   1      35.476  34.567  28.654  1.00  0.00     0.014 A 
ATOM     38  C   UNL A   1      35.311  32.991  30.942  1.00  0.00     0.010 A 
ATOM     39  C   UNL A   1      36.633  33.980  29.186  1.00  0.00     0.010 A 
ATOM     40  C   UNL A   1      36.567  33.179  30.336  1.00  0.00    -0.014 A 
BRANCH  40  41
ATOM     41  C   UNL A   1      37.785  32.501  30.878  1.00  0.00     0.031 A 
ATOM     42  C   UNL A   1      38.449  32.957  32.154  1.00  0.00     0.074 A 
ATOM     43  C   UNL A   1      38.338  31.477  30.195  1.00  0.00     0.049 A 
ATOM     44  N   UNL A   1      39.516  32.475  32.748  1.00  0.00    -0.248 NA
ATOM     45  C   UNL A   1      37.857  34.112  32.842  1.00  0.00     0.031 C 
ATOM     46  C   UNL A   1      37.858  30.961  28.911  1.00  0.00     0.029 A 
ATOM     47  N   UNL A   1      39.422  30.683  30.484  1.00  0.00    -0.354 N 
ATOM     48  C   UNL A   1      39.740  33.284  33.856  1.00  0.00     0.074 A 
ATOM     49  C   UNL A   1      38.713  34.306  33.837  1.00  0.00     0.031 C 
ATOM     50  C   UNL A   1      38.613  29.913  28.549  1.00  0.00     0.029 A 
ATOM     51  C   UNL A   1      39.653  29.701  29.552  1.00  0.00     0.049 A 
ATOM     52  H   UNL A   1      39.980  30.807  31.286  1.00  0.00     0.167 HD
ATOM     53  C   UNL A   1      40.697  33.179  34.812  1.00  0.00     0.037 A 
ATOM     54  C   UNL A   1      40.587  28.732  29.503  1.00  0.00     0.037 A 
ATOM     55  C   UNL A   1      41.688  32.136  34.880  1.00  0.00     0.049 A 
ATOM     56  C   UNL A   1      41.603  28.605  30.603  1.00  0.00     0.074 A 
ATOM     57  C   UNL A   1      42.632  31.909  35.871  1.00  0.00     0.029 A 
ATOM     58  N   UNL A   1      41.865  31.144  33.931  1.00  0.00    -0.354 N 
ATOM     59  N   UNL A   1      41.749  29.334  31.680  1.00  0.00    -0.248 NA
ATOM     60  C   UNL A   1      42.582  27.512  30.480  1.00  0.00     0.031 C 
ATOM     61  C   UNL A   1      43.399  30.798  35.505  1.00  0.00     0.029 A 
ATOM     62  C   UNL A   1      42.911  30.313  34.305  1.00  0.00     0.049 A 
ATOM     63  H   UNL A   1      41.330  31.045  33.111  1.00  0.00     0.167 HD
ATOM     64  C   UNL A   1      42.814  28.776  32.374  1.00  0.00     0.074 A 
ATOM     65  C   UNL A   1      43.274  27.641  31.604  1.00  0.00     0.031 C 
ATOM     66  C   UNL A   1      43.361  29.175  33.548  1.00  0.00     0.037 A 
BRANCH  53  67
ATOM     67  C   UNL A   1      40.718  34.221  35.893  1.00  0.00     0.057 A 
ATOM     68  C   UNL A   1      41.296  35.481  35.693  1.00  0.00     0.134 A 
ATOM     69  C   UNL A   1      40.082  33.989  37.121  1.00  0.00     0.134 A 
ATOM     70  F   UNL A   1      41.921  35.765  34.541  1.00  0.00    -0.206 F 
ATOM     71  C   UNL A   1      41.261  36.465  36.681  1.00  0.00     0.040 A 
ATOM     72  C   UNL A   1      40.020  34.974  38.107  1.00  0.00     0.040 A 
ATOM     73  F   UNL A   1      39.494  32.810  37.371  1.00  0.00    -0.206 F 
ATOM     74  C   UNL A   1      40.614  36.215  37.891  1.00  0.00     0.006 A 
ENDBRANCH  53  67
BRANCH  54  75
ATOM     75  C   UNL A   1      40.588  27.767  28.377  1.00  0.00     0.057 A 
ATOM     76  C   UNL A   1      39.847  26.581  28.450  1.00  0.00     0.134 A 
ATOM     77  C   UNL A   1      41.332  27.997  27.215  1.00  0.00     0.134 A 
ATOM     78  F   UNL A   1      39.133  26.298  29.549  1.00  0.00    -0.206 F 
ATOM     79  C   UNL A   1      39.857  25.650  27.411  1.00  0.00     0.040 A 
ATOM     80  C   UNL A   1      41.334  27.085  26.159  1.00  0.00     0.040 A 
ATOM     81  F   UNL A   1      42.057  29.118  27.086  1.00  0.00    -0.206 F 
ATOM     82  C   UNL A   1      40.600  25.904  26.259  1.00  0.00     0.006 A 
ENDBRANCH  54  75
BRANCH  66  83
ATOM     83  C   UNL A   1      44.494  28.359  34.096  1.00  0.00     0.057 A 
ATOM     84  C   UNL A   1      45.830  28.662  33.805  1.00  0.00     0.134 A 
ATOM     85  C   UNL A   1      44.246  27.278  34.951  1.00  0.00     0.134 A 
ATOM     86  F   UNL A   1      46.134  29.675  32.980  1.00  0.00    -0.206 F 
ATOM     87  C   UNL A   1      46.880  27.906  34.332  1.00  0.00     0.040 A 
ATOM     88  C   UNL A   1      45.288  26.529  35.501  1.00  0.00     0.040 A 
ATOM     89  F   UNL A   1      42.989  26.939  35.273  1.00  0.00    -0.206 F 
ATOM     90  C   UNL A   1      46.609  26.839  35.188  1.00  0.00     0.006 A 
ENDBRANCH  66  83
ENDBRANCH  40  41
ENDBRANCH  32  35
ENDBRANCH  30  31
ENDBRANCH  29  30
ENDBRANCH  28  29
ENDBRANCH   1  28
TORSDOF 17
ENDMDL
