MODEL 1
REMARK VINA RESULT:     -11.2      0.000      0.000
REMARK SMILES O=C(NCCCCCCNC(=O)c1[nH]nc2c1CCC2)c1ccc(-c2c3nc(c(-c4c(F)cccc4F)c4ccc([nH]4)c(-c4c(F)cccc4F)c4nc(c(-c5c(F)cccc5F)c5ccc2[nH]5)C=C4)C=C3)cc1
REMARK SMILES IDX 5 1 4 2 3 3 1 4 2 5 21 7 22 8 74 9 23 10 73 11 24 12 25 13
REMARK SMILES IDX 26 14 67 15 27 16 72 17 66 18 68 19 28 20 71 21 65 22 64 23
REMARK SMILES IDX 29 25 55 26 38 27 54 28 39 29 42 30 53 31 69 32 40 33 41 34
REMARK SMILES IDX 52 36 70 37 43 38 30 39 31 40 36 41 32 42 33 43 35 44 37 45
REMARK SMILES IDX 34 46 56 47 57 48 62 49 58 50 59 51 61 52 63 53 60 54 44 55
REMARK SMILES IDX 45 56 50 57 46 58 47 59 49 60 51 61 48 62 6 63 7 64 8 65
REMARK SMILES IDX 9 66 10 67 11 68 12 70 13 71 14 72 17 73 15 74 16 76 18 77
REMARK SMILES IDX 20 78 19 79
REMARK H PARENT 3 6 68 24 42 35 10 69 14 75
REMARK Flexibility Score: inf
ROOT
ATOM      1  C   UNL A   1      33.882  31.667  27.983  1.00  0.00     0.021 C 
ENDROOT
BRANCH   1   2
ATOM      2  C   UNL A   1      34.341  32.932  28.711  1.00  0.00     0.116 C 
BRANCH   2   3
ATOM      3  N   UNL A   1      34.301  32.826  30.155  1.00  0.00    -0.352 N 
ATOM      4  O   UNL A   1      34.750  32.458  32.283  1.00  0.00    -0.269 OA
ATOM      5  C   UNL A   1      35.119  32.298  31.115  1.00  0.00     0.251 C 
ATOM      6  H   UNL A   1      33.490  33.231  30.537  1.00  0.00     0.163 HD
BRANCH   5   7
ATOM      7  C   UNL A   1      36.382  31.543  30.868  1.00  0.00     0.039 A 
ATOM      8  C   UNL A   1      37.647  32.102  30.692  1.00  0.00     0.014 A 
ATOM      9  C   UNL A   1      36.272  30.138  30.835  1.00  0.00     0.014 A 
ATOM     10  C   UNL A   1      38.761  31.288  30.473  1.00  0.00     0.010 A 
ATOM     11  C   UNL A   1      37.384  29.318  30.628  1.00  0.00     0.010 A 
ATOM     12  C   UNL A   1      38.636  29.895  30.442  1.00  0.00    -0.014 A 
BRANCH  12  13
ATOM     13  C   UNL A   1      39.866  29.108  30.334  1.00  0.00     0.031 A 
ATOM     14  C   UNL A   1      40.626  28.878  31.599  1.00  0.00     0.074 A 
ATOM     15  C   UNL A   1      40.303  28.467  29.232  1.00  0.00     0.049 A 
ATOM     16  N   UNL A   1      41.832  29.251  31.888  1.00  0.00    -0.248 NA
ATOM     17  C   UNL A   1      39.948  28.144  32.676  1.00  0.00     0.031 C 
ATOM     18  C   UNL A   1      39.596  28.230  27.975  1.00  0.00     0.029 A 
ATOM     19  N   UNL A   1      41.490  27.809  29.058  1.00  0.00    -0.354 N 
ATOM     20  C   UNL A   1      42.133  28.674  33.122  1.00  0.00     0.074 A 
ATOM     21  C   UNL A   1      40.912  28.068  33.596  1.00  0.00     0.031 C 
ATOM     22  C   UNL A   1      40.288  27.327  27.244  1.00  0.00     0.029 A 
ATOM     23  C   UNL A   1      41.544  27.027  27.917  1.00  0.00     0.049 A 
ATOM     24  H   UNL A   1      42.242  27.886  29.689  1.00  0.00     0.167 HD
ATOM     25  C   UNL A   1      43.402  28.603  33.610  1.00  0.00     0.037 A 
ATOM     26  C   UNL A   1      42.528  26.164  27.567  1.00  0.00     0.037 A 
ATOM     27  C   UNL A   1      44.304  29.491  32.931  1.00  0.00     0.049 A 
ATOM     28  C   UNL A   1      43.753  26.506  28.326  1.00  0.00     0.074 A 
ATOM     29  C   UNL A   1      44.361  30.854  32.712  1.00  0.00     0.029 A 
ATOM     30  N   UNL A   1      45.252  28.952  32.099  1.00  0.00    -0.354 N 
ATOM     31  N   UNL A   1      44.512  27.537  28.092  1.00  0.00    -0.248 NA
ATOM     32  C   UNL A   1      43.999  25.825  29.589  1.00  0.00     0.031 C 
ATOM     33  C   UNL A   1      44.974  31.002  31.433  1.00  0.00     0.029 A 
ATOM     34  C   UNL A   1      45.251  29.718  30.964  1.00  0.00     0.049 A 
ATOM     35  H   UNL A   1      45.821  28.169  32.283  1.00  0.00     0.167 HD
ATOM     36  C   UNL A   1      45.029  27.882  29.330  1.00  0.00     0.074 A 
ATOM     37  C   UNL A   1      44.798  26.718  30.175  1.00  0.00     0.031 C 
ATOM     38  C   UNL A   1      45.339  29.177  29.630  1.00  0.00     0.037 A 
BRANCH  25  39
ATOM     39  C   UNL A   1      43.908  27.523  34.532  1.00  0.00     0.057 A 
ATOM     40  C   UNL A   1      43.876  26.177  34.123  1.00  0.00     0.134 A 
ATOM     41  C   UNL A   1      44.158  27.732  35.902  1.00  0.00     0.134 A 
ATOM     42  F   UNL A   1      43.613  25.852  32.848  1.00  0.00    -0.206 F 
ATOM     43  C   UNL A   1      44.034  25.115  35.021  1.00  0.00     0.040 A 
ATOM     44  C   UNL A   1      44.367  26.679  36.799  1.00  0.00     0.040 A 
ATOM     45  F   UNL A   1      44.116  28.953  36.449  1.00  0.00    -0.206 F 
ATOM     46  C   UNL A   1      44.279  25.364  36.365  1.00  0.00     0.006 A 
ENDBRANCH  25  39
BRANCH  26  47
ATOM     47  C   UNL A   1      42.455  24.949  26.729  1.00  0.00     0.057 A 
ATOM     48  C   UNL A   1      43.185  24.841  25.537  1.00  0.00     0.134 A 
ATOM     49  C   UNL A   1      41.871  23.765  27.206  1.00  0.00     0.134 A 
ATOM     50  F   UNL A   1      43.817  25.905  25.022  1.00  0.00    -0.206 F 
ATOM     51  C   UNL A   1      43.339  23.621  24.866  1.00  0.00     0.040 A 
ATOM     52  C   UNL A   1      42.005  22.543  26.541  1.00  0.00     0.040 A 
ATOM     53  F   UNL A   1      41.221  23.737  28.379  1.00  0.00    -0.206 F 
ATOM     54  C   UNL A   1      42.754  22.465  25.373  1.00  0.00     0.006 A 
ENDBRANCH  26  47
BRANCH  38  55
ATOM     55  C   UNL A   1      45.462  30.156  28.500  1.00  0.00     0.057 A 
ATOM     56  C   UNL A   1      46.656  30.412  27.812  1.00  0.00     0.134 A 
ATOM     57  C   UNL A   1      44.301  30.767  28.010  1.00  0.00     0.134 A 
ATOM     58  F   UNL A   1      47.794  29.782  28.135  1.00  0.00    -0.206 F 
ATOM     59  C   UNL A   1      46.702  31.289  26.724  1.00  0.00     0.040 A 
ATOM     60  C   UNL A   1      44.328  31.616  26.901  1.00  0.00     0.040 A 
ATOM     61  F   UNL A   1      43.111  30.518  28.580  1.00  0.00    -0.206 F 
ATOM     62  C   UNL A   1      45.535  31.891  26.263  1.00  0.00     0.006 A 
ENDBRANCH  38  55
ENDBRANCH  12  13
ENDBRANCH   5   7
ENDBRANCH   2   3
ENDBRANCH   1   2
BRANCH   1  63
ATOM     63  C   UNL A   1      35.008  30.801  27.406  1.00  0.00     0.002 C 
BRANCH  63  64
ATOM     64  C   UNL A   1      34.756  29.290  27.387  1.00  0.00     0.002 C 
BRANCH  64  65
ATOM     65  C   UNL A   1      33.486  28.833  26.662  1.00  0.00     0.021 C 
BRANCH  65  66
ATOM     66  C   UNL A   1      33.093  29.669  25.447  1.00  0.00     0.116 C 
BRANCH  66  67
ATOM     67  N   UNL A   1      33.798  29.264  24.244  1.00  0.00    -0.351 N 
ATOM     68  C   UNL A   1      33.282  28.775  23.073  1.00  0.00     0.269 C 
ATOM     69  H   UNL A   1      34.778  29.352  24.275  1.00  0.00     0.163 HD
ATOM     70  O   UNL A   1      34.051  28.240  22.272  1.00  0.00    -0.268 OA
BRANCH  68  71
ATOM     71  C   UNL A   1      31.869  28.843  22.844  1.00  0.00     0.126 A 
ATOM     72  N   UNL A   1      31.308  29.764  21.979  1.00  0.00    -0.272 N 
ATOM     73  C   UNL A   1      30.785  28.178  23.362  1.00  0.00     0.006 A 
ATOM     74  N   UNL A   1      29.969  29.617  21.795  1.00  0.00    -0.180 NA
ATOM     75  H   UNL A   1      31.834  30.466  21.532  1.00  0.00     0.190 HD
ATOM     76  C   UNL A   1      29.680  28.657  22.660  1.00  0.00     0.066 A 
ATOM     77  C   UNL A   1      30.395  27.155  24.348  1.00  0.00     0.040 C 
ATOM     78  C   UNL A   1      28.422  27.978  23.023  1.00  0.00     0.059 C 
ATOM     79  C   UNL A   1      28.967  26.760  23.845  1.00  0.00     0.011 C 
ENDBRANCH  68  71
ENDBRANCH  66  67
ENDBRANCH  65  66
ENDBRANCH  64  65
ENDBRANCH  63  64
ENDBRANCH   1  63
TORSDOF 13
ENDMDL
MODEL 2
REMARK VINA RESULT:     -10.9      3.158      7.033
REMARK SMILES O=C(NCCCCCCNC(=O)c1[nH]nc2c1CCC2)c1ccc(-c2c3nc(c(-c4c(F)cccc4F)c4ccc([nH]4)c(-c4c(F)cccc4F)c4nc(c(-c5c(F)cccc5F)c5ccc2[nH]5)C=C4)C=C3)cc1
REMARK SMILES IDX 5 1 4 2 3 3 1 4 2 5 21 7 22 8 74 9 23 10 73 11 24 12 25 13
REMARK SMILES IDX 26 14 67 15 27 16 72 17 66 18 68 19 28 20 71 21 65 22 64 23
REMARK SMILES IDX 29 25 55 26 38 27 54 28 39 29 42 30 53 31 69 32 40 33 41 34
REMARK SMILES IDX 52 36 70 37 43 38 30 39 31 40 36 41 32 42 33 43 35 44 37 45
REMARK SMILES IDX 34 46 56 47 57 48 62 49 58 50 59 51 61 52 63 53 60 54 44 55
REMARK SMILES IDX 45 56 50 57 46 58 47 59 49 60 51 61 48 62 6 63 7 64 8 65
REMARK SMILES IDX 9 66 10 67 11 68 12 70 13 71 14 72 17 73 15 74 16 76 18 77
REMARK SMILES IDX 20 78 19 79
REMARK H PARENT 3 6 68 24 42 35 10 69 14 75
REMARK Flexibility Score: inf
ROOT
ATOM      1  C   UNL A   1      33.256  28.850  26.633  1.00  0.00     0.021 C 
ENDROOT
BRANCH   1   2
ATOM      2  C   UNL A   1      34.730  29.057  26.982  1.00  0.00     0.116 C 
BRANCH   2   3
ATOM      3  N   UNL A   1      34.947  29.690  28.266  1.00  0.00    -0.352 N 
ATOM      4  O   UNL A   1      35.811  30.564  30.097  1.00  0.00    -0.269 OA
ATOM      5  C   UNL A   1      36.032  29.925  29.064  1.00  0.00     0.251 C 
ATOM      6  H   UNL A   1      34.113  30.034  28.658  1.00  0.00     0.163 HD
BRANCH   5   7
ATOM      7  C   UNL A   1      37.427  29.463  28.801  1.00  0.00     0.039 A 
ATOM      8  C   UNL A   1      38.189  29.765  27.674  1.00  0.00     0.014 A 
ATOM      9  C   UNL A   1      38.019  28.667  29.804  1.00  0.00     0.014 A 
ATOM     10  C   UNL A   1      39.491  29.276  27.543  1.00  0.00     0.010 A 
ATOM     11  C   UNL A   1      39.325  28.186  29.684  1.00  0.00     0.010 A 
ATOM     12  C   UNL A   1      40.066  28.489  28.546  1.00  0.00    -0.014 A 
BRANCH  12  13
ATOM     13  C   UNL A   1      41.475  28.121  28.393  1.00  0.00     0.031 A 
ATOM     14  C   UNL A   1      41.757  26.832  27.692  1.00  0.00     0.074 A 
ATOM     15  C   UNL A   1      42.534  28.893  28.705  1.00  0.00     0.049 A 
ATOM     16  N   UNL A   1      42.356  25.782  28.157  1.00  0.00    -0.248 NA
ATOM     17  C   UNL A   1      41.307  26.701  26.300  1.00  0.00     0.031 C 
ATOM     18  C   UNL A   1      42.555  30.308  29.069  1.00  0.00     0.029 A 
ATOM     19  N   UNL A   1      43.860  28.552  28.675  1.00  0.00    -0.354 N 
ATOM     20  C   UNL A   1      42.500  24.907  27.080  1.00  0.00     0.074 A 
ATOM     21  C   UNL A   1      41.769  25.491  25.982  1.00  0.00     0.031 C 
ATOM     22  C   UNL A   1      43.833  30.751  29.041  1.00  0.00     0.029 A 
ATOM     23  C   UNL A   1      44.725  29.627  28.791  1.00  0.00     0.049 A 
ATOM     24  H   UNL A   1      44.171  27.624  28.579  1.00  0.00     0.167 HD
ATOM     25  C   UNL A   1      43.333  23.831  27.115  1.00  0.00     0.037 A 
ATOM     26  C   UNL A   1      46.072  29.608  28.652  1.00  0.00     0.037 A 
ATOM     27  C   UNL A   1      43.732  23.485  28.451  1.00  0.00     0.049 A 
ATOM     28  C   UNL A   1      46.547  28.214  28.818  1.00  0.00     0.074 A 
ATOM     29  C   UNL A   1      43.072  23.134  29.613  1.00  0.00     0.029 A 
ATOM     30  N   UNL A   1      45.027  23.724  28.830  1.00  0.00    -0.354 N 
ATOM     31  N   UNL A   1      46.609  27.578  29.952  1.00  0.00    -0.248 NA
ATOM     32  C   UNL A   1      46.699  27.387  27.630  1.00  0.00     0.031 C 
ATOM     33  C   UNL A   1      43.873  23.655  30.670  1.00  0.00     0.029 A 
ATOM     34  C   UNL A   1      44.968  24.284  30.079  1.00  0.00     0.049 A 
ATOM     35  H   UNL A   1      45.840  23.530  28.308  1.00  0.00     0.167 HD
ATOM     36  C   UNL A   1      46.390  26.250  29.623  1.00  0.00     0.074 A 
ATOM     37  C   UNL A   1      46.597  26.177  28.183  1.00  0.00     0.031 C 
ATOM     38  C   UNL A   1      45.786  25.395  30.499  1.00  0.00     0.037 A 
BRANCH  25  39
ATOM     39  C   UNL A   1      44.021  23.240  25.911  1.00  0.00     0.057 A 
ATOM     40  C   UNL A   1      43.932  21.858  25.659  1.00  0.00     0.134 A 
ATOM     41  C   UNL A   1      44.993  23.929  25.160  1.00  0.00     0.134 A 
ATOM     42  F   UNL A   1      43.068  21.090  26.339  1.00  0.00    -0.206 F 
ATOM     43  C   UNL A   1      44.781  21.202  24.760  1.00  0.00     0.040 A 
ATOM     44  C   UNL A   1      45.812  23.292  24.221  1.00  0.00     0.040 A 
ATOM     45  F   UNL A   1      45.257  25.225  25.367  1.00  0.00    -0.206 F 
ATOM     46  C   UNL A   1      45.726  21.920  24.038  1.00  0.00     0.006 A 
ENDBRANCH  25  39
BRANCH  26  47
ATOM     47  C   UNL A   1      46.987  30.686  28.227  1.00  0.00     0.057 A 
ATOM     48  C   UNL A   1      46.854  31.306  26.976  1.00  0.00     0.134 A 
ATOM     49  C   UNL A   1      47.853  31.313  29.138  1.00  0.00     0.134 A 
ATOM     50  F   UNL A   1      46.018  30.810  26.053  1.00  0.00    -0.206 F 
ATOM     51  C   UNL A   1      47.530  32.489  26.655  1.00  0.00     0.040 A 
ATOM     52  C   UNL A   1      48.544  32.487  28.827  1.00  0.00     0.040 A 
ATOM     53  F   UNL A   1      47.992  30.852  30.390  1.00  0.00    -0.206 F 
ATOM     54  C   UNL A   1      48.373  33.088  27.586  1.00  0.00     0.006 A 
ENDBRANCH  26  47
BRANCH  38  55
ATOM     55  C   UNL A   1      45.697  25.804  31.940  1.00  0.00     0.057 A 
ATOM     56  C   UNL A   1      46.711  25.581  32.882  1.00  0.00     0.134 A 
ATOM     57  C   UNL A   1      44.597  26.564  32.357  1.00  0.00     0.134 A 
ATOM     58  F   UNL A   1      47.853  24.966  32.543  1.00  0.00    -0.206 F 
ATOM     59  C   UNL A   1      46.602  26.039  34.198  1.00  0.00     0.040 A 
ATOM     60  C   UNL A   1      44.495  27.059  33.659  1.00  0.00     0.040 A 
ATOM     61  F   UNL A   1      43.618  26.872  31.492  1.00  0.00    -0.206 F 
ATOM     62  C   UNL A   1      45.493  26.783  34.589  1.00  0.00     0.006 A 
ENDBRANCH  38  55
ENDBRANCH  12  13
ENDBRANCH   5   7
ENDBRANCH   2   3
ENDBRANCH   1   2
BRANCH   1  63
ATOM     63  C   UNL A   1      32.806  27.387  26.538  1.00  0.00     0.002 C 
BRANCH  63  64
ATOM     64  C   UNL A   1      31.293  27.148  26.486  1.00  0.00     0.002 C 
BRANCH  64  65
ATOM     65  C   UNL A   1      30.728  26.740  25.123  1.00  0.00     0.021 C 
BRANCH  65  66
ATOM     66  C   UNL A   1      30.371  25.262  24.981  1.00  0.00     0.116 C 
BRANCH  66  67
ATOM     67  N   UNL A   1      29.993  24.659  26.247  1.00  0.00    -0.351 N 
ATOM     68  C   UNL A   1      30.399  23.464  26.780  1.00  0.00     0.269 C 
ATOM     69  H   UNL A   1      29.361  25.179  26.794  1.00  0.00     0.163 HD
ATOM     70  O   UNL A   1      29.768  23.004  27.734  1.00  0.00    -0.268 OA
BRANCH  68  71
ATOM     71  C   UNL A   1      31.495  22.762  26.181  1.00  0.00     0.126 A 
ATOM     72  N   UNL A   1      31.369  21.469  25.708  1.00  0.00    -0.272 N 
ATOM     73  C   UNL A   1      32.818  23.060  25.970  1.00  0.00     0.006 A 
ATOM     74  N   UNL A   1      32.473  20.995  25.072  1.00  0.00    -0.180 NA
ATOM     75  H   UNL A   1      30.549  20.936  25.822  1.00  0.00     0.190 HD
ATOM     76  C   UNL A   1      33.339  21.978  25.262  1.00  0.00     0.066 A 
ATOM     77  C   UNL A   1      33.840  24.096  26.201  1.00  0.00     0.040 C 
ATOM     78  C   UNL A   1      34.746  22.169  24.861  1.00  0.00     0.059 C 
ATOM     79  C   UNL A   1      34.936  23.696  25.157  1.00  0.00     0.011 C 
ENDBRANCH  68  71
ENDBRANCH  66  67
ENDBRANCH  65  66
ENDBRANCH  64  65
ENDBRANCH  63  64
ENDBRANCH   1  63
TORSDOF 13
ENDMDL
MODEL 3
REMARK VINA RESULT:     -10.9      1.629      2.494
REMARK SMILES O=C(NCCCCCCNC(=O)c1[nH]nc2c1CCC2)c1ccc(-c2c3nc(c(-c4c(F)cccc4F)c4ccc([nH]4)c(-c4c(F)cccc4F)c4nc(c(-c5c(F)cccc5F)c5ccc2[nH]5)C=C4)C=C3)cc1
REMARK SMILES IDX 5 1 4 2 3 3 1 4 2 5 21 7 22 8 74 9 23 10 73 11 24 12 25 13
REMARK SMILES IDX 26 14 67 15 27 16 72 17 66 18 68 19 28 20 71 21 65 22 64 23
REMARK SMILES IDX 29 25 55 26 38 27 54 28 39 29 42 30 53 31 69 32 40 33 41 34
REMARK SMILES IDX 52 36 70 37 43 38 30 39 31 40 36 41 32 42 33 43 35 44 37 45
REMARK SMILES IDX 34 46 56 47 57 48 62 49 58 50 59 51 61 52 63 53 60 54 44 55
REMARK SMILES IDX 45 56 50 57 46 58 47 59 49 60 51 61 48 62 6 63 7 64 8 65
REMARK SMILES IDX 9 66 10 67 11 68 12 70 13 71 14 72 17 73 15 74 16 76 18 77
REMARK SMILES IDX 20 78 19 79
REMARK H PARENT 3 6 68 24 42 35 10 69 14 75
REMARK Flexibility Score: inf
ROOT
ATOM      1  C   UNL A   1      33.084  30.599  27.392  1.00  0.00     0.021 C 
ENDROOT
BRANCH   1   2
ATOM      2  C   UNL A   1      34.329  31.438  27.688  1.00  0.00     0.116 C 
BRANCH   2   3
ATOM      3  N   UNL A   1      34.400  31.924  29.050  1.00  0.00    -0.352 N 
ATOM      4  O   UNL A   1      35.022  32.452  31.100  1.00  0.00    -0.269 OA
ATOM      5  C   UNL A   1      35.309  31.837  30.068  1.00  0.00     0.251 C 
ATOM      6  H   UNL A   1      33.603  32.442  29.304  1.00  0.00     0.163 HD
BRANCH   5   7
ATOM      7  C   UNL A   1      36.582  31.058  30.039  1.00  0.00     0.039 A 
ATOM      8  C   UNL A   1      37.863  31.590  29.897  1.00  0.00     0.014 A 
ATOM      9  C   UNL A   1      36.461  29.661  30.191  1.00  0.00     0.014 A 
ATOM     10  C   UNL A   1      38.983  30.756  29.891  1.00  0.00     0.010 A 
ATOM     11  C   UNL A   1      37.579  28.823  30.196  1.00  0.00     0.010 A 
ATOM     12  C   UNL A   1      38.848  29.372  30.043  1.00  0.00    -0.014 A 
BRANCH  12  13
ATOM     13  C   UNL A   1      40.076  28.581  30.151  1.00  0.00     0.031 A 
ATOM     14  C   UNL A   1      40.736  28.552  31.491  1.00  0.00     0.074 A 
ATOM     15  C   UNL A   1      40.588  27.777  29.199  1.00  0.00     0.049 A 
ATOM     16  N   UNL A   1      41.920  28.967  31.810  1.00  0.00    -0.248 NA
ATOM     17  C   UNL A   1      39.971  27.992  32.614  1.00  0.00     0.031 C 
ATOM     18  C   UNL A   1      39.975  27.346  27.944  1.00  0.00     0.029 A 
ATOM     19  N   UNL A   1      41.779  27.103  29.220  1.00  0.00    -0.354 N 
ATOM     20  C   UNL A   1      42.120  28.590  33.137  1.00  0.00     0.074 A 
ATOM     21  C   UNL A   1      40.862  28.062  33.605  1.00  0.00     0.031 C 
ATOM     22  C   UNL A   1      40.713  26.342  27.416  1.00  0.00     0.029 A 
ATOM     23  C   UNL A   1      41.911  26.153  28.221  1.00  0.00     0.049 A 
ATOM     24  H   UNL A   1      42.481  27.279  29.886  1.00  0.00     0.167 HD
ATOM     25  C   UNL A   1      43.348  28.598  33.725  1.00  0.00     0.037 A 
ATOM     26  C   UNL A   1      42.910  25.248  28.085  1.00  0.00     0.037 A 
ATOM     27  C   UNL A   1      44.308  29.372  32.988  1.00  0.00     0.049 A 
ATOM     28  C   UNL A   1      44.078  25.707  28.873  1.00  0.00     0.074 A 
ATOM     29  C   UNL A   1      44.394  30.685  32.565  1.00  0.00     0.029 A 
ATOM     30  N   UNL A   1      45.310  28.713  32.324  1.00  0.00    -0.354 N 
ATOM     31  N   UNL A   1      44.862  26.691  28.540  1.00  0.00    -0.248 NA
ATOM     32  C   UNL A   1      44.221  25.231  30.241  1.00  0.00     0.031 C 
ATOM     33  C   UNL A   1      45.103  30.634  31.329  1.00  0.00     0.029 A 
ATOM     34  C   UNL A   1      45.403  29.294  31.087  1.00  0.00     0.049 A 
ATOM     35  H   UNL A   1      45.857  27.969  32.670  1.00  0.00     0.167 HD
ATOM     36  C   UNL A   1      45.288  27.225  29.745  1.00  0.00     0.074 A 
ATOM     37  C   UNL A   1      44.982  26.206  30.741  1.00  0.00     0.031 C 
ATOM     38  C   UNL A   1      45.586  28.552  29.864  1.00  0.00     0.037 A 
BRANCH  25  39
ATOM     39  C   UNL A   1      43.773  27.676  34.839  1.00  0.00     0.057 A 
ATOM     40  C   UNL A   1      44.319  28.208  36.022  1.00  0.00     0.134 A 
ATOM     41  C   UNL A   1      43.925  26.285  34.677  1.00  0.00     0.134 A 
ATOM     42  F   UNL A   1      44.266  29.524  36.272  1.00  0.00    -0.206 F 
ATOM     43  C   UNL A   1      45.008  27.420  36.952  1.00  0.00     0.040 A 
ATOM     44  C   UNL A   1      44.567  25.481  35.623  1.00  0.00     0.040 A 
ATOM     45  F   UNL A   1      43.544  25.660  33.555  1.00  0.00    -0.206 F 
ATOM     46  C   UNL A   1      45.135  26.051  36.753  1.00  0.00     0.006 A 
ENDBRANCH  25  39
BRANCH  26  47
ATOM     47  C   UNL A   1      42.890  23.918  27.443  1.00  0.00     0.057 A 
ATOM     48  C   UNL A   1      42.446  22.781  28.134  1.00  0.00     0.134 A 
ATOM     49  C   UNL A   1      43.061  23.771  26.056  1.00  0.00     0.134 A 
ATOM     50  F   UNL A   1      42.210  22.831  29.452  1.00  0.00    -0.206 F 
ATOM     51  C   UNL A   1      42.173  21.573  27.482  1.00  0.00     0.040 A 
ATOM     52  C   UNL A   1      42.804  22.568  25.394  1.00  0.00     0.040 A 
ATOM     53  F   UNL A   1      43.403  24.815  25.287  1.00  0.00    -0.206 F 
ATOM     54  C   UNL A   1      42.345  21.466  26.105  1.00  0.00     0.006 A 
ENDBRANCH  26  47
BRANCH  38  55
ATOM     55  C   UNL A   1      45.803  29.344  28.609  1.00  0.00     0.057 A 
ATOM     56  C   UNL A   1      44.771  29.940  27.870  1.00  0.00     0.134 A 
ATOM     57  C   UNL A   1      47.116  29.619  28.205  1.00  0.00     0.134 A 
ATOM     58  F   UNL A   1      43.490  29.831  28.250  1.00  0.00    -0.206 F 
ATOM     59  C   UNL A   1      45.035  30.721  26.741  1.00  0.00     0.040 A 
ATOM     60  C   UNL A   1      47.392  30.428  27.101  1.00  0.00     0.040 A 
ATOM     61  F   UNL A   1      48.155  29.135  28.902  1.00  0.00    -0.206 F 
ATOM     62  C   UNL A   1      46.348  30.970  26.356  1.00  0.00     0.006 A 
ENDBRANCH  38  55
ENDBRANCH  12  13
ENDBRANCH   5   7
ENDBRANCH   2   3
ENDBRANCH   1   2
BRANCH   1  63
ATOM     63  C   UNL A   1      33.331  29.093  27.246  1.00  0.00     0.002 C 
BRANCH  63  64
ATOM     64  C   UNL A   1      32.127  28.183  27.510  1.00  0.00     0.002 C 
BRANCH  64  65
ATOM     65  C   UNL A   1      31.425  27.626  26.268  1.00  0.00     0.021 C 
BRANCH  65  66
ATOM     66  C   UNL A   1      31.985  28.108  24.932  1.00  0.00     0.116 C 
BRANCH  66  67
ATOM     67  N   UNL A   1      30.945  28.330  23.943  1.00  0.00    -0.351 N 
ATOM     68  C   UNL A   1      30.810  27.765  22.702  1.00  0.00     0.269 C 
ATOM     69  H   UNL A   1      30.245  28.972  24.199  1.00  0.00     0.163 HD
ATOM     70  O   UNL A   1      30.016  28.275  21.909  1.00  0.00    -0.268 OA
BRANCH  68  71
ATOM     71  C   UNL A   1      31.631  26.646  22.345  1.00  0.00     0.126 A 
ATOM     72  N   UNL A   1      32.723  26.774  21.506  1.00  0.00    -0.272 N 
ATOM     73  C   UNL A   1      31.583  25.301  22.616  1.00  0.00     0.006 A 
ATOM     74  N   UNL A   1      33.455  25.638  21.361  1.00  0.00    -0.180 NA
ATOM     75  H   UNL A   1      32.952  27.617  21.052  1.00  0.00     0.190 HD
ATOM     76  C   UNL A   1      32.728  24.759  22.034  1.00  0.00     0.066 A 
ATOM     77  C   UNL A   1      30.786  24.269  23.301  1.00  0.00     0.040 C 
ATOM     78  C   UNL A   1      32.892  23.319  22.307  1.00  0.00     0.059 C 
ATOM     79  C   UNL A   1      31.824  23.105  23.433  1.00  0.00     0.011 C 
ENDBRANCH  68  71
ENDBRANCH  66  67
ENDBRANCH  65  66
ENDBRANCH  64  65
ENDBRANCH  63  64
ENDBRANCH   1  63
TORSDOF 13
ENDMDL
