MODEL 1
REMARK VINA RESULT:     -12.7      0.000      0.000
REMARK SMILES Nn1c(S[C@@H](C(=O)NCCCCCCNC(=O)c2ccc(-c3c4nc(c(-c5c(F)cccc5F)c5ccc([nH]5)c(-c5c(F)cccc5F)c5nc(c(-c6c(F)cccc6F)c6ccc3[nH]6)C=C5)C=C4)cc2)c2ccccc2)nc2ccc(Br)cc2c1=O
REMARK SMILES IDX 11 1 10 2 9 3 8 4 6 5 7 6 5 8 4 9 3 10 2 11 86 12 78 13
REMARK SMILES IDX 85 14 87 15 79 16 84 17 80 18 82 19 81 20 83 21 1 22 72 25
REMARK SMILES IDX 73 26 77 27 74 28 76 29 75 30 12 31 13 32 14 33 15 34 16 35
REMARK SMILES IDX 17 37 18 38 19 39 71 40 20 41 70 42 21 43 22 44 23 45 64 46
REMARK SMILES IDX 24 47 69 48 63 49 65 50 25 51 68 52 62 53 61 54 26 56 52 57
REMARK SMILES IDX 35 58 51 59 36 60 39 61 50 62 66 63 37 64 38 65 49 67 67 68
REMARK SMILES IDX 40 69 27 70 28 71 33 72 29 73 30 74 32 75 34 76 31 77 53 78
REMARK SMILES IDX 54 79 59 80 55 81 56 82 58 83 60 84 57 85 41 86 42 87 47 88
REMARK SMILES IDX 43 89 44 90 46 91 48 92 45 93
REMARK H PARENT 8 7 1 23 1 24 15 36 65 55 39 66
REMARK Flexibility Score: inf
ROOT
ATOM      1  C   UNL A   1      33.329  30.051  27.333  1.00  0.00     0.002 C 
ENDROOT
BRANCH   1   2
ATOM      2  C   UNL A   1      33.970  28.879  26.580  1.00  0.00     0.021 C 
BRANCH   2   3
ATOM      3  C   UNL A   1      33.003  28.002  25.779  1.00  0.00     0.116 C 
BRANCH   3   4
ATOM      4  N   UNL A   1      33.031  28.286  24.358  1.00  0.00    -0.355 N 
ATOM      5  C   UNL A   1      32.027  28.544  23.464  1.00  0.00     0.238 C 
ATOM      6  O   UNL A   1      32.405  28.927  22.348  1.00  0.00    -0.273 OA
ATOM      7  H   UNL A   1      33.935  28.293  23.964  1.00  0.00     0.163 HD
BRANCH   5   8
ATOM      8  C   UNL A   1      30.524  28.488  23.860  1.00  0.00     0.174 C 
BRANCH   8   9
ATOM      9  S   UNL A   1      29.809  26.839  23.767  1.00  0.00    -0.068 SA
BRANCH   9  10
ATOM     10  C   UNL A   1      30.819  25.603  24.463  1.00  0.00     0.191 A 
ATOM     11  N   UNL A   1      30.632  24.997  25.703  1.00  0.00    -0.202 N 
ATOM     12  C   UNL A   1      31.551  24.074  26.218  1.00  0.00     0.280 A 
ATOM     13  N   UNL A   1      31.802  25.282  23.680  1.00  0.00    -0.222 NA
ATOM     14  C   UNL A   1      32.663  23.703  25.333  1.00  0.00     0.069 A 
ATOM     15  O   UNL A   1      31.450  23.563  27.334  1.00  0.00    -0.267 OA
ATOM     16  C   UNL A   1      32.710  24.301  24.078  1.00  0.00     0.079 A 
ATOM     17  C   UNL A   1      33.610  22.749  25.721  1.00  0.00     0.031 A 
ATOM     18  C   UNL A   1      33.708  23.912  23.181  1.00  0.00     0.030 A 
ATOM     19  C   UNL A   1      34.606  22.382  24.819  1.00  0.00     0.018 A 
ATOM     20  C   UNL A   1      34.653  22.950  23.546  1.00  0.00     0.018 A 
ATOM     21  Br  UNL A   1      35.897  21.096  25.318  1.00  0.00    -0.051 Br
BRANCH  11  22
ATOM     22  N   UNL A   1      29.483  25.204  26.494  1.00  0.00    -0.334 N 
ATOM     23  H   UNL A   1      29.031  24.438  26.917  1.00  0.00     0.178 HD
ATOM     24  H   UNL A   1      29.133  26.115  26.624  1.00  0.00     0.178 HD
ENDBRANCH  11  22
ENDBRANCH   9  10
ENDBRANCH   8   9
BRANCH   8  25
ATOM     25  C   UNL A   1      29.682  29.673  23.360  1.00  0.00    -0.025 A 
ATOM     26  C   UNL A   1      28.918  29.500  22.186  1.00  0.00     0.005 A 
ATOM     27  C   UNL A   1      29.615  30.931  23.982  1.00  0.00     0.005 A 
ATOM     28  C   UNL A   1      28.086  30.511  21.696  1.00  0.00     0.000 A 
ATOM     29  C   UNL A   1      28.770  31.938  23.502  1.00  0.00     0.000 A 
ATOM     30  C   UNL A   1      28.001  31.726  22.365  1.00  0.00     0.000 A 
ENDBRANCH   8  25
ENDBRANCH   5   8
ENDBRANCH   3   4
ENDBRANCH   2   3
ENDBRANCH   1   2
BRANCH   1  31
ATOM     31  C   UNL A   1      31.934  30.473  26.866  1.00  0.00     0.002 C 
BRANCH  31  32
ATOM     32  C   UNL A   1      31.662  31.977  26.872  1.00  0.00     0.021 C 
BRANCH  32  33
ATOM     33  C   UNL A   1      32.852  32.852  27.247  1.00  0.00     0.116 C 
BRANCH  33  34
ATOM     34  N   UNL A   1      32.468  34.204  27.626  1.00  0.00    -0.352 N 
ATOM     35  C   UNL A   1      32.996  35.017  28.604  1.00  0.00     0.251 C 
ATOM     36  H   UNL A   1      31.725  34.592  27.108  1.00  0.00     0.163 HD
ATOM     37  O   UNL A   1      32.463  36.084  28.881  1.00  0.00    -0.269 OA
BRANCH  35  38
ATOM     38  C   UNL A   1      34.193  34.572  29.354  1.00  0.00     0.039 A 
ATOM     39  C   UNL A   1      35.469  34.723  28.811  1.00  0.00     0.014 A 
ATOM     40  C   UNL A   1      34.026  33.953  30.596  1.00  0.00     0.014 A 
ATOM     41  C   UNL A   1      36.553  34.093  29.415  1.00  0.00     0.010 A 
ATOM     42  C   UNL A   1      35.131  33.393  31.244  1.00  0.00     0.010 A 
ATOM     43  C   UNL A   1      36.394  33.405  30.630  1.00  0.00    -0.014 A 
BRANCH  43  44
ATOM     44  C   UNL A   1      37.551  32.676  31.215  1.00  0.00     0.031 A 
ATOM     45  C   UNL A   1      38.076  33.037  32.580  1.00  0.00     0.074 A 
ATOM     46  C   UNL A   1      38.091  31.641  30.543  1.00  0.00     0.049 A 
ATOM     47  N   UNL A   1      39.059  32.498  33.259  1.00  0.00    -0.248 NA
ATOM     48  C   UNL A   1      37.413  34.151  33.277  1.00  0.00     0.031 C 
ATOM     49  C   UNL A   1      37.662  31.176  29.223  1.00  0.00     0.029 A 
ATOM     50  N   UNL A   1      39.098  30.777  30.890  1.00  0.00    -0.354 N 
ATOM     51  C   UNL A   1      39.141  33.213  34.447  1.00  0.00     0.074 A 
ATOM     52  C   UNL A   1      38.131  34.248  34.385  1.00  0.00     0.031 C 
ATOM     53  C   UNL A   1      38.365  30.082  28.893  1.00  0.00     0.029 A 
ATOM     54  C   UNL A   1      39.333  29.804  29.950  1.00  0.00     0.049 A 
ATOM     55  H   UNL A   1      39.603  30.847  31.731  1.00  0.00     0.167 HD
ATOM     56  C   UNL A   1      39.972  33.020  35.501  1.00  0.00     0.037 A 
ATOM     57  C   UNL A   1      40.237  28.807  29.932  1.00  0.00     0.037 A 
ATOM     58  C   UNL A   1      40.969  31.984  35.572  1.00  0.00     0.049 A 
ATOM     59  C   UNL A   1      41.188  28.657  31.084  1.00  0.00     0.074 A 
ATOM     60  C   UNL A   1      41.847  31.697  36.605  1.00  0.00     0.029 A 
ATOM     61  N   UNL A   1      41.222  31.062  34.568  1.00  0.00    -0.354 N 
ATOM     62  N   UNL A   1      41.247  29.336  32.203  1.00  0.00    -0.248 NA
ATOM     63  C   UNL A   1      42.207  27.605  30.962  1.00  0.00     0.031 C 
ATOM     64  C   UNL A   1      42.658  30.626  36.207  1.00  0.00     0.029 A 
ATOM     65  C   UNL A   1      42.256  30.220  34.946  1.00  0.00     0.049 A 
ATOM     66  H   UNL A   1      40.738  31.012  33.712  1.00  0.00     0.167 HD
ATOM     67  C   UNL A   1      42.298  28.786  32.925  1.00  0.00     0.074 A 
ATOM     68  C   UNL A   1      42.832  27.702  32.126  1.00  0.00     0.031 C 
ATOM     69  C   UNL A   1      42.780  29.149  34.138  1.00  0.00     0.037 A 
BRANCH  56  70
ATOM     70  C   UNL A   1      39.846  33.967  36.661  1.00  0.00     0.057 A 
ATOM     71  C   UNL A   1      39.036  33.650  37.758  1.00  0.00     0.134 A 
ATOM     72  C   UNL A   1      40.508  35.202  36.683  1.00  0.00     0.134 A 
ATOM     73  F   UNL A   1      38.369  32.486  37.799  1.00  0.00    -0.206 F 
ATOM     74  C   UNL A   1      38.891  34.524  38.837  1.00  0.00     0.040 A 
ATOM     75  C   UNL A   1      40.390  36.074  37.767  1.00  0.00     0.040 A 
ATOM     76  F   UNL A   1      41.309  35.562  35.669  1.00  0.00    -0.206 F 
ATOM     77  C   UNL A   1      39.575  35.738  38.846  1.00  0.00     0.006 A 
ENDBRANCH  56  70
BRANCH  57  78
ATOM     78  C   UNL A   1      40.296  27.877  28.778  1.00  0.00     0.057 A 
ATOM     79  C   UNL A   1      41.046  28.179  27.634  1.00  0.00     0.134 A 
ATOM     80  C   UNL A   1      39.616  26.655  28.800  1.00  0.00     0.134 A 
ATOM     81  F   UNL A   1      41.718  29.337  27.552  1.00  0.00    -0.206 F 
ATOM     82  C   UNL A   1      41.110  27.303  26.550  1.00  0.00     0.040 A 
ATOM     83  C   UNL A   1      39.692  25.757  27.735  1.00  0.00     0.040 A 
ATOM     84  F   UNL A   1      38.899  26.301  29.877  1.00  0.00    -0.206 F 
ATOM     85  C   UNL A   1      40.437  26.084  26.603  1.00  0.00     0.006 A 
ENDBRANCH  57  78
BRANCH  69  86
ATOM     86  C   UNL A   1      43.927  28.346  34.678  1.00  0.00     0.057 A 
ATOM     87  C   UNL A   1      43.699  27.183  35.421  1.00  0.00     0.134 A 
ATOM     88  C   UNL A   1      45.257  28.728  34.463  1.00  0.00     0.134 A 
ATOM     89  F   UNL A   1      42.448  26.765  35.666  1.00  0.00    -0.206 F 
ATOM     90  C   UNL A   1      44.753  26.424  35.930  1.00  0.00     0.040 A 
ATOM     91  C   UNL A   1      46.321  27.965  34.947  1.00  0.00     0.040 A 
ATOM     92  F   UNL A   1      45.543  29.824  33.743  1.00  0.00    -0.206 F 
ATOM     93  C   UNL A   1      46.070  26.811  35.686  1.00  0.00     0.006 A 
ENDBRANCH  69  86
ENDBRANCH  43  44
ENDBRANCH  35  38
ENDBRANCH  33  34
ENDBRANCH  32  33
ENDBRANCH  31  32
ENDBRANCH   1  31
TORSDOF 17
ENDMDL
MODEL 2
REMARK VINA RESULT:     -12.7      4.556      9.754
REMARK SMILES Nn1c(S[C@@H](C(=O)NCCCCCCNC(=O)c2ccc(-c3c4nc(c(-c5c(F)cccc5F)c5ccc([nH]5)c(-c5c(F)cccc5F)c5nc(c(-c6c(F)cccc6F)c6ccc3[nH]6)C=C5)C=C4)cc2)c2ccccc2)nc2ccc(Br)cc2c1=O
REMARK SMILES IDX 11 1 10 2 9 3 8 4 6 5 7 6 5 8 4 9 3 10 2 11 86 12 78 13
REMARK SMILES IDX 85 14 87 15 79 16 84 17 80 18 82 19 81 20 83 21 1 22 72 25
REMARK SMILES IDX 73 26 77 27 74 28 76 29 75 30 12 31 13 32 14 33 15 34 16 35
REMARK SMILES IDX 17 37 18 38 19 39 71 40 20 41 70 42 21 43 22 44 23 45 64 46
REMARK SMILES IDX 24 47 69 48 63 49 65 50 25 51 68 52 62 53 61 54 26 56 52 57
REMARK SMILES IDX 35 58 51 59 36 60 39 61 50 62 66 63 37 64 38 65 49 67 67 68
REMARK SMILES IDX 40 69 27 70 28 71 33 72 29 73 30 74 32 75 34 76 31 77 53 78
REMARK SMILES IDX 54 79 59 80 55 81 56 82 58 83 60 84 57 85 41 86 42 87 47 88
REMARK SMILES IDX 43 89 44 90 46 91 48 92 45 93
REMARK H PARENT 8 7 1 23 1 24 15 36 65 55 39 66
REMARK Flexibility Score: inf
ROOT
ATOM      1  C   UNL A   1      38.281  22.043  25.775  1.00  0.00     0.002 C 
ENDROOT
BRANCH   1   2
ATOM      2  C   UNL A   1      37.413  23.285  26.010  1.00  0.00     0.021 C 
BRANCH   2   3
ATOM      3  C   UNL A   1      35.985  23.206  25.462  1.00  0.00     0.116 C 
BRANCH   3   4
ATOM      4  N   UNL A   1      35.069  22.545  26.370  1.00  0.00    -0.355 N 
ATOM      5  C   UNL A   1      34.096  21.607  26.154  1.00  0.00     0.238 C 
ATOM      6  O   UNL A   1      33.609  21.113  27.180  1.00  0.00    -0.273 OA
ATOM      7  H   UNL A   1      35.162  22.822  27.311  1.00  0.00     0.163 HD
BRANCH   5   8
ATOM      8  C   UNL A   1      33.725  21.105  24.730  1.00  0.00     0.174 C 
BRANCH   8   9
ATOM      9  S   UNL A   1      32.404  22.045  23.950  1.00  0.00    -0.068 SA
BRANCH   9  10
ATOM     10  C   UNL A   1      32.023  23.529  24.779  1.00  0.00     0.191 A 
ATOM     11  N   UNL A   1      30.895  23.762  25.562  1.00  0.00    -0.202 N 
ATOM     12  C   UNL A   1      30.630  25.020  26.116  1.00  0.00     0.280 A 
ATOM     13  N   UNL A   1      32.932  24.435  24.594  1.00  0.00    -0.222 NA
ATOM     14  C   UNL A   1      31.660  26.048  25.914  1.00  0.00     0.069 A 
ATOM     15  O   UNL A   1      29.615  25.279  26.763  1.00  0.00    -0.267 OA
ATOM     16  C   UNL A   1      32.791  25.688  25.190  1.00  0.00     0.079 A 
ATOM     17  C   UNL A   1      31.528  27.326  26.469  1.00  0.00     0.031 A 
ATOM     18  C   UNL A   1      33.826  26.615  25.047  1.00  0.00     0.030 A 
ATOM     19  C   UNL A   1      32.563  28.242  26.306  1.00  0.00     0.018 A 
ATOM     20  C   UNL A   1      33.718  27.890  25.608  1.00  0.00     0.018 A 
ATOM     21  Br  UNL A   1      32.409  29.974  27.047  1.00  0.00    -0.051 Br
BRANCH  11  22
ATOM     22  N   UNL A   1      29.983  22.747  25.916  1.00  0.00    -0.334 N 
ATOM     23  H   UNL A   1      29.017  22.885  25.786  1.00  0.00     0.178 HD
ATOM     24  H   UNL A   1      30.312  21.898  26.293  1.00  0.00     0.178 HD
ENDBRANCH  11  22
ENDBRANCH   9  10
ENDBRANCH   8   9
BRANCH   8  25
ATOM     25  C   UNL A   1      33.720  19.576  24.567  1.00  0.00    -0.025 A 
ATOM     26  C   UNL A   1      34.951  18.891  24.663  1.00  0.00     0.005 A 
ATOM     27  C   UNL A   1      32.577  18.797  24.322  1.00  0.00     0.005 A 
ATOM     28  C   UNL A   1      35.023  17.497  24.578  1.00  0.00     0.000 A 
ATOM     29  C   UNL A   1      32.646  17.401  24.254  1.00  0.00     0.000 A 
ATOM     30  C   UNL A   1      33.867  16.751  24.389  1.00  0.00     0.000 A 
ENDBRANCH   8  25
ENDBRANCH   5   8
ENDBRANCH   3   4
ENDBRANCH   2   3
ENDBRANCH   1   2
BRANCH   1  31
ATOM     31  C   UNL A   1      37.742  21.023  24.771  1.00  0.00     0.002 C 
BRANCH  31  32
ATOM     32  C   UNL A   1      38.477  19.683  24.730  1.00  0.00     0.021 C 
BRANCH  32  33
ATOM     33  C   UNL A   1      39.214  19.307  26.009  1.00  0.00     0.116 C 
BRANCH  33  34
ATOM     34  N   UNL A   1      40.574  18.847  25.770  1.00  0.00    -0.352 N 
ATOM     35  C   UNL A   1      41.762  19.531  25.904  1.00  0.00     0.251 C 
ATOM     36  H   UNL A   1      40.656  17.912  25.468  1.00  0.00     0.163 HD
ATOM     37  O   UNL A   1      42.814  19.031  25.530  1.00  0.00    -0.269 OA
BRANCH  35  38
ATOM     38  C   UNL A   1      41.753  20.901  26.467  1.00  0.00     0.039 A 
ATOM     39  C   UNL A   1      41.946  22.011  25.643  1.00  0.00     0.014 A 
ATOM     40  C   UNL A   1      41.599  21.068  27.846  1.00  0.00     0.014 A 
ATOM     41  C   UNL A   1      42.169  23.260  26.213  1.00  0.00     0.010 A 
ATOM     42  C   UNL A   1      41.739  22.340  28.410  1.00  0.00     0.010 A 
ATOM     43  C   UNL A   1      42.087  23.437  27.605  1.00  0.00    -0.014 A 
BRANCH  43  44
ATOM     44  C   UNL A   1      42.406  24.765  28.194  1.00  0.00     0.031 A 
ATOM     45  C   UNL A   1      43.826  25.128  28.544  1.00  0.00     0.074 A 
ATOM     46  C   UNL A   1      41.424  25.671  28.356  1.00  0.00     0.049 A 
ATOM     47  N   UNL A   1      44.296  26.244  29.044  1.00  0.00    -0.248 NA
ATOM     48  C   UNL A   1      44.855  24.104  28.303  1.00  0.00     0.031 C 
ATOM     49  C   UNL A   1      40.012  25.453  28.038  1.00  0.00     0.029 A 
ATOM     50  N   UNL A   1      41.468  26.968  28.802  1.00  0.00    -0.354 N 
ATOM     51  C   UNL A   1      45.664  26.052  29.191  1.00  0.00     0.074 A 
ATOM     52  C   UNL A   1      45.946  24.700  28.759  1.00  0.00     0.031 C 
ATOM     53  C   UNL A   1      39.333  26.591  28.251  1.00  0.00     0.029 A 
ATOM     54  C   UNL A   1      40.249  27.598  28.775  1.00  0.00     0.049 A 
ATOM     55  H   UNL A   1      42.294  27.404  29.112  1.00  0.00     0.167 HD
ATOM     56  C   UNL A   1      46.604  26.925  29.632  1.00  0.00     0.037 A 
ATOM     57  C   UNL A   1      39.902  28.845  29.145  1.00  0.00     0.037 A 
ATOM     58  C   UNL A   1      46.328  28.275  30.049  1.00  0.00     0.049 A 
ATOM     59  C   UNL A   1      40.952  29.769  29.691  1.00  0.00     0.074 A 
ATOM     60  C   UNL A   1      47.216  29.240  30.496  1.00  0.00     0.029 A 
ATOM     61  N   UNL A   1      45.068  28.852  30.073  1.00  0.00    -0.354 N 
ATOM     62  N   UNL A   1      42.242  29.574  29.816  1.00  0.00    -0.248 NA
ATOM     63  C   UNL A   1      40.492  31.084  30.160  1.00  0.00     0.031 C 
ATOM     64  C   UNL A   1      46.485  30.389  30.827  1.00  0.00     0.029 A 
ATOM     65  C   UNL A   1      45.150  30.152  30.547  1.00  0.00     0.049 A 
ATOM     66  H   UNL A   1      44.237  28.404  29.793  1.00  0.00     0.167 HD
ATOM     67  C   UNL A   1      42.751  30.745  30.363  1.00  0.00     0.074 A 
ATOM     68  C   UNL A   1      41.633  31.651  30.523  1.00  0.00     0.031 C 
ATOM     69  C   UNL A   1      44.027  31.041  30.705  1.00  0.00     0.037 A 
BRANCH  56  70
ATOM     70  C   UNL A   1      48.022  26.433  29.701  1.00  0.00     0.057 A 
ATOM     71  C   UNL A   1      48.516  25.837  30.868  1.00  0.00     0.134 A 
ATOM     72  C   UNL A   1      48.905  26.569  28.622  1.00  0.00     0.134 A 
ATOM     73  F   UNL A   1      47.724  25.681  31.940  1.00  0.00    -0.206 F 
ATOM     74  C   UNL A   1      49.835  25.390  30.959  1.00  0.00     0.040 A 
ATOM     75  C   UNL A   1      50.220  26.105  28.692  1.00  0.00     0.040 A 
ATOM     76  F   UNL A   1      48.493  27.120  27.470  1.00  0.00    -0.206 F 
ATOM     77  C   UNL A   1      50.690  25.517  29.865  1.00  0.00     0.006 A 
ENDBRANCH  56  70
BRANCH  57  78
ATOM     78  C   UNL A   1      38.493  29.292  29.024  1.00  0.00     0.057 A 
ATOM     79  C   UNL A   1      37.973  29.745  27.805  1.00  0.00     0.134 A 
ATOM     80  C   UNL A   1      37.628  29.262  30.123  1.00  0.00     0.134 A 
ATOM     81  F   UNL A   1      38.753  29.801  26.715  1.00  0.00    -0.206 F 
ATOM     82  C   UNL A   1      36.646  30.159  27.686  1.00  0.00     0.040 A 
ATOM     83  C   UNL A   1      36.292  29.647  30.013  1.00  0.00     0.040 A 
ATOM     84  F   UNL A   1      38.064  28.817  31.311  1.00  0.00    -0.206 F 
ATOM     85  C   UNL A   1      35.799  30.103  28.791  1.00  0.00     0.006 A 
ENDBRANCH  57  78
BRANCH  69  86
ATOM     86  C   UNL A   1      44.278  32.410  31.263  1.00  0.00     0.057 A 
ATOM     87  C   UNL A   1      44.233  32.640  32.643  1.00  0.00     0.134 A 
ATOM     88  C   UNL A   1      44.562  33.502  30.434  1.00  0.00     0.134 A 
ATOM     89  F   UNL A   1      43.961  31.637  33.492  1.00  0.00    -0.206 F 
ATOM     90  C   UNL A   1      44.465  33.906  33.179  1.00  0.00     0.040 A 
ATOM     91  C   UNL A   1      44.820  34.770  30.960  1.00  0.00     0.040 A 
ATOM     92  F   UNL A   1      44.638  33.345  29.103  1.00  0.00    -0.206 F 
ATOM     93  C   UNL A   1      44.767  34.974  32.337  1.00  0.00     0.006 A 
ENDBRANCH  69  86
ENDBRANCH  43  44
ENDBRANCH  35  38
ENDBRANCH  33  34
ENDBRANCH  32  33
ENDBRANCH  31  32
ENDBRANCH   1  31
TORSDOF 17
ENDMDL
MODEL 3
REMARK VINA RESULT:     -12.7      1.537      2.146
REMARK SMILES Nn1c(S[C@@H](C(=O)NCCCCCCNC(=O)c2ccc(-c3c4nc(c(-c5c(F)cccc5F)c5ccc([nH]5)c(-c5c(F)cccc5F)c5nc(c(-c6c(F)cccc6F)c6ccc3[nH]6)C=C5)C=C4)cc2)c2ccccc2)nc2ccc(Br)cc2c1=O
REMARK SMILES IDX 11 1 10 2 9 3 8 4 6 5 7 6 5 8 4 9 3 10 2 11 86 12 78 13
REMARK SMILES IDX 85 14 87 15 79 16 84 17 80 18 82 19 81 20 83 21 1 22 72 25
REMARK SMILES IDX 73 26 77 27 74 28 76 29 75 30 12 31 13 32 14 33 15 34 16 35
REMARK SMILES IDX 17 37 18 38 19 39 71 40 20 41 70 42 21 43 22 44 23 45 64 46
REMARK SMILES IDX 24 47 69 48 63 49 65 50 25 51 68 52 62 53 61 54 26 56 52 57
REMARK SMILES IDX 35 58 51 59 36 60 39 61 50 62 66 63 37 64 38 65 49 67 67 68
REMARK SMILES IDX 40 69 27 70 28 71 33 72 29 73 30 74 32 75 34 76 31 77 53 78
REMARK SMILES IDX 54 79 59 80 55 81 56 82 58 83 60 84 57 85 41 86 42 87 47 88
REMARK SMILES IDX 43 89 44 90 46 91 48 92 45 93
REMARK H PARENT 8 7 1 23 1 24 15 36 65 55 39 66
REMARK Flexibility Score: inf
ROOT
ATOM      1  C   UNL A   1      32.520  29.567  27.181  1.00  0.00     0.002 C 
ENDROOT
BRANCH   1   2
ATOM      2  C   UNL A   1      31.774  28.275  27.533  1.00  0.00     0.021 C 
BRANCH   2   3
ATOM      3  C   UNL A   1      32.140  27.050  26.689  1.00  0.00     0.116 C 
BRANCH   3   4
ATOM      4  N   UNL A   1      31.263  25.920  26.927  1.00  0.00    -0.355 N 
ATOM      5  C   UNL A   1      30.616  25.077  26.064  1.00  0.00     0.238 C 
ATOM      6  O   UNL A   1      30.082  24.094  26.595  1.00  0.00    -0.273 OA
ATOM      7  H   UNL A   1      31.104  25.725  27.879  1.00  0.00     0.163 HD
BRANCH   5   8
ATOM      8  C   UNL A   1      30.659  25.269  24.522  1.00  0.00     0.174 C 
BRANCH   8   9
ATOM      9  S   UNL A   1      32.247  24.858  23.782  1.00  0.00    -0.068 SA
BRANCH   9  10
ATOM     10  C   UNL A   1      32.820  23.267  24.205  1.00  0.00     0.191 A 
ATOM     11  N   UNL A   1      33.682  22.961  25.255  1.00  0.00    -0.202 N 
ATOM     12  C   UNL A   1      34.159  21.661  25.461  1.00  0.00     0.280 A 
ATOM     13  N   UNL A   1      32.341  22.355  23.417  1.00  0.00    -0.222 NA
ATOM     14  C   UNL A   1      33.616  20.622  24.575  1.00  0.00     0.069 A 
ATOM     15  O   UNL A   1      34.967  21.364  26.340  1.00  0.00    -0.267 OA
ATOM     16  C   UNL A   1      32.692  21.020  23.614  1.00  0.00     0.079 A 
ATOM     17  C   UNL A   1      33.978  19.279  24.725  1.00  0.00     0.031 A 
ATOM     18  C   UNL A   1      32.095  20.047  22.808  1.00  0.00     0.030 A 
ATOM     19  C   UNL A   1      33.382  18.324  23.904  1.00  0.00     0.018 A 
ATOM     20  C   UNL A   1      32.434  18.700  22.954  1.00  0.00     0.018 A 
ATOM     21  Br  UNL A   1      33.855  16.504  24.087  1.00  0.00    -0.051 Br
BRANCH  11  22
ATOM     22  N   UNL A   1      34.079  23.906  26.223  1.00  0.00    -0.334 N 
ATOM     23  H   UNL A   1      34.840  24.503  26.045  1.00  0.00     0.178 HD
ATOM     24  H   UNL A   1      33.594  23.968  27.078  1.00  0.00     0.178 HD
ENDBRANCH  11  22
ENDBRANCH   9  10
ENDBRANCH   8   9
BRANCH   8  25
ATOM     25  C   UNL A   1      29.921  26.516  24.007  1.00  0.00    -0.025 A 
ATOM     26  C   UNL A   1      30.693  27.606  23.550  1.00  0.00     0.005 A 
ATOM     27  C   UNL A   1      28.525  26.662  23.960  1.00  0.00     0.005 A 
ATOM     28  C   UNL A   1      30.098  28.755  23.018  1.00  0.00     0.000 A 
ATOM     29  C   UNL A   1      27.929  27.804  23.412  1.00  0.00     0.000 A 
ATOM     30  C   UNL A   1      28.715  28.846  22.935  1.00  0.00     0.000 A 
ENDBRANCH   8  25
ENDBRANCH   5   8
ENDBRANCH   3   4
ENDBRANCH   2   3
ENDBRANCH   1   2
BRANCH   1  31
ATOM     31  C   UNL A   1      31.860  30.463  26.131  1.00  0.00     0.002 C 
BRANCH  31  32
ATOM     32  C   UNL A   1      31.528  31.884  26.587  1.00  0.00     0.021 C 
BRANCH  32  33
ATOM     33  C   UNL A   1      32.653  32.612  27.314  1.00  0.00     0.116 C 
BRANCH  33  34
ATOM     34  N   UNL A   1      32.340  34.005  27.597  1.00  0.00    -0.352 N 
ATOM     35  C   UNL A   1      32.940  34.869  28.486  1.00  0.00     0.251 C 
ATOM     36  H   UNL A   1      31.592  34.383  27.078  1.00  0.00     0.163 HD
ATOM     37  O   UNL A   1      32.463  35.976  28.696  1.00  0.00    -0.269 OA
BRANCH  35  38
ATOM     38  C   UNL A   1      34.149  34.433  29.222  1.00  0.00     0.039 A 
ATOM     39  C   UNL A   1      35.417  34.586  28.662  1.00  0.00     0.014 A 
ATOM     40  C   UNL A   1      34.001  33.820  30.469  1.00  0.00     0.014 A 
ATOM     41  C   UNL A   1      36.511  33.963  29.255  1.00  0.00     0.010 A 
ATOM     42  C   UNL A   1      35.116  33.268  31.107  1.00  0.00     0.010 A 
ATOM     43  C   UNL A   1      36.371  33.282  30.476  1.00  0.00    -0.014 A 
BRANCH  43  44
ATOM     44  C   UNL A   1      37.538  32.560  31.050  1.00  0.00     0.031 A 
ATOM     45  C   UNL A   1      38.036  32.884  32.435  1.00  0.00     0.074 A 
ATOM     46  C   UNL A   1      38.112  31.565  30.349  1.00  0.00     0.049 A 
ATOM     47  N   UNL A   1      39.023  32.345  33.107  1.00  0.00    -0.248 NA
ATOM     48  C   UNL A   1      37.336  33.954  33.162  1.00  0.00     0.031 C 
ATOM     49  C   UNL A   1      37.713  31.138  29.007  1.00  0.00     0.029 A 
ATOM     50  N   UNL A   1      39.136  30.713  30.678  1.00  0.00    -0.354 N 
ATOM     51  C   UNL A   1      39.072  33.017  34.322  1.00  0.00     0.074 A 
ATOM     52  C   UNL A   1      38.037  34.028  34.283  1.00  0.00     0.031 C 
ATOM     53  C   UNL A   1      38.448  30.075  28.647  1.00  0.00     0.029 A 
ATOM     54  C   UNL A   1      39.408  29.782  29.706  1.00  0.00     0.049 A 
ATOM     55  H   UNL A   1      39.628  30.765  31.528  1.00  0.00     0.167 HD
ATOM     56  C   UNL A   1      39.893  32.806  35.380  1.00  0.00     0.037 A 
ATOM     57  C   UNL A   1      40.337  28.809  29.664  1.00  0.00     0.037 A 
ATOM     58  C   UNL A   1      40.915  31.793  35.426  1.00  0.00     0.049 A 
ATOM     59  C   UNL A   1      41.277  28.640  30.823  1.00  0.00     0.074 A 
ATOM     60  C   UNL A   1      41.786  31.490  36.460  1.00  0.00     0.029 A 
ATOM     61  N   UNL A   1      41.205  30.915  34.392  1.00  0.00    -0.354 N 
ATOM     62  N   UNL A   1      41.304  29.279  31.967  1.00  0.00    -0.248 NA
ATOM     63  C   UNL A   1      42.324  27.619  30.677  1.00  0.00     0.031 C 
ATOM     64  C   UNL A   1      42.629  30.455  36.035  1.00  0.00     0.029 A 
ATOM     65  C   UNL A   1      42.255  30.086  34.754  1.00  0.00     0.049 A 
ATOM     66  H   UNL A   1      40.733  30.885  33.529  1.00  0.00     0.167 HD
ATOM     67  C   UNL A   1      42.359  28.729  32.683  1.00  0.00     0.074 A 
ATOM     68  C   UNL A   1      42.930  27.689  31.853  1.00  0.00     0.031 C 
ATOM     69  C   UNL A   1      42.815  29.058  33.915  1.00  0.00     0.037 A 
BRANCH  56  70
ATOM     70  C   UNL A   1      39.728  33.706  36.571  1.00  0.00     0.057 A 
ATOM     71  C   UNL A   1      38.844  33.370  37.604  1.00  0.00     0.134 A 
ATOM     72  C   UNL A   1      40.426  34.915  36.687  1.00  0.00     0.134 A 
ATOM     73  F   UNL A   1      38.140  32.229  37.554  1.00  0.00    -0.206 F 
ATOM     74  C   UNL A   1      38.663  34.201  38.711  1.00  0.00     0.040 A 
ATOM     75  C   UNL A   1      40.272  35.744  37.800  1.00  0.00     0.040 A 
ATOM     76  F   UNL A   1      41.298  35.291  35.739  1.00  0.00    -0.206 F 
ATOM     77  C   UNL A   1      39.384  35.390  38.814  1.00  0.00     0.006 A 
ENDBRANCH  56  70
BRANCH  57  78
ATOM     78  C   UNL A   1      40.435  27.924  28.478  1.00  0.00     0.057 A 
ATOM     79  C   UNL A   1      41.188  28.288  27.355  1.00  0.00     0.134 A 
ATOM     80  C   UNL A   1      39.789  26.683  28.447  1.00  0.00     0.134 A 
ATOM     81  F   UNL A   1      41.830  29.466  27.323  1.00  0.00    -0.206 F 
ATOM     82  C   UNL A   1      41.289  27.455  26.241  1.00  0.00     0.040 A 
ATOM     83  C   UNL A   1      39.901  25.828  27.351  1.00  0.00     0.040 A 
ATOM     84  F   UNL A   1      39.070  26.271  29.502  1.00  0.00    -0.206 F 
ATOM     85  C   UNL A   1      40.649  26.216  26.241  1.00  0.00     0.006 A 
ENDBRANCH  57  78
BRANCH  69  86
ATOM     86  C   UNL A   1      43.975  28.265  34.441  1.00  0.00     0.057 A 
ATOM     87  C   UNL A   1      43.767  27.068  35.136  1.00  0.00     0.134 A 
ATOM     88  C   UNL A   1      45.298  28.689  34.262  1.00  0.00     0.134 A 
ATOM     89  F   UNL A   1      42.524  26.609  35.346  1.00  0.00    -0.206 F 
ATOM     90  C   UNL A   1      44.834  26.318  35.631  1.00  0.00     0.040 A 
ATOM     91  C   UNL A   1      46.375  27.935  34.732  1.00  0.00     0.040 A 
ATOM     92  F   UNL A   1      45.565  29.819  33.589  1.00  0.00    -0.206 F 
ATOM     93  C   UNL A   1      46.143  26.747  35.422  1.00  0.00     0.006 A 
ENDBRANCH  69  86
ENDBRANCH  43  44
ENDBRANCH  35  38
ENDBRANCH  33  34
ENDBRANCH  32  33
ENDBRANCH  31  32
ENDBRANCH   1  31
TORSDOF 17
ENDMDL
