MODEL 1
REMARK VINA RESULT:     -10.9      0.000      0.000
REMARK SMILES CCOC(=O)CN(C)C(=O)N1CC[C@H](C(=O)NCCCCCCNC(=O)c2ccc(-c3c4nc(c(-c5c(F)cccc5F)c5ccc([nH]5)c(-c5c(F)cccc5F)c5nc(c(-c6c(F)cccc6F)c6ccc3[nH]6)C=C5)C=C4)cc2)[C@H]1C
REMARK SMILES IDX 18 1 17 2 15 3 16 4 14 6 11 7 12 8 81 9 13 10 82 11 9 12
REMARK SMILES IDX 10 13 7 14 8 15 6 16 4 17 5 18 3 19 2 20 1 21 19 22 20 23
REMARK SMILES IDX 21 24 22 25 23 26 24 27 25 28 26 30 27 31 28 32 80 33 29 34
REMARK SMILES IDX 79 35 30 36 31 37 32 38 73 39 33 40 78 41 72 42 74 43 34 44
REMARK SMILES IDX 77 45 71 46 70 47 35 49 61 50 44 51 60 52 45 53 48 54 59 55
REMARK SMILES IDX 75 56 46 57 47 58 58 60 76 61 49 62 36 63 37 64 42 65 38 66
REMARK SMILES IDX 39 67 41 68 43 69 40 70 62 71 63 72 68 73 64 74 65 75 67 76
REMARK SMILES IDX 69 77 66 78 50 79 51 80 56 81 52 82 53 83 55 84 57 85 54 86
REMARK H PARENT 17 5 24 29 74 48 48 59
REMARK Flexibility Score: inf
ROOT
ATOM      1  C   UNL A   1      33.087  27.922  25.047  1.00  0.00     0.116 C 
ENDROOT
BRANCH   1   2
ATOM      2  N   UNL A   1      33.479  28.100  23.670  1.00  0.00    -0.356 N 
ATOM      3  C   UNL A   1      33.288  27.320  22.580  1.00  0.00     0.225 C 
ATOM      4  O   UNL A   1      33.993  27.602  21.604  1.00  0.00    -0.275 OA
ATOM      5  H   UNL A   1      33.971  28.934  23.493  1.00  0.00     0.163 HD
BRANCH   3   6
ATOM      6  C   UNL A   1      32.152  26.300  22.456  1.00  0.00     0.102 C 
ATOM      7  N   UNL A   1      32.912  24.037  22.512  1.00  0.00    -0.321 N 
ATOM      8  C   UNL A   1      33.107  24.552  21.161  1.00  0.00     0.122 C 
ATOM      9  C   UNL A   1      32.127  25.001  23.299  1.00  0.00     0.096 C 
ATOM     10  C   UNL A   1      32.141  25.715  21.030  1.00  0.00     0.037 C 
ATOM     11  C   UNL A   1      30.650  24.602  23.484  1.00  0.00     0.032 C 
BRANCH   7  12
ATOM     12  C   UNL A   1      33.869  23.166  22.989  1.00  0.00     0.320 C 
ATOM     13  O   UNL A   1      35.023  23.205  22.550  1.00  0.00    -0.248 OA
BRANCH  12  14
ATOM     14  N   UNL A   1      33.537  22.234  23.951  1.00  0.00    -0.317 N 
ATOM     15  C   UNL A   1      33.798  22.354  25.369  1.00  0.00     0.149 C 
BRANCH  14  16
ATOM     16  C   UNL A   1      32.549  21.222  23.555  1.00  0.00     0.243 C 
BRANCH  16  17
ATOM     17  C   UNL A   1      32.605  19.906  24.341  1.00  0.00     0.325 C 
ATOM     18  O   UNL A   1      31.887  19.682  25.311  1.00  0.00    -0.250 OA
BRANCH  17  19
ATOM     19  O   UNL A   1      33.499  19.021  23.816  1.00  0.00    -0.465 OA
BRANCH  19  20
ATOM     20  C   UNL A   1      32.961  17.771  23.362  1.00  0.00     0.229 C 
ATOM     21  C   UNL A   1      34.094  16.788  23.129  1.00  0.00     0.049 C 
ENDBRANCH  19  20
ENDBRANCH  17  19
ENDBRANCH  16  17
ENDBRANCH  14  16
ENDBRANCH  12  14
ENDBRANCH   7  12
ENDBRANCH   3   6
ENDBRANCH   1   2
BRANCH   1  22
ATOM     22  C   UNL A   1      31.642  28.396  25.232  1.00  0.00     0.021 C 
BRANCH  22  23
ATOM     23  C   UNL A   1      31.523  29.923  25.337  1.00  0.00     0.002 C 
BRANCH  23  24
ATOM     24  C   UNL A   1      31.801  30.490  26.735  1.00  0.00     0.002 C 
BRANCH  24  25
ATOM     25  C   UNL A   1      31.567  31.996  26.866  1.00  0.00     0.021 C 
BRANCH  25  26
ATOM     26  C   UNL A   1      32.796  32.770  27.330  1.00  0.00     0.116 C 
BRANCH  26  27
ATOM     27  N   UNL A   1      32.477  34.165  27.595  1.00  0.00    -0.352 N 
ATOM     28  C   UNL A   1      32.967  34.996  28.572  1.00  0.00     0.251 C 
ATOM     29  H   UNL A   1      31.815  34.570  26.988  1.00  0.00     0.163 HD
ATOM     30  O   UNL A   1      32.410  36.054  28.830  1.00  0.00    -0.269 OA
BRANCH  28  31
ATOM     31  C   UNL A   1      34.169  34.587  29.326  1.00  0.00     0.039 A 
ATOM     32  C   UNL A   1      34.030  34.132  30.639  1.00  0.00     0.014 A 
ATOM     33  C   UNL A   1      35.429  34.638  28.722  1.00  0.00     0.014 A 
ATOM     34  C   UNL A   1      35.147  33.646  31.319  1.00  0.00     0.010 A 
ATOM     35  C   UNL A   1      36.528  34.090  29.375  1.00  0.00     0.010 A 
ATOM     36  C   UNL A   1      36.393  33.575  30.674  1.00  0.00    -0.014 A 
BRANCH  36  37
ATOM     37  C   UNL A   1      37.564  32.931  31.319  1.00  0.00     0.031 A 
ATOM     38  C   UNL A   1      38.190  31.712  30.704  1.00  0.00     0.074 A 
ATOM     39  C   UNL A   1      38.002  33.394  32.506  1.00  0.00     0.049 A 
ATOM     40  N   UNL A   1      39.128  30.936  31.183  1.00  0.00    -0.248 NA
ATOM     41  C   UNL A   1      37.677  31.298  29.389  1.00  0.00     0.031 C 
ATOM     42  C   UNL A   1      37.450  34.547  33.221  1.00  0.00     0.029 A 
ATOM     43  N   UNL A   1      38.997  32.937  33.335  1.00  0.00    -0.354 N 
ATOM     44  C   UNL A   1      39.319  29.944  30.230  1.00  0.00     0.074 A 
ATOM     45  C   UNL A   1      38.360  30.183  29.173  1.00  0.00     0.031 C 
ATOM     46  C   UNL A   1      38.113  34.707  34.377  1.00  0.00     0.029 A 
ATOM     47  C   UNL A   1      39.103  33.643  34.509  1.00  0.00     0.049 A 
ATOM     48  H   UNL A   1      39.578  32.175  33.109  1.00  0.00     0.167 HD
ATOM     49  C   UNL A   1      40.228  28.940  30.226  1.00  0.00     0.037 A 
ATOM     50  C   UNL A   1      39.886  33.439  35.585  1.00  0.00     0.037 A 
ATOM     51  C   UNL A   1      41.181  28.710  31.279  1.00  0.00     0.049 A 
ATOM     52  C   UNL A   1      40.850  32.284  35.580  1.00  0.00     0.074 A 
ATOM     53  C   UNL A   1      42.169  27.743  31.352  1.00  0.00     0.029 A 
ATOM     54  N   UNL A   1      41.262  29.452  32.449  1.00  0.00    -0.354 N 
ATOM     55  N   UNL A   1      41.061  31.391  34.644  1.00  0.00    -0.248 NA
ATOM     56  C   UNL A   1      41.679  32.104  36.780  1.00  0.00     0.031 C 
ATOM     57  C   UNL A   1      42.814  27.869  32.585  1.00  0.00     0.029 A 
ATOM     58  C   UNL A   1      42.263  28.945  33.260  1.00  0.00     0.049 A 
ATOM     59  H   UNL A   1      40.693  30.225  32.668  1.00  0.00     0.167 HD
ATOM     60  C   UNL A   1      42.059  30.557  35.133  1.00  0.00     0.074 A 
ATOM     61  C   UNL A   1      42.426  31.064  36.439  1.00  0.00     0.031 C 
ATOM     62  C   UNL A   1      42.617  29.465  34.556  1.00  0.00     0.037 A 
BRANCH  49  63
ATOM     63  C   UNL A   1      40.242  28.019  29.042  1.00  0.00     0.057 A 
ATOM     64  C   UNL A   1      41.008  28.302  27.903  1.00  0.00     0.134 A 
ATOM     65  C   UNL A   1      39.531  26.813  29.060  1.00  0.00     0.134 A 
ATOM     66  F   UNL A   1      41.706  29.444  27.818  1.00  0.00    -0.206 F 
ATOM     67  C   UNL A   1      41.050  27.427  26.815  1.00  0.00     0.040 A 
ATOM     68  C   UNL A   1      39.587  25.917  27.989  1.00  0.00     0.040 A 
ATOM     69  F   UNL A   1      38.784  26.476  30.122  1.00  0.00    -0.206 F 
ATOM     70  C   UNL A   1      40.343  26.227  26.861  1.00  0.00     0.006 A 
ENDBRANCH  49  63
BRANCH  50  71
ATOM     71  C   UNL A   1      39.780  34.332  36.769  1.00  0.00     0.057 A 
ATOM     72  C   UNL A   1      40.487  35.537  36.836  1.00  0.00     0.134 A 
ATOM     73  C   UNL A   1      38.988  33.988  37.872  1.00  0.00     0.134 A 
ATOM     74  F   UNL A   1      41.278  35.912  35.819  1.00  0.00    -0.206 F 
ATOM     75  C   UNL A   1      40.434  36.355  37.966  1.00  0.00     0.040 A 
ATOM     76  C   UNL A   1      38.902  34.811  38.996  1.00  0.00     0.040 A 
ATOM     77  F   UNL A   1      38.276  32.850  37.869  1.00  0.00    -0.206 F 
ATOM     78  C   UNL A   1      39.635  35.993  39.049  1.00  0.00     0.006 A 
ENDBRANCH  50  71
BRANCH  62  79
ATOM     79  C   UNL A   1      43.690  28.753  35.324  1.00  0.00     0.057 A 
ATOM     80  C   UNL A   1      45.046  29.058  35.149  1.00  0.00     0.134 A 
ATOM     81  C   UNL A   1      43.362  27.795  36.293  1.00  0.00     0.134 A 
ATOM     82  F   UNL A   1      45.427  29.955  34.226  1.00  0.00    -0.206 F 
ATOM     83  C   UNL A   1      46.039  28.427  35.899  1.00  0.00     0.040 A 
ATOM     84  C   UNL A   1      44.344  27.177  37.068  1.00  0.00     0.040 A 
ATOM     85  F   UNL A   1      42.083  27.461  36.515  1.00  0.00    -0.206 F 
ATOM     86  C   UNL A   1      45.687  27.491  36.871  1.00  0.00     0.006 A 
ENDBRANCH  62  79
ENDBRANCH  36  37
ENDBRANCH  28  31
ENDBRANCH  26  27
ENDBRANCH  25  26
ENDBRANCH  24  25
ENDBRANCH  23  24
ENDBRANCH  22  23
ENDBRANCH   1  22
TORSDOF 19
ENDMDL
MODEL 2
REMARK VINA RESULT:     -10.9      4.022      8.214
REMARK SMILES CCOC(=O)CN(C)C(=O)N1CC[C@H](C(=O)NCCCCCCNC(=O)c2ccc(-c3c4nc(c(-c5c(F)cccc5F)c5ccc([nH]5)c(-c5c(F)cccc5F)c5nc(c(-c6c(F)cccc6F)c6ccc3[nH]6)C=C5)C=C4)cc2)[C@H]1C
REMARK SMILES IDX 18 1 17 2 15 3 16 4 14 6 11 7 12 8 81 9 13 10 82 11 9 12
REMARK SMILES IDX 10 13 7 14 8 15 6 16 4 17 5 18 3 19 2 20 1 21 19 22 20 23
REMARK SMILES IDX 21 24 22 25 23 26 24 27 25 28 26 30 27 31 28 32 80 33 29 34
REMARK SMILES IDX 79 35 30 36 31 37 32 38 73 39 33 40 78 41 72 42 74 43 34 44
REMARK SMILES IDX 77 45 71 46 70 47 35 49 61 50 44 51 60 52 45 53 48 54 59 55
REMARK SMILES IDX 75 56 46 57 47 58 58 60 76 61 49 62 36 63 37 64 42 65 38 66
REMARK SMILES IDX 39 67 41 68 43 69 40 70 62 71 63 72 68 73 64 74 65 75 67 76
REMARK SMILES IDX 69 77 66 78 50 79 51 80 56 81 52 82 53 83 55 84 57 85 54 86
REMARK H PARENT 17 5 24 29 74 48 48 59
REMARK Flexibility Score: inf
ROOT
ATOM      1  C   UNL A   1      30.783  25.324  24.167  1.00  0.00     0.116 C 
ENDROOT
BRANCH   1   2
ATOM      2  N   UNL A   1      30.404  24.196  24.983  1.00  0.00    -0.356 N 
ATOM      3  C   UNL A   1      31.151  23.246  25.594  1.00  0.00     0.225 C 
ATOM      4  O   UNL A   1      30.524  22.250  25.973  1.00  0.00    -0.275 OA
ATOM      5  H   UNL A   1      29.434  24.100  25.118  1.00  0.00     0.163 HD
BRANCH   3   6
ATOM      6  C   UNL A   1      32.617  23.446  25.992  1.00  0.00     0.102 C 
ATOM      7  N   UNL A   1      33.958  21.501  25.646  1.00  0.00    -0.321 N 
ATOM      8  C   UNL A   1      33.242  21.345  26.907  1.00  0.00     0.122 C 
ATOM      9  C   UNL A   1      33.778  22.872  25.143  1.00  0.00     0.096 C 
ATOM     10  C   UNL A   1      32.881  22.753  27.342  1.00  0.00     0.037 C 
ATOM     11  C   UNL A   1      35.001  23.784  25.361  1.00  0.00     0.032 C 
BRANCH   7  12
ATOM     12  C   UNL A   1      34.143  20.362  24.890  1.00  0.00     0.320 C 
ATOM     13  O   UNL A   1      35.275  19.894  24.732  1.00  0.00    -0.248 OA
BRANCH  12  14
ATOM     14  N   UNL A   1      33.062  19.746  24.293  1.00  0.00    -0.317 N 
ATOM     15  C   UNL A   1      32.342  20.237  23.138  1.00  0.00     0.149 C 
BRANCH  14  16
ATOM     16  C   UNL A   1      32.853  18.334  24.638  1.00  0.00     0.243 C 
BRANCH  16  17
ATOM     17  C   UNL A   1      33.183  17.330  23.526  1.00  0.00     0.325 C 
ATOM     18  O   UNL A   1      32.862  17.509  22.354  1.00  0.00    -0.250 OA
BRANCH  17  19
ATOM     19  O   UNL A   1      33.897  16.262  23.980  1.00  0.00    -0.465 OA
BRANCH  19  20
ATOM     20  C   UNL A   1      33.726  15.929  25.364  1.00  0.00     0.229 C 
ATOM     21  C   UNL A   1      32.729  14.791  25.491  1.00  0.00     0.049 C 
ENDBRANCH  19  20
ENDBRANCH  17  19
ENDBRANCH  16  17
ENDBRANCH  14  16
ENDBRANCH  12  14
ENDBRANCH   7  12
ENDBRANCH   3   6
ENDBRANCH   1   2
BRANCH   1  22
ATOM     22  C   UNL A   1      30.449  26.623  24.907  1.00  0.00     0.021 C 
BRANCH  22  23
ATOM     23  C   UNL A   1      31.512  27.010  25.946  1.00  0.00     0.002 C 
BRANCH  23  24
ATOM     24  C   UNL A   1      32.928  27.170  25.379  1.00  0.00     0.002 C 
BRANCH  24  25
ATOM     25  C   UNL A   1      33.633  28.464  25.790  1.00  0.00     0.021 C 
BRANCH  25  26
ATOM     26  C   UNL A   1      33.706  28.670  27.299  1.00  0.00     0.116 C 
BRANCH  26  27
ATOM     27  N   UNL A   1      33.774  30.084  27.640  1.00  0.00    -0.352 N 
ATOM     28  C   UNL A   1      34.765  30.772  28.295  1.00  0.00     0.251 C 
ATOM     29  H   UNL A   1      32.998  30.624  27.360  1.00  0.00     0.163 HD
ATOM     30  O   UNL A   1      34.560  31.893  28.738  1.00  0.00    -0.269 OA
BRANCH  28  31
ATOM     31  C   UNL A   1      36.083  30.131  28.479  1.00  0.00     0.039 A 
ATOM     32  C   UNL A   1      37.014  30.174  27.439  1.00  0.00     0.014 A 
ATOM     33  C   UNL A   1      36.398  29.506  29.689  1.00  0.00     0.014 A 
ATOM     34  C   UNL A   1      38.295  29.663  27.644  1.00  0.00     0.010 A 
ATOM     35  C   UNL A   1      37.696  29.060  29.915  1.00  0.00     0.010 A 
ATOM     36  C   UNL A   1      38.660  29.148  28.899  1.00  0.00    -0.014 A 
BRANCH  36  37
ATOM     37  C   UNL A   1      40.055  28.732  29.191  1.00  0.00     0.031 A 
ATOM     38  C   UNL A   1      41.018  29.701  29.814  1.00  0.00     0.074 A 
ATOM     39  C   UNL A   1      40.472  27.510  28.809  1.00  0.00     0.049 A 
ATOM     40  N   UNL A   1      42.303  29.568  30.022  1.00  0.00    -0.248 NA
ATOM     41  C   UNL A   1      40.469  30.999  30.237  1.00  0.00     0.031 C 
ATOM     42  C   UNL A   1      39.640  26.495  28.160  1.00  0.00     0.029 A 
ATOM     43  N   UNL A   1      41.711  26.920  28.887  1.00  0.00    -0.354 N 
ATOM     44  C   UNL A   1      42.715  30.762  30.600  1.00  0.00     0.074 A 
ATOM     45  C   UNL A   1      41.558  31.628  30.656  1.00  0.00     0.031 C 
ATOM     46  C   UNL A   1      40.388  25.411  27.901  1.00  0.00     0.029 A 
ATOM     47  C   UNL A   1      41.761  25.669  28.322  1.00  0.00     0.049 A 
ATOM     48  H   UNL A   1      42.488  27.354  29.309  1.00  0.00     0.167 HD
ATOM     49  C   UNL A   1      43.944  31.096  31.063  1.00  0.00     0.037 A 
ATOM     50  C   UNL A   1      42.802  24.836  28.133  1.00  0.00     0.037 A 
ATOM     51  C   UNL A   1      45.091  30.228  31.008  1.00  0.00     0.049 A 
ATOM     52  C   UNL A   1      44.168  25.252  28.607  1.00  0.00     0.074 A 
ATOM     53  C   UNL A   1      46.370  30.459  31.484  1.00  0.00     0.029 A 
ATOM     54  N   UNL A   1      45.100  28.965  30.434  1.00  0.00    -0.354 N 
ATOM     55  N   UNL A   1      44.530  26.360  29.208  1.00  0.00    -0.248 NA
ATOM     56  C   UNL A   1      45.270  24.308  28.374  1.00  0.00     0.031 C 
ATOM     57  C   UNL A   1      47.164  29.357  31.156  1.00  0.00     0.029 A 
ATOM     58  C   UNL A   1      46.370  28.419  30.518  1.00  0.00     0.049 A 
ATOM     59  H   UNL A   1      44.320  28.524  30.028  1.00  0.00     0.167 HD
ATOM     60  C   UNL A   1      45.894  26.237  29.441  1.00  0.00     0.074 A 
ATOM     61  C   UNL A   1      46.290  24.938  28.937  1.00  0.00     0.031 C 
ATOM     62  C   UNL A   1      46.745  27.122  30.014  1.00  0.00     0.037 A 
BRANCH  49  63
ATOM     63  C   UNL A   1      44.109  32.452  31.681  1.00  0.00     0.057 A 
ATOM     64  C   UNL A   1      43.917  32.662  33.054  1.00  0.00     0.134 A 
ATOM     65  C   UNL A   1      44.519  33.549  30.912  1.00  0.00     0.134 A 
ATOM     66  F   UNL A   1      43.516  31.657  33.845  1.00  0.00    -0.206 F 
ATOM     67  C   UNL A   1      44.106  33.918  33.635  1.00  0.00     0.040 A 
ATOM     68  C   UNL A   1      44.737  34.803  31.486  1.00  0.00     0.040 A 
ATOM     69  F   UNL A   1      44.729  33.417  29.593  1.00  0.00    -0.206 F 
ATOM     70  C   UNL A   1      44.525  34.990  32.850  1.00  0.00     0.006 A 
ENDBRANCH  49  63
BRANCH  50  71
ATOM     71  C   UNL A   1      42.604  23.534  27.443  1.00  0.00     0.057 A 
ATOM     72  C   UNL A   1      42.329  22.366  28.162  1.00  0.00     0.134 A 
ATOM     73  C   UNL A   1      42.710  23.423  26.051  1.00  0.00     0.134 A 
ATOM     74  F   UNL A   1      42.233  22.404  29.500  1.00  0.00    -0.206 F 
ATOM     75  C   UNL A   1      42.193  21.130  27.527  1.00  0.00     0.040 A 
ATOM     76  C   UNL A   1      42.548  22.200  25.400  1.00  0.00     0.040 A 
ATOM     77  F   UNL A   1      42.964  24.507  25.301  1.00  0.00    -0.206 F 
ATOM     78  C   UNL A   1      42.300  21.046  26.140  1.00  0.00     0.006 A 
ENDBRANCH  50  71
BRANCH  62  79
ATOM     79  C   UNL A   1      48.182  26.714  30.141  1.00  0.00     0.057 A 
ATOM     80  C   UNL A   1      48.632  25.927  31.208  1.00  0.00     0.134 A 
ATOM     81  C   UNL A   1      49.114  27.060  29.154  1.00  0.00     0.134 A 
ATOM     82  F   UNL A   1      47.793  25.574  32.194  1.00  0.00    -0.206 F 
ATOM     83  C   UNL A   1      49.961  25.509  31.297  1.00  0.00     0.040 A 
ATOM     84  C   UNL A   1      50.439  26.627  29.217  1.00  0.00     0.040 A 
ATOM     85  F   UNL A   1      48.747  27.807  28.102  1.00  0.00    -0.206 F 
ATOM     86  C   UNL A   1      50.866  25.850  30.293  1.00  0.00     0.006 A 
ENDBRANCH  62  79
ENDBRANCH  36  37
ENDBRANCH  28  31
ENDBRANCH  26  27
ENDBRANCH  25  26
ENDBRANCH  24  25
ENDBRANCH  23  24
ENDBRANCH  22  23
ENDBRANCH   1  22
TORSDOF 19
ENDMDL
MODEL 3
REMARK VINA RESULT:     -10.6      5.721     11.968
REMARK SMILES CCOC(=O)CN(C)C(=O)N1CC[C@H](C(=O)NCCCCCCNC(=O)c2ccc(-c3c4nc(c(-c5c(F)cccc5F)c5ccc([nH]5)c(-c5c(F)cccc5F)c5nc(c(-c6c(F)cccc6F)c6ccc3[nH]6)C=C5)C=C4)cc2)[C@H]1C
REMARK SMILES IDX 18 1 17 2 15 3 16 4 14 6 11 7 12 8 81 9 13 10 82 11 9 12
REMARK SMILES IDX 10 13 7 14 8 15 6 16 4 17 5 18 3 19 2 20 1 21 19 22 20 23
REMARK SMILES IDX 21 24 22 25 23 26 24 27 25 28 26 30 27 31 28 32 80 33 29 34
REMARK SMILES IDX 79 35 30 36 31 37 32 38 73 39 33 40 78 41 72 42 74 43 34 44
REMARK SMILES IDX 77 45 71 46 70 47 35 49 61 50 44 51 60 52 45 53 48 54 59 55
REMARK SMILES IDX 75 56 46 57 47 58 58 60 76 61 49 62 36 63 37 64 42 65 38 66
REMARK SMILES IDX 39 67 41 68 43 69 40 70 62 71 63 72 68 73 64 74 65 75 67 76
REMARK SMILES IDX 69 77 66 78 50 79 51 80 56 81 52 82 53 83 55 84 57 85 54 86
REMARK H PARENT 17 5 24 29 74 48 48 59
REMARK Flexibility Score: inf
ROOT
ATOM      1  C   UNL A   1      47.112  24.232  25.475  1.00  0.00     0.116 C 
ENDROOT
BRANCH   1   2
ATOM      2  N   UNL A   1      47.267  25.524  24.852  1.00  0.00    -0.356 N 
ATOM      3  C   UNL A   1      46.432  26.588  24.785  1.00  0.00     0.225 C 
ATOM      4  O   UNL A   1      46.730  27.436  23.935  1.00  0.00    -0.275 OA
ATOM      5  H   UNL A   1      48.130  25.655  24.398  1.00  0.00     0.163 HD
BRANCH   3   6
ATOM      6  C   UNL A   1      45.320  26.858  25.803  1.00  0.00     0.102 C 
ATOM      7  N   UNL A   1      45.299  29.111  26.596  1.00  0.00    -0.321 N 
ATOM      8  C   UNL A   1      46.319  28.375  27.335  1.00  0.00     0.122 C 
ATOM      9  C   UNL A   1      44.503  28.174  25.788  1.00  0.00     0.096 C 
ATOM     10  C   UNL A   1      45.924  26.915  27.220  1.00  0.00     0.037 C 
ATOM     11  C   UNL A   1      43.116  27.860  26.382  1.00  0.00     0.032 C 
BRANCH   7  12
ATOM     12  C   UNL A   1      45.578  30.429  26.297  1.00  0.00     0.320 C 
ATOM     13  O   UNL A   1      46.510  30.712  25.537  1.00  0.00    -0.248 OA
BRANCH  12  14
ATOM     14  N   UNL A   1      44.825  31.439  26.859  1.00  0.00    -0.317 N 
ATOM     15  C   UNL A   1      43.896  31.289  27.957  1.00  0.00     0.149 C 
BRANCH  14  16
ATOM     16  C   UNL A   1      45.256  32.810  26.555  1.00  0.00     0.243 C 
BRANCH  16  17
ATOM     17  C   UNL A   1      44.457  33.521  25.455  1.00  0.00     0.325 C 
ATOM     18  O   UNL A   1      44.144  32.972  24.403  1.00  0.00    -0.250 OA
BRANCH  17  19
ATOM     19  O   UNL A   1      44.110  34.793  25.800  1.00  0.00    -0.465 OA
BRANCH  19  20
ATOM     20  C   UNL A   1      43.407  34.942  27.041  1.00  0.00     0.229 C 
ATOM     21  C   UNL A   1      43.296  36.417  27.384  1.00  0.00     0.049 C 
ENDBRANCH  19  20
ENDBRANCH  17  19
ENDBRANCH  16  17
ENDBRANCH  14  16
ENDBRANCH  12  14
ENDBRANCH   7  12
ENDBRANCH   3   6
ENDBRANCH   1   2
BRANCH   1  22
ATOM     22  C   UNL A   1      45.991  23.459  24.774  1.00  0.00     0.021 C 
BRANCH  22  23
ATOM     23  C   UNL A   1      45.820  22.031  25.315  1.00  0.00     0.002 C 
BRANCH  23  24
ATOM     24  C   UNL A   1      46.194  20.924  24.322  1.00  0.00     0.002 C 
BRANCH  24  25
ATOM     25  C   UNL A   1      45.329  19.666  24.419  1.00  0.00     0.021 C 
BRANCH  25  26
ATOM     26  C   UNL A   1      44.462  19.613  25.673  1.00  0.00     0.116 C 
BRANCH  26  27
ATOM     27  N   UNL A   1      43.110  19.172  25.365  1.00  0.00    -0.352 N 
ATOM     28  C   UNL A   1      41.911  19.681  25.801  1.00  0.00     0.251 C 
ATOM     29  H   UNL A   1      43.045  18.399  24.758  1.00  0.00     0.163 HD
ATOM     30  O   UNL A   1      40.876  19.043  25.669  1.00  0.00    -0.269 OA
BRANCH  28  31
ATOM     31  C   UNL A   1      41.889  21.005  26.454  1.00  0.00     0.039 A 
ATOM     32  C   UNL A   1      41.564  21.094  27.809  1.00  0.00     0.014 A 
ATOM     33  C   UNL A   1      42.209  22.155  25.724  1.00  0.00     0.014 A 
ATOM     34  C   UNL A   1      41.644  22.327  28.455  1.00  0.00     0.010 A 
ATOM     35  C   UNL A   1      42.354  23.370  26.384  1.00  0.00     0.010 A 
ATOM     36  C   UNL A   1      42.087  23.464  27.759  1.00  0.00    -0.014 A 
BRANCH  36  37
ATOM     37  C   UNL A   1      42.320  24.756  28.452  1.00  0.00     0.031 A 
ATOM     38  C   UNL A   1      43.587  24.979  29.227  1.00  0.00     0.074 A 
ATOM     39  C   UNL A   1      41.348  25.688  28.454  1.00  0.00     0.049 A 
ATOM     40  N   UNL A   1      43.913  25.982  30.002  1.00  0.00    -0.248 NA
ATOM     41  C   UNL A   1      44.611  23.927  29.138  1.00  0.00     0.031 C 
ATOM     42  C   UNL A   1      40.059  25.570  27.769  1.00  0.00     0.029 A 
ATOM     43  N   UNL A   1      41.281  26.912  29.075  1.00  0.00    -0.354 N 
ATOM     44  C   UNL A   1      45.178  25.682  30.492  1.00  0.00     0.074 A 
ATOM     45  C   UNL A   1      45.535  24.380  29.973  1.00  0.00     0.031 C 
ATOM     46  C   UNL A   1      39.332  26.673  28.005  1.00  0.00     0.029 A 
ATOM     47  C   UNL A   1      40.081  27.555  28.894  1.00  0.00     0.049 A 
ATOM     48  H   UNL A   1      42.024  27.291  29.598  1.00  0.00     0.167 HD
ATOM     49  C   UNL A   1      45.978  26.437  31.283  1.00  0.00     0.037 A 
ATOM     50  C   UNL A   1      39.621  28.710  29.412  1.00  0.00     0.037 A 
ATOM     51  C   UNL A   1      45.617  27.733  31.793  1.00  0.00     0.049 A 
ATOM     52  C   UNL A   1      40.508  29.504  30.332  1.00  0.00     0.074 A 
ATOM     53  C   UNL A   1      46.373  28.594  32.571  1.00  0.00     0.029 A 
ATOM     54  N   UNL A   1      44.395  28.355  31.582  1.00  0.00    -0.354 N 
ATOM     55  N   UNL A   1      41.726  29.237  30.737  1.00  0.00    -0.248 NA
ATOM     56  C   UNL A   1      39.957  30.755  30.873  1.00  0.00     0.031 C 
ATOM     57  C   UNL A   1      45.591  29.712  32.871  1.00  0.00     0.029 A 
ATOM     58  C   UNL A   1      44.366  29.573  32.240  1.00  0.00     0.049 A 
ATOM     59  H   UNL A   1      43.659  27.984  31.044  1.00  0.00     0.167 HD
ATOM     60  C   UNL A   1      42.093  30.293  31.561  1.00  0.00     0.074 A 
ATOM     61  C   UNL A   1      40.977  31.217  31.581  1.00  0.00     0.031 C 
ATOM     62  C   UNL A   1      43.247  30.480  32.246  1.00  0.00     0.037 A 
BRANCH  49  63
ATOM     63  C   UNL A   1      47.326  25.884  31.638  1.00  0.00     0.057 A 
ATOM     64  C   UNL A   1      48.419  26.002  30.768  1.00  0.00     0.134 A 
ATOM     65  C   UNL A   1      47.552  25.278  32.880  1.00  0.00     0.134 A 
ATOM     66  F   UNL A   1      48.269  26.563  29.560  1.00  0.00    -0.206 F 
ATOM     67  C   UNL A   1      49.683  25.519  31.114  1.00  0.00     0.040 A 
ATOM     68  C   UNL A   1      48.817  24.816  33.248  1.00  0.00     0.040 A 
ATOM     69  F   UNL A   1      46.552  25.140  33.763  1.00  0.00    -0.206 F 
ATOM     70  C   UNL A   1      49.885  24.932  32.361  1.00  0.00     0.006 A 
ENDBRANCH  49  63
BRANCH  50  71
ATOM     71  C   UNL A   1      38.246  29.178  29.095  1.00  0.00     0.057 A 
ATOM     72  C   UNL A   1      37.931  29.708  27.839  1.00  0.00     0.134 A 
ATOM     73  C   UNL A   1      37.222  29.130  30.048  1.00  0.00     0.134 A 
ATOM     74  F   UNL A   1      38.874  29.798  26.889  1.00  0.00    -0.206 F 
ATOM     75  C   UNL A   1      36.656  30.198  27.550  1.00  0.00     0.040 A 
ATOM     76  C   UNL A   1      35.935  29.589  29.764  1.00  0.00     0.040 A 
ATOM     77  F   UNL A   1      37.454  28.626  31.270  1.00  0.00    -0.206 F 
ATOM     78  C   UNL A   1      35.653  30.136  28.514  1.00  0.00     0.006 A 
ENDBRANCH  50  71
BRANCH  62  79
ATOM     79  C   UNL A   1      43.369  31.732  33.062  1.00  0.00     0.057 A 
ATOM     80  C   UNL A   1      43.004  31.768  34.413  1.00  0.00     0.134 A 
ATOM     81  C   UNL A   1      43.916  32.897  32.508  1.00  0.00     0.134 A 
ATOM     82  F   UNL A   1      42.461  30.690  35.000  1.00  0.00    -0.206 F 
ATOM     83  C   UNL A   1      43.164  32.922  35.182  1.00  0.00     0.040 A 
ATOM     84  C   UNL A   1      44.106  34.049  33.273  1.00  0.00     0.040 A 
ATOM     85  F   UNL A   1      44.293  32.928  31.221  1.00  0.00    -0.206 F 
ATOM     86  C   UNL A   1      43.728  34.064  34.614  1.00  0.00     0.006 A 
ENDBRANCH  62  79
ENDBRANCH  36  37
ENDBRANCH  28  31
ENDBRANCH  26  27
ENDBRANCH  25  26
ENDBRANCH  24  25
ENDBRANCH  23  24
ENDBRANCH  22  23
ENDBRANCH   1  22
TORSDOF 19
ENDMDL
