MODEL 1
REMARK VINA RESULT:     -10.6      0.000      0.000
REMARK SMILES CC(C)C[C@@H](C(=O)NCCCCCCNC(=O)c1ccc(-c2c3nc(c(-c4c(F)cccc4F)c4ccc([nH]4)c(-c4c(F)cccc4F)c4nc(c(-c5c(F)cccc5F)c5ccc2[nH]5)C=C4)C=C3)cc1)[C@@H]1CCC[C@@H](C)C1
REMARK SMILES IDX 11 1 10 2 9 3 8 4 6 5 7 6 5 8 4 9 2 10 1 11 3 12 72 13 73 14
REMARK SMILES IDX 78 15 74 16 76 17 75 18 77 19 12 20 13 21 14 22 15 23 16 24
REMARK SMILES IDX 17 26 18 27 19 28 71 29 20 30 70 31 21 32 22 33 23 34 64 35
REMARK SMILES IDX 24 36 69 37 63 38 65 39 25 40 68 41 62 42 61 43 26 45 52 46
REMARK SMILES IDX 35 47 51 48 36 49 39 50 50 51 66 52 37 53 38 54 49 56 67 57
REMARK SMILES IDX 40 58 27 59 28 60 33 61 29 62 30 63 32 64 34 65 31 66 53 67
REMARK SMILES IDX 54 68 59 69 55 70 56 71 58 72 60 73 57 74 41 75 42 76 47 77
REMARK SMILES IDX 43 78 44 79 46 80 48 81 45 82
REMARK H PARENT 8 7 15 25 65 44 39 55
REMARK Flexibility Score: inf
ROOT
ATOM      1  C   UNL A   1      34.715  19.773  24.818  1.00  0.00     0.002 C 
ENDROOT
BRANCH   1   2
ATOM      2  C   UNL A   1      33.615  20.149  25.810  1.00  0.00     0.021 C 
BRANCH   2   3
ATOM      3  C   UNL A   1      33.863  21.399  26.655  1.00  0.00     0.116 C 
BRANCH   3   4
ATOM      4  N   UNL A   1      32.620  21.954  27.150  1.00  0.00    -0.356 N 
ATOM      5  C   UNL A   1      31.850  23.007  26.783  1.00  0.00     0.223 C 
ATOM      6  O   UNL A   1      30.854  23.203  27.494  1.00  0.00    -0.275 OA
ATOM      7  H   UNL A   1      32.255  21.458  27.919  1.00  0.00     0.163 HD
BRANCH   5   8
ATOM      8  C   UNL A   1      32.120  23.953  25.593  1.00  0.00     0.082 C 
BRANCH   8   9
ATOM      9  C   UNL A   1      32.175  25.451  25.972  1.00  0.00     0.016 C 
BRANCH   9  10
ATOM     10  C   UNL A   1      33.576  26.117  25.921  1.00  0.00    -0.017 C 
ATOM     11  C   UNL A   1      34.676  25.202  25.379  1.00  0.00     0.007 C 
ATOM     12  C   UNL A   1      33.512  27.367  25.034  1.00  0.00     0.007 C 
ENDBRANCH   9  10
ENDBRANCH   8   9
BRANCH   8  13
ATOM     13  C   UNL A   1      31.466  23.572  24.221  1.00  0.00     0.002 C 
ATOM     14  C   UNL A   1      31.915  22.275  23.530  1.00  0.00     0.004 C 
ATOM     15  C   UNL A   1      31.386  24.717  23.190  1.00  0.00     0.007 C 
ATOM     16  C   UNL A   1      33.159  22.416  22.676  1.00  0.00     0.001 C 
ATOM     17  C   UNL A   1      32.652  24.889  22.341  1.00  0.00    -0.014 C 
ATOM     18  C   UNL A   1      33.068  23.569  21.683  1.00  0.00     0.003 C 
ATOM     19  C   UNL A   1      32.437  25.971  21.281  1.00  0.00     0.007 C 
ENDBRANCH   8  13
ENDBRANCH   5   8
ENDBRANCH   3   4
ENDBRANCH   2   3
ENDBRANCH   1   2
BRANCH   1  20
ATOM     20  C   UNL A   1      36.045  20.512  24.978  1.00  0.00     0.002 C 
BRANCH  20  21
ATOM     21  C   UNL A   1      37.314  19.654  24.941  1.00  0.00     0.021 C 
BRANCH  21  22
ATOM     22  C   UNL A   1      38.570  20.278  25.549  1.00  0.00     0.116 C 
BRANCH  22  23
ATOM     23  N   UNL A   1      39.671  19.339  25.649  1.00  0.00    -0.352 N 
ATOM     24  C   UNL A   1      40.973  19.560  26.024  1.00  0.00     0.251 C 
ATOM     25  H   UNL A   1      39.452  18.408  25.416  1.00  0.00     0.163 HD
ATOM     26  O   UNL A   1      41.807  18.669  25.904  1.00  0.00    -0.269 OA
BRANCH  24  27
ATOM     27  C   UNL A   1      41.382  20.878  26.558  1.00  0.00     0.039 A 
ATOM     28  C   UNL A   1      41.212  21.125  27.923  1.00  0.00     0.014 A 
ATOM     29  C   UNL A   1      41.876  21.882  25.719  1.00  0.00     0.014 A 
ATOM     30  C   UNL A   1      41.562  22.369  28.451  1.00  0.00     0.010 A 
ATOM     31  C   UNL A   1      42.280  23.104  26.258  1.00  0.00     0.010 A 
ATOM     32  C   UNL A   1      42.105  23.367  27.625  1.00  0.00    -0.014 A 
BRANCH  32  33
ATOM     33  C   UNL A   1      42.427  24.709  28.175  1.00  0.00     0.031 A 
ATOM     34  C   UNL A   1      43.849  25.053  28.526  1.00  0.00     0.074 A 
ATOM     35  C   UNL A   1      41.448  25.615  28.362  1.00  0.00     0.049 A 
ATOM     36  N   UNL A   1      44.335  26.166  29.018  1.00  0.00    -0.248 NA
ATOM     37  C   UNL A   1      44.856  24.001  28.315  1.00  0.00     0.031 C 
ATOM     38  C   UNL A   1      40.025  25.394  28.096  1.00  0.00     0.029 A 
ATOM     39  N   UNL A   1      41.504  26.907  28.820  1.00  0.00    -0.354 N 
ATOM     40  C   UNL A   1      45.698  25.946  29.173  1.00  0.00     0.074 A 
ATOM     41  C   UNL A   1      45.954  24.576  28.782  1.00  0.00     0.031 C 
ATOM     42  C   UNL A   1      39.347  26.521  28.373  1.00  0.00     0.029 A 
ATOM     43  C   UNL A   1      40.281  27.533  28.853  1.00  0.00     0.049 A 
ATOM     44  H   UNL A   1      42.341  27.344  29.098  1.00  0.00     0.167 HD
ATOM     45  C   UNL A   1      46.659  26.813  29.572  1.00  0.00     0.037 A 
ATOM     46  C   UNL A   1      39.956  28.788  29.222  1.00  0.00     0.037 A 
ATOM     47  C   UNL A   1      46.413  28.180  29.946  1.00  0.00     0.049 A 
ATOM     48  C   UNL A   1      41.044  29.734  29.651  1.00  0.00     0.074 A 
ATOM     49  C   UNL A   1      47.317  29.140  30.367  1.00  0.00     0.029 A 
ATOM     50  N   UNL A   1      45.166  28.787  29.929  1.00  0.00    -0.354 N 
ATOM     51  N   UNL A   1      42.333  29.522  29.755  1.00  0.00    -0.248 NA
ATOM     52  C   UNL A   1      40.631  31.103  29.996  1.00  0.00     0.031 C 
ATOM     53  C   UNL A   1      46.615  30.323  30.621  1.00  0.00     0.029 A 
ATOM     54  C   UNL A   1      45.278  30.109  30.325  1.00  0.00     0.049 A 
ATOM     55  H   UNL A   1      44.325  28.343  29.675  1.00  0.00     0.167 HD
ATOM     56  C   UNL A   1      42.888  30.736  30.139  1.00  0.00     0.074 A 
ATOM     57  C   UNL A   1      41.797  31.683  30.237  1.00  0.00     0.031 C 
ATOM     58  C   UNL A   1      44.184  31.042  30.390  1.00  0.00     0.037 A 
BRANCH  45  59
ATOM     59  C   UNL A   1      48.072  26.307  29.605  1.00  0.00     0.057 A 
ATOM     60  C   UNL A   1      48.913  26.419  28.490  1.00  0.00     0.134 A 
ATOM     61  C   UNL A   1      48.606  25.727  30.762  1.00  0.00     0.134 A 
ATOM     62  F   UNL A   1      48.456  26.952  27.345  1.00  0.00    -0.206 F 
ATOM     63  C   UNL A   1      50.227  25.951  28.516  1.00  0.00     0.040 A 
ATOM     64  C   UNL A   1      49.927  25.278  30.807  1.00  0.00     0.040 A 
ATOM     65  F   UNL A   1      47.855  25.592  31.866  1.00  0.00    -0.206 F 
ATOM     66  C   UNL A   1      50.740  25.384  29.681  1.00  0.00     0.006 A 
ENDBRANCH  45  59
BRANCH  46  67
ATOM     67  C   UNL A   1      38.545  29.245  29.164  1.00  0.00     0.057 A 
ATOM     68  C   UNL A   1      37.993  29.737  27.976  1.00  0.00     0.134 A 
ATOM     69  C   UNL A   1      37.729  29.239  30.301  1.00  0.00     0.134 A 
ATOM     70  F   UNL A   1      38.732  29.786  26.858  1.00  0.00    -0.206 F 
ATOM     71  C   UNL A   1      36.691  30.236  27.926  1.00  0.00     0.040 A 
ATOM     72  C   UNL A   1      36.416  29.713  30.260  1.00  0.00     0.040 A 
ATOM     73  F   UNL A   1      38.197  28.773  31.469  1.00  0.00    -0.206 F 
ATOM     74  C   UNL A   1      35.898  30.223  29.072  1.00  0.00     0.006 A 
ENDBRANCH  46  67
BRANCH  58  75
ATOM     75  C   UNL A   1      44.495  32.468  30.734  1.00  0.00     0.057 A 
ATOM     76  C   UNL A   1      44.515  32.924  32.058  1.00  0.00     0.134 A 
ATOM     77  C   UNL A   1      44.791  33.393  29.725  1.00  0.00     0.134 A 
ATOM     78  F   UNL A   1      44.228  32.091  33.069  1.00  0.00    -0.206 F 
ATOM     79  C   UNL A   1      44.787  34.258  32.364  1.00  0.00     0.040 A 
ATOM     80  C   UNL A   1      45.089  34.723  30.020  1.00  0.00     0.040 A 
ATOM     81  F   UNL A   1      44.797  33.017  28.437  1.00  0.00    -0.206 F 
ATOM     82  C   UNL A   1      45.079  35.161  31.342  1.00  0.00     0.006 A 
ENDBRANCH  58  75
ENDBRANCH  32  33
ENDBRANCH  24  27
ENDBRANCH  22  23
ENDBRANCH  21  22
ENDBRANCH  20  21
ENDBRANCH   1  20
TORSDOF 16
ENDMDL
MODEL 2
REMARK VINA RESULT:     -10.4      0.871      6.437
REMARK SMILES CC(C)C[C@@H](C(=O)NCCCCCCNC(=O)c1ccc(-c2c3nc(c(-c4c(F)cccc4F)c4ccc([nH]4)c(-c4c(F)cccc4F)c4nc(c(-c5c(F)cccc5F)c5ccc2[nH]5)C=C4)C=C3)cc1)[C@@H]1CCC[C@@H](C)C1
REMARK SMILES IDX 11 1 10 2 9 3 8 4 6 5 7 6 5 8 4 9 2 10 1 11 3 12 72 13 73 14
REMARK SMILES IDX 78 15 74 16 76 17 75 18 77 19 12 20 13 21 14 22 15 23 16 24
REMARK SMILES IDX 17 26 18 27 19 28 71 29 20 30 70 31 21 32 22 33 23 34 64 35
REMARK SMILES IDX 24 36 69 37 63 38 65 39 25 40 68 41 62 42 61 43 26 45 52 46
REMARK SMILES IDX 35 47 51 48 36 49 39 50 50 51 66 52 37 53 38 54 49 56 67 57
REMARK SMILES IDX 40 58 27 59 28 60 33 61 29 62 30 63 32 64 34 65 31 66 53 67
REMARK SMILES IDX 54 68 59 69 55 70 56 71 58 72 60 73 57 74 41 75 42 76 47 77
REMARK SMILES IDX 43 78 44 79 46 80 48 81 45 82
REMARK H PARENT 8 7 15 25 65 44 39 55
REMARK Flexibility Score: inf
ROOT
ATOM      1  C   UNL A   1      34.655  20.097  24.948  1.00  0.00     0.002 C 
ENDROOT
BRANCH   1   2
ATOM      2  C   UNL A   1      33.394  20.914  25.231  1.00  0.00     0.021 C 
BRANCH   2   3
ATOM      3  C   UNL A   1      33.509  21.986  26.314  1.00  0.00     0.116 C 
BRANCH   3   4
ATOM      4  N   UNL A   1      32.206  22.358  26.826  1.00  0.00    -0.356 N 
ATOM      5  C   UNL A   1      31.384  23.416  26.621  1.00  0.00     0.223 C 
ATOM      6  O   UNL A   1      30.341  23.409  27.291  1.00  0.00    -0.275 OA
ATOM      7  H   UNL A   1      31.837  21.700  27.458  1.00  0.00     0.163 HD
BRANCH   5   8
ATOM      8  C   UNL A   1      31.648  24.593  25.658  1.00  0.00     0.082 C 
BRANCH   8   9
ATOM      9  C   UNL A   1      32.169  25.875  26.349  1.00  0.00     0.016 C 
BRANCH   9  10
ATOM     10  C   UNL A   1      33.646  26.254  26.062  1.00  0.00    -0.017 C 
ATOM     11  C   UNL A   1      34.329  25.346  25.037  1.00  0.00     0.007 C 
ATOM     12  C   UNL A   1      33.708  27.696  25.542  1.00  0.00     0.007 C 
ENDBRANCH   9  10
ENDBRANCH   8   9
BRANCH   8  13
ATOM     13  C   UNL A   1      30.657  24.763  24.457  1.00  0.00     0.002 C 
ATOM     14  C   UNL A   1      31.112  24.311  23.061  1.00  0.00     0.004 C 
ATOM     15  C   UNL A   1      29.966  26.139  24.364  1.00  0.00     0.007 C 
ATOM     16  C   UNL A   1      31.912  25.345  22.294  1.00  0.00     0.001 C 
ATOM     17  C   UNL A   1      30.780  27.204  23.617  1.00  0.00    -0.014 C 
ATOM     18  C   UNL A   1      31.222  26.702  22.237  1.00  0.00     0.003 C 
ATOM     19  C   UNL A   1      29.971  28.494  23.484  1.00  0.00     0.007 C 
ENDBRANCH   8  13
ENDBRANCH   5   8
ENDBRANCH   3   4
ENDBRANCH   2   3
ENDBRANCH   1   2
BRANCH   1  20
ATOM     20  C   UNL A   1      35.985  20.801  25.222  1.00  0.00     0.002 C 
BRANCH  20  21
ATOM     21  C   UNL A   1      37.257  20.012  24.893  1.00  0.00     0.021 C 
BRANCH  21  22
ATOM     22  C   UNL A   1      38.563  20.566  25.463  1.00  0.00     0.116 C 
BRANCH  22  23
ATOM     23  N   UNL A   1      39.592  19.554  25.595  1.00  0.00    -0.352 N 
ATOM     24  C   UNL A   1      40.898  19.686  25.996  1.00  0.00     0.251 C 
ATOM     25  H   UNL A   1      39.313  18.637  25.365  1.00  0.00     0.163 HD
ATOM     26  O   UNL A   1      41.669  18.737  25.902  1.00  0.00    -0.269 OA
BRANCH  24  27
ATOM     27  C   UNL A   1      41.388  20.977  26.528  1.00  0.00     0.039 A 
ATOM     28  C   UNL A   1      41.231  21.237  27.892  1.00  0.00     0.014 A 
ATOM     29  C   UNL A   1      41.945  21.946  25.688  1.00  0.00     0.014 A 
ATOM     30  C   UNL A   1      41.658  22.458  28.419  1.00  0.00     0.010 A 
ATOM     31  C   UNL A   1      42.423  23.141  26.225  1.00  0.00     0.010 A 
ATOM     32  C   UNL A   1      42.264  23.418  27.591  1.00  0.00    -0.014 A 
BRANCH  32  33
ATOM     33  C   UNL A   1      42.667  24.739  28.139  1.00  0.00     0.031 A 
ATOM     34  C   UNL A   1      41.636  25.819  28.325  1.00  0.00     0.074 A 
ATOM     35  C   UNL A   1      43.954  24.969  28.465  1.00  0.00     0.049 A 
ATOM     36  N   UNL A   1      41.786  27.036  28.786  1.00  0.00    -0.248 NA
ATOM     37  C   UNL A   1      40.258  25.495  27.923  1.00  0.00     0.031 C 
ATOM     38  C   UNL A   1      45.055  24.019  28.300  1.00  0.00     0.029 A 
ATOM     39  N   UNL A   1      44.551  26.080  29.008  1.00  0.00    -0.354 N 
ATOM     40  C   UNL A   1      40.526  27.618  28.728  1.00  0.00     0.074 A 
ATOM     41  C   UNL A   1      39.637  26.646  28.132  1.00  0.00     0.031 C 
ATOM     42  C   UNL A   1      46.189  24.580  28.754  1.00  0.00     0.029 A 
ATOM     43  C   UNL A   1      45.899  25.931  29.222  1.00  0.00     0.049 A 
ATOM     44  H   UNL A   1      44.059  26.905  29.223  1.00  0.00     0.167 HD
ATOM     45  C   UNL A   1      40.134  28.841  29.161  1.00  0.00     0.037 A 
ATOM     46  C   UNL A   1      46.797  26.787  29.747  1.00  0.00     0.037 A 
ATOM     47  C   UNL A   1      41.011  29.805  29.770  1.00  0.00     0.049 A 
ATOM     48  C   UNL A   1      46.333  28.134  30.231  1.00  0.00     0.074 A 
ATOM     49  C   UNL A   1      40.713  31.072  30.241  1.00  0.00     0.029 A 
ATOM     50  N   UNL A   1      42.362  29.600  30.004  1.00  0.00    -0.354 N 
ATOM     51  N   UNL A   1      45.131  28.655  30.204  1.00  0.00    -0.248 NA
ATOM     52  C   UNL A   1      47.351  29.005  30.836  1.00  0.00     0.031 C 
ATOM     53  C   UNL A   1      41.887  31.640  30.746  1.00  0.00     0.029 A 
ATOM     54  C   UNL A   1      42.910  30.713  30.619  1.00  0.00     0.049 A 
ATOM     55  H   UNL A   1      42.860  28.784  29.766  1.00  0.00     0.167 HD
ATOM     56  C   UNL A   1      45.240  29.895  30.821  1.00  0.00     0.074 A 
ATOM     57  C   UNL A   1      46.623  30.042  31.224  1.00  0.00     0.031 C 
ATOM     58  C   UNL A   1      44.282  30.829  31.036  1.00  0.00     0.037 A 
BRANCH  45  59
ATOM     59  C   UNL A   1      38.683  29.191  29.008  1.00  0.00     0.057 A 
ATOM     60  C   UNL A   1      38.160  29.614  27.778  1.00  0.00     0.134 A 
ATOM     61  C   UNL A   1      37.795  29.083  30.085  1.00  0.00     0.134 A 
ATOM     62  F   UNL A   1      38.962  29.753  26.711  1.00  0.00    -0.206 F 
ATOM     63  C   UNL A   1      36.811  29.940  27.631  1.00  0.00     0.040 A 
ATOM     64  C   UNL A   1      36.439  29.383  29.944  1.00  0.00     0.040 A 
ATOM     65  F   UNL A   1      38.230  28.681  31.289  1.00  0.00    -0.206 F 
ATOM     66  C   UNL A   1      35.945  29.818  28.716  1.00  0.00     0.006 A 
ENDBRANCH  45  59
BRANCH  46  67
ATOM     67  C   UNL A   1      48.221  26.390  29.886  1.00  0.00     0.057 A 
ATOM     68  C   UNL A   1      48.678  25.731  31.033  1.00  0.00     0.134 A 
ATOM     69  C   UNL A   1      49.164  26.696  28.898  1.00  0.00     0.134 A 
ATOM     70  F   UNL A   1      47.825  25.429  32.023  1.00  0.00    -0.206 F 
ATOM     71  C   UNL A   1      50.027  25.417  31.208  1.00  0.00     0.040 A 
ATOM     72  C   UNL A   1      50.511  26.366  29.049  1.00  0.00     0.040 A 
ATOM     73  F   UNL A   1      48.787  27.320  27.772  1.00  0.00    -0.206 F 
ATOM     74  C   UNL A   1      50.947  25.734  30.211  1.00  0.00     0.006 A 
ENDBRANCH  46  67
BRANCH  58  75
ATOM     75  C   UNL A   1      44.688  32.062  31.788  1.00  0.00     0.057 A 
ATOM     76  C   UNL A   1      45.170  33.204  31.136  1.00  0.00     0.134 A 
ATOM     77  C   UNL A   1      44.581  32.108  33.184  1.00  0.00     0.134 A 
ATOM     78  F   UNL A   1      45.308  33.218  29.802  1.00  0.00    -0.206 F 
ATOM     79  C   UNL A   1      45.562  34.338  31.849  1.00  0.00     0.040 A 
ATOM     80  C   UNL A   1      44.946  33.245  33.905  1.00  0.00     0.040 A 
ATOM     81  F   UNL A   1      44.118  31.050  33.867  1.00  0.00    -0.206 F 
ATOM     82  C   UNL A   1      45.446  34.361  33.238  1.00  0.00     0.006 A 
ENDBRANCH  58  75
ENDBRANCH  32  33
ENDBRANCH  24  27
ENDBRANCH  22  23
ENDBRANCH  21  22
ENDBRANCH  20  21
ENDBRANCH   1  20
TORSDOF 16
ENDMDL
MODEL 3
REMARK VINA RESULT:     -10.4      1.180      2.171
REMARK SMILES CC(C)C[C@@H](C(=O)NCCCCCCNC(=O)c1ccc(-c2c3nc(c(-c4c(F)cccc4F)c4ccc([nH]4)c(-c4c(F)cccc4F)c4nc(c(-c5c(F)cccc5F)c5ccc2[nH]5)C=C4)C=C3)cc1)[C@@H]1CCC[C@@H](C)C1
REMARK SMILES IDX 11 1 10 2 9 3 8 4 6 5 7 6 5 8 4 9 2 10 1 11 3 12 72 13 73 14
REMARK SMILES IDX 78 15 74 16 76 17 75 18 77 19 12 20 13 21 14 22 15 23 16 24
REMARK SMILES IDX 17 26 18 27 19 28 71 29 20 30 70 31 21 32 22 33 23 34 64 35
REMARK SMILES IDX 24 36 69 37 63 38 65 39 25 40 68 41 62 42 61 43 26 45 52 46
REMARK SMILES IDX 35 47 51 48 36 49 39 50 50 51 66 52 37 53 38 54 49 56 67 57
REMARK SMILES IDX 40 58 27 59 28 60 33 61 29 62 30 63 32 64 34 65 31 66 53 67
REMARK SMILES IDX 54 68 59 69 55 70 56 71 58 72 60 73 57 74 41 75 42 76 47 77
REMARK SMILES IDX 43 78 44 79 46 80 48 81 45 82
REMARK H PARENT 8 7 15 25 65 44 39 55
REMARK Flexibility Score: inf
ROOT
ATOM      1  C   UNL A   1      36.680  22.482  23.702  1.00  0.00     0.002 C 
ENDROOT
BRANCH   1   2
ATOM      2  C   UNL A   1      35.560  23.505  23.886  1.00  0.00     0.021 C 
BRANCH   2   3
ATOM      3  C   UNL A   1      35.476  24.181  25.255  1.00  0.00     0.116 C 
BRANCH   3   4
ATOM      4  N   UNL A   1      34.218  23.885  25.912  1.00  0.00    -0.356 N 
ATOM      5  C   UNL A   1      33.067  24.577  26.089  1.00  0.00     0.223 C 
ATOM      6  O   UNL A   1      32.204  23.997  26.763  1.00  0.00    -0.275 OA
ATOM      7  H   UNL A   1      34.196  22.987  26.315  1.00  0.00     0.163 HD
BRANCH   5   8
ATOM      8  C   UNL A   1      32.766  25.989  25.541  1.00  0.00     0.082 C 
BRANCH   8   9
ATOM      9  C   UNL A   1      31.925  26.872  26.491  1.00  0.00     0.016 C 
BRANCH   9  10
ATOM     10  C   UNL A   1      32.647  28.105  27.097  1.00  0.00    -0.017 C 
ATOM     11  C   UNL A   1      34.079  28.293  26.592  1.00  0.00     0.007 C 
ATOM     12  C   UNL A   1      31.851  29.374  26.764  1.00  0.00     0.007 C 
ENDBRANCH   9  10
ENDBRANCH   8   9
BRANCH   8  13
ATOM     13  C   UNL A   1      32.499  26.111  24.003  1.00  0.00     0.002 C 
ATOM     14  C   UNL A   1      33.471  26.945  23.153  1.00  0.00     0.004 C 
ATOM     15  C   UNL A   1      31.044  26.441  23.612  1.00  0.00     0.007 C 
ATOM     16  C   UNL A   1      33.168  28.429  23.126  1.00  0.00     0.001 C 
ATOM     17  C   UNL A   1      30.717  27.941  23.612  1.00  0.00    -0.014 C 
ATOM     18  C   UNL A   1      31.719  28.731  22.763  1.00  0.00     0.003 C 
ATOM     19  C   UNL A   1      29.291  28.172  23.110  1.00  0.00     0.007 C 
ENDBRANCH   8  13
ENDBRANCH   5   8
ENDBRANCH   3   4
ENDBRANCH   2   3
ENDBRANCH   1   2
BRANCH   1  20
ATOM     20  C   UNL A   1      36.657  21.283  24.653  1.00  0.00     0.002 C 
BRANCH  20  21
ATOM     21  C   UNL A   1      37.878  20.359  24.620  1.00  0.00     0.021 C 
BRANCH  21  22
ATOM     22  C   UNL A   1      38.653  20.214  25.930  1.00  0.00     0.116 C 
BRANCH  22  23
ATOM     23  N   UNL A   1      39.812  19.352  25.805  1.00  0.00    -0.352 N 
ATOM     24  C   UNL A   1      41.140  19.647  25.986  1.00  0.00     0.251 C 
ATOM     25  H   UNL A   1      39.618  18.420  25.553  1.00  0.00     0.163 HD
ATOM     26  O   UNL A   1      41.999  18.824  25.688  1.00  0.00    -0.269 OA
BRANCH  24  27
ATOM     27  C   UNL A   1      41.545  20.963  26.528  1.00  0.00     0.039 A 
ATOM     28  C   UNL A   1      41.465  21.169  27.907  1.00  0.00     0.014 A 
ATOM     29  C   UNL A   1      41.947  22.004  25.684  1.00  0.00     0.014 A 
ATOM     30  C   UNL A   1      41.813  22.410  28.445  1.00  0.00     0.010 A 
ATOM     31  C   UNL A   1      42.349  23.225  26.228  1.00  0.00     0.010 A 
ATOM     32  C   UNL A   1      42.265  23.447  27.611  1.00  0.00    -0.014 A 
BRANCH  32  33
ATOM     33  C   UNL A   1      42.583  24.784  28.174  1.00  0.00     0.031 A 
ATOM     34  C   UNL A   1      44.006  25.133  28.514  1.00  0.00     0.074 A 
ATOM     35  C   UNL A   1      41.599  25.680  28.383  1.00  0.00     0.049 A 
ATOM     36  N   UNL A   1      44.490  26.243  29.015  1.00  0.00    -0.248 NA
ATOM     37  C   UNL A   1      45.018  24.091  28.279  1.00  0.00     0.031 C 
ATOM     38  C   UNL A   1      40.175  25.452  28.129  1.00  0.00     0.029 A 
ATOM     39  N   UNL A   1      41.651  26.967  28.857  1.00  0.00    -0.354 N 
ATOM     40  C   UNL A   1      45.856  26.031  29.152  1.00  0.00     0.074 A 
ATOM     41  C   UNL A   1      46.117  24.669  28.741  1.00  0.00     0.031 C 
ATOM     42  C   UNL A   1      39.492  26.570  28.428  1.00  0.00     0.029 A 
ATOM     43  C   UNL A   1      40.425  27.584  28.911  1.00  0.00     0.049 A 
ATOM     44  H   UNL A   1      42.488  27.406  29.131  1.00  0.00     0.167 HD
ATOM     45  C   UNL A   1      46.815  26.900  29.553  1.00  0.00     0.037 A 
ATOM     46  C   UNL A   1      40.094  28.831  29.299  1.00  0.00     0.037 A 
ATOM     47  C   UNL A   1      46.563  28.261  29.947  1.00  0.00     0.049 A 
ATOM     48  C   UNL A   1      41.180  29.780  29.729  1.00  0.00     0.074 A 
ATOM     49  C   UNL A   1      47.465  29.221  30.370  1.00  0.00     0.029 A 
ATOM     50  N   UNL A   1      45.312  28.858  29.951  1.00  0.00    -0.354 N 
ATOM     51  N   UNL A   1      42.472  29.576  29.817  1.00  0.00    -0.248 NA
ATOM     52  C   UNL A   1      40.761  31.140  30.096  1.00  0.00     0.031 C 
ATOM     53  C   UNL A   1      46.757  30.396  30.647  1.00  0.00     0.029 A 
ATOM     54  C   UNL A   1      45.418  30.176  30.362  1.00  0.00     0.049 A 
ATOM     55  H   UNL A   1      44.470  28.411  29.700  1.00  0.00     0.167 HD
ATOM     56  C   UNL A   1      43.022  30.789  30.210  1.00  0.00     0.074 A 
ATOM     57  C   UNL A   1      41.926  31.727  30.331  1.00  0.00     0.031 C 
ATOM     58  C   UNL A   1      44.319  31.100  30.451  1.00  0.00     0.037 A 
BRANCH  45  59
ATOM     59  C   UNL A   1      48.231  26.404  29.563  1.00  0.00     0.057 A 
ATOM     60  C   UNL A   1      48.778  25.781  30.693  1.00  0.00     0.134 A 
ATOM     61  C   UNL A   1      49.048  26.525  28.432  1.00  0.00     0.134 A 
ATOM     62  F   UNL A   1      48.051  25.648  31.814  1.00  0.00    -0.206 F 
ATOM     63  C   UNL A   1      50.094  25.317  30.707  1.00  0.00     0.040 A 
ATOM     64  C   UNL A   1      50.358  26.042  28.426  1.00  0.00     0.040 A 
ATOM     65  F   UNL A   1      48.585  27.108  27.316  1.00  0.00    -0.206 F 
ATOM     66  C   UNL A   1      50.886  25.442  29.567  1.00  0.00     0.006 A 
ENDBRANCH  45  59
BRANCH  46  67
ATOM     67  C   UNL A   1      38.679  29.278  29.262  1.00  0.00     0.057 A 
ATOM     68  C   UNL A   1      37.877  29.231  30.408  1.00  0.00     0.134 A 
ATOM     69  C   UNL A   1      38.085  29.723  28.076  1.00  0.00     0.134 A 
ATOM     70  F   UNL A   1      38.384  28.793  31.570  1.00  0.00    -0.206 F 
ATOM     71  C   UNL A   1      36.526  29.579  30.370  1.00  0.00     0.040 A 
ATOM     72  C   UNL A   1      36.742  30.100  28.029  1.00  0.00     0.040 A 
ATOM     73  F   UNL A   1      38.804  29.799  26.945  1.00  0.00    -0.206 F 
ATOM     74  C   UNL A   1      35.956  30.018  29.176  1.00  0.00     0.006 A 
ENDBRANCH  46  67
BRANCH  58  75
ATOM     75  C   UNL A   1      44.623  32.524  30.810  1.00  0.00     0.057 A 
ATOM     76  C   UNL A   1      44.653  32.964  32.139  1.00  0.00     0.134 A 
ATOM     77  C   UNL A   1      44.903  33.463  29.809  1.00  0.00     0.134 A 
ATOM     78  F   UNL A   1      44.381  32.116  33.142  1.00  0.00    -0.206 F 
ATOM     79  C   UNL A   1      44.918  34.296  32.459  1.00  0.00     0.040 A 
ATOM     80  C   UNL A   1      45.195  34.792  30.118  1.00  0.00     0.040 A 
ATOM     81  F   UNL A   1      44.900  33.104  28.517  1.00  0.00    -0.206 F 
ATOM     82  C   UNL A   1      45.195  35.213  31.446  1.00  0.00     0.006 A 
ENDBRANCH  58  75
ENDBRANCH  32  33
ENDBRANCH  24  27
ENDBRANCH  22  23
ENDBRANCH  21  22
ENDBRANCH  20  21
ENDBRANCH   1  20
TORSDOF 16
ENDMDL
