MODEL 1
REMARK VINA RESULT:     -11.2      0.000      0.000
REMARK SMILES COc1ccc2c(C)cc(SCC(=O)NCCCCCCNC(=O)c3ccc(-c4c5nc(c(-c6c(F)cccc6F)c6ccc([nH]6)c(-c6c(F)cccc6F)c6nc(c(-c7c(F)cccc7F)c7ccc4[nH]7)C=C6)C=C5)cc3)nc2c1
REMARK SMILES IDX 18 1 17 2 16 3 15 4 13 5 14 6 12 8 11 9 10 10 3 11 4 12
REMARK SMILES IDX 81 13 5 14 80 15 6 16 79 17 7 18 8 19 9 20 2 21 1 22 19 23
REMARK SMILES IDX 20 24 21 25 22 26 23 27 24 29 25 30 26 31 78 32 27 33 77 34
REMARK SMILES IDX 28 35 29 36 30 37 71 38 31 39 76 40 70 41 72 42 32 43 75 44
REMARK SMILES IDX 69 45 68 46 33 48 59 49 42 50 58 51 43 52 46 53 57 54 73 55
REMARK SMILES IDX 44 56 45 57 56 59 74 60 47 61 34 62 35 63 40 64 36 65 37 66
REMARK SMILES IDX 39 67 41 68 38 69 60 70 61 71 66 72 62 73 63 74 65 75 67 76
REMARK SMILES IDX 64 77 48 78 49 79 54 80 50 81 51 82 53 83 55 84 52 85
REMARK H PARENT 15 7 22 28 72 47 46 58
REMARK Flexibility Score: inf
ROOT
ATOM      1  C   UNL A   1      37.589  21.849  25.260  1.00  0.00     0.002 C 
ENDROOT
BRANCH   1   2
ATOM      2  C   UNL A   1      36.415  22.400  26.083  1.00  0.00     0.021 C 
BRANCH   2   3
ATOM      3  C   UNL A   1      35.200  21.473  26.141  1.00  0.00     0.116 C 
BRANCH   3   4
ATOM      4  N   UNL A   1      34.363  21.791  27.280  1.00  0.00    -0.355 N 
ATOM      5  C   UNL A   1      33.094  22.275  27.320  1.00  0.00     0.230 C 
ATOM      6  O   UNL A   1      32.619  22.544  28.429  1.00  0.00    -0.274 OA
ATOM      7  H   UNL A   1      34.776  21.633  28.160  1.00  0.00     0.163 HD
BRANCH   5   8
ATOM      8  C   UNL A   1      32.246  22.387  26.068  1.00  0.00     0.176 C 
BRANCH   8   9
ATOM      9  S   UNL A   1      30.661  23.246  26.275  1.00  0.00    -0.096 SA
BRANCH   9  10
ATOM     10  C   UNL A   1      30.984  24.955  25.922  1.00  0.00     0.097 A 
ATOM     11  C   UNL A   1      29.536  28.516  23.110  1.00  0.00     0.121 A 
ATOM     12  C   UNL A   1      30.455  29.391  23.675  1.00  0.00     0.047 A 
ATOM     13  C   UNL A   1      29.475  27.199  23.564  1.00  0.00     0.075 A 
ATOM     14  C   UNL A   1      31.314  28.935  24.677  1.00  0.00     0.014 A 
ATOM     15  C   UNL A   1      30.322  26.720  24.555  1.00  0.00     0.075 A 
ATOM     16  C   UNL A   1      31.258  27.599  25.134  1.00  0.00     0.003 A 
ATOM     17  N   UNL A   1      30.208  25.436  24.926  1.00  0.00    -0.241 NA
ATOM     18  C   UNL A   1      32.081  27.085  26.161  1.00  0.00    -0.039 A 
ATOM     19  C   UNL A   1      33.130  27.918  26.843  1.00  0.00     0.045 C 
ATOM     20  C   UNL A   1      31.905  25.757  26.572  1.00  0.00     0.039 A 
BRANCH  11  21
ATOM     21  O   UNL A   1      28.616  28.859  22.158  1.00  0.00    -0.497 OA
ATOM     22  C   UNL A   1      27.799  29.979  22.483  1.00  0.00     0.278 C 
ENDBRANCH  11  21
ENDBRANCH   9  10
ENDBRANCH   8   9
ENDBRANCH   5   8
ENDBRANCH   3   4
ENDBRANCH   2   3
ENDBRANCH   1   2
BRANCH   1  23
ATOM     23  C   UNL A   1      37.330  20.505  24.570  1.00  0.00     0.002 C 
BRANCH  23  24
ATOM     24  C   UNL A   1      38.240  19.362  25.020  1.00  0.00     0.021 C 
BRANCH  24  25
ATOM     25  C   UNL A   1      39.355  19.777  25.974  1.00  0.00     0.116 C 
BRANCH  25  26
ATOM     26  N   UNL A   1      40.472  18.843  25.955  1.00  0.00    -0.352 N 
ATOM     27  C   UNL A   1      41.815  19.097  26.066  1.00  0.00     0.251 C 
ATOM     28  H   UNL A   1      40.228  17.896  25.847  1.00  0.00     0.163 HD
ATOM     29  O   UNL A   1      42.634  18.206  25.841  1.00  0.00    -0.269 OA
BRANCH  27  30
ATOM     30  C   UNL A   1      42.283  20.449  26.433  1.00  0.00     0.039 A 
ATOM     31  C   UNL A   1      42.757  21.298  25.429  1.00  0.00     0.014 A 
ATOM     32  C   UNL A   1      42.255  20.880  27.762  1.00  0.00     0.014 A 
ATOM     33  C   UNL A   1      43.144  22.600  25.750  1.00  0.00     0.010 A 
ATOM     34  C   UNL A   1      42.568  22.202  28.068  1.00  0.00     0.010 A 
ATOM     35  C   UNL A   1      43.020  23.074  27.067  1.00  0.00    -0.014 A 
BRANCH  35  36
ATOM     36  C   UNL A   1      43.357  24.478  27.415  1.00  0.00     0.031 A 
ATOM     37  C   UNL A   1      44.790  24.932  27.422  1.00  0.00     0.074 A 
ATOM     38  C   UNL A   1      42.379  25.326  27.788  1.00  0.00     0.049 A 
ATOM     39  N   UNL A   1      45.287  26.097  27.756  1.00  0.00    -0.248 NA
ATOM     40  C   UNL A   1      45.800  23.940  27.025  1.00  0.00     0.031 C 
ATOM     41  C   UNL A   1      40.954  24.995  27.864  1.00  0.00     0.029 A 
ATOM     42  N   UNL A   1      42.436  26.639  28.184  1.00  0.00    -0.354 N 
ATOM     43  C   UNL A   1      46.665  25.970  27.624  1.00  0.00     0.074 A 
ATOM     44  C   UNL A   1      46.928  24.602  27.235  1.00  0.00     0.031 C 
ATOM     45  C   UNL A   1      40.270  26.084  28.250  1.00  0.00     0.029 A 
ATOM     46  C   UNL A   1      41.209  27.175  28.492  1.00  0.00     0.049 A 
ATOM     47  H   UNL A   1      43.277  27.148  28.240  1.00  0.00     0.167 HD
ATOM     48  C   UNL A   1      47.622  26.914  27.792  1.00  0.00     0.037 A 
ATOM     49  C   UNL A   1      40.879  28.405  28.928  1.00  0.00     0.037 A 
ATOM     50  C   UNL A   1      47.355  28.279  28.163  1.00  0.00     0.049 A 
ATOM     51  C   UNL A   1      41.963  29.428  29.131  1.00  0.00     0.074 A 
ATOM     52  C   UNL A   1      48.249  29.326  28.298  1.00  0.00     0.029 A 
ATOM     53  N   UNL A   1      46.099  28.783  28.467  1.00  0.00    -0.354 N 
ATOM     54  N   UNL A   1      43.255  29.317  28.931  1.00  0.00    -0.248 NA
ATOM     55  C   UNL A   1      41.543  30.749  29.619  1.00  0.00     0.031 C 
ATOM     56  C   UNL A   1      47.542  30.451  28.736  1.00  0.00     0.029 A 
ATOM     57  C   UNL A   1      46.199  30.120  28.819  1.00  0.00     0.049 A 
ATOM     58  H   UNL A   1      45.261  28.268  28.438  1.00  0.00     0.167 HD
ATOM     59  C   UNL A   1      43.795  30.560  29.235  1.00  0.00     0.074 A 
ATOM     60  C   UNL A   1      42.690  31.413  29.622  1.00  0.00     0.031 C 
ATOM     61  C   UNL A   1      45.089  30.960  29.194  1.00  0.00     0.037 A 
BRANCH  48  62
ATOM     62  C   UNL A   1      49.050  26.496  27.578  1.00  0.00     0.057 A 
ATOM     63  C   UNL A   1      49.630  26.464  26.303  1.00  0.00     0.134 A 
ATOM     64  C   UNL A   1      49.861  26.141  28.664  1.00  0.00     0.134 A 
ATOM     65  F   UNL A   1      48.907  26.782  25.218  1.00  0.00    -0.206 F 
ATOM     66  C   UNL A   1      50.954  26.061  26.111  1.00  0.00     0.040 A 
ATOM     67  C   UNL A   1      51.194  25.767  28.488  1.00  0.00     0.040 A 
ATOM     68  F   UNL A   1      49.373  26.157  29.913  1.00  0.00    -0.206 F 
ATOM     69  C   UNL A   1      51.742  25.717  27.208  1.00  0.00     0.006 A 
ENDBRANCH  48  62
BRANCH  49  70
ATOM     70  C   UNL A   1      39.456  28.752  29.176  1.00  0.00     0.057 A 
ATOM     71  C   UNL A   1      38.658  29.281  28.155  1.00  0.00     0.134 A 
ATOM     72  C   UNL A   1      38.865  28.578  30.432  1.00  0.00     0.134 A 
ATOM     73  F   UNL A   1      39.172  29.489  26.934  1.00  0.00    -0.206 F 
ATOM     74  C   UNL A   1      37.328  29.645  28.379  1.00  0.00     0.040 A 
ATOM     75  C   UNL A   1      37.529  28.913  30.664  1.00  0.00     0.040 A 
ATOM     76  F   UNL A   1      39.575  28.070  31.450  1.00  0.00    -0.206 F 
ATOM     77  C   UNL A   1      36.760  29.454  29.637  1.00  0.00     0.006 A 
ENDBRANCH  49  70
BRANCH  61  78
ATOM     78  C   UNL A   1      45.378  32.393  29.535  1.00  0.00     0.057 A 
ATOM     79  C   UNL A   1      45.356  33.406  28.569  1.00  0.00     0.134 A 
ATOM     80  C   UNL A   1      45.646  32.769  30.858  1.00  0.00     0.134 A 
ATOM     81  F   UNL A   1      45.120  33.113  27.281  1.00  0.00    -0.206 F 
ATOM     82  C   UNL A   1      45.614  34.738  28.902  1.00  0.00     0.040 A 
ATOM     83  C   UNL A   1      45.876  34.100  31.209  1.00  0.00     0.040 A 
ATOM     84  F   UNL A   1      45.674  31.850  31.835  1.00  0.00    -0.206 F 
ATOM     85  C   UNL A   1      45.867  35.088  30.227  1.00  0.00     0.006 A 
ENDBRANCH  61  78
ENDBRANCH  35  36
ENDBRANCH  27  30
ENDBRANCH  25  26
ENDBRANCH  24  25
ENDBRANCH  23  24
ENDBRANCH   1  23
TORSDOF 16
ENDMDL
MODEL 2
REMARK VINA RESULT:     -11.2      4.323      9.869
REMARK SMILES COc1ccc2c(C)cc(SCC(=O)NCCCCCCNC(=O)c3ccc(-c4c5nc(c(-c6c(F)cccc6F)c6ccc([nH]6)c(-c6c(F)cccc6F)c6nc(c(-c7c(F)cccc7F)c7ccc4[nH]7)C=C6)C=C5)cc3)nc2c1
REMARK SMILES IDX 18 1 17 2 16 3 15 4 13 5 14 6 12 8 11 9 10 10 3 11 4 12
REMARK SMILES IDX 81 13 5 14 80 15 6 16 79 17 7 18 8 19 9 20 2 21 1 22 19 23
REMARK SMILES IDX 20 24 21 25 22 26 23 27 24 29 25 30 26 31 78 32 27 33 77 34
REMARK SMILES IDX 28 35 29 36 30 37 71 38 31 39 76 40 70 41 72 42 32 43 75 44
REMARK SMILES IDX 69 45 68 46 33 48 59 49 42 50 58 51 43 52 46 53 57 54 73 55
REMARK SMILES IDX 44 56 45 57 56 59 74 60 47 61 34 62 35 63 40 64 36 65 37 66
REMARK SMILES IDX 39 67 41 68 38 69 60 70 61 71 66 72 62 73 63 74 65 75 67 76
REMARK SMILES IDX 64 77 48 78 49 79 54 80 50 81 51 82 53 83 55 84 52 85
REMARK H PARENT 15 7 22 28 72 47 46 58
REMARK Flexibility Score: inf
ROOT
ATOM      1  C   UNL A   1      31.804  29.911  25.435  1.00  0.00     0.002 C 
ENDROOT
BRANCH   1   2
ATOM      2  C   UNL A   1      33.174  29.355  25.017  1.00  0.00     0.021 C 
BRANCH   2   3
ATOM      3  C   UNL A   1      33.267  28.962  23.542  1.00  0.00     0.116 C 
BRANCH   3   4
ATOM      4  N   UNL A   1      31.970  29.055  22.902  1.00  0.00    -0.355 N 
ATOM      5  C   UNL A   1      31.109  28.071  22.532  1.00  0.00     0.230 C 
ATOM      6  O   UNL A   1      30.088  28.405  21.922  1.00  0.00    -0.274 OA
ATOM      7  H   UNL A   1      31.666  29.971  22.705  1.00  0.00     0.163 HD
BRANCH   5   8
ATOM      8  C   UNL A   1      31.331  26.627  22.937  1.00  0.00     0.176 C 
BRANCH   8   9
ATOM      9  S   UNL A   1      32.293  25.629  21.765  1.00  0.00    -0.096 SA
BRANCH   9  10
ATOM     10  C   UNL A   1      33.169  24.437  22.745  1.00  0.00     0.097 A 
ATOM     11  C   UNL A   1      32.814  19.981  24.388  1.00  0.00     0.121 A 
ATOM     12  C   UNL A   1      34.044  20.074  25.026  1.00  0.00     0.047 A 
ATOM     13  C   UNL A   1      32.330  21.074  23.669  1.00  0.00     0.075 A 
ATOM     14  C   UNL A   1      34.769  21.265  24.953  1.00  0.00     0.014 A 
ATOM     15  C   UNL A   1      33.030  22.270  23.586  1.00  0.00     0.075 A 
ATOM     16  C   UNL A   1      34.278  22.376  24.231  1.00  0.00     0.003 A 
ATOM     17  N   UNL A   1      32.489  23.278  22.885  1.00  0.00    -0.241 NA
ATOM     18  C   UNL A   1      34.975  23.597  24.098  1.00  0.00    -0.039 A 
ATOM     19  C   UNL A   1      36.306  23.838  24.755  1.00  0.00     0.045 C 
ATOM     20  C   UNL A   1      34.417  24.616  23.314  1.00  0.00     0.039 A 
BRANCH  11  21
ATOM     21  O   UNL A   1      32.038  18.855  24.350  1.00  0.00    -0.497 OA
ATOM     22  C   UNL A   1      32.537  17.751  25.097  1.00  0.00     0.278 C 
ENDBRANCH  11  21
ENDBRANCH   9  10
ENDBRANCH   8   9
ENDBRANCH   5   8
ENDBRANCH   3   4
ENDBRANCH   2   3
ENDBRANCH   1   2
BRANCH   1  23
ATOM     23  C   UNL A   1      31.730  30.459  26.865  1.00  0.00     0.002 C 
BRANCH  23  24
ATOM     24  C   UNL A   1      31.479  31.965  26.967  1.00  0.00     0.021 C 
BRANCH  24  25
ATOM     25  C   UNL A   1      32.743  32.813  27.060  1.00  0.00     0.116 C 
BRANCH  25  26
ATOM     26  N   UNL A   1      32.492  34.109  27.673  1.00  0.00    -0.352 N 
ATOM     27  C   UNL A   1      33.152  34.722  28.707  1.00  0.00     0.251 C 
ATOM     28  H   UNL A   1      31.742  34.619  27.289  1.00  0.00     0.163 HD
ATOM     29  O   UNL A   1      32.688  35.738  29.222  1.00  0.00    -0.269 OA
BRANCH  27  30
ATOM     30  C   UNL A   1      34.411  34.146  29.222  1.00  0.00     0.039 A 
ATOM     31  C   UNL A   1      34.375  33.359  30.376  1.00  0.00     0.014 A 
ATOM     32  C   UNL A   1      35.625  34.381  28.570  1.00  0.00     0.014 A 
ATOM     33  C   UNL A   1      35.546  32.756  30.840  1.00  0.00     0.010 A 
ATOM     34  C   UNL A   1      36.776  33.719  28.989  1.00  0.00     0.010 A 
ATOM     35  C   UNL A   1      36.749  32.903  30.130  1.00  0.00    -0.014 A 
BRANCH  35  36
ATOM     36  C   UNL A   1      37.989  32.212  30.565  1.00  0.00     0.031 A 
ATOM     37  C   UNL A   1      38.862  32.820  31.628  1.00  0.00     0.074 A 
ATOM     38  C   UNL A   1      38.365  31.069  29.958  1.00  0.00     0.049 A 
ATOM     39  N   UNL A   1      40.010  32.400  32.098  1.00  0.00    -0.248 NA
ATOM     40  C   UNL A   1      38.394  34.081  32.225  1.00  0.00     0.031 C 
ATOM     41  C   UNL A   1      37.628  30.400  28.884  1.00  0.00     0.029 A 
ATOM     42  N   UNL A   1      39.466  30.273  30.152  1.00  0.00    -0.354 N 
ATOM     43  C   UNL A   1      40.406  33.351  33.031  1.00  0.00     0.074 A 
ATOM     44  C   UNL A   1      39.406  34.396  33.020  1.00  0.00     0.031 C 
ATOM     45  C   UNL A   1      38.282  29.279  28.535  1.00  0.00     0.029 A 
ATOM     46  C   UNL A   1      39.503  29.174  29.328  1.00  0.00     0.049 A 
ATOM     47  H   UNL A   1      40.163  30.471  30.819  1.00  0.00     0.167 HD
ATOM     48  C   UNL A   1      41.494  33.344  33.838  1.00  0.00     0.037 A 
ATOM     49  C   UNL A   1      40.422  28.197  29.218  1.00  0.00     0.037 A 
ATOM     50  C   UNL A   1      42.478  32.293  33.857  1.00  0.00     0.049 A 
ATOM     51  C   UNL A   1      41.634  28.225  30.107  1.00  0.00     0.074 A 
ATOM     52  C   UNL A   1      43.583  32.162  34.681  1.00  0.00     0.029 A 
ATOM     53  N   UNL A   1      42.481  31.198  33.008  1.00  0.00    -0.354 N 
ATOM     54  N   UNL A   1      41.959  29.090  31.038  1.00  0.00    -0.248 NA
ATOM     55  C   UNL A   1      42.607  27.137  29.934  1.00  0.00     0.031 C 
ATOM     56  C   UNL A   1      44.283  31.015  34.293  1.00  0.00     0.029 A 
ATOM     57  C   UNL A   1      43.585  30.401  33.267  1.00  0.00     0.049 A 
ATOM     58  H   UNL A   1      41.800  31.013  32.321  1.00  0.00     0.167 HD
ATOM     59  C   UNL A   1      43.153  28.634  31.582  1.00  0.00     0.074 A 
ATOM     60  C   UNL A   1      43.489  27.409  30.885  1.00  0.00     0.031 C 
ATOM     61  C   UNL A   1      43.902  29.179  32.571  1.00  0.00     0.037 A 
BRANCH  48  62
ATOM     62  C   UNL A   1      41.676  34.513  34.764  1.00  0.00     0.057 A 
ATOM     63  C   UNL A   1      41.138  34.525  36.058  1.00  0.00     0.134 A 
ATOM     64  C   UNL A   1      42.415  35.633  34.364  1.00  0.00     0.134 A 
ATOM     65  F   UNL A   1      40.411  33.489  36.503  1.00  0.00    -0.206 F 
ATOM     66  C   UNL A   1      41.300  35.622  36.908  1.00  0.00     0.040 A 
ATOM     67  C   UNL A   1      42.610  36.722  35.214  1.00  0.00     0.040 A 
ATOM     68  F   UNL A   1      42.965  35.687  33.141  1.00  0.00    -0.206 F 
ATOM     69  C   UNL A   1      42.044  36.723  36.488  1.00  0.00     0.006 A 
ENDBRANCH  48  62
BRANCH  49  70
ATOM     70  C   UNL A   1      40.221  27.090  28.248  1.00  0.00     0.057 A 
ATOM     71  C   UNL A   1      39.476  25.957  28.595  1.00  0.00     0.134 A 
ATOM     72  C   UNL A   1      40.774  27.128  26.964  1.00  0.00     0.134 A 
ATOM     73  F   UNL A   1      38.936  25.853  29.819  1.00  0.00    -0.206 F 
ATOM     74  C   UNL A   1      39.305  24.892  27.708  1.00  0.00     0.040 A 
ATOM     75  C   UNL A   1      40.590  26.083  26.056  1.00  0.00     0.040 A 
ATOM     76  F   UNL A   1      41.493  28.189  26.567  1.00  0.00    -0.206 F 
ATOM     77  C   UNL A   1      39.860  24.957  26.432  1.00  0.00     0.006 A 
ENDBRANCH  49  70
BRANCH  61  78
ATOM     78  C   UNL A   1      45.136  28.433  32.990  1.00  0.00     0.057 A 
ATOM     79  C   UNL A   1      45.102  27.429  33.966  1.00  0.00     0.134 A 
ATOM     80  C   UNL A   1      46.369  28.700  32.380  1.00  0.00     0.134 A 
ATOM     81  F   UNL A   1      43.957  27.134  34.599  1.00  0.00    -0.206 F 
ATOM     82  C   UNL A   1      46.255  26.734  34.338  1.00  0.00     0.040 A 
ATOM     83  C   UNL A   1      47.523  27.992  32.722  1.00  0.00     0.040 A 
ATOM     84  F   UNL A   1      46.471  29.643  31.432  1.00  0.00    -0.206 F 
ATOM     85  C   UNL A   1      47.469  27.010  33.709  1.00  0.00     0.006 A 
ENDBRANCH  61  78
ENDBRANCH  35  36
ENDBRANCH  27  30
ENDBRANCH  25  26
ENDBRANCH  24  25
ENDBRANCH  23  24
ENDBRANCH   1  23
TORSDOF 16
ENDMDL
MODEL 3
REMARK VINA RESULT:     -11.2      4.849     10.414
REMARK SMILES COc1ccc2c(C)cc(SCC(=O)NCCCCCCNC(=O)c3ccc(-c4c5nc(c(-c6c(F)cccc6F)c6ccc([nH]6)c(-c6c(F)cccc6F)c6nc(c(-c7c(F)cccc7F)c7ccc4[nH]7)C=C6)C=C5)cc3)nc2c1
REMARK SMILES IDX 18 1 17 2 16 3 15 4 13 5 14 6 12 8 11 9 10 10 3 11 4 12
REMARK SMILES IDX 81 13 5 14 80 15 6 16 79 17 7 18 8 19 9 20 2 21 1 22 19 23
REMARK SMILES IDX 20 24 21 25 22 26 23 27 24 29 25 30 26 31 78 32 27 33 77 34
REMARK SMILES IDX 28 35 29 36 30 37 71 38 31 39 76 40 70 41 72 42 32 43 75 44
REMARK SMILES IDX 69 45 68 46 33 48 59 49 42 50 58 51 43 52 46 53 57 54 73 55
REMARK SMILES IDX 44 56 45 57 56 59 74 60 47 61 34 62 35 63 40 64 36 65 37 66
REMARK SMILES IDX 39 67 41 68 38 69 60 70 61 71 66 72 62 73 63 74 65 75 67 76
REMARK SMILES IDX 64 77 48 78 49 79 54 80 50 81 51 82 53 83 55 84 52 85
REMARK H PARENT 15 7 22 28 72 47 46 58
REMARK Flexibility Score: inf
ROOT
ATOM      1  C   UNL A   1      32.007  29.496  26.868  1.00  0.00     0.002 C 
ENDROOT
BRANCH   1   2
ATOM      2  C   UNL A   1      33.337  28.876  26.413  1.00  0.00     0.021 C 
BRANCH   2   3
ATOM      3  C   UNL A   1      33.272  27.368  26.162  1.00  0.00     0.116 C 
BRANCH   3   4
ATOM      4  N   UNL A   1      31.959  26.849  26.484  1.00  0.00    -0.355 N 
ATOM      5  C   UNL A   1      31.401  25.646  26.188  1.00  0.00     0.230 C 
ATOM      6  O   UNL A   1      30.221  25.468  26.508  1.00  0.00    -0.274 OA
ATOM      7  H   UNL A   1      31.381  27.461  26.997  1.00  0.00     0.163 HD
BRANCH   5   8
ATOM      8  C   UNL A   1      32.216  24.520  25.582  1.00  0.00     0.176 C 
BRANCH   8   9
ATOM      9  S   UNL A   1      31.343  22.939  25.396  1.00  0.00    -0.096 SA
BRANCH   9  10
ATOM     10  C   UNL A   1      32.603  21.714  25.152  1.00  0.00     0.097 A 
ATOM     11  C   UNL A   1      33.184  17.009  24.695  1.00  0.00     0.121 A 
ATOM     12  C   UNL A   1      34.557  17.151  24.546  1.00  0.00     0.047 A 
ATOM     13  C   UNL A   1      32.393  18.143  24.881  1.00  0.00     0.075 A 
ATOM     14  C   UNL A   1      35.127  18.424  24.600  1.00  0.00     0.014 A 
ATOM     15  C   UNL A   1      32.937  19.418  24.943  1.00  0.00     0.075 A 
ATOM     16  C   UNL A   1      34.329  19.574  24.794  1.00  0.00     0.003 A 
ATOM     17  N   UNL A   1      32.109  20.457  25.136  1.00  0.00    -0.241 NA
ATOM     18  C   UNL A   1      34.842  20.890  24.831  1.00  0.00    -0.039 A 
ATOM     19  C   UNL A   1      36.311  21.184  24.702  1.00  0.00     0.045 C 
ATOM     20  C   UNL A   1      33.952  21.962  24.977  1.00  0.00     0.039 A 
BRANCH  11  21
ATOM     21  O   UNL A   1      32.509  15.821  24.615  1.00  0.00    -0.497 OA
ATOM     22  C   UNL A   1      32.902  14.838  25.566  1.00  0.00     0.278 C 
ENDBRANCH  11  21
ENDBRANCH   9  10
ENDBRANCH   8   9
ENDBRANCH   5   8
ENDBRANCH   3   4
ENDBRANCH   2   3
ENDBRANCH   1   2
BRANCH   1  23
ATOM     23  C   UNL A   1      31.413  30.540  25.915  1.00  0.00     0.002 C 
BRANCH  23  24
ATOM     24  C   UNL A   1      31.310  31.953  26.490  1.00  0.00     0.021 C 
BRANCH  24  25
ATOM     25  C   UNL A   1      32.603  32.487  27.098  1.00  0.00     0.116 C 
BRANCH  25  26
ATOM     26  N   UNL A   1      32.477  33.872  27.529  1.00  0.00    -0.352 N 
ATOM     27  C   UNL A   1      33.157  34.536  28.518  1.00  0.00     0.251 C 
ATOM     28  H   UNL A   1      31.810  34.406  27.041  1.00  0.00     0.163 HD
ATOM     29  O   UNL A   1      32.793  35.656  28.874  1.00  0.00    -0.269 OA
BRANCH  27  30
ATOM     30  C   UNL A   1      34.316  33.897  29.174  1.00  0.00     0.039 A 
ATOM     31  C   UNL A   1      34.090  32.967  30.192  1.00  0.00     0.014 A 
ATOM     32  C   UNL A   1      35.622  34.212  28.787  1.00  0.00     0.014 A 
ATOM     33  C   UNL A   1      35.172  32.308  30.779  1.00  0.00     0.010 A 
ATOM     34  C   UNL A   1      36.692  33.499  29.319  1.00  0.00     0.010 A 
ATOM     35  C   UNL A   1      36.480  32.543  30.323  1.00  0.00    -0.014 A 
BRANCH  35  36
ATOM     36  C   UNL A   1      37.636  31.799  30.884  1.00  0.00     0.031 A 
ATOM     37  C   UNL A   1      38.141  32.114  32.265  1.00  0.00     0.074 A 
ATOM     38  C   UNL A   1      38.273  30.885  30.125  1.00  0.00     0.049 A 
ATOM     39  N   UNL A   1      39.172  31.618  32.902  1.00  0.00    -0.248 NA
ATOM     40  C   UNL A   1      37.406  33.141  33.019  1.00  0.00     0.031 C 
ATOM     41  C   UNL A   1      37.908  30.519  28.756  1.00  0.00     0.029 A 
ATOM     42  N   UNL A   1      39.368  30.104  30.397  1.00  0.00    -0.354 N 
ATOM     43  C   UNL A   1      39.216  32.282  34.122  1.00  0.00     0.074 A 
ATOM     44  C   UNL A   1      38.144  33.254  34.113  1.00  0.00     0.031 C 
ATOM     45  C   UNL A   1      38.744  29.564  28.318  1.00  0.00     0.029 A 
ATOM     46  C   UNL A   1      39.729  29.281  29.357  1.00  0.00     0.049 A 
ATOM     47  H   UNL A   1      39.849  30.130  31.256  1.00  0.00     0.167 HD
ATOM     48  C   UNL A   1      40.058  32.085  35.164  1.00  0.00     0.037 A 
ATOM     49  C   UNL A   1      40.745  28.405  29.250  1.00  0.00     0.037 A 
ATOM     50  C   UNL A   1      41.113  31.104  35.176  1.00  0.00     0.049 A 
ATOM     51  C   UNL A   1      41.684  28.223  30.412  1.00  0.00     0.074 A 
ATOM     52  C   UNL A   1      41.981  30.784  36.205  1.00  0.00     0.029 A 
ATOM     53  N   UNL A   1      41.447  30.291  34.104  1.00  0.00    -0.354 N 
ATOM     54  N   UNL A   1      41.668  28.803  31.588  1.00  0.00    -0.248 NA
ATOM     55  C   UNL A   1      42.780  27.260  30.232  1.00  0.00     0.031 C 
ATOM     56  C   UNL A   1      42.875  29.816  35.738  1.00  0.00     0.029 A 
ATOM     57  C   UNL A   1      42.529  29.491  34.437  1.00  0.00     0.049 A 
ATOM     58  H   UNL A   1      40.986  30.283  33.235  1.00  0.00     0.167 HD
ATOM     59  C   UNL A   1      42.728  28.253  32.297  1.00  0.00     0.074 A 
ATOM     60  C   UNL A   1      43.358  27.284  31.424  1.00  0.00     0.031 C 
ATOM     61  C   UNL A   1      43.140  28.524  33.560  1.00  0.00     0.037 A 
BRANCH  48  62
ATOM     62  C   UNL A   1      39.874  32.953  36.376  1.00  0.00     0.057 A 
ATOM     63  C   UNL A   1      40.607  34.134  36.560  1.00  0.00     0.134 A 
ATOM     64  C   UNL A   1      38.938  32.617  37.362  1.00  0.00     0.134 A 
ATOM     65  F   UNL A   1      41.528  34.511  35.660  1.00  0.00    -0.206 F 
ATOM     66  C   UNL A   1      40.440  34.930  37.696  1.00  0.00     0.040 A 
ATOM     67  C   UNL A   1      38.740  33.419  38.486  1.00  0.00     0.040 A 
ATOM     68  F   UNL A   1      38.196  31.505  37.247  1.00  0.00    -0.206 F 
ATOM     69  C   UNL A   1      39.499  34.575  38.661  1.00  0.00     0.006 A 
ENDBRANCH  48  62
BRANCH  49  70
ATOM     70  C   UNL A   1      40.915  27.608  28.009  1.00  0.00     0.057 A 
ATOM     71  C   UNL A   1      40.296  26.361  27.865  1.00  0.00     0.134 A 
ATOM     72  C   UNL A   1      41.705  28.061  26.946  1.00  0.00     0.134 A 
ATOM     73  F   UNL A   1      39.541  25.863  28.856  1.00  0.00    -0.206 F 
ATOM     74  C   UNL A   1      40.473  25.583  26.719  1.00  0.00     0.040 A 
ATOM     75  C   UNL A   1      41.870  27.306  25.783  1.00  0.00     0.040 A 
ATOM     76  F   UNL A   1      42.320  29.251  27.019  1.00  0.00    -0.206 F 
ATOM     77  C   UNL A   1      41.258  26.059  25.672  1.00  0.00     0.006 A 
ENDBRANCH  49  70
BRANCH  61  78
ATOM     78  C   UNL A   1      44.301  27.732  34.090  1.00  0.00     0.057 A 
ATOM     79  C   UNL A   1      44.131  26.489  34.711  1.00  0.00     0.134 A 
ATOM     80  C   UNL A   1      45.611  28.206  33.941  1.00  0.00     0.134 A 
ATOM     81  F   UNL A   1      42.902  25.984  34.897  1.00  0.00    -0.206 F 
ATOM     82  C   UNL A   1      45.220  25.756  35.188  1.00  0.00     0.040 A 
ATOM     83  C   UNL A   1      46.710  27.470  34.387  1.00  0.00     0.040 A 
ATOM     84  F   UNL A   1      45.847  29.386  33.347  1.00  0.00    -0.206 F 
ATOM     85  C   UNL A   1      46.515  26.244  35.019  1.00  0.00     0.006 A 
ENDBRANCH  61  78
ENDBRANCH  35  36
ENDBRANCH  27  30
ENDBRANCH  25  26
ENDBRANCH  24  25
ENDBRANCH  23  24
ENDBRANCH   1  23
TORSDOF 16
ENDMDL
