MODEL 1
REMARK VINA RESULT:     -12.8      0.000      0.000
REMARK SMILES O=C(NCCCCCCNC(=O)c1ccc(-c2c3nc(c(-c4c(F)cccc4F)c4ccc([nH]4)c(-c4c(F)cccc4F)c4nc(c(-c5c(F)cccc5F)c5ccc2[nH]5)C=C4)C=C3)cc1)C1=Cc2c(ccc(Cl)c2Oc2ccccc2)O[C@H]1C(F)(F)F
REMARK SMILES IDX 6 1 5 2 4 3 3 4 1 5 2 6 67 8 68 9 84 10 69 11 83 12 70 13
REMARK SMILES IDX 75 14 71 15 73 16 72 17 74 18 85 19 86 20 87 21 88 22 76 23
REMARK SMILES IDX 77 24 78 25 82 26 79 27 81 28 80 29 7 30 8 31 9 32 10 33
REMARK SMILES IDX 11 34 12 36 13 37 14 38 66 39 15 40 65 41 16 42 17 43 18 44
REMARK SMILES IDX 59 45 19 46 64 47 58 48 60 49 20 50 63 51 57 52 56 53 21 55
REMARK SMILES IDX 47 56 30 57 46 58 31 59 34 60 45 61 61 62 32 63 33 64 44 66
REMARK SMILES IDX 62 67 35 68 22 69 23 70 28 71 24 72 25 73 27 74 29 75 26 76
REMARK SMILES IDX 48 77 49 78 54 79 50 80 51 81 53 82 55 83 52 84 36 85 37 86
REMARK SMILES IDX 42 87 38 88 39 89 41 90 43 91 40 92
REMARK H PARENT 3 7 10 35 60 54 34 65
REMARK Flexibility Score: inf
ROOT
ATOM      1  C   UNL A   1      31.798  29.162  27.261  1.00  0.00     0.002 C 
ENDROOT
BRANCH   1   2
ATOM      2  C   UNL A   1      32.543  27.881  26.873  1.00  0.00     0.021 C 
BRANCH   2   3
ATOM      3  C   UNL A   1      31.725  26.855  26.094  1.00  0.00     0.116 C 
BRANCH   3   4
ATOM      4  N   UNL A   1      31.368  25.681  26.878  1.00  0.00    -0.352 N 
ATOM      5  O   UNL A   1      30.901  23.497  27.228  1.00  0.00    -0.270 OA
ATOM      6  C   UNL A   1      31.302  24.370  26.476  1.00  0.00     0.251 C 
ATOM      7  H   UNL A   1      31.144  25.851  27.822  1.00  0.00     0.163 HD
BRANCH   6   8
ATOM      8  C   UNL A   1      31.721  24.024  25.102  1.00  0.00     0.067 C 
ATOM      9  C   UNL A   1      32.201  22.788  24.928  1.00  0.00     0.029 C 
ATOM     10  C   UNL A   1      32.047  25.131  24.151  1.00  0.00     0.314 C 
ATOM     11  C   UNL A   1      33.586  22.727  24.425  1.00  0.00     0.061 A 
ATOM     12  O   UNL A   1      33.357  24.995  23.529  1.00  0.00    -0.475 OA
ATOM     13  C   UNL A   1      34.102  23.879  23.807  1.00  0.00     0.131 A 
ATOM     14  C   UNL A   1      34.447  21.646  24.732  1.00  0.00     0.156 A 
ATOM     15  C   UNL A   1      35.461  23.979  23.520  1.00  0.00     0.049 A 
ATOM     16  C   UNL A   1      35.822  21.786  24.479  1.00  0.00     0.084 A 
ATOM     17  C   UNL A   1      36.324  22.945  23.878  1.00  0.00     0.028 A 
ATOM     18  Cl  UNL A   1      36.955  20.571  24.953  1.00  0.00    -0.080 Cl
BRANCH  10  19
ATOM     19  C   UNL A   1      30.952  25.263  23.072  1.00  0.00     0.429 C 
ATOM     20  F   UNL A   1      31.451  25.297  21.814  1.00  0.00    -0.167 F 
ATOM     21  F   UNL A   1      30.076  24.232  23.133  1.00  0.00    -0.167 F 
ATOM     22  F   UNL A   1      30.227  26.399  23.232  1.00  0.00    -0.167 F 
ENDBRANCH  10  19
BRANCH  14  23
ATOM     23  O   UNL A   1      34.061  20.494  25.404  1.00  0.00    -0.455 OA
BRANCH  23  24
ATOM     24  C   UNL A   1      33.746  19.386  24.655  1.00  0.00     0.127 A 
ATOM     25  C   UNL A   1      32.591  19.444  23.871  1.00  0.00     0.047 A 
ATOM     26  C   UNL A   1      34.572  18.260  24.622  1.00  0.00     0.047 A 
ATOM     27  C   UNL A   1      32.320  18.419  22.966  1.00  0.00     0.004 A 
ATOM     28  C   UNL A   1      34.288  17.229  23.724  1.00  0.00     0.004 A 
ATOM     29  C   UNL A   1      33.176  17.320  22.883  1.00  0.00     0.000 A 
ENDBRANCH  23  24
ENDBRANCH  14  23
ENDBRANCH   6   8
ENDBRANCH   3   4
ENDBRANCH   2   3
ENDBRANCH   1   2
BRANCH   1  30
ATOM     30  C   UNL A   1      31.598  30.211  26.160  1.00  0.00     0.002 C 
BRANCH  30  31
ATOM     31  C   UNL A   1      31.412  31.668  26.599  1.00  0.00     0.021 C 
BRANCH  31  32
ATOM     32  C   UNL A   1      32.680  32.496  26.800  1.00  0.00     0.116 C 
BRANCH  32  33
ATOM     33  N   UNL A   1      32.446  33.768  27.458  1.00  0.00    -0.352 N 
ATOM     34  C   UNL A   1      33.122  34.396  28.475  1.00  0.00     0.251 C 
ATOM     35  H   UNL A   1      31.669  34.266  27.116  1.00  0.00     0.163 HD
ATOM     36  O   UNL A   1      32.675  35.452  28.920  1.00  0.00    -0.269 OA
BRANCH  34  37
ATOM     37  C   UNL A   1      34.356  33.827  29.076  1.00  0.00     0.039 A 
ATOM     38  C   UNL A   1      34.214  32.827  30.047  1.00  0.00     0.014 A 
ATOM     39  C   UNL A   1      35.634  34.294  28.761  1.00  0.00     0.014 A 
ATOM     40  C   UNL A   1      35.340  32.262  30.654  1.00  0.00     0.010 A 
ATOM     41  C   UNL A   1      36.763  33.691  29.326  1.00  0.00     0.010 A 
ATOM     42  C   UNL A   1      36.628  32.670  30.279  1.00  0.00    -0.014 A 
BRANCH  42  43
ATOM     43  C   UNL A   1      37.835  32.042  30.879  1.00  0.00     0.031 A 
ATOM     44  C   UNL A   1      38.562  30.938  30.160  1.00  0.00     0.074 A 
ATOM     45  C   UNL A   1      38.257  32.428  32.099  1.00  0.00     0.049 A 
ATOM     46  N   UNL A   1      39.575  30.212  30.564  1.00  0.00    -0.248 NA
ATOM     47  C   UNL A   1      38.072  30.591  28.817  1.00  0.00     0.031 C 
ATOM     48  C   UNL A   1      37.632  33.463  32.923  1.00  0.00     0.029 A 
ATOM     49  N   UNL A   1      39.308  31.984  32.864  1.00  0.00    -0.354 N 
ATOM     50  C   UNL A   1      39.830  29.311  29.538  1.00  0.00     0.074 A 
ATOM     51  C   UNL A   1      38.848  29.563  28.504  1.00  0.00     0.031 C 
ATOM     52  C   UNL A   1      38.316  33.581  34.073  1.00  0.00     0.029 A 
ATOM     53  C   UNL A   1      39.409  32.614  34.080  1.00  0.00     0.049 A 
ATOM     54  H   UNL A   1      39.930  31.281  32.568  1.00  0.00     0.167 HD
ATOM     55  C   UNL A   1      40.801  28.371  29.456  1.00  0.00     0.037 A 
ATOM     56  C   UNL A   1      40.278  32.430  35.092  1.00  0.00     0.037 A 
ATOM     57  C   UNL A   1      41.804  28.136  30.462  1.00  0.00     0.049 A 
ATOM     58  C   UNL A   1      41.363  31.399  34.965  1.00  0.00     0.074 A 
ATOM     59  C   UNL A   1      42.847  27.226  30.446  1.00  0.00     0.029 A 
ATOM     60  N   UNL A   1      41.893  28.826  31.661  1.00  0.00    -0.354 N 
ATOM     61  N   UNL A   1      41.604  30.573  33.978  1.00  0.00    -0.248 NA
ATOM     62  C   UNL A   1      42.301  31.280  36.092  1.00  0.00     0.031 C 
ATOM     63  C   UNL A   1      43.559  27.352  31.644  1.00  0.00     0.029 A 
ATOM     64  C   UNL A   1      42.973  28.359  32.394  1.00  0.00     0.049 A 
ATOM     65  H   UNL A   1      41.281  29.540  31.949  1.00  0.00     0.167 HD
ATOM     66  C   UNL A   1      42.728  29.849  34.355  1.00  0.00     0.074 A 
ATOM     67  C   UNL A   1      43.129  30.342  35.656  1.00  0.00     0.031 C 
ATOM     68  C   UNL A   1      43.366  28.862  33.683  1.00  0.00     0.037 A 
BRANCH  55  69
ATOM     69  C   UNL A   1      40.830  27.519  28.223  1.00  0.00     0.057 A 
ATOM     70  C   UNL A   1      40.089  26.334  28.132  1.00  0.00     0.134 A 
ATOM     71  C   UNL A   1      41.578  27.904  27.104  1.00  0.00     0.134 A 
ATOM     72  F   UNL A   1      39.363  25.906  29.176  1.00  0.00    -0.206 F 
ATOM     73  C   UNL A   1      40.106  25.553  26.976  1.00  0.00     0.040 A 
ATOM     74  C   UNL A   1      41.587  27.142  25.935  1.00  0.00     0.040 A 
ATOM     75  F   UNL A   1      42.305  29.031  27.126  1.00  0.00    -0.206 F 
ATOM     76  C   UNL A   1      40.852  25.959  25.871  1.00  0.00     0.006 A 
ENDBRANCH  55  69
BRANCH  56  77
ATOM     77  C   UNL A   1      40.167  33.255  36.319  1.00  0.00     0.057 A 
ATOM     78  C   UNL A   1      39.365  32.848  37.390  1.00  0.00     0.134 A 
ATOM     79  C   UNL A   1      40.852  34.468  36.444  1.00  0.00     0.134 A 
ATOM     80  F   UNL A   1      38.669  31.703  37.315  1.00  0.00    -0.206 F 
ATOM     81  C   UNL A   1      39.239  33.624  38.542  1.00  0.00     0.040 A 
ATOM     82  C   UNL A   1      40.749  35.246  37.598  1.00  0.00     0.040 A 
ATOM     83  F   UNL A   1      41.638  34.908  35.451  1.00  0.00    -0.206 F 
ATOM     84  C   UNL A   1      39.935  34.826  38.649  1.00  0.00     0.006 A 
ENDBRANCH  56  77
BRANCH  68  85
ATOM     85  C   UNL A   1      44.579  28.267  34.330  1.00  0.00     0.057 A 
ATOM     86  C   UNL A   1      45.856  28.804  34.128  1.00  0.00     0.134 A 
ATOM     87  C   UNL A   1      44.462  27.170  35.192  1.00  0.00     0.134 A 
ATOM     88  F   UNL A   1      46.031  29.847  33.303  1.00  0.00    -0.206 F 
ATOM     89  C   UNL A   1      46.980  28.258  34.749  1.00  0.00     0.040 A 
ATOM     90  C   UNL A   1      45.578  26.625  35.831  1.00  0.00     0.040 A 
ATOM     91  F   UNL A   1      43.265  26.614  35.429  1.00  0.00    -0.206 F 
ATOM     92  C   UNL A   1      46.842  27.169  35.608  1.00  0.00     0.006 A 
ENDBRANCH  68  85
ENDBRANCH  42  43
ENDBRANCH  34  37
ENDBRANCH  32  33
ENDBRANCH  31  32
ENDBRANCH  30  31
ENDBRANCH   1  30
TORSDOF 16
ENDMDL
MODEL 2
REMARK VINA RESULT:     -12.8      4.363      9.230
REMARK SMILES O=C(NCCCCCCNC(=O)c1ccc(-c2c3nc(c(-c4c(F)cccc4F)c4ccc([nH]4)c(-c4c(F)cccc4F)c4nc(c(-c5c(F)cccc5F)c5ccc2[nH]5)C=C4)C=C3)cc1)C1=Cc2c(ccc(Cl)c2Oc2ccccc2)O[C@H]1C(F)(F)F
REMARK SMILES IDX 6 1 5 2 4 3 3 4 1 5 2 6 67 8 68 9 84 10 69 11 83 12 70 13
REMARK SMILES IDX 75 14 71 15 73 16 72 17 74 18 85 19 86 20 87 21 88 22 76 23
REMARK SMILES IDX 77 24 78 25 82 26 79 27 81 28 80 29 7 30 8 31 9 32 10 33
REMARK SMILES IDX 11 34 12 36 13 37 14 38 66 39 15 40 65 41 16 42 17 43 18 44
REMARK SMILES IDX 59 45 19 46 64 47 58 48 60 49 20 50 63 51 57 52 56 53 21 55
REMARK SMILES IDX 47 56 30 57 46 58 31 59 34 60 45 61 61 62 32 63 33 64 44 66
REMARK SMILES IDX 62 67 35 68 22 69 23 70 28 71 24 72 25 73 27 74 29 75 26 76
REMARK SMILES IDX 48 77 49 78 54 79 50 80 51 81 53 82 55 83 52 84 36 85 37 86
REMARK SMILES IDX 42 87 38 88 39 89 41 90 43 91 40 92
REMARK H PARENT 3 7 10 35 60 54 34 65
REMARK Flexibility Score: inf
ROOT
ATOM      1  C   UNL A   1      36.102  21.819  25.575  1.00  0.00     0.002 C 
ENDROOT
BRANCH   1   2
ATOM      2  C   UNL A   1      35.354  22.080  26.885  1.00  0.00     0.021 C 
BRANCH   2   3
ATOM      3  C   UNL A   1      34.020  21.355  27.037  1.00  0.00     0.116 C 
BRANCH   3   4
ATOM      4  N   UNL A   1      32.928  22.227  27.443  1.00  0.00    -0.352 N 
ATOM      5  O   UNL A   1      31.380  23.854  27.181  1.00  0.00    -0.270 OA
ATOM      6  C   UNL A   1      32.218  23.122  26.682  1.00  0.00     0.251 C 
ATOM      7  H   UNL A   1      32.663  22.168  28.389  1.00  0.00     0.163 HD
BRANCH   6   8
ATOM      8  C   UNL A   1      32.489  23.197  25.231  1.00  0.00     0.067 C 
ATOM      9  C   UNL A   1      33.219  24.240  24.822  1.00  0.00     0.029 C 
ATOM     10  C   UNL A   1      31.589  22.457  24.294  1.00  0.00     0.314 C 
ATOM     11  C   UNL A   1      32.547  25.124  23.851  1.00  0.00     0.061 A 
ATOM     12  O   UNL A   1      31.040  23.294  23.234  1.00  0.00    -0.475 OA
ATOM     13  C   UNL A   1      31.441  24.601  23.158  1.00  0.00     0.131 A 
ATOM     14  C   UNL A   1      32.847  26.504  23.762  1.00  0.00     0.156 A 
ATOM     15  C   UNL A   1      30.619  25.438  22.407  1.00  0.00     0.049 A 
ATOM     16  C   UNL A   1      31.977  27.338  23.039  1.00  0.00     0.084 A 
ATOM     17  C   UNL A   1      30.872  26.807  22.368  1.00  0.00     0.028 A 
ATOM     18  Cl  UNL A   1      32.196  29.052  23.000  1.00  0.00    -0.080 Cl
BRANCH  10  19
ATOM     19  C   UNL A   1      32.313  21.234  23.692  1.00  0.00     0.429 C 
ATOM     20  F   UNL A   1      33.632  21.454  23.479  1.00  0.00    -0.167 F 
ATOM     21  F   UNL A   1      32.206  20.154  24.502  1.00  0.00    -0.167 F 
ATOM     22  F   UNL A   1      31.782  20.878  22.496  1.00  0.00    -0.167 F 
ENDBRANCH  10  19
BRANCH  14  23
ATOM     23  O   UNL A   1      33.867  27.138  24.459  1.00  0.00    -0.455 OA
BRANCH  23  24
ATOM     24  C   UNL A   1      33.526  27.889  25.559  1.00  0.00     0.127 A 
ATOM     25  C   UNL A   1      34.124  29.143  25.694  1.00  0.00     0.047 A 
ATOM     26  C   UNL A   1      32.573  27.451  26.482  1.00  0.00     0.047 A 
ATOM     27  C   UNL A   1      33.686  30.011  26.694  1.00  0.00     0.004 A 
ATOM     28  C   UNL A   1      32.149  28.319  27.490  1.00  0.00     0.004 A 
ATOM     29  C   UNL A   1      32.690  29.604  27.581  1.00  0.00     0.000 A 
ENDBRANCH  23  24
ENDBRANCH  14  23
ENDBRANCH   6   8
ENDBRANCH   3   4
ENDBRANCH   2   3
ENDBRANCH   1   2
BRANCH   1  30
ATOM     30  C   UNL A   1      36.017  20.401  24.995  1.00  0.00     0.002 C 
BRANCH  30  31
ATOM     31  C   UNL A   1      37.317  19.594  24.912  1.00  0.00     0.021 C 
BRANCH  31  32
ATOM     32  C   UNL A   1      38.544  20.186  25.605  1.00  0.00     0.116 C 
BRANCH  32  33
ATOM     33  N   UNL A   1      39.680  19.285  25.645  1.00  0.00    -0.352 N 
ATOM     34  C   UNL A   1      40.980  19.488  26.039  1.00  0.00     0.251 C 
ATOM     35  H   UNL A   1      39.486  18.370  25.337  1.00  0.00     0.163 HD
ATOM     36  O   UNL A   1      41.791  18.572  25.905  1.00  0.00    -0.269 OA
BRANCH  34  37
ATOM     37  C   UNL A   1      41.446  20.785  26.592  1.00  0.00     0.039 A 
ATOM     38  C   UNL A   1      41.857  21.775  25.690  1.00  0.00     0.014 A 
ATOM     39  C   UNL A   1      41.552  21.027  27.965  1.00  0.00     0.014 A 
ATOM     40  C   UNL A   1      42.316  23.013  26.153  1.00  0.00     0.010 A 
ATOM     41  C   UNL A   1      41.958  22.284  28.428  1.00  0.00     0.010 A 
ATOM     42  C   UNL A   1      42.344  23.289  27.528  1.00  0.00    -0.014 A 
BRANCH  42  43
ATOM     43  C   UNL A   1      42.780  24.618  28.033  1.00  0.00     0.031 A 
ATOM     44  C   UNL A   1      41.769  25.686  28.352  1.00  0.00     0.074 A 
ATOM     45  C   UNL A   1      44.094  24.890  28.162  1.00  0.00     0.049 A 
ATOM     46  N   UNL A   1      41.964  26.929  28.715  1.00  0.00    -0.248 NA
ATOM     47  C   UNL A   1      40.352  25.312  28.225  1.00  0.00     0.031 C 
ATOM     48  C   UNL A   1      45.184  23.961  27.861  1.00  0.00     0.029 A 
ATOM     49  N   UNL A   1      44.735  26.033  28.571  1.00  0.00    -0.354 N 
ATOM     50  C   UNL A   1      40.700  27.491  28.840  1.00  0.00     0.074 A 
ATOM     51  C   UNL A   1      39.745  26.461  28.487  1.00  0.00     0.031 C 
ATOM     52  C   UNL A   1      46.357  24.568  28.104  1.00  0.00     0.029 A 
ATOM     53  C   UNL A   1      46.105  25.935  28.551  1.00  0.00     0.049 A 
ATOM     54  H   UNL A   1      44.257  26.847  28.852  1.00  0.00     0.167 HD
ATOM     55  C   UNL A   1      40.363  28.744  29.227  1.00  0.00     0.037 A 
ATOM     56  C   UNL A   1      47.052  26.843  28.850  1.00  0.00     0.037 A 
ATOM     57  C   UNL A   1      41.301  29.765  29.615  1.00  0.00     0.049 A 
ATOM     58  C   UNL A   1      46.652  28.217  29.304  1.00  0.00     0.074 A 
ATOM     59  C   UNL A   1      41.044  31.052  30.055  1.00  0.00     0.029 A 
ATOM     60  N   UNL A   1      42.678  29.608  29.619  1.00  0.00    -0.354 N 
ATOM     61  N   UNL A   1      45.451  28.723  29.439  1.00  0.00    -0.248 NA
ATOM     62  C   UNL A   1      47.738  29.145  29.652  1.00  0.00     0.031 C 
ATOM     63  C   UNL A   1      42.268  31.682  30.309  1.00  0.00     0.029 A 
ATOM     64  C   UNL A   1      43.284  30.777  30.051  1.00  0.00     0.049 A 
ATOM     65  H   UNL A   1      43.154  28.789  29.354  1.00  0.00     0.167 HD
ATOM     66  C   UNL A   1      45.636  30.020  29.903  1.00  0.00     0.074 A 
ATOM     67  C   UNL A   1      47.064  30.218  30.039  1.00  0.00     0.031 C 
ATOM     68  C   UNL A   1      44.704  30.960  30.188  1.00  0.00     0.037 A 
BRANCH  55  69
ATOM     69  C   UNL A   1      38.903  29.084  29.257  1.00  0.00     0.057 A 
ATOM     70  C   UNL A   1      38.145  28.961  30.428  1.00  0.00     0.134 A 
ATOM     71  C   UNL A   1      38.257  29.571  28.114  1.00  0.00     0.134 A 
ATOM     72  F   UNL A   1      38.704  28.488  31.552  1.00  0.00    -0.206 F 
ATOM     73  C   UNL A   1      36.790  29.294  30.456  1.00  0.00     0.040 A 
ATOM     74  C   UNL A   1      36.908  29.926  28.135  1.00  0.00     0.040 A 
ATOM     75  F   UNL A   1      38.929  29.716  26.962  1.00  0.00    -0.206 F 
ATOM     76  C   UNL A   1      36.169  29.783  29.308  1.00  0.00     0.006 A 
ENDBRANCH  55  69
BRANCH  56  77
ATOM     77  C   UNL A   1      48.485  26.476  28.742  1.00  0.00     0.057 A 
ATOM     78  C   UNL A   1      49.149  25.854  29.804  1.00  0.00     0.134 A 
ATOM     79  C   UNL A   1      49.219  26.743  27.582  1.00  0.00     0.134 A 
ATOM     80  F   UNL A   1      48.499  25.593  30.948  1.00  0.00    -0.206 F 
ATOM     81  C   UNL A   1      50.501  25.518  29.721  1.00  0.00     0.040 A 
ATOM     82  C   UNL A   1      50.567  26.397  27.479  1.00  0.00     0.040 A 
ATOM     83  F   UNL A   1      48.635  27.335  26.531  1.00  0.00    -0.206 F 
ATOM     84  C   UNL A   1      51.213  25.788  28.554  1.00  0.00     0.006 A 
ENDBRANCH  56  77
BRANCH  68  85
ATOM     85  C   UNL A   1      45.198  32.279  30.698  1.00  0.00     0.057 A 
ATOM     86  C   UNL A   1      45.473  33.343  29.831  1.00  0.00     0.134 A 
ATOM     87  C   UNL A   1      45.366  32.497  32.070  1.00  0.00     0.134 A 
ATOM     88  F   UNL A   1      45.343  33.190  28.504  1.00  0.00    -0.206 F 
ATOM     89  C   UNL A   1      45.914  34.577  30.311  1.00  0.00     0.040 A 
ATOM     90  C   UNL A   1      45.792  33.732  32.564  1.00  0.00     0.040 A 
ATOM     91  F   UNL A   1      45.115  31.517  32.952  1.00  0.00    -0.206 F 
ATOM     92  C   UNL A   1      46.069  34.775  31.682  1.00  0.00     0.006 A 
ENDBRANCH  68  85
ENDBRANCH  42  43
ENDBRANCH  34  37
ENDBRANCH  32  33
ENDBRANCH  31  32
ENDBRANCH  30  31
ENDBRANCH   1  30
TORSDOF 16
ENDMDL
MODEL 3
REMARK VINA RESULT:     -12.8      4.495      6.412
REMARK SMILES O=C(NCCCCCCNC(=O)c1ccc(-c2c3nc(c(-c4c(F)cccc4F)c4ccc([nH]4)c(-c4c(F)cccc4F)c4nc(c(-c5c(F)cccc5F)c5ccc2[nH]5)C=C4)C=C3)cc1)C1=Cc2c(ccc(Cl)c2Oc2ccccc2)O[C@H]1C(F)(F)F
REMARK SMILES IDX 6 1 5 2 4 3 3 4 1 5 2 6 67 8 68 9 84 10 69 11 83 12 70 13
REMARK SMILES IDX 75 14 71 15 73 16 72 17 74 18 85 19 86 20 87 21 88 22 76 23
REMARK SMILES IDX 77 24 78 25 82 26 79 27 81 28 80 29 7 30 8 31 9 32 10 33
REMARK SMILES IDX 11 34 12 36 13 37 14 38 66 39 15 40 65 41 16 42 17 43 18 44
REMARK SMILES IDX 59 45 19 46 64 47 58 48 60 49 20 50 63 51 57 52 56 53 21 55
REMARK SMILES IDX 47 56 30 57 46 58 31 59 34 60 45 61 61 62 32 63 33 64 44 66
REMARK SMILES IDX 62 67 35 68 22 69 23 70 28 71 24 72 25 73 27 74 29 75 26 76
REMARK SMILES IDX 48 77 49 78 54 79 50 80 51 81 53 82 55 83 52 84 36 85 37 86
REMARK SMILES IDX 42 87 38 88 39 89 41 90 43 91 40 92
REMARK H PARENT 3 7 10 35 60 54 34 65
REMARK Flexibility Score: inf
ROOT
ATOM      1  C   UNL A   1      31.688  28.525  27.607  1.00  0.00     0.002 C 
ENDROOT
BRANCH   1   2
ATOM      2  C   UNL A   1      31.304  27.548  26.492  1.00  0.00     0.021 C 
BRANCH   2   3
ATOM      3  C   UNL A   1      32.136  26.270  26.422  1.00  0.00     0.116 C 
BRANCH   3   4
ATOM      4  N   UNL A   1      31.501  25.129  27.066  1.00  0.00    -0.352 N 
ATOM      5  O   UNL A   1      30.586  23.064  27.171  1.00  0.00    -0.270 OA
ATOM      6  C   UNL A   1      31.201  23.901  26.532  1.00  0.00     0.251 C 
ATOM      7  H   UNL A   1      31.253  25.255  28.011  1.00  0.00     0.163 HD
BRANCH   6   8
ATOM      8  C   UNL A   1      31.632  23.601  25.150  1.00  0.00     0.067 C 
ATOM      9  C   UNL A   1      32.157  22.387  24.949  1.00  0.00     0.029 C 
ATOM     10  C   UNL A   1      31.917  24.739  24.224  1.00  0.00     0.314 C 
ATOM     11  C   UNL A   1      33.544  22.388  24.445  1.00  0.00     0.061 A 
ATOM     12  O   UNL A   1      33.231  24.665  23.600  1.00  0.00    -0.475 OA
ATOM     13  C   UNL A   1      34.016  23.572  23.853  1.00  0.00     0.131 A 
ATOM     14  C   UNL A   1      34.443  21.333  24.728  1.00  0.00     0.156 A 
ATOM     15  C   UNL A   1      35.371  23.727  23.569  1.00  0.00     0.049 A 
ATOM     16  C   UNL A   1      35.812  21.529  24.479  1.00  0.00     0.084 A 
ATOM     17  C   UNL A   1      36.271  22.718  23.904  1.00  0.00     0.028 A 
ATOM     18  Cl  UNL A   1      36.989  20.346  24.927  1.00  0.00    -0.080 Cl
BRANCH  10  19
ATOM     19  C   UNL A   1      30.817  24.856  23.148  1.00  0.00     0.429 C 
ATOM     20  F   UNL A   1      31.304  25.194  21.930  1.00  0.00    -0.167 F 
ATOM     21  F   UNL A   1      30.145  23.689  23.006  1.00  0.00    -0.167 F 
ATOM     22  F   UNL A   1      29.898  25.798  23.473  1.00  0.00    -0.167 F 
ENDBRANCH  10  19
BRANCH  14  23
ATOM     23  O   UNL A   1      34.100  20.153  25.375  1.00  0.00    -0.455 OA
BRANCH  23  24
ATOM     24  C   UNL A   1      33.822  19.051  24.600  1.00  0.00     0.127 A 
ATOM     25  C   UNL A   1      32.710  19.118  23.759  1.00  0.00     0.047 A 
ATOM     26  C   UNL A   1      34.648  17.924  24.601  1.00  0.00     0.047 A 
ATOM     27  C   UNL A   1      32.485  18.101  22.833  1.00  0.00     0.004 A 
ATOM     28  C   UNL A   1      34.409  16.902  23.680  1.00  0.00     0.004 A 
ATOM     29  C   UNL A   1      33.342  17.001  22.784  1.00  0.00     0.000 A 
ENDBRANCH  23  24
ENDBRANCH  14  23
ENDBRANCH   6   8
ENDBRANCH   3   4
ENDBRANCH   2   3
ENDBRANCH   1   2
BRANCH   1  30
ATOM     30  C   UNL A   1      32.727  29.601  27.262  1.00  0.00     0.002 C 
BRANCH  30  31
ATOM     31  C   UNL A   1      34.199  29.175  27.224  1.00  0.00     0.021 C 
BRANCH  31  32
ATOM     32  C   UNL A   1      35.233  30.225  27.628  1.00  0.00     0.116 C 
BRANCH  32  33
ATOM     33  N   UNL A   1      35.235  30.523  29.048  1.00  0.00    -0.352 N 
ATOM     34  C   UNL A   1      36.222  30.401  29.994  1.00  0.00     0.251 C 
ATOM     35  H   UNL A   1      34.381  30.872  29.392  1.00  0.00     0.163 HD
ATOM     36  O   UNL A   1      35.953  30.650  31.169  1.00  0.00    -0.269 OA
BRANCH  34  37
ATOM     37  C   UNL A   1      37.596  29.951  29.652  1.00  0.00     0.039 A 
ATOM     38  C   UNL A   1      37.948  29.885  28.298  1.00  0.00     0.014 A 
ATOM     39  C   UNL A   1      38.516  29.530  30.617  1.00  0.00     0.014 A 
ATOM     40  C   UNL A   1      39.224  29.459  27.915  1.00  0.00     0.010 A 
ATOM     41  C   UNL A   1      39.810  29.156  30.239  1.00  0.00     0.010 A 
ATOM     42  C   UNL A   1      40.178  29.116  28.885  1.00  0.00    -0.014 A 
BRANCH  42  43
ATOM     43  C   UNL A   1      41.554  28.710  28.495  1.00  0.00     0.031 A 
ATOM     44  C   UNL A   1      41.854  27.286  28.112  1.00  0.00     0.074 A 
ATOM     45  C   UNL A   1      42.556  29.611  28.531  1.00  0.00     0.049 A 
ATOM     46  N   UNL A   1      43.005  26.729  27.832  1.00  0.00    -0.248 NA
ATOM     47  C   UNL A   1      40.710  26.363  28.059  1.00  0.00     0.031 C 
ATOM     48  C   UNL A   1      42.416  31.018  28.911  1.00  0.00     0.029 A 
ATOM     49  N   UNL A   1      43.893  29.474  28.251  1.00  0.00    -0.354 N 
ATOM     50  C   UNL A   1      42.729  25.389  27.588  1.00  0.00     0.074 A 
ATOM     51  C   UNL A   1      41.305  25.212  27.782  1.00  0.00     0.031 C 
ATOM     52  C   UNL A   1      43.617  31.615  28.833  1.00  0.00     0.029 A 
ATOM     53  C   UNL A   1      44.614  30.630  28.424  1.00  0.00     0.049 A 
ATOM     54  H   UNL A   1      44.297  28.626  27.955  1.00  0.00     0.167 HD
ATOM     55  C   UNL A   1      43.579  24.400  27.223  1.00  0.00     0.037 A 
ATOM     56  C   UNL A   1      45.931  30.870  28.278  1.00  0.00     0.037 A 
ATOM     57  C   UNL A   1      44.990  24.573  26.993  1.00  0.00     0.049 A 
ATOM     58  C   UNL A   1      46.848  29.763  27.844  1.00  0.00     0.074 A 
ATOM     59  C   UNL A   1      45.920  23.632  26.587  1.00  0.00     0.029 A 
ATOM     60  N   UNL A   1      45.671  25.771  27.140  1.00  0.00    -0.354 N 
ATOM     61  N   UNL A   1      46.566  28.509  27.596  1.00  0.00    -0.248 NA
ATOM     62  C   UNL A   1      48.267  30.107  27.666  1.00  0.00     0.031 C 
ATOM     63  C   UNL A   1      47.170  24.256  26.504  1.00  0.00     0.029 A 
ATOM     64  C   UNL A   1      47.011  25.592  26.835  1.00  0.00     0.049 A 
ATOM     65  H   UNL A   1      45.263  26.622  27.420  1.00  0.00     0.167 HD
ATOM     66  C   UNL A   1      47.765  27.918  27.217  1.00  0.00     0.074 A 
ATOM     67  C   UNL A   1      48.775  28.954  27.255  1.00  0.00     0.031 C 
ATOM     68  C   UNL A   1      48.004  26.632  26.870  1.00  0.00     0.037 A 
BRANCH  55  69
ATOM     69  C   UNL A   1      43.000  23.030  27.042  1.00  0.00     0.057 A 
ATOM     70  C   UNL A   1      42.660  22.226  28.137  1.00  0.00     0.134 A 
ATOM     71  C   UNL A   1      42.748  22.522  25.762  1.00  0.00     0.134 A 
ATOM     72  F   UNL A   1      42.890  22.652  29.388  1.00  0.00    -0.206 F 
ATOM     73  C   UNL A   1      42.106  20.957  27.965  1.00  0.00     0.040 A 
ATOM     74  C   UNL A   1      42.176  21.262  25.577  1.00  0.00     0.040 A 
ATOM     75  F   UNL A   1      43.047  23.244  24.672  1.00  0.00    -0.206 F 
ATOM     76  C   UNL A   1      41.857  20.474  26.681  1.00  0.00     0.006 A 
ENDBRANCH  55  69
BRANCH  56  77
ATOM     77  C   UNL A   1      46.464  32.231  28.532  1.00  0.00     0.057 A 
ATOM     78  C   UNL A   1      46.968  32.583  29.788  1.00  0.00     0.134 A 
ATOM     79  C   UNL A   1      46.476  33.206  27.530  1.00  0.00     0.134 A 
ATOM     80  F   UNL A   1      46.962  31.693  30.792  1.00  0.00    -0.206 F 
ATOM     81  C   UNL A   1      47.457  33.864  30.044  1.00  0.00     0.040 A 
ATOM     82  C   UNL A   1      46.978  34.486  27.766  1.00  0.00     0.040 A 
ATOM     83  F   UNL A   1      46.009  32.925  26.305  1.00  0.00    -0.206 F 
ATOM     84  C   UNL A   1      47.465  34.820  29.029  1.00  0.00     0.006 A 
ENDBRANCH  56  77
BRANCH  68  85
ATOM     85  C   UNL A   1      49.407  26.278  26.482  1.00  0.00     0.057 A 
ATOM     86  C   UNL A   1      49.901  26.538  25.198  1.00  0.00     0.134 A 
ATOM     87  C   UNL A   1      50.282  25.704  27.412  1.00  0.00     0.134 A 
ATOM     88  F   UNL A   1      49.105  27.075  24.261  1.00  0.00    -0.206 F 
ATOM     89  C   UNL A   1      51.214  26.225  24.847  1.00  0.00     0.040 A 
ATOM     90  C   UNL A   1      51.603  25.401  27.077  1.00  0.00     0.040 A 
ATOM     91  F   UNL A   1      49.869  25.434  28.660  1.00  0.00    -0.206 F 
ATOM     92  C   UNL A   1      52.071  25.659  25.790  1.00  0.00     0.006 A 
ENDBRANCH  68  85
ENDBRANCH  42  43
ENDBRANCH  34  37
ENDBRANCH  32  33
ENDBRANCH  31  32
ENDBRANCH  30  31
ENDBRANCH   1  30
TORSDOF 16
ENDMDL
