MODEL 1
REMARK VINA RESULT:     -11.1      0.000      0.000
REMARK SMILES O=C(NCCCCCCNC(=O)c1cccnc1-c1ccccn1)c1ccc(-c2c3nc(c(-c4c(F)cccc4F)c4ccc([nH]4)c(-c4c(F)cccc4F)c4nc(c(-c5c(F)cccc5F)c5ccc2[nH]5)C=C4)C=C3)cc1
REMARK SMILES IDX 6 1 5 2 4 3 3 4 1 5 2 6 25 8 26 9 78 10 27 11 77 12 28 13
REMARK SMILES IDX 29 14 30 15 71 16 31 17 76 18 70 19 72 20 32 21 75 22 69 23
REMARK SMILES IDX 68 24 33 26 59 27 42 28 58 29 43 30 46 31 57 32 73 33 44 34
REMARK SMILES IDX 45 35 56 37 74 38 47 39 34 40 35 41 40 42 36 43 37 44 39 45
REMARK SMILES IDX 41 46 38 47 60 48 61 49 66 50 62 51 63 52 65 53 67 54 64 55
REMARK SMILES IDX 48 56 49 57 54 58 50 59 51 60 53 61 55 62 52 63 7 64 8 65
REMARK SMILES IDX 9 66 10 67 11 68 12 70 13 71 14 72 18 73 15 74 17 75 16 76
REMARK SMILES IDX 19 77 20 78 24 79 21 80 23 81 22 82
REMARK H PARENT 3 7 72 25 46 36 10 69
REMARK Flexibility Score: inf
ROOT
ATOM      1  C   UNL A   1      36.284  20.046  24.974  1.00  0.00     0.002 C 
ENDROOT
BRANCH   1   2
ATOM      2  C   UNL A   1      37.750  19.789  24.625  1.00  0.00     0.021 C 
BRANCH   2   3
ATOM      3  C   UNL A   1      38.738  20.129  25.733  1.00  0.00     0.116 C 
BRANCH   3   4
ATOM      4  N   UNL A   1      39.852  19.196  25.783  1.00  0.00    -0.352 N 
ATOM      5  O   UNL A   1      42.017  18.566  25.869  1.00  0.00    -0.269 OA
ATOM      6  C   UNL A   1      41.176  19.442  26.047  1.00  0.00     0.251 C 
ATOM      7  H   UNL A   1      39.624  18.256  25.602  1.00  0.00     0.163 HD
BRANCH   6   8
ATOM      8  C   UNL A   1      41.590  20.775  26.533  1.00  0.00     0.039 A 
ATOM      9  C   UNL A   1      41.589  21.068  27.899  1.00  0.00     0.014 A 
ATOM     10  C   UNL A   1      42.003  21.735  25.607  1.00  0.00     0.014 A 
ATOM     11  C   UNL A   1      41.881  22.356  28.332  1.00  0.00     0.010 A 
ATOM     12  C   UNL A   1      42.377  23.006  26.050  1.00  0.00     0.010 A 
ATOM     13  C   UNL A   1      42.298  23.332  27.413  1.00  0.00    -0.014 A 
BRANCH  13  14
ATOM     14  C   UNL A   1      42.728  24.666  27.898  1.00  0.00     0.031 A 
ATOM     15  C   UNL A   1      41.725  25.732  28.228  1.00  0.00     0.074 A 
ATOM     16  C   UNL A   1      44.046  24.917  28.010  1.00  0.00     0.049 A 
ATOM     17  N   UNL A   1      41.930  26.969  28.603  1.00  0.00    -0.248 NA
ATOM     18  C   UNL A   1      40.306  25.364  28.112  1.00  0.00     0.031 C 
ATOM     19  C   UNL A   1      45.113  23.962  27.701  1.00  0.00     0.029 A 
ATOM     20  N   UNL A   1      44.715  26.049  28.398  1.00  0.00    -0.354 N 
ATOM     21  C   UNL A   1      40.671  27.536  28.746  1.00  0.00     0.074 A 
ATOM     22  C   UNL A   1      39.708  26.514  28.392  1.00  0.00     0.031 C 
ATOM     23  C   UNL A   1      46.300  24.544  27.920  1.00  0.00     0.029 A 
ATOM     24  C   UNL A   1      46.080  25.930  28.320  1.00  0.00     0.049 A 
ATOM     25  H   UNL A   1      44.260  26.867  28.703  1.00  0.00     0.167 HD
ATOM     26  C   UNL A   1      40.352  28.793  29.139  1.00  0.00     0.037 A 
ATOM     27  C   UNL A   1      47.051  26.841  28.507  1.00  0.00     0.037 A 
ATOM     28  C   UNL A   1      41.323  29.802  29.486  1.00  0.00     0.049 A 
ATOM     29  C   UNL A   1      46.676  28.238  28.904  1.00  0.00     0.074 A 
ATOM     30  C   UNL A   1      41.102  31.088  29.946  1.00  0.00     0.029 A 
ATOM     31  N   UNL A   1      42.699  29.643  29.392  1.00  0.00    -0.354 N 
ATOM     32  N   UNL A   1      45.482  28.747  29.091  1.00  0.00    -0.248 NA
ATOM     33  C   UNL A   1      47.776  29.186  29.115  1.00  0.00     0.031 C 
ATOM     34  C   UNL A   1      42.340  31.728  30.069  1.00  0.00     0.029 A 
ATOM     35  C   UNL A   1      43.337  30.820  29.749  1.00  0.00     0.049 A 
ATOM     36  H   UNL A   1      43.154  28.816  29.112  1.00  0.00     0.167 HD
ATOM     37  C   UNL A   1      45.686  30.068  29.463  1.00  0.00     0.074 A 
ATOM     38  C   UNL A   1      47.119  30.279  29.483  1.00  0.00     0.031 C 
ATOM     39  C   UNL A   1      44.767  31.017  29.764  1.00  0.00     0.037 A 
BRANCH  26  40
ATOM     40  C   UNL A   1      38.894  29.158  29.177  1.00  0.00     0.057 A 
ATOM     41  C   UNL A   1      38.135  29.084  30.352  1.00  0.00     0.134 A 
ATOM     42  C   UNL A   1      38.244  29.608  28.020  1.00  0.00     0.134 A 
ATOM     43  F   UNL A   1      38.691  28.654  31.496  1.00  0.00    -0.206 F 
ATOM     44  C   UNL A   1      36.776  29.405  30.367  1.00  0.00     0.040 A 
ATOM     45  C   UNL A   1      36.893  29.961  28.029  1.00  0.00     0.040 A 
ATOM     46  F   UNL A   1      38.911  29.716  26.861  1.00  0.00    -0.206 F 
ATOM     47  C   UNL A   1      36.152  29.849  29.203  1.00  0.00     0.006 A 
ENDBRANCH  26  40
BRANCH  27  48
ATOM     48  C   UNL A   1      48.465  26.445  28.295  1.00  0.00     0.057 A 
ATOM     49  C   UNL A   1      49.211  25.837  29.309  1.00  0.00     0.134 A 
ATOM     50  C   UNL A   1      49.084  26.618  27.050  1.00  0.00     0.134 A 
ATOM     51  F   UNL A   1      48.676  25.657  30.524  1.00  0.00    -0.206 F 
ATOM     52  C   UNL A   1      50.525  25.418  29.094  1.00  0.00     0.040 A 
ATOM     53  C   UNL A   1      50.387  26.178  26.814  1.00  0.00     0.040 A 
ATOM     54  F   UNL A   1      48.415  27.182  26.033  1.00  0.00    -0.206 F 
ATOM     55  C   UNL A   1      51.112  25.579  27.841  1.00  0.00     0.006 A 
ENDBRANCH  27  48
BRANCH  39  56
ATOM     56  C   UNL A   1      45.278  32.367  30.175  1.00  0.00     0.057 A 
ATOM     57  C   UNL A   1      45.495  33.392  29.247  1.00  0.00     0.134 A 
ATOM     58  C   UNL A   1      45.495  32.661  31.528  1.00  0.00     0.134 A 
ATOM     59  F   UNL A   1      45.321  33.171  27.935  1.00  0.00    -0.206 F 
ATOM     60  C   UNL A   1      45.921  34.660  29.649  1.00  0.00     0.040 A 
ATOM     61  C   UNL A   1      45.893  33.932  31.943  1.00  0.00     0.040 A 
ATOM     62  F   UNL A   1      45.300  31.725  32.469  1.00  0.00    -0.206 F 
ATOM     63  C   UNL A   1      46.110  34.935  31.002  1.00  0.00     0.006 A 
ENDBRANCH  39  56
ENDBRANCH  13  14
ENDBRANCH   6   8
ENDBRANCH   3   4
ENDBRANCH   2   3
ENDBRANCH   1   2
BRANCH   1  64
ATOM     64  C   UNL A   1      35.995  21.401  25.629  1.00  0.00     0.002 C 
BRANCH  64  65
ATOM     65  C   UNL A   1      34.974  22.281  24.900  1.00  0.00     0.021 C 
BRANCH  65  66
ATOM     66  C   UNL A   1      34.693  23.628  25.559  1.00  0.00     0.116 C 
BRANCH  66  67
ATOM     67  N   UNL A   1      33.703  23.523  26.618  1.00  0.00    -0.352 N 
ATOM     68  C   UNL A   1      32.367  23.835  26.595  1.00  0.00     0.253 C 
ATOM     69  H   UNL A   1      34.040  23.177  27.475  1.00  0.00     0.163 HD
ATOM     70  O   UNL A   1      31.695  23.732  27.616  1.00  0.00    -0.269 OA
BRANCH  68  71
ATOM     71  C   UNL A   1      31.754  24.275  25.333  1.00  0.00     0.067 A 
ATOM     72  C   UNL A   1      31.207  23.313  24.473  1.00  0.00     0.018 A 
ATOM     73  C   UNL A   1      31.689  25.624  24.982  1.00  0.00     0.101 A 
ATOM     74  C   UNL A   1      30.659  23.714  23.261  1.00  0.00     0.021 A 
ATOM     75  N   UNL A   1      31.166  26.016  23.780  1.00  0.00    -0.254 NA
ATOM     76  C   UNL A   1      30.665  25.064  22.961  1.00  0.00     0.112 A 
BRANCH  73  77
ATOM     77  C   UNL A   1      32.199  26.716  25.831  1.00  0.00     0.089 A 
ATOM     78  C   UNL A   1      31.403  27.339  26.795  1.00  0.00     0.031 A 
ATOM     79  N   UNL A   1      33.494  27.079  25.626  1.00  0.00    -0.255 NA
ATOM     80  C   UNL A   1      31.942  28.378  27.550  1.00  0.00     0.004 A 
ATOM     81  C   UNL A   1      33.987  28.091  26.371  1.00  0.00     0.112 A 
ATOM     82  C   UNL A   1      33.258  28.766  27.333  1.00  0.00     0.020 A 
ENDBRANCH  73  77
ENDBRANCH  68  71
ENDBRANCH  66  67
ENDBRANCH  65  66
ENDBRANCH  64  65
ENDBRANCH   1  64
TORSDOF 14
ENDMDL
MODEL 2
REMARK VINA RESULT:     -11.1      3.972      9.055
REMARK SMILES O=C(NCCCCCCNC(=O)c1cccnc1-c1ccccn1)c1ccc(-c2c3nc(c(-c4c(F)cccc4F)c4ccc([nH]4)c(-c4c(F)cccc4F)c4nc(c(-c5c(F)cccc5F)c5ccc2[nH]5)C=C4)C=C3)cc1
REMARK SMILES IDX 6 1 5 2 4 3 3 4 1 5 2 6 25 8 26 9 78 10 27 11 77 12 28 13
REMARK SMILES IDX 29 14 30 15 71 16 31 17 76 18 70 19 72 20 32 21 75 22 69 23
REMARK SMILES IDX 68 24 33 26 59 27 42 28 58 29 43 30 46 31 57 32 73 33 44 34
REMARK SMILES IDX 45 35 56 37 74 38 47 39 34 40 35 41 40 42 36 43 37 44 39 45
REMARK SMILES IDX 41 46 38 47 60 48 61 49 66 50 62 51 63 52 65 53 67 54 64 55
REMARK SMILES IDX 48 56 49 57 54 58 50 59 51 60 53 61 55 62 52 63 7 64 8 65
REMARK SMILES IDX 9 66 10 67 11 68 12 70 13 71 14 72 18 73 15 74 17 75 16 76
REMARK SMILES IDX 19 77 20 78 24 79 21 80 23 81 22 82
REMARK H PARENT 3 7 72 25 46 36 10 69
REMARK Flexibility Score: inf
ROOT
ATOM      1  C   UNL A   1      31.327  30.231  25.515  1.00  0.00     0.002 C 
ENDROOT
BRANCH   1   2
ATOM      2  C   UNL A   1      31.134  31.582  26.204  1.00  0.00     0.021 C 
BRANCH   2   3
ATOM      3  C   UNL A   1      32.372  32.122  26.907  1.00  0.00     0.116 C 
BRANCH   3   4
ATOM      4  N   UNL A   1      32.213  33.506  27.321  1.00  0.00    -0.352 N 
ATOM      5  O   UNL A   1      32.593  35.346  28.569  1.00  0.00    -0.269 OA
ATOM      6  C   UNL A   1      32.976  34.244  28.190  1.00  0.00     0.251 C 
ATOM      7  H   UNL A   1      31.450  33.981  26.920  1.00  0.00     0.163 HD
BRANCH   6   8
ATOM      8  C   UNL A   1      34.256  33.697  28.686  1.00  0.00     0.039 A 
ATOM      9  C   UNL A   1      34.288  32.857  29.802  1.00  0.00     0.014 A 
ATOM     10  C   UNL A   1      35.436  34.016  28.010  1.00  0.00     0.014 A 
ATOM     11  C   UNL A   1      35.509  32.436  30.317  1.00  0.00     0.010 A 
ATOM     12  C   UNL A   1      36.656  33.524  28.479  1.00  0.00     0.010 A 
ATOM     13  C   UNL A   1      36.703  32.747  29.648  1.00  0.00    -0.014 A 
BRANCH  13  14
ATOM     14  C   UNL A   1      37.988  32.189  30.134  1.00  0.00     0.031 A 
ATOM     15  C   UNL A   1      38.533  30.904  29.584  1.00  0.00     0.074 A 
ATOM     16  C   UNL A   1      38.648  32.844  31.108  1.00  0.00     0.049 A 
ATOM     17  N   UNL A   1      39.607  30.245  29.941  1.00  0.00    -0.248 NA
ATOM     18  C   UNL A   1      37.769  30.270  28.501  1.00  0.00     0.031 C 
ATOM     19  C   UNL A   1      38.204  34.094  31.730  1.00  0.00     0.029 A 
ATOM     20  N   UNL A   1      39.820  32.549  31.754  1.00  0.00    -0.354 N 
ATOM     21  C   UNL A   1      39.637  29.109  29.143  1.00  0.00     0.074 A 
ATOM     22  C   UNL A   1      38.459  29.156  28.302  1.00  0.00     0.031 C 
ATOM     23  C   UNL A   1      39.096  34.462  32.660  1.00  0.00     0.029 A 
ATOM     24  C   UNL A   1      40.137  33.444  32.745  1.00  0.00     0.049 A 
ATOM     25  H   UNL A   1      40.380  31.770  31.529  1.00  0.00     0.167 HD
ATOM     26  C   UNL A   1      40.564  28.121  29.117  1.00  0.00     0.037 A 
ATOM     27  C   UNL A   1      41.130  33.430  33.653  1.00  0.00     0.037 A 
ATOM     28  C   UNL A   1      41.732  28.087  29.962  1.00  0.00     0.049 A 
ATOM     29  C   UNL A   1      42.124  32.307  33.632  1.00  0.00     0.074 A 
ATOM     30  C   UNL A   1      42.758  27.159  29.976  1.00  0.00     0.029 A 
ATOM     31  N   UNL A   1      42.017  29.011  30.957  1.00  0.00    -0.354 N 
ATOM     32  N   UNL A   1      42.174  31.268  32.835  1.00  0.00    -0.248 NA
ATOM     33  C   UNL A   1      43.198  32.354  34.631  1.00  0.00     0.031 C 
ATOM     34  C   UNL A   1      43.629  27.486  31.021  1.00  0.00     0.029 A 
ATOM     35  C   UNL A   1      43.183  28.655  31.615  1.00  0.00     0.049 A 
ATOM     36  H   UNL A   1      41.470  29.804  31.165  1.00  0.00     0.167 HD
ATOM     37  C   UNL A   1      43.294  30.546  33.221  1.00  0.00     0.074 A 
ATOM     38  C   UNL A   1      43.900  31.272  34.318  1.00  0.00     0.031 C 
ATOM     39  C   UNL A   1      43.776  29.388  32.709  1.00  0.00     0.037 A 
BRANCH  26  40
ATOM     40  C   UNL A   1      40.333  26.979  28.167  1.00  0.00     0.057 A 
ATOM     41  C   UNL A   1      40.909  26.937  26.891  1.00  0.00     0.134 A 
ATOM     42  C   UNL A   1      39.531  25.893  28.545  1.00  0.00     0.134 A 
ATOM     43  F   UNL A   1      41.682  27.946  26.460  1.00  0.00    -0.206 F 
ATOM     44  C   UNL A   1      40.667  25.879  26.012  1.00  0.00     0.040 A 
ATOM     45  C   UNL A   1      39.305  24.815  27.687  1.00  0.00     0.040 A 
ATOM     46  F   UNL A   1      38.956  25.858  29.756  1.00  0.00    -0.206 F 
ATOM     47  C   UNL A   1      39.865  24.811  26.412  1.00  0.00     0.006 A 
ENDBRANCH  26  40
BRANCH  27  48
ATOM     48  C   UNL A   1      41.200  34.514  34.664  1.00  0.00     0.057 A 
ATOM     49  C   UNL A   1      40.576  34.389  35.909  1.00  0.00     0.134 A 
ATOM     50  C   UNL A   1      41.943  35.678  34.425  1.00  0.00     0.134 A 
ATOM     51  F   UNL A   1      39.842  33.304  36.190  1.00  0.00    -0.206 F 
ATOM     52  C   UNL A   1      40.684  35.386  36.880  1.00  0.00     0.040 A 
ATOM     53  C   UNL A   1      42.082  36.669  35.397  1.00  0.00     0.040 A 
ATOM     54  F   UNL A   1      42.576  35.849  33.255  1.00  0.00    -0.206 F 
ATOM     55  C   UNL A   1      41.448  36.525  36.628  1.00  0.00     0.006 A 
ENDBRANCH  27  48
BRANCH  39  56
ATOM     56  C   UNL A   1      45.042  28.845  33.303  1.00  0.00     0.057 A 
ATOM     57  C   UNL A   1      45.032  27.910  34.346  1.00  0.00     0.134 A 
ATOM     58  C   UNL A   1      46.288  29.217  32.780  1.00  0.00     0.134 A 
ATOM     59  F   UNL A   1      43.873  27.524  34.902  1.00  0.00    -0.206 F 
ATOM     60  C   UNL A   1      46.215  27.374  34.855  1.00  0.00     0.040 A 
ATOM     61  C   UNL A   1      47.476  28.666  33.262  1.00  0.00     0.040 A 
ATOM     62  F   UNL A   1      46.368  30.104  31.777  1.00  0.00    -0.206 F 
ATOM     63  C   UNL A   1      47.442  27.743  34.305  1.00  0.00     0.006 A 
ENDBRANCH  39  56
ENDBRANCH  13  14
ENDBRANCH   6   8
ENDBRANCH   3   4
ENDBRANCH   2   3
ENDBRANCH   1   2
BRANCH   1  64
ATOM     64  C   UNL A   1      32.188  29.223  26.282  1.00  0.00     0.002 C 
BRANCH  64  65
ATOM     65  C   UNL A   1      33.509  28.836  25.607  1.00  0.00     0.021 C 
BRANCH  65  66
ATOM     66  C   UNL A   1      33.592  27.390  25.129  1.00  0.00     0.116 C 
BRANCH  66  67
ATOM     67  N   UNL A   1      33.910  27.299  23.714  1.00  0.00    -0.352 N 
ATOM     68  C   UNL A   1      33.527  26.355  22.794  1.00  0.00     0.253 C 
ATOM     69  H   UNL A   1      34.482  28.019  23.365  1.00  0.00     0.163 HD
ATOM     70  O   UNL A   1      33.947  26.414  21.644  1.00  0.00    -0.269 OA
BRANCH  68  71
ATOM     71  C   UNL A   1      32.600  25.289  23.202  1.00  0.00     0.067 A 
ATOM     72  C   UNL A   1      31.227  25.462  22.978  1.00  0.00     0.018 A 
ATOM     73  C   UNL A   1      33.055  24.107  23.789  1.00  0.00     0.101 A 
ATOM     74  C   UNL A   1      30.339  24.478  23.393  1.00  0.00     0.021 A 
ATOM     75  N   UNL A   1      32.177  23.148  24.214  1.00  0.00    -0.254 NA
ATOM     76  C   UNL A   1      30.858  23.351  24.004  1.00  0.00     0.112 A 
BRANCH  73  77
ATOM     77  C   UNL A   1      34.478  23.810  24.033  1.00  0.00     0.089 A 
ATOM     78  C   UNL A   1      35.092  24.076  25.258  1.00  0.00     0.031 A 
ATOM     79  N   UNL A   1      35.160  23.257  22.994  1.00  0.00    -0.255 NA
ATOM     80  C   UNL A   1      36.446  23.789  25.414  1.00  0.00     0.004 A 
ATOM     81  C   UNL A   1      36.471  22.993  23.174  1.00  0.00     0.112 A 
ATOM     82  C   UNL A   1      37.153  23.241  24.352  1.00  0.00     0.020 A 
ENDBRANCH  73  77
ENDBRANCH  68  71
ENDBRANCH  66  67
ENDBRANCH  65  66
ENDBRANCH  64  65
ENDBRANCH   1  64
TORSDOF 14
ENDMDL
MODEL 3
REMARK VINA RESULT:     -11.0      4.991      9.772
REMARK SMILES O=C(NCCCCCCNC(=O)c1cccnc1-c1ccccn1)c1ccc(-c2c3nc(c(-c4c(F)cccc4F)c4ccc([nH]4)c(-c4c(F)cccc4F)c4nc(c(-c5c(F)cccc5F)c5ccc2[nH]5)C=C4)C=C3)cc1
REMARK SMILES IDX 6 1 5 2 4 3 3 4 1 5 2 6 25 8 26 9 78 10 27 11 77 12 28 13
REMARK SMILES IDX 29 14 30 15 71 16 31 17 76 18 70 19 72 20 32 21 75 22 69 23
REMARK SMILES IDX 68 24 33 26 59 27 42 28 58 29 43 30 46 31 57 32 73 33 44 34
REMARK SMILES IDX 45 35 56 37 74 38 47 39 34 40 35 41 40 42 36 43 37 44 39 45
REMARK SMILES IDX 41 46 38 47 60 48 61 49 66 50 62 51 63 52 65 53 67 54 64 55
REMARK SMILES IDX 48 56 49 57 54 58 50 59 51 60 53 61 55 62 52 63 7 64 8 65
REMARK SMILES IDX 9 66 10 67 11 68 12 70 13 71 14 72 18 73 15 74 17 75 16 76
REMARK SMILES IDX 19 77 20 78 24 79 21 80 23 81 22 82
REMARK H PARENT 3 7 72 25 46 36 10 69
REMARK Flexibility Score: inf
ROOT
ATOM      1  C   UNL A   1      31.403  30.825  26.393  1.00  0.00     0.002 C 
ENDROOT
BRANCH   1   2
ATOM      2  C   UNL A   1      31.379  32.349  26.517  1.00  0.00     0.021 C 
BRANCH   2   3
ATOM      3  C   UNL A   1      32.654  32.964  27.079  1.00  0.00     0.116 C 
BRANCH   3   4
ATOM      4  N   UNL A   1      32.426  34.281  27.649  1.00  0.00    -0.352 N 
ATOM      5  O   UNL A   1      32.593  35.924  29.186  1.00  0.00    -0.269 OA
ATOM      6  C   UNL A   1      33.034  34.875  28.726  1.00  0.00     0.251 C 
ATOM      7  H   UNL A   1      31.740  34.823  27.198  1.00  0.00     0.163 HD
BRANCH   6   8
ATOM      8  C   UNL A   1      34.215  34.238  29.344  1.00  0.00     0.039 A 
ATOM      9  C   UNL A   1      35.502  34.523  28.881  1.00  0.00     0.014 A 
ATOM     10  C   UNL A   1      34.029  33.358  30.412  1.00  0.00     0.014 A 
ATOM     11  C   UNL A   1      36.594  33.837  29.403  1.00  0.00     0.010 A 
ATOM     12  C   UNL A   1      35.135  32.732  30.992  1.00  0.00     0.010 A 
ATOM     13  C   UNL A   1      36.423  32.951  30.477  1.00  0.00    -0.014 A 
BRANCH  13  14
ATOM     14  C   UNL A   1      37.608  32.320  31.109  1.00  0.00     0.031 A 
ATOM     15  C   UNL A   1      38.310  31.165  30.459  1.00  0.00     0.074 A 
ATOM     16  C   UNL A   1      38.028  32.786  32.300  1.00  0.00     0.049 A 
ATOM     17  N   UNL A   1      39.319  30.458  30.903  1.00  0.00    -0.248 NA
ATOM     18  C   UNL A   1      37.809  30.740  29.144  1.00  0.00     0.031 C 
ATOM     19  C   UNL A   1      37.411  33.894  33.034  1.00  0.00     0.029 A 
ATOM     20  N   UNL A   1      39.057  32.383  33.109  1.00  0.00    -0.354 N 
ATOM     21  C   UNL A   1      39.560  29.492  29.936  1.00  0.00     0.074 A 
ATOM     22  C   UNL A   1      38.575  29.687  28.893  1.00  0.00     0.031 C 
ATOM     23  C   UNL A   1      38.080  34.088  34.179  1.00  0.00     0.029 A 
ATOM     24  C   UNL A   1      39.127  33.078  34.291  1.00  0.00     0.049 A 
ATOM     25  H   UNL A   1      39.686  31.664  32.867  1.00  0.00     0.167 HD
ATOM     26  C   UNL A   1      40.517  28.533  29.922  1.00  0.00     0.037 A 
ATOM     27  C   UNL A   1      39.916  32.902  35.366  1.00  0.00     0.037 A 
ATOM     28  C   UNL A   1      41.491  28.348  30.970  1.00  0.00     0.049 A 
ATOM     29  C   UNL A   1      40.944  31.810  35.347  1.00  0.00     0.074 A 
ATOM     30  C   UNL A   1      42.534  27.441  31.027  1.00  0.00     0.029 A 
ATOM     31  N   UNL A   1      41.527  29.072  32.154  1.00  0.00    -0.354 N 
ATOM     32  N   UNL A   1      41.200  30.938  34.402  1.00  0.00    -0.248 NA
ATOM     33  C   UNL A   1      41.790  31.675  36.538  1.00  0.00     0.031 C 
ATOM     34  C   UNL A   1      43.161  27.572  32.271  1.00  0.00     0.029 A 
ATOM     35  C   UNL A   1      42.551  28.607  32.963  1.00  0.00     0.049 A 
ATOM     36  H   UNL A   1      40.915  29.809  32.385  1.00  0.00     0.167 HD
ATOM     37  C   UNL A   1      42.251  30.164  34.874  1.00  0.00     0.074 A 
ATOM     38  C   UNL A   1      42.589  30.676  36.186  1.00  0.00     0.031 C 
ATOM     39  C   UNL A   1      42.878  29.126  34.270  1.00  0.00     0.037 A 
BRANCH  26  40
ATOM     40  C   UNL A   1      40.534  27.587  28.754  1.00  0.00     0.057 A 
ATOM     41  C   UNL A   1      41.355  27.791  27.637  1.00  0.00     0.134 A 
ATOM     42  C   UNL A   1      39.725  26.442  28.756  1.00  0.00     0.134 A 
ATOM     43  F   UNL A   1      42.150  28.870  27.565  1.00  0.00    -0.206 F 
ATOM     44  C   UNL A   1      41.343  26.914  26.550  1.00  0.00     0.040 A 
ATOM     45  C   UNL A   1      39.726  25.542  27.688  1.00  0.00     0.040 A 
ATOM     46  F   UNL A   1      38.922  26.175  29.797  1.00  0.00    -0.206 F 
ATOM     47  C   UNL A   1      40.529  25.783  26.575  1.00  0.00     0.006 A 
ENDBRANCH  26  40
BRANCH  27  48
ATOM     48  C   UNL A   1      39.732  33.778  36.549  1.00  0.00     0.057 A 
ATOM     49  C   UNL A   1      40.334  35.037  36.623  1.00  0.00     0.134 A 
ATOM     50  C   UNL A   1      38.901  33.394  37.610  1.00  0.00     0.134 A 
ATOM     51  F   UNL A   1      41.148  35.454  35.644  1.00  0.00    -0.206 F 
ATOM     52  C   UNL A   1      40.120  35.883  37.712  1.00  0.00     0.040 A 
ATOM     53  C   UNL A   1      38.657  34.241  38.691  1.00  0.00     0.040 A 
ATOM     54  F   UNL A   1      38.284  32.203  37.591  1.00  0.00    -0.206 F 
ATOM     55  C   UNL A   1      39.272  35.489  38.745  1.00  0.00     0.006 A 
ENDBRANCH  27  48
BRANCH  39  56
ATOM     56  C   UNL A   1      44.022  28.490  35.004  1.00  0.00     0.057 A 
ATOM     57  C   UNL A   1      45.332  28.972  34.897  1.00  0.00     0.134 A 
ATOM     58  C   UNL A   1      43.796  27.419  35.880  1.00  0.00     0.134 A 
ATOM     59  F   UNL A   1      45.619  29.985  34.064  1.00  0.00    -0.206 F 
ATOM     60  C   UNL A   1      46.379  28.405  35.625  1.00  0.00     0.040 A 
ATOM     61  C   UNL A   1      44.829  26.863  36.634  1.00  0.00     0.040 A 
ATOM     62  F   UNL A   1      42.563  26.913  36.033  1.00  0.00    -0.206 F 
ATOM     63  C   UNL A   1      46.127  27.354  36.506  1.00  0.00     0.006 A 
ENDBRANCH  39  56
ENDBRANCH  13  14
ENDBRANCH   6   8
ENDBRANCH   3   4
ENDBRANCH   2   3
ENDBRANCH   1   2
BRANCH   1  64
ATOM     64  C   UNL A   1      32.590  30.133  27.071  1.00  0.00     0.002 C 
BRANCH  64  65
ATOM     65  C   UNL A   1      32.419  28.631  27.325  1.00  0.00     0.021 C 
BRANCH  65  66
ATOM     66  C   UNL A   1      32.143  27.792  26.081  1.00  0.00     0.116 C 
BRANCH  66  67
ATOM     67  N   UNL A   1      30.912  27.028  26.199  1.00  0.00    -0.352 N 
ATOM     68  C   UNL A   1      30.237  26.312  25.243  1.00  0.00     0.253 C 
ATOM     69  H   UNL A   1      30.504  27.024  27.094  1.00  0.00     0.163 HD
ATOM     70  O   UNL A   1      29.170  25.773  25.520  1.00  0.00    -0.269 OA
BRANCH  68  71
ATOM     71  C   UNL A   1      30.815  26.186  23.897  1.00  0.00     0.067 A 
ATOM     72  C   UNL A   1      31.665  25.106  23.622  1.00  0.00     0.018 A 
ATOM     73  C   UNL A   1      30.526  27.105  22.887  1.00  0.00     0.101 A 
ATOM     74  C   UNL A   1      32.246  24.999  22.365  1.00  0.00     0.021 A 
ATOM     75  N   UNL A   1      31.114  27.008  21.656  1.00  0.00    -0.254 NA
ATOM     76  C   UNL A   1      31.945  25.968  21.426  1.00  0.00     0.112 A 
BRANCH  73  77
ATOM     77  C   UNL A   1      29.616  28.252  23.061  1.00  0.00     0.089 A 
ATOM     78  C   UNL A   1      30.088  29.540  23.319  1.00  0.00     0.031 A 
ATOM     79  N   UNL A   1      28.287  27.983  22.951  1.00  0.00    -0.255 NA
ATOM     80  C   UNL A   1      29.172  30.576  23.493  1.00  0.00     0.004 A 
ATOM     81  C   UNL A   1      27.424  29.006  23.127  1.00  0.00     0.112 A 
ATOM     82  C   UNL A   1      27.813  30.305  23.400  1.00  0.00     0.020 A 
ENDBRANCH  73  77
ENDBRANCH  68  71
ENDBRANCH  66  67
ENDBRANCH  65  66
ENDBRANCH  64  65
ENDBRANCH   1  64
TORSDOF 14
ENDMDL
