MODEL 1
REMARK VINA RESULT:     -13.7      0.000      0.000
REMARK SMILES Cc1ccc(S(=O)(=O)n2cc(C(=O)C(=O)N[C@@H](Cc3c[nH]c4ccccc34)C(=O)NCC(=O)NCCCCCCNC(=O)c3ccc(-c4c5nc(c(-c6c(F)cccc6F)c6ccc([nH]6)c(-c6c(F)cccc6F)c6nc(c(-c7c(F)cccc7F)c7ccc4[nH]7)C=C6)C=C5)cc3)c3ccccc32)cc1
REMARK SMILES IDX 35 1 34 2 32 3 33 4 31 6 30 7 28 8 29 9 17 11 16 12 14 13
REMARK SMILES IDX 15 14 12 16 13 17 11 18 9 19 10 20 103 21 98 22 102 23 99 24
REMARK SMILES IDX 101 25 100 26 6 27 7 28 8 29 5 30 1 31 2 32 3 33 105 34 4 35
REMARK SMILES IDX 104 36 18 37 19 38 20 39 27 40 21 41 22 42 26 43 23 45 25 46
REMARK SMILES IDX 24 47 36 48 37 49 38 50 39 51 40 52 41 53 42 54 43 56 44 57
REMARK SMILES IDX 45 58 97 59 46 60 96 61 47 62 48 63 49 64 90 65 50 66 95 67
REMARK SMILES IDX 89 68 91 69 51 70 94 71 88 72 87 73 52 75 78 76 61 77 77 78
REMARK SMILES IDX 62 79 65 80 76 81 92 82 63 83 64 84 75 86 93 87 66 88 53 89
REMARK SMILES IDX 54 90 59 91 55 92 56 93 58 94 60 95 57 96 79 97 80 98 85 99
REMARK SMILES IDX 81 100 82 101 84 102 86 103 83 104 67 105 68 106 73 107
REMARK SMILES IDX 69 108 70 109 72 110 74 111 71 112
REMARK H PARENT 34 5 30 10 16 15 21 44 41 55 91 74 65 85
REMARK Flexibility Score: inf
ROOT
ATOM      1  C   UNL A   1      35.028  32.709  27.620  1.00  0.00     0.116 C 
ENDROOT
BRANCH   1   2
ATOM      2  N   UNL A   1      35.494  31.345  27.694  1.00  0.00    -0.355 N 
ATOM      3  C   UNL A   1      34.780  30.212  27.439  1.00  0.00     0.239 C 
ATOM      4  O   UNL A   1      35.361  29.125  27.457  1.00  0.00    -0.273 OA
ATOM      5  H   UNL A   1      36.433  31.218  27.961  1.00  0.00     0.163 HD
BRANCH   3   6
ATOM      6  C   UNL A   1      33.342  30.344  26.936  1.00  0.00     0.216 C 
BRANCH   6   7
ATOM      7  N   UNL A   1      32.411  29.243  27.114  1.00  0.00    -0.345 N 
ATOM      8  C   UNL A   1      31.638  28.586  26.201  1.00  0.00     0.243 C 
ATOM      9  O   UNL A   1      31.242  27.463  26.540  1.00  0.00    -0.273 OA
ATOM     10  H   UNL A   1      32.325  28.920  28.039  1.00  0.00     0.164 HD
BRANCH   8  11
ATOM     11  C   UNL A   1      31.325  29.101  24.757  1.00  0.00     0.176 C 
BRANCH  11  12
ATOM     12  N   UNL A   1      32.472  29.305  23.839  1.00  0.00    -0.337 N 
ATOM     13  C   UNL A   1      33.303  28.396  23.189  1.00  0.00     0.293 C 
ATOM     14  O   UNL A   1      34.337  28.785  22.654  1.00  0.00    -0.265 OA
ATOM     15  H   UNL A   1      32.683  30.249  23.658  1.00  0.00     0.164 HD
BRANCH  13  16
ATOM     16  C   UNL A   1      32.906  26.924  23.031  1.00  0.00     0.252 C 
ATOM     17  O   UNL A   1      32.148  26.688  22.090  1.00  0.00    -0.283 OA
BRANCH  16  18
ATOM     18  C   UNL A   1      33.335  25.853  23.961  1.00  0.00     0.054 A 
ATOM     19  N   UNL A   1      34.432  24.341  25.269  1.00  0.00    -0.240 N 
ATOM     20  C   UNL A   1      34.601  25.343  24.301  1.00  0.00     0.117 A 
ATOM     21  C   UNL A   1      33.083  24.378  25.663  1.00  0.00     0.065 A 
ATOM     22  C   UNL A   1      32.398  25.001  24.624  1.00  0.00     0.012 A 
ATOM     23  C   UNL A   1      32.397  23.677  26.675  1.00  0.00     0.028 A 
ATOM     24  C   UNL A   1      31.021  24.732  24.468  1.00  0.00     0.011 A 
ATOM     25  C   UNL A   1      31.054  23.369  26.462  1.00  0.00     0.002 A 
ATOM     26  C   UNL A   1      30.385  23.851  25.346  1.00  0.00     0.001 A 
BRANCH  19  27
ATOM     27  S   UNL A   1      35.019  22.681  25.168  1.00  0.00     0.268 S 
ATOM     28  O   UNL A   1      35.424  22.393  26.535  1.00  0.00    -0.201 OA
ATOM     29  O   UNL A   1      36.002  22.776  24.096  1.00  0.00    -0.201 OA
BRANCH  27  30
ATOM     30  C   UNL A   1      34.117  21.264  24.641  1.00  0.00     0.088 A 
ATOM     31  C   UNL A   1      32.782  17.297  23.528  1.00  0.00     0.044 C 
ATOM     32  C   UNL A   1      33.195  18.683  23.935  1.00  0.00    -0.051 A 
ATOM     33  C   UNL A   1      34.407  18.818  24.596  1.00  0.00     0.005 A 
ATOM     34  C   UNL A   1      32.446  19.846  23.645  1.00  0.00     0.005 A 
ATOM     35  C   UNL A   1      34.844  20.082  24.950  1.00  0.00     0.022 A 
ATOM     36  C   UNL A   1      32.902  21.149  23.991  1.00  0.00     0.022 A 
ENDBRANCH  27  30
ENDBRANCH  19  27
ENDBRANCH  16  18
ENDBRANCH  13  16
ENDBRANCH  11  12
BRANCH  11  37
ATOM     37  C   UNL A   1      30.128  28.343  24.086  1.00  0.00     0.072 C 
BRANCH  37  38
ATOM     38  C   UNL A   1      29.114  29.155  23.311  1.00  0.00    -0.020 A 
ATOM     39  C   UNL A   1      28.218  28.653  22.381  1.00  0.00     0.087 A 
ATOM     40  C   UNL A   1      28.913  30.582  23.324  1.00  0.00     0.003 A 
ATOM     41  N   UNL A   1      27.608  29.705  21.746  1.00  0.00    -0.361 N 
ATOM     42  C   UNL A   1      28.109  30.892  22.224  1.00  0.00     0.046 A 
ATOM     43  C   UNL A   1      29.455  31.651  24.069  1.00  0.00     0.010 A 
ATOM     44  H   UNL A   1      26.915  29.622  21.052  1.00  0.00     0.166 HD
ATOM     45  C   UNL A   1      27.940  32.199  21.750  1.00  0.00     0.026 A 
ATOM     46  C   UNL A   1      29.317  32.961  23.596  1.00  0.00     0.001 A 
ATOM     47  C   UNL A   1      28.595  33.225  22.437  1.00  0.00     0.002 A 
ENDBRANCH  37  38
ENDBRANCH  11  37
ENDBRANCH   8  11
ENDBRANCH   6   7
ENDBRANCH   3   6
ENDBRANCH   1   2
BRANCH   1  48
ATOM     48  C   UNL A   1      34.012  33.021  28.706  1.00  0.00     0.021 C 
BRANCH  48  49
ATOM     49  C   UNL A   1      33.142  34.243  28.412  1.00  0.00     0.002 C 
BRANCH  49  50
ATOM     50  C   UNL A   1      33.785  35.611  28.693  1.00  0.00     0.002 C 
BRANCH  50  51
ATOM     51  C   UNL A   1      33.171  36.424  29.833  1.00  0.00     0.021 C 
BRANCH  51  52
ATOM     52  C   UNL A   1      32.790  35.607  31.055  1.00  0.00     0.116 C 
BRANCH  52  53
ATOM     53  N   UNL A   1      33.423  36.041  32.288  1.00  0.00    -0.352 N 
ATOM     54  C   UNL A   1      34.362  35.396  33.085  1.00  0.00     0.251 C 
ATOM     55  H   UNL A   1      33.146  36.929  32.610  1.00  0.00     0.163 HD
ATOM     56  O   UNL A   1      34.725  35.903  34.120  1.00  0.00    -0.269 OA
BRANCH  54  57
ATOM     57  C   UNL A   1      35.029  34.159  32.580  1.00  0.00     0.039 A 
ATOM     58  C   UNL A   1      35.320  33.158  33.518  1.00  0.00     0.014 A 
ATOM     59  C   UNL A   1      35.555  34.078  31.298  1.00  0.00     0.014 A 
ATOM     60  C   UNL A   1      36.345  32.252  33.256  1.00  0.00     0.010 A 
ATOM     61  C   UNL A   1      36.647  33.267  31.081  1.00  0.00     0.010 A 
ATOM     62  C   UNL A   1      37.088  32.405  32.090  1.00  0.00    -0.014 A 
BRANCH  62  63
ATOM     63  C   UNL A   1      38.389  31.790  31.864  1.00  0.00     0.031 A 
ATOM     64  C   UNL A   1      38.492  30.522  31.116  1.00  0.00     0.074 A 
ATOM     65  C   UNL A   1      39.503  32.475  32.204  1.00  0.00     0.049 A 
ATOM     66  N   UNL A   1      39.549  29.788  31.069  1.00  0.00    -0.248 NA
ATOM     67  C   UNL A   1      37.370  29.964  30.372  1.00  0.00     0.031 C 
ATOM     68  C   UNL A   1      40.875  32.219  31.773  1.00  0.00     0.029 A 
ATOM     69  N   UNL A   1      39.633  33.442  33.211  1.00  0.00    -0.354 N 
ATOM     70  C   UNL A   1      39.349  28.814  30.118  1.00  0.00     0.074 A 
ATOM     71  C   UNL A   1      37.962  28.947  29.737  1.00  0.00     0.031 C 
ATOM     72  C   UNL A   1      41.716  32.749  32.676  1.00  0.00     0.029 A 
ATOM     73  C   UNL A   1      40.908  33.221  33.786  1.00  0.00     0.049 A 
ATOM     74  H   UNL A   1      38.976  34.130  33.465  1.00  0.00     0.167 HD
ATOM     75  C   UNL A   1      40.413  28.074  29.693  1.00  0.00     0.037 A 
ATOM     76  C   UNL A   1      41.017  32.787  35.077  1.00  0.00     0.037 A 
ATOM     77  C   UNL A   1      41.613  28.375  30.472  1.00  0.00     0.049 A 
ATOM     78  C   UNL A   1      41.660  31.422  35.235  1.00  0.00     0.074 A 
ATOM     79  C   UNL A   1      42.709  29.205  30.295  1.00  0.00     0.029 A 
ATOM     80  N   UNL A   1      41.635  27.996  31.800  1.00  0.00    -0.354 N 
ATOM     81  N   UNL A   1      42.015  30.656  34.241  1.00  0.00    -0.248 NA
ATOM     82  C   UNL A   1      41.872  30.777  36.533  1.00  0.00     0.031 C 
ATOM     83  C   UNL A   1      43.360  29.352  31.554  1.00  0.00     0.029 A 
ATOM     84  C   UNL A   1      42.665  28.603  32.486  1.00  0.00     0.049 A 
ATOM     85  H   UNL A   1      40.994  27.368  32.206  1.00  0.00     0.167 HD
ATOM     86  C   UNL A   1      42.422  29.442  34.726  1.00  0.00     0.074 A 
ATOM     87  C   UNL A   1      42.330  29.568  36.168  1.00  0.00     0.031 C 
ATOM     88  C   UNL A   1      42.761  28.397  33.920  1.00  0.00     0.037 A 
BRANCH  75  89
ATOM     89  C   UNL A   1      40.419  27.218  28.452  1.00  0.00     0.057 A 
ATOM     90  C   UNL A   1      39.741  25.983  28.432  1.00  0.00     0.134 A 
ATOM     91  C   UNL A   1      41.097  27.523  27.259  1.00  0.00     0.134 A 
ATOM     92  F   UNL A   1      38.970  25.586  29.452  1.00  0.00    -0.206 F 
ATOM     93  C   UNL A   1      39.821  25.085  27.359  1.00  0.00     0.040 A 
ATOM     94  C   UNL A   1      41.236  26.612  26.204  1.00  0.00     0.040 A 
ATOM     95  F   UNL A   1      41.601  28.741  27.030  1.00  0.00    -0.206 F 
ATOM     96  C   UNL A   1      40.604  25.379  26.255  1.00  0.00     0.006 A 
ENDBRANCH  75  89
BRANCH  76  97
ATOM     97  C   UNL A   1      39.941  33.333  35.949  1.00  0.00     0.057 A 
ATOM     98  C   UNL A   1      38.847  32.504  36.261  1.00  0.00     0.134 A 
ATOM     99  C   UNL A   1      40.157  34.441  36.772  1.00  0.00     0.134 A 
ATOM    100  F   UNL A   1      38.583  31.424  35.509  1.00  0.00    -0.206 F 
ATOM    101  C   UNL A   1      38.089  32.689  37.419  1.00  0.00     0.040 A 
ATOM    102  C   UNL A   1      39.387  34.649  37.923  1.00  0.00     0.040 A 
ATOM    103  F   UNL A   1      41.188  35.268  36.551  1.00  0.00    -0.206 F 
ATOM    104  C   UNL A   1      38.384  33.746  38.273  1.00  0.00     0.006 A 
ENDBRANCH  76  97
BRANCH  88 105
ATOM    105  C   UNL A   1      43.211  27.075  34.451  1.00  0.00     0.057 A 
ATOM    106  C   UNL A   1      42.301  26.103  34.884  1.00  0.00     0.134 A 
ATOM    107  C   UNL A   1      44.572  26.796  34.673  1.00  0.00     0.134 A 
ATOM    108  F   UNL A   1      40.980  26.287  34.739  1.00  0.00    -0.206 F 
ATOM    109  C   UNL A   1      42.721  24.918  35.497  1.00  0.00     0.040 A 
ATOM    110  C   UNL A   1      45.001  25.638  35.323  1.00  0.00     0.040 A 
ATOM    111  F   UNL A   1      45.534  27.631  34.252  1.00  0.00    -0.206 F 
ATOM    112  C   UNL A   1      44.073  24.691  35.735  1.00  0.00     0.006 A 
ENDBRANCH  88 105
ENDBRANCH  62  63
ENDBRANCH  54  57
ENDBRANCH  52  53
ENDBRANCH  51  52
ENDBRANCH  50  51
ENDBRANCH  49  50
ENDBRANCH  48  49
ENDBRANCH   1  48
TORSDOF 22
ENDMDL
MODEL 2
REMARK VINA RESULT:     -11.9      4.012     10.427
REMARK SMILES Cc1ccc(S(=O)(=O)n2cc(C(=O)C(=O)N[C@@H](Cc3c[nH]c4ccccc34)C(=O)NCC(=O)NCCCCCCNC(=O)c3ccc(-c4c5nc(c(-c6c(F)cccc6F)c6ccc([nH]6)c(-c6c(F)cccc6F)c6nc(c(-c7c(F)cccc7F)c7ccc4[nH]7)C=C6)C=C5)cc3)c3ccccc32)cc1
REMARK SMILES IDX 35 1 34 2 32 3 33 4 31 6 30 7 28 8 29 9 17 11 16 12 14 13
REMARK SMILES IDX 15 14 12 16 13 17 11 18 9 19 10 20 103 21 98 22 102 23 99 24
REMARK SMILES IDX 101 25 100 26 6 27 7 28 8 29 5 30 1 31 2 32 3 33 105 34 4 35
REMARK SMILES IDX 104 36 18 37 19 38 20 39 27 40 21 41 22 42 26 43 23 45 25 46
REMARK SMILES IDX 24 47 36 48 37 49 38 50 39 51 40 52 41 53 42 54 43 56 44 57
REMARK SMILES IDX 45 58 97 59 46 60 96 61 47 62 48 63 49 64 90 65 50 66 95 67
REMARK SMILES IDX 89 68 91 69 51 70 94 71 88 72 87 73 52 75 78 76 61 77 77 78
REMARK SMILES IDX 62 79 65 80 76 81 92 82 63 83 64 84 75 86 93 87 66 88 53 89
REMARK SMILES IDX 54 90 59 91 55 92 56 93 58 94 60 95 57 96 79 97 80 98 85 99
REMARK SMILES IDX 81 100 82 101 84 102 86 103 83 104 67 105 68 106 73 107
REMARK SMILES IDX 69 108 70 109 72 110 74 111 71 112
REMARK H PARENT 34 5 30 10 16 15 21 44 41 55 91 74 65 85
REMARK Flexibility Score: inf
ROOT
ATOM      1  C   UNL A   1      39.097  21.092  26.054  1.00  0.00     0.116 C 
ENDROOT
BRANCH   1   2
ATOM      2  N   UNL A   1      38.546  22.223  25.346  1.00  0.00    -0.355 N 
ATOM      3  C   UNL A   1      37.227  22.520  25.161  1.00  0.00     0.239 C 
ATOM      4  O   UNL A   1      36.928  23.582  24.611  1.00  0.00    -0.273 OA
ATOM      5  H   UNL A   1      39.194  22.849  24.950  1.00  0.00     0.163 HD
BRANCH   3   6
ATOM      6  C   UNL A   1      36.171  21.636  25.824  1.00  0.00     0.216 C 
BRANCH   6   7
ATOM      7  N   UNL A   1      35.310  22.189  26.854  1.00  0.00    -0.345 N 
ATOM      8  C   UNL A   1      33.984  22.511  26.816  1.00  0.00     0.243 C 
ATOM      9  O   UNL A   1      33.419  22.595  27.914  1.00  0.00    -0.273 OA
ATOM     10  H   UNL A   1      35.752  22.358  27.717  1.00  0.00     0.164 HD
BRANCH   8  11
ATOM     11  C   UNL A   1      33.138  22.665  25.509  1.00  0.00     0.176 C 
BRANCH  11  12
ATOM     12  N   UNL A   1      33.854  23.062  24.272  1.00  0.00    -0.337 N 
ATOM     13  C   UNL A   1      33.477  23.888  23.216  1.00  0.00     0.293 C 
ATOM     14  O   UNL A   1      34.138  23.896  22.180  1.00  0.00    -0.265 OA
ATOM     15  H   UNL A   1      34.754  22.673  24.183  1.00  0.00     0.164 HD
BRANCH  13  16
ATOM     16  C   UNL A   1      32.310  24.872  23.349  1.00  0.00     0.252 C 
ATOM     17  O   UNL A   1      31.244  24.480  22.873  1.00  0.00    -0.283 OA
BRANCH  16  18
ATOM     18  C   UNL A   1      32.438  26.222  23.943  1.00  0.00     0.054 A 
ATOM     19  N   UNL A   1      33.046  28.135  25.026  1.00  0.00    -0.240 N 
ATOM     20  C   UNL A   1      33.399  26.797  24.795  1.00  0.00     0.117 A 
ATOM     21  C   UNL A   1      31.980  28.432  24.157  1.00  0.00     0.065 A 
ATOM     22  C   UNL A   1      31.410  27.208  23.820  1.00  0.00     0.012 A 
ATOM     23  C   UNL A   1      31.318  29.647  23.890  1.00  0.00     0.028 A 
ATOM     24  C   UNL A   1      30.059  27.184  23.413  1.00  0.00     0.011 A 
ATOM     25  C   UNL A   1      29.966  29.594  23.554  1.00  0.00     0.002 A 
ATOM     26  C   UNL A   1      29.330  28.376  23.364  1.00  0.00     0.001 A 
BRANCH  19  27
ATOM     27  S   UNL A   1      32.813  28.898  26.599  1.00  0.00     0.268 S 
ATOM     28  O   UNL A   1      33.937  28.401  27.375  1.00  0.00    -0.201 OA
ATOM     29  O   UNL A   1      31.446  28.508  26.921  1.00  0.00    -0.201 OA
BRANCH  27  30
ATOM     30  C   UNL A   1      32.736  30.623  26.945  1.00  0.00     0.088 A 
ATOM     31  C   UNL A   1      33.345  34.657  28.397  1.00  0.00     0.044 C 
ATOM     32  C   UNL A   1      33.119  33.279  27.844  1.00  0.00    -0.051 A 
ATOM     33  C   UNL A   1      34.099  32.328  28.087  1.00  0.00     0.005 A 
ATOM     34  C   UNL A   1      31.957  32.892  27.138  1.00  0.00     0.005 A 
ATOM     35  C   UNL A   1      33.910  31.034  27.631  1.00  0.00     0.022 A 
ATOM     36  C   UNL A   1      31.751  31.560  26.686  1.00  0.00     0.022 A 
ENDBRANCH  27  30
ENDBRANCH  19  27
ENDBRANCH  16  18
ENDBRANCH  13  16
ENDBRANCH  11  12
BRANCH  11  37
ATOM     37  C   UNL A   1      32.138  21.480  25.287  1.00  0.00     0.072 C 
BRANCH  37  38
ATOM     38  C   UNL A   1      32.333  20.598  24.073  1.00  0.00    -0.020 A 
ATOM     39  C   UNL A   1      31.752  20.796  22.830  1.00  0.00     0.087 A 
ATOM     40  C   UNL A   1      33.084  19.373  23.969  1.00  0.00     0.003 A 
ATOM     41  N   UNL A   1      31.998  19.694  22.051  1.00  0.00    -0.361 N 
ATOM     42  C   UNL A   1      32.706  18.761  22.771  1.00  0.00     0.046 A 
ATOM     43  C   UNL A   1      33.930  18.654  24.840  1.00  0.00     0.010 A 
ATOM     44  H   UNL A   1      31.710  19.586  21.116  1.00  0.00     0.166 HD
ATOM     45  C   UNL A   1      33.008  17.427  22.470  1.00  0.00     0.026 A 
ATOM     46  C   UNL A   1      34.221  17.313  24.568  1.00  0.00     0.001 A 
ATOM     47  C   UNL A   1      33.741  16.702  23.414  1.00  0.00     0.002 A 
ENDBRANCH  37  38
ENDBRANCH  11  37
ENDBRANCH   8  11
ENDBRANCH   6   7
ENDBRANCH   3   6
ENDBRANCH   1   2
BRANCH   1  48
ATOM     48  C   UNL A   1      40.310  21.480  26.882  1.00  0.00     0.021 C 
BRANCH  48  49
ATOM     49  C   UNL A   1      41.638  20.974  26.316  1.00  0.00     0.002 C 
BRANCH  49  50
ATOM     50  C   UNL A   1      42.881  21.804  26.674  1.00  0.00     0.002 C 
BRANCH  50  51
ATOM     51  C   UNL A   1      42.672  22.930  27.689  1.00  0.00     0.021 C 
BRANCH  51  52
ATOM     52  C   UNL A   1      43.882  23.226  28.558  1.00  0.00     0.116 C 
BRANCH  52  53
ATOM     53  N   UNL A   1      44.968  23.897  27.865  1.00  0.00    -0.352 N 
ATOM     54  C   UNL A   1      45.088  25.224  27.466  1.00  0.00     0.251 C 
ATOM     55  H   UNL A   1      45.739  23.326  27.644  1.00  0.00     0.163 HD
ATOM     56  O   UNL A   1      46.057  25.578  26.837  1.00  0.00    -0.269 OA
BRANCH  54  57
ATOM     57  C   UNL A   1      44.097  26.230  27.951  1.00  0.00     0.039 A 
ATOM     58  C   UNL A   1      43.715  27.237  27.054  1.00  0.00     0.014 A 
ATOM     59  C   UNL A   1      43.736  26.322  29.288  1.00  0.00     0.014 A 
ATOM     60  C   UNL A   1      43.230  28.446  27.549  1.00  0.00     0.010 A 
ATOM     61  C   UNL A   1      43.374  27.552  29.792  1.00  0.00     0.010 A 
ATOM     62  C   UNL A   1      43.192  28.635  28.927  1.00  0.00    -0.014 A 
BRANCH  62  63
ATOM     63  C   UNL A   1      43.069  29.936  29.570  1.00  0.00     0.031 A 
ATOM     64  C   UNL A   1      41.749  30.585  29.689  1.00  0.00     0.074 A 
ATOM     65  C   UNL A   1      44.147  30.460  30.194  1.00  0.00     0.049 A 
ATOM     66  N   UNL A   1      41.571  31.817  30.019  1.00  0.00    -0.248 NA
ATOM     67  C   UNL A   1      40.506  29.878  29.409  1.00  0.00     0.031 C 
ATOM     68  C   UNL A   1      44.174  31.550  31.167  1.00  0.00     0.029 A 
ATOM     69  N   UNL A   1      45.498  30.234  29.894  1.00  0.00    -0.354 N 
ATOM     70  C   UNL A   1      40.226  32.009  30.237  1.00  0.00     0.074 A 
ATOM     71  C   UNL A   1      39.602  30.777  29.809  1.00  0.00     0.031 C 
ATOM     72  C   UNL A   1      45.398  32.100  31.165  1.00  0.00     0.029 A 
ATOM     73  C   UNL A   1      46.142  31.481  30.082  1.00  0.00     0.049 A 
ATOM     74  H   UNL A   1      45.912  29.386  29.612  1.00  0.00     0.167 HD
ATOM     75  C   UNL A   1      39.810  33.155  30.848  1.00  0.00     0.037 A 
ATOM     76  C   UNL A   1      46.679  32.147  29.017  1.00  0.00     0.037 A 
ATOM     77  C   UNL A   1      40.921  34.083  31.046  1.00  0.00     0.049 A 
ATOM     78  C   UNL A   1      46.042  33.492  28.724  1.00  0.00     0.074 A 
ATOM     79  C   UNL A   1      41.772  34.377  32.100  1.00  0.00     0.029 A 
ATOM     80  N   UNL A   1      41.490  34.660  29.927  1.00  0.00    -0.354 N 
ATOM     81  N   UNL A   1      45.008  33.971  29.358  1.00  0.00    -0.248 NA
ATOM     82  C   UNL A   1      46.472  34.365  27.628  1.00  0.00     0.031 C 
ATOM     83  C   UNL A   1      42.885  35.101  31.581  1.00  0.00     0.029 A 
ATOM     84  C   UNL A   1      42.700  35.253  30.220  1.00  0.00     0.049 A 
ATOM     85  H   UNL A   1      41.081  34.650  29.032  1.00  0.00     0.167 HD
ATOM     86  C   UNL A   1      44.600  35.128  28.751  1.00  0.00     0.074 A 
ATOM     87  C   UNL A   1      45.554  35.345  27.682  1.00  0.00     0.031 C 
ATOM     88  C   UNL A   1      43.482  35.809  29.130  1.00  0.00     0.037 A 
BRANCH  75  89
ATOM     89  C   UNL A   1      38.438  33.359  31.439  1.00  0.00     0.057 A 
ATOM     90  C   UNL A   1      38.208  33.127  32.810  1.00  0.00     0.134 A 
ATOM     91  C   UNL A   1      37.294  33.744  30.719  1.00  0.00     0.134 A 
ATOM     92  F   UNL A   1      39.208  32.845  33.654  1.00  0.00    -0.206 F 
ATOM     93  C   UNL A   1      36.932  33.169  33.388  1.00  0.00     0.040 A 
ATOM     94  C   UNL A   1      36.004  33.733  31.269  1.00  0.00     0.040 A 
ATOM     95  F   UNL A   1      37.375  34.214  29.469  1.00  0.00    -0.206 F 
ATOM     96  C   UNL A   1      35.817  33.433  32.609  1.00  0.00     0.006 A 
ENDBRANCH  75  89
BRANCH  76  97
ATOM     97  C   UNL A   1      47.234  31.220  27.993  1.00  0.00     0.057 A 
ATOM     98  C   UNL A   1      48.491  30.634  28.231  1.00  0.00     0.134 A 
ATOM     99  C   UNL A   1      46.418  30.611  27.036  1.00  0.00     0.134 A 
ATOM    100  F   UNL A   1      49.325  31.171  29.136  1.00  0.00    -0.206 F 
ATOM    101  C   UNL A   1      48.860  29.420  27.649  1.00  0.00     0.040 A 
ATOM    102  C   UNL A   1      46.789  29.406  26.428  1.00  0.00     0.040 A 
ATOM    103  F   UNL A   1      45.199  31.100  26.765  1.00  0.00    -0.206 F 
ATOM    104  C   UNL A   1      47.990  28.784  26.770  1.00  0.00     0.006 A 
ENDBRANCH  76  97
BRANCH  88 105
ATOM    105  C   UNL A   1      43.040  37.075  28.471  1.00  0.00     0.057 A 
ATOM    106  C   UNL A   1      43.131  38.314  29.115  1.00  0.00     0.134 A 
ATOM    107  C   UNL A   1      42.381  37.067  27.227  1.00  0.00     0.134 A 
ATOM    108  F   UNL A   1      43.718  38.422  30.317  1.00  0.00    -0.206 F 
ATOM    109  C   UNL A   1      42.602  39.481  28.552  1.00  0.00     0.040 A 
ATOM    110  C   UNL A   1      41.812  38.216  26.676  1.00  0.00     0.040 A 
ATOM    111  F   UNL A   1      42.283  35.946  26.496  1.00  0.00    -0.206 F 
ATOM    112  C   UNL A   1      41.925  39.430  27.337  1.00  0.00     0.006 A 
ENDBRANCH  88 105
ENDBRANCH  62  63
ENDBRANCH  54  57
ENDBRANCH  52  53
ENDBRANCH  51  52
ENDBRANCH  50  51
ENDBRANCH  49  50
ENDBRANCH  48  49
ENDBRANCH   1  48
TORSDOF 22
ENDMDL
MODEL 3
REMARK VINA RESULT:     -11.7      9.302     14.561
REMARK SMILES Cc1ccc(S(=O)(=O)n2cc(C(=O)C(=O)N[C@@H](Cc3c[nH]c4ccccc34)C(=O)NCC(=O)NCCCCCCNC(=O)c3ccc(-c4c5nc(c(-c6c(F)cccc6F)c6ccc([nH]6)c(-c6c(F)cccc6F)c6nc(c(-c7c(F)cccc7F)c7ccc4[nH]7)C=C6)C=C5)cc3)c3ccccc32)cc1
REMARK SMILES IDX 35 1 34 2 32 3 33 4 31 6 30 7 28 8 29 9 17 11 16 12 14 13
REMARK SMILES IDX 15 14 12 16 13 17 11 18 9 19 10 20 103 21 98 22 102 23 99 24
REMARK SMILES IDX 101 25 100 26 6 27 7 28 8 29 5 30 1 31 2 32 3 33 105 34 4 35
REMARK SMILES IDX 104 36 18 37 19 38 20 39 27 40 21 41 22 42 26 43 23 45 25 46
REMARK SMILES IDX 24 47 36 48 37 49 38 50 39 51 40 52 41 53 42 54 43 56 44 57
REMARK SMILES IDX 45 58 97 59 46 60 96 61 47 62 48 63 49 64 90 65 50 66 95 67
REMARK SMILES IDX 89 68 91 69 51 70 94 71 88 72 87 73 52 75 78 76 61 77 77 78
REMARK SMILES IDX 62 79 65 80 76 81 92 82 63 83 64 84 75 86 93 87 66 88 53 89
REMARK SMILES IDX 54 90 59 91 55 92 56 93 58 94 60 95 57 96 79 97 80 98 85 99
REMARK SMILES IDX 81 100 82 101 84 102 86 103 83 104 67 105 68 106 73 107
REMARK SMILES IDX 69 108 70 109 72 110 74 111 71 112
REMARK H PARENT 34 5 30 10 16 15 21 44 41 55 91 74 65 85
REMARK Flexibility Score: inf
ROOT
ATOM      1  C   UNL A   1      42.260  35.982  27.668  1.00  0.00     0.116 C 
ENDROOT
BRANCH   1   2
ATOM      2  N   UNL A   1      42.016  37.202  26.935  1.00  0.00    -0.355 N 
ATOM      3  C   UNL A   1      42.655  38.398  27.084  1.00  0.00     0.239 C 
ATOM      4  O   UNL A   1      42.388  39.316  26.307  1.00  0.00    -0.273 OA
ATOM      5  H   UNL A   1      41.308  37.167  26.252  1.00  0.00     0.163 HD
BRANCH   3   6
ATOM      6  C   UNL A   1      43.822  38.493  28.066  1.00  0.00     0.216 C 
BRANCH   6   7
ATOM      7  N   UNL A   1      43.884  39.597  29.009  1.00  0.00    -0.345 N 
ATOM      8  C   UNL A   1      44.313  40.881  28.836  1.00  0.00     0.243 C 
ATOM      9  O   UNL A   1      43.906  41.701  29.669  1.00  0.00    -0.273 OA
ATOM     10  H   UNL A   1      43.567  39.385  29.915  1.00  0.00     0.164 HD
BRANCH   8  11
ATOM     11  C   UNL A   1      45.169  41.384  27.626  1.00  0.00     0.176 C 
BRANCH  11  12
ATOM     12  N   UNL A   1      45.104  42.829  27.296  1.00  0.00    -0.337 N 
ATOM     13  C   UNL A   1      44.767  43.489  26.117  1.00  0.00     0.293 C 
ATOM     14  O   UNL A   1      45.001  44.689  25.998  1.00  0.00    -0.265 OA
ATOM     15  H   UNL A   1      45.341  43.426  28.042  1.00  0.00     0.164 HD
BRANCH  13  16
ATOM     16  C   UNL A   1      44.010  42.775  24.991  1.00  0.00     0.252 C 
ATOM     17  O   UNL A   1      43.041  42.108  25.358  1.00  0.00    -0.283 OA
BRANCH  16  18
ATOM     18  C   UNL A   1      44.423  42.814  23.570  1.00  0.00     0.054 A 
ATOM     19  N   UNL A   1      45.496  42.810  21.557  1.00  0.00    -0.240 N 
ATOM     20  C   UNL A   1      45.684  42.771  22.947  1.00  0.00     0.117 A 
ATOM     21  C   UNL A   1      44.114  42.676  21.329  1.00  0.00     0.065 A 
ATOM     22  C   UNL A   1      43.492  43.059  22.513  1.00  0.00     0.012 A 
ATOM     23  C   UNL A   1      43.386  42.539  20.130  1.00  0.00     0.028 A 
ATOM     24  C   UNL A   1      42.164  43.531  22.454  1.00  0.00     0.011 A 
ATOM     25  C   UNL A   1      42.099  43.074  20.083  1.00  0.00     0.002 A 
ATOM     26  C   UNL A   1      41.511  43.608  21.220  1.00  0.00     0.001 A 
BRANCH  19  27
ATOM     27  S   UNL A   1      46.215  43.966  20.436  1.00  0.00     0.268 S 
ATOM     28  O   UNL A   1      46.760  43.115  19.391  1.00  0.00    -0.201 OA
ATOM     29  O   UNL A   1      47.091  44.730  21.316  1.00  0.00    -0.201 OA
BRANCH  27  30
ATOM     30  C   UNL A   1      45.400  45.278  19.591  1.00  0.00     0.088 A 
ATOM     31  C   UNL A   1      43.465  47.871  16.712  1.00  0.00     0.044 C 
ATOM     32  C   UNL A   1      44.101  46.990  17.750  1.00  0.00    -0.051 A 
ATOM     33  C   UNL A   1      44.321  45.664  17.410  1.00  0.00     0.005 A 
ATOM     34  C   UNL A   1      44.524  47.446  19.019  1.00  0.00     0.005 A 
ATOM     35  C   UNL A   1      44.945  44.829  18.322  1.00  0.00     0.022 A 
ATOM     36  C   UNL A   1      45.182  46.595  19.951  1.00  0.00     0.022 A 
ENDBRANCH  27  30
ENDBRANCH  19  27
ENDBRANCH  16  18
ENDBRANCH  13  16
ENDBRANCH  11  12
BRANCH  11  37
ATOM     37  C   UNL A   1      46.630  40.821  27.636  1.00  0.00     0.072 C 
BRANCH  37  38
ATOM     38  C   UNL A   1      47.060  39.928  26.492  1.00  0.00    -0.020 A 
ATOM     39  C   UNL A   1      46.367  39.747  25.306  1.00  0.00     0.087 A 
ATOM     40  C   UNL A   1      48.204  39.056  26.420  1.00  0.00     0.003 A 
ATOM     41  N   UNL A   1      46.953  38.722  24.607  1.00  0.00    -0.361 N 
ATOM     42  C   UNL A   1      48.003  38.206  25.329  1.00  0.00     0.046 A 
ATOM     43  C   UNL A   1      49.312  38.805  27.258  1.00  0.00     0.010 A 
ATOM     44  H   UNL A   1      46.665  38.403  23.722  1.00  0.00     0.166 HD
ATOM     45  C   UNL A   1      48.760  37.046  25.119  1.00  0.00     0.026 A 
ATOM     46  C   UNL A   1      50.063  37.638  27.078  1.00  0.00     0.001 A 
ATOM     47  C   UNL A   1      49.769  36.758  26.041  1.00  0.00     0.002 A 
ENDBRANCH  37  38
ENDBRANCH  11  37
ENDBRANCH   8  11
ENDBRANCH   6   7
ENDBRANCH   3   6
ENDBRANCH   1   2
BRANCH   1  48
ATOM     48  C   UNL A   1      41.094  35.622  28.573  1.00  0.00     0.021 C 
BRANCH  48  49
ATOM     49  C   UNL A   1      41.377  34.454  29.519  1.00  0.00     0.002 C 
BRANCH  49  50
ATOM     50  C   UNL A   1      40.196  33.990  30.386  1.00  0.00     0.002 C 
BRANCH  50  51
ATOM     51  C   UNL A   1      39.132  33.146  29.682  1.00  0.00     0.021 C 
BRANCH  51  52
ATOM     52  C   UNL A   1      38.156  32.455  30.618  1.00  0.00     0.116 C 
BRANCH  52  53
ATOM     53  N   UNL A   1      36.803  32.348  30.101  1.00  0.00    -0.352 N 
ATOM     54  C   UNL A   1      36.233  31.379  29.282  1.00  0.00     0.251 C 
ATOM     55  H   UNL A   1      36.194  33.074  30.371  1.00  0.00     0.163 HD
ATOM     56  O   UNL A   1      35.092  31.504  28.906  1.00  0.00    -0.269 OA
BRANCH  54  57
ATOM     57  C   UNL A   1      36.983  30.119  29.005  1.00  0.00     0.039 A 
ATOM     58  C   UNL A   1      37.105  29.200  30.057  1.00  0.00     0.014 A 
ATOM     59  C   UNL A   1      37.730  29.946  27.847  1.00  0.00     0.014 A 
ATOM     60  C   UNL A   1      38.164  28.295  30.056  1.00  0.00     0.010 A 
ATOM     61  C   UNL A   1      38.847  29.140  27.895  1.00  0.00     0.010 A 
ATOM     62  C   UNL A   1      39.103  28.368  29.032  1.00  0.00    -0.014 A 
BRANCH  62  63
ATOM     63  C   UNL A   1      40.425  27.761  29.091  1.00  0.00     0.031 A 
ATOM     64  C   UNL A   1      40.609  26.342  28.728  1.00  0.00     0.074 A 
ATOM     65  C   UNL A   1      41.497  28.551  29.324  1.00  0.00     0.049 A 
ATOM     66  N   UNL A   1      41.673  25.660  28.972  1.00  0.00    -0.248 NA
ATOM     67  C   UNL A   1      39.565  25.565  28.074  1.00  0.00     0.031 C 
ATOM     68  C   UNL A   1      42.905  28.236  29.095  1.00  0.00     0.029 A 
ATOM     69  N   UNL A   1      41.526  29.758  30.037  1.00  0.00    -0.354 N 
ATOM     70  C   UNL A   1      41.571  24.459  28.308  1.00  0.00     0.074 A 
ATOM     71  C   UNL A   1      40.222  24.436  27.792  1.00  0.00     0.031 C 
ATOM     72  C   UNL A   1      43.656  29.018  29.886  1.00  0.00     0.029 A 
ATOM     73  C   UNL A   1      42.747  29.745  30.754  1.00  0.00     0.049 A 
ATOM     74  H   UNL A   1      40.841  30.465  30.038  1.00  0.00     0.167 HD
ATOM     75  C   UNL A   1      42.676  23.669  28.192  1.00  0.00     0.037 A 
ATOM     76  C   UNL A   1      42.743  29.680  32.119  1.00  0.00     0.037 A 
ATOM     77  C   UNL A   1      43.798  24.211  28.957  1.00  0.00     0.049 A 
ATOM     78  C   UNL A   1      43.384  28.432  32.696  1.00  0.00     0.074 A 
ATOM     79  C   UNL A   1      44.896  24.999  28.652  1.00  0.00     0.029 A 
ATOM     80  N   UNL A   1      43.705  24.206  30.335  1.00  0.00    -0.354 N 
ATOM     81  N   UNL A   1      43.835  27.438  31.982  1.00  0.00    -0.248 NA
ATOM     82  C   UNL A   1      43.486  28.170  34.134  1.00  0.00     0.031 C 
ATOM     83  C   UNL A   1      45.431  25.504  29.874  1.00  0.00     0.029 A 
ATOM     84  C   UNL A   1      44.663  25.011  30.913  1.00  0.00     0.049 A 
ATOM     85  H   UNL A   1      43.037  23.689  30.841  1.00  0.00     0.167 HD
ATOM     86  C   UNL A   1      44.210  26.416  32.812  1.00  0.00     0.074 A 
ATOM     87  C   UNL A   1      43.988  26.924  34.151  1.00  0.00     0.031 C 
ATOM     88  C   UNL A   1      44.631  25.205  32.352  1.00  0.00     0.037 A 
BRANCH  75  89
ATOM     89  C   UNL A   1      42.803  22.510  27.236  1.00  0.00     0.057 A 
ATOM     90  C   UNL A   1      42.012  21.356  27.403  1.00  0.00     0.134 A 
ATOM     91  C   UNL A   1      43.701  22.443  26.157  1.00  0.00     0.134 A 
ATOM     92  F   UNL A   1      41.042  21.294  28.324  1.00  0.00    -0.206 F 
ATOM     93  C   UNL A   1      42.179  20.198  26.632  1.00  0.00     0.040 A 
ATOM     94  C   UNL A   1      43.921  21.273  25.417  1.00  0.00     0.040 A 
ATOM     95  F   UNL A   1      44.362  23.523  25.725  1.00  0.00    -0.206 F 
ATOM     96  C   UNL A   1      43.164  20.138  25.660  1.00  0.00     0.006 A 
ENDBRANCH  75  89
BRANCH  76  97
ATOM     97  C   UNL A   1      41.588  30.404  32.717  1.00  0.00     0.057 A 
ATOM     98  C   UNL A   1      40.470  29.655  33.130  1.00  0.00     0.134 A 
ATOM     99  C   UNL A   1      41.722  31.692  33.241  1.00  0.00     0.134 A 
ATOM    100  F   UNL A   1      40.281  28.411  32.661  1.00  0.00    -0.206 F 
ATOM    101  C   UNL A   1      39.604  30.112  34.124  1.00  0.00     0.040 A 
ATOM    102  C   UNL A   1      40.844  32.169  34.223  1.00  0.00     0.040 A 
ATOM    103  F   UNL A   1      42.769  32.461  32.911  1.00  0.00    -0.206 F 
ATOM    104  C   UNL A   1      39.813  31.361  34.700  1.00  0.00     0.006 A 
ENDBRANCH  76  97
BRANCH  88 105
ATOM    105  C   UNL A   1      45.046  24.091  33.258  1.00  0.00     0.057 A 
ATOM    106  C   UNL A   1      44.159  23.078  33.640  1.00  0.00     0.134 A 
ATOM    107  C   UNL A   1      46.306  24.083  33.885  1.00  0.00     0.134 A 
ATOM    108  F   UNL A   1      42.924  23.015  33.117  1.00  0.00    -0.206 F 
ATOM    109  C   UNL A   1      44.506  22.108  34.586  1.00  0.00     0.040 A 
ATOM    110  C   UNL A   1      46.648  23.148  34.862  1.00  0.00     0.040 A 
ATOM    111  F   UNL A   1      47.254  24.975  33.558  1.00  0.00    -0.206 F 
ATOM    112  C   UNL A   1      45.747  22.152  35.213  1.00  0.00     0.006 A 
ENDBRANCH  88 105
ENDBRANCH  62  63
ENDBRANCH  54  57
ENDBRANCH  52  53
ENDBRANCH  51  52
ENDBRANCH  50  51
ENDBRANCH  49  50
ENDBRANCH  48  49
ENDBRANCH   1  48
TORSDOF 22
ENDMDL
