MODEL 1
REMARK VINA RESULT:     -12.7      0.000      0.000
REMARK SMILES O=C(NCCCCCCNC(=O)[C@@H]1[C@@H](C(=O)N2CCN(c3cccc(Cl)c3)CC2)[C@H]2CC[C@@H]1O2)c1ccc(-c2c3nc(c(-c4c(F)cccc4F)c4ccc([nH]4)c(-c4c(F)cccc4F)c4nc(c(-c5c(F)cccc5F)c5ccc2[nH]5)C=C4)C=C3)cc1
REMARK SMILES IDX 6 1 5 2 4 3 3 4 1 5 2 6 35 8 36 9 88 10 37 11 87 12 38 13
REMARK SMILES IDX 39 14 40 15 81 16 41 17 86 18 80 19 82 20 42 21 85 22 79 23
REMARK SMILES IDX 78 24 43 26 69 27 52 28 68 29 53 30 56 31 67 32 83 33 54 34
REMARK SMILES IDX 55 35 66 37 84 38 57 39 44 40 45 41 50 42 46 43 47 44 49 45
REMARK SMILES IDX 51 46 48 47 70 48 71 49 76 50 72 51 73 52 75 53 77 54 74 55
REMARK SMILES IDX 58 56 59 57 64 58 60 59 61 60 63 61 65 62 62 63 7 64 8 65
REMARK SMILES IDX 9 66 10 67 11 68 12 70 13 71 14 72 33 73 30 74 32 75 34 76
REMARK SMILES IDX 31 77 15 78 16 79 17 80 18 81 29 82 19 83 28 84 20 85 21 86
REMARK SMILES IDX 22 87 27 88 23 89 25 90 24 91 26 92
REMARK H PARENT 3 7 82 25 56 36 10 69
REMARK Flexibility Score: inf
ROOT
ATOM      1  C   UNL A   1      36.689  20.488  25.001  1.00  0.00     0.002 C 
ENDROOT
BRANCH   1   2
ATOM      2  C   UNL A   1      37.874  19.524  24.958  1.00  0.00     0.021 C 
BRANCH   2   3
ATOM      3  C   UNL A   1      39.088  19.985  25.751  1.00  0.00     0.116 C 
BRANCH   3   4
ATOM      4  N   UNL A   1      40.160  19.002  25.752  1.00  0.00    -0.352 N 
ATOM      5  O   UNL A   1      42.306  18.289  25.763  1.00  0.00    -0.269 OA
ATOM      6  C   UNL A   1      41.507  19.202  25.944  1.00  0.00     0.251 C 
ATOM      7  H   UNL A   1      39.885  18.071  25.595  1.00  0.00     0.163 HD
BRANCH   6   8
ATOM      8  C   UNL A   1      41.990  20.540  26.351  1.00  0.00     0.039 A 
ATOM      9  C   UNL A   1      42.104  20.866  27.703  1.00  0.00     0.014 A 
ATOM     10  C   UNL A   1      42.320  21.480  25.371  1.00  0.00     0.014 A 
ATOM     11  C   UNL A   1      42.404  22.169  28.073  1.00  0.00     0.010 A 
ATOM     12  C   UNL A   1      42.716  22.768  25.747  1.00  0.00     0.010 A 
ATOM     13  C   UNL A   1      42.735  23.130  27.103  1.00  0.00    -0.014 A 
BRANCH  13  14
ATOM     14  C   UNL A   1      43.174  24.474  27.558  1.00  0.00     0.031 A 
ATOM     15  C   UNL A   1      44.612  24.904  27.483  1.00  0.00     0.074 A 
ATOM     16  C   UNL A   1      42.230  25.338  27.981  1.00  0.00     0.049 A 
ATOM     17  N   UNL A   1      45.133  26.073  27.761  1.00  0.00    -0.248 NA
ATOM     18  C   UNL A   1      45.593  23.897  27.050  1.00  0.00     0.031 C 
ATOM     19  C   UNL A   1      40.806  25.020  28.121  1.00  0.00     0.029 A 
ATOM     20  N   UNL A   1      42.311  26.659  28.333  1.00  0.00    -0.354 N 
ATOM     21  C   UNL A   1      46.499  25.942  27.546  1.00  0.00     0.074 A 
ATOM     22  C   UNL A   1      46.732  24.572  27.142  1.00  0.00     0.031 C 
ATOM     23  C   UNL A   1      40.139  26.131  28.465  1.00  0.00     0.029 A 
ATOM     24  C   UNL A   1      41.093  27.221  28.628  1.00  0.00     0.049 A 
ATOM     25  H   UNL A   1      43.159  27.156  28.371  1.00  0.00     0.167 HD
ATOM     26  C   UNL A   1      47.466  26.885  27.667  1.00  0.00     0.037 A 
ATOM     27  C   UNL A   1      40.775  28.475  28.995  1.00  0.00     0.037 A 
ATOM     28  C   UNL A   1      47.227  28.250  28.065  1.00  0.00     0.049 A 
ATOM     29  C   UNL A   1      41.866  29.497  29.111  1.00  0.00     0.074 A 
ATOM     30  C   UNL A   1      48.142  29.281  28.210  1.00  0.00     0.029 A 
ATOM     31  N   UNL A   1      45.983  28.777  28.379  1.00  0.00    -0.354 N 
ATOM     32  N   UNL A   1      43.150  29.360  28.885  1.00  0.00    -0.248 NA
ATOM     33  C   UNL A   1      41.465  30.843  29.535  1.00  0.00     0.031 C 
ATOM     34  C   UNL A   1      47.455  30.421  28.641  1.00  0.00     0.029 A 
ATOM     35  C   UNL A   1      46.107  30.113  28.726  1.00  0.00     0.049 A 
ATOM     36  H   UNL A   1      45.136  28.275  28.359  1.00  0.00     0.167 HD
ATOM     37  C   UNL A   1      43.712  30.602  29.140  1.00  0.00     0.074 A 
ATOM     38  C   UNL A   1      42.623  31.489  29.501  1.00  0.00     0.031 C 
ATOM     39  C   UNL A   1      45.013  30.974  29.094  1.00  0.00     0.037 A 
BRANCH  26  40
ATOM     40  C   UNL A   1      48.880  26.477  27.371  1.00  0.00     0.057 A 
ATOM     41  C   UNL A   1      49.736  26.011  28.376  1.00  0.00     0.134 A 
ATOM     42  C   UNL A   1      49.370  26.487  26.059  1.00  0.00     0.134 A 
ATOM     43  F   UNL A   1      49.333  25.986  29.656  1.00  0.00    -0.206 F 
ATOM     44  C   UNL A   1      51.032  25.578  28.089  1.00  0.00     0.040 A 
ATOM     45  C   UNL A   1      50.657  26.037  25.756  1.00  0.00     0.040 A 
ATOM     46  F   UNL A   1      48.599  26.914  25.047  1.00  0.00    -0.206 F 
ATOM     47  C   UNL A   1      51.494  25.583  26.773  1.00  0.00     0.006 A 
ENDBRANCH  26  40
BRANCH  27  48
ATOM     48  C   UNL A   1      39.363  28.822  29.286  1.00  0.00     0.057 A 
ATOM     49  C   UNL A   1      38.813  28.634  30.560  1.00  0.00     0.134 A 
ATOM     50  C   UNL A   1      38.531  29.361  28.297  1.00  0.00     0.134 A 
ATOM     51  F   UNL A   1      39.557  28.107  31.544  1.00  0.00    -0.206 F 
ATOM     52  C   UNL A   1      37.483  28.953  30.835  1.00  0.00     0.040 A 
ATOM     53  C   UNL A   1      37.208  29.711  28.565  1.00  0.00     0.040 A 
ATOM     54  F   UNL A   1      39.001  29.574  27.059  1.00  0.00    -0.206 F 
ATOM     55  C   UNL A   1      36.679  29.501  29.836  1.00  0.00     0.006 A 
ENDBRANCH  27  48
BRANCH  39  56
ATOM     56  C   UNL A   1      45.317  32.400  29.444  1.00  0.00     0.057 A 
ATOM     57  C   UNL A   1      45.627  32.784  30.754  1.00  0.00     0.134 A 
ATOM     58  C   UNL A   1      45.292  33.398  28.463  1.00  0.00     0.134 A 
ATOM     59  F   UNL A   1      45.651  31.875  31.741  1.00  0.00    -0.206 F 
ATOM     60  C   UNL A   1      45.872  34.117  31.084  1.00  0.00     0.040 A 
ATOM     61  C   UNL A   1      45.558  34.732  28.776  1.00  0.00     0.040 A 
ATOM     62  F   UNL A   1      45.005  33.096  27.188  1.00  0.00    -0.206 F 
ATOM     63  C   UNL A   1      45.841  35.095  30.092  1.00  0.00     0.006 A 
ENDBRANCH  39  56
ENDBRANCH  13  14
ENDBRANCH   6   8
ENDBRANCH   3   4
ENDBRANCH   2   3
ENDBRANCH   1   2
BRANCH   1  64
ATOM     64  C   UNL A   1      36.920  21.830  24.297  1.00  0.00     0.002 C 
BRANCH  64  65
ATOM     65  C   UNL A   1      37.468  22.952  25.191  1.00  0.00     0.021 C 
BRANCH  65  66
ATOM     66  C   UNL A   1      36.387  23.876  25.751  1.00  0.00     0.116 C 
BRANCH  66  67
ATOM     67  N   UNL A   1      35.489  23.130  26.615  1.00  0.00    -0.356 N 
ATOM     68  C   UNL A   1      34.138  22.964  26.507  1.00  0.00     0.226 C 
ATOM     69  H   UNL A   1      35.913  22.683  27.382  1.00  0.00     0.163 HD
ATOM     70  O   UNL A   1      33.524  22.551  27.489  1.00  0.00    -0.275 OA
BRANCH  68  71
ATOM     71  C   UNL A   1      33.484  23.251  25.169  1.00  0.00     0.122 C 
ATOM     72  C   UNL A   1      32.783  24.622  25.108  1.00  0.00     0.122 C 
ATOM     73  C   UNL A   1      32.310  22.280  25.000  1.00  0.00     0.132 C 
ATOM     74  C   UNL A   1      31.311  24.203  24.934  1.00  0.00     0.132 C 
ATOM     75  C   UNL A   1      31.777  22.314  23.567  1.00  0.00     0.035 C 
ATOM     76  O   UNL A   1      31.254  22.980  25.704  1.00  0.00    -0.373 OA
ATOM     77  C   UNL A   1      31.000  23.630  23.546  1.00  0.00     0.035 C 
BRANCH  72  78
ATOM     78  C   UNL A   1      33.227  25.455  23.920  1.00  0.00     0.229 C 
ATOM     79  O   UNL A   1      33.906  24.969  23.014  1.00  0.00    -0.274 OA
ATOM     80  N   UNL A   1      32.685  26.716  23.811  1.00  0.00    -0.339 N 
ATOM     81  C   UNL A   1      32.414  27.253  22.473  1.00  0.00     0.141 C 
ATOM     82  C   UNL A   1      32.370  27.631  24.919  1.00  0.00     0.141 C 
ATOM     83  C   UNL A   1      30.933  27.668  22.374  1.00  0.00     0.138 C 
ATOM     84  C   UNL A   1      30.943  28.207  24.827  1.00  0.00     0.138 C 
ATOM     85  N   UNL A   1      30.640  28.617  23.452  1.00  0.00    -0.368 N 
BRANCH  85  86
ATOM     86  C   UNL A   1      29.928  29.762  23.189  1.00  0.00     0.038 A 
ATOM     87  C   UNL A   1      29.798  30.745  24.179  1.00  0.00     0.026 A 
ATOM     88  C   UNL A   1      29.366  30.006  21.932  1.00  0.00     0.046 A 
ATOM     89  C   UNL A   1      29.153  31.953  23.918  1.00  0.00     0.004 A 
ATOM     90  C   UNL A   1      28.700  31.206  21.676  1.00  0.00     0.043 A 
ATOM     91  C   UNL A   1      28.600  32.185  22.661  1.00  0.00     0.020 A 
ATOM     92  Cl  UNL A   1      28.004  31.481  20.126  1.00  0.00    -0.084 Cl
ENDBRANCH  85  86
ENDBRANCH  72  78
ENDBRANCH  68  71
ENDBRANCH  66  67
ENDBRANCH  65  66
ENDBRANCH  64  65
ENDBRANCH   1  64
TORSDOF 15
ENDMDL
MODEL 2
REMARK VINA RESULT:     -12.6      6.035     10.824
REMARK SMILES O=C(NCCCCCCNC(=O)[C@@H]1[C@@H](C(=O)N2CCN(c3cccc(Cl)c3)CC2)[C@H]2CC[C@@H]1O2)c1ccc(-c2c3nc(c(-c4c(F)cccc4F)c4ccc([nH]4)c(-c4c(F)cccc4F)c4nc(c(-c5c(F)cccc5F)c5ccc2[nH]5)C=C4)C=C3)cc1
REMARK SMILES IDX 6 1 5 2 4 3 3 4 1 5 2 6 35 8 36 9 88 10 37 11 87 12 38 13
REMARK SMILES IDX 39 14 40 15 81 16 41 17 86 18 80 19 82 20 42 21 85 22 79 23
REMARK SMILES IDX 78 24 43 26 69 27 52 28 68 29 53 30 56 31 67 32 83 33 54 34
REMARK SMILES IDX 55 35 66 37 84 38 57 39 44 40 45 41 50 42 46 43 47 44 49 45
REMARK SMILES IDX 51 46 48 47 70 48 71 49 76 50 72 51 73 52 75 53 77 54 74 55
REMARK SMILES IDX 58 56 59 57 64 58 60 59 61 60 63 61 65 62 62 63 7 64 8 65
REMARK SMILES IDX 9 66 10 67 11 68 12 70 13 71 14 72 33 73 30 74 32 75 34 76
REMARK SMILES IDX 31 77 15 78 16 79 17 80 18 81 29 82 19 83 28 84 20 85 21 86
REMARK SMILES IDX 22 87 27 88 23 89 25 90 24 91 26 92
REMARK H PARENT 3 7 82 25 56 36 10 69
REMARK Flexibility Score: inf
ROOT
ATOM      1  C   UNL A   1      34.438  34.012  29.072  1.00  0.00     0.002 C 
ENDROOT
BRANCH   1   2
ATOM      2  C   UNL A   1      33.251  34.969  28.974  1.00  0.00     0.021 C 
BRANCH   2   3
ATOM      3  C   UNL A   1      33.460  36.304  29.673  1.00  0.00     0.116 C 
BRANCH   3   4
ATOM      4  N   UNL A   1      32.505  36.528  30.746  1.00  0.00    -0.352 N 
ATOM      5  O   UNL A   1      31.534  36.159  32.756  1.00  0.00    -0.269 OA
ATOM      6  C   UNL A   1      32.497  35.992  32.013  1.00  0.00     0.251 C 
ATOM      7  H   UNL A   1      31.766  37.144  30.539  1.00  0.00     0.163 HD
BRANCH   6   8
ATOM      8  C   UNL A   1      33.654  35.190  32.467  1.00  0.00     0.039 A 
ATOM      9  C   UNL A   1      34.932  35.750  32.496  1.00  0.00     0.014 A 
ATOM     10  C   UNL A   1      33.460  33.861  32.857  1.00  0.00     0.014 A 
ATOM     11  C   UNL A   1      36.029  34.947  32.770  1.00  0.00     0.010 A 
ATOM     12  C   UNL A   1      34.558  33.078  33.226  1.00  0.00     0.010 A 
ATOM     13  C   UNL A   1      35.856  33.608  33.159  1.00  0.00    -0.014 A 
BRANCH  13  14
ATOM     14  C   UNL A   1      37.053  32.829  33.567  1.00  0.00     0.031 A 
ATOM     15  C   UNL A   1      37.695  31.828  32.648  1.00  0.00     0.074 A 
ATOM     16  C   UNL A   1      37.601  33.094  34.769  1.00  0.00     0.049 A 
ATOM     17  N   UNL A   1      38.792  31.136  32.830  1.00  0.00    -0.248 NA
ATOM     18  C   UNL A   1      37.021  31.559  31.369  1.00  0.00     0.031 C 
ATOM     19  C   UNL A   1      37.047  34.027  35.755  1.00  0.00     0.029 A 
ATOM     20  N   UNL A   1      38.753  32.641  35.353  1.00  0.00    -0.354 N 
ATOM     21  C   UNL A   1      38.938  30.346  31.696  1.00  0.00     0.074 A 
ATOM     22  C   UNL A   1      37.801  30.622  30.843  1.00  0.00     0.031 C 
ATOM     23  C   UNL A   1      37.892  34.127  36.790  1.00  0.00     0.029 A 
ATOM     24  C   UNL A   1      39.014  33.223  36.570  1.00  0.00     0.049 A 
ATOM     25  H   UNL A   1      39.338  31.965  34.941  1.00  0.00     0.167 HD
ATOM     26  C   UNL A   1      39.935  29.480  31.394  1.00  0.00     0.037 A 
ATOM     27  C   UNL A   1      40.040  33.045  37.421  1.00  0.00     0.037 A 
ATOM     28  C   UNL A   1      41.068  29.213  32.244  1.00  0.00     0.049 A 
ATOM     29  C   UNL A   1      41.132  32.086  37.054  1.00  0.00     0.074 A 
ATOM     30  C   UNL A   1      42.133  28.356  32.021  1.00  0.00     0.029 A 
ATOM     31  N   UNL A   1      41.285  29.803  33.480  1.00  0.00    -0.354 N 
ATOM     32  N   UNL A   1      41.262  31.363  35.969  1.00  0.00    -0.248 NA
ATOM     33  C   UNL A   1      42.216  31.916  38.029  1.00  0.00     0.031 C 
ATOM     34  C   UNL A   1      42.978  28.404  33.136  1.00  0.00     0.029 A 
ATOM     35  C   UNL A   1      42.460  29.321  34.036  1.00  0.00     0.049 A 
ATOM     36  H   UNL A   1      40.692  30.466  33.902  1.00  0.00     0.167 HD
ATOM     37  C   UNL A   1      42.441  30.650  36.129  1.00  0.00     0.074 A 
ATOM     38  C   UNL A   1      43.007  31.058  37.400  1.00  0.00     0.031 C 
ATOM     39  C   UNL A   1      42.999  29.730  35.307  1.00  0.00     0.037 A 
BRANCH  26  40
ATOM     40  C   UNL A   1      39.849  28.745  30.087  1.00  0.00     0.057 A 
ATOM     41  C   UNL A   1      40.456  29.239  28.925  1.00  0.00     0.134 A 
ATOM     42  C   UNL A   1      39.211  27.501  30.004  1.00  0.00     0.134 A 
ATOM     43  F   UNL A   1      41.074  30.429  28.933  1.00  0.00    -0.206 F 
ATOM     44  C   UNL A   1      40.422  28.526  27.725  1.00  0.00     0.040 A 
ATOM     45  C   UNL A   1      39.189  26.769  28.815  1.00  0.00     0.040 A 
ATOM     46  F   UNL A   1      38.616  26.967  31.081  1.00  0.00    -0.206 F 
ATOM     47  C   UNL A   1      39.794  27.282  27.669  1.00  0.00     0.006 A 
ENDBRANCH  26  40
BRANCH  27  48
ATOM     48  C   UNL A   1      40.070  33.789  38.704  1.00  0.00     0.057 A 
ATOM     49  C   UNL A   1      39.362  33.338  39.825  1.00  0.00     0.134 A 
ATOM     50  C   UNL A   1      40.817  34.965  38.842  1.00  0.00     0.134 A 
ATOM     51  F   UNL A   1      38.617  32.225  39.749  1.00  0.00    -0.206 F 
ATOM     52  C   UNL A   1      39.383  34.039  41.031  1.00  0.00     0.040 A 
ATOM     53  C   UNL A   1      40.870  35.661  40.049  1.00  0.00     0.040 A 
ATOM     54  F   UNL A   1      41.524  35.443  37.807  1.00  0.00    -0.206 F 
ATOM     55  C   UNL A   1      40.145  35.201  41.147  1.00  0.00     0.006 A 
ENDBRANCH  27  48
BRANCH  39  56
ATOM     56  C   UNL A   1      44.286  29.112  35.767  1.00  0.00     0.057 A 
ATOM     57  C   UNL A   1      45.527  29.662  35.424  1.00  0.00     0.134 A 
ATOM     58  C   UNL A   1      44.283  27.955  36.553  1.00  0.00     0.134 A 
ATOM     59  F   UNL A   1      45.595  30.761  34.657  1.00  0.00    -0.206 F 
ATOM     60  C   UNL A   1      46.723  29.064  35.821  1.00  0.00     0.040 A 
ATOM     61  C   UNL A   1      45.472  27.361  36.977  1.00  0.00     0.040 A 
ATOM     62  F   UNL A   1      43.127  27.381  36.920  1.00  0.00    -0.206 F 
ATOM     63  C   UNL A   1      46.697  27.911  36.604  1.00  0.00     0.006 A 
ENDBRANCH  39  56
ENDBRANCH  13  14
ENDBRANCH   6   8
ENDBRANCH   3   4
ENDBRANCH   2   3
ENDBRANCH   1   2
BRANCH   1  64
ATOM     64  C   UNL A   1      34.272  32.692  28.308  1.00  0.00     0.002 C 
BRANCH  64  65
ATOM     65  C   UNL A   1      32.923  32.514  27.596  1.00  0.00     0.021 C 
BRANCH  65  66
ATOM     66  C   UNL A   1      32.687  31.097  27.072  1.00  0.00     0.116 C 
BRANCH  66  67
ATOM     67  N   UNL A   1      33.948  30.385  26.969  1.00  0.00    -0.356 N 
ATOM     68  C   UNL A   1      34.169  29.076  26.649  1.00  0.00     0.226 C 
ATOM     69  H   UNL A   1      34.753  30.919  27.156  1.00  0.00     0.163 HD
ATOM     70  O   UNL A   1      35.272  28.595  26.901  1.00  0.00    -0.275 OA
BRANCH  68  71
ATOM     71  C   UNL A   1      33.059  28.311  25.954  1.00  0.00     0.122 C 
ATOM     72  C   UNL A   1      33.332  26.798  25.842  1.00  0.00     0.122 C 
ATOM     73  C   UNL A   1      33.036  28.744  24.483  1.00  0.00     0.132 C 
ATOM     74  C   UNL A   1      33.440  26.621  24.315  1.00  0.00     0.132 C 
ATOM     75  C   UNL A   1      31.775  28.233  23.785  1.00  0.00     0.035 C 
ATOM     76  O   UNL A   1      34.042  27.873  23.910  1.00  0.00    -0.373 OA
ATOM     77  C   UNL A   1      32.097  26.751  23.589  1.00  0.00     0.035 C 
BRANCH  72  78
ATOM     78  C   UNL A   1      32.191  25.955  26.380  1.00  0.00     0.229 C 
ATOM     79  O   UNL A   1      31.113  26.462  26.698  1.00  0.00    -0.274 OA
ATOM     80  N   UNL A   1      32.350  24.588  26.320  1.00  0.00    -0.339 N 
ATOM     81  C   UNL A   1      31.170  23.752  26.071  1.00  0.00     0.141 C 
ATOM     82  C   UNL A   1      33.602  23.844  26.522  1.00  0.00     0.141 C 
ATOM     83  C   UNL A   1      31.424  22.857  24.843  1.00  0.00     0.138 C 
ATOM     84  C   UNL A   1      33.871  22.818  25.403  1.00  0.00     0.138 C 
ATOM     85  N   UNL A   1      32.647  22.083  25.072  1.00  0.00    -0.368 N 
BRANCH  85  86
ATOM     86  C   UNL A   1      32.676  20.738  24.792  1.00  0.00     0.038 A 
ATOM     87  C   UNL A   1      32.879  19.815  25.827  1.00  0.00     0.026 A 
ATOM     88  C   UNL A   1      32.454  20.250  23.501  1.00  0.00     0.046 A 
ATOM     89  C   UNL A   1      32.832  18.441  25.589  1.00  0.00     0.004 A 
ATOM     90  C   UNL A   1      32.429  18.877  23.258  1.00  0.00     0.043 A 
ATOM     91  C   UNL A   1      32.607  17.969  24.299  1.00  0.00     0.020 A 
ATOM     92  Cl  UNL A   1      32.167  18.297  21.658  1.00  0.00    -0.084 Cl
ENDBRANCH  85  86
ENDBRANCH  72  78
ENDBRANCH  68  71
ENDBRANCH  66  67
ENDBRANCH  65  66
ENDBRANCH  64  65
ENDBRANCH   1  64
TORSDOF 15
ENDMDL
MODEL 3
REMARK VINA RESULT:     -12.4      1.293      5.968
REMARK SMILES O=C(NCCCCCCNC(=O)[C@@H]1[C@@H](C(=O)N2CCN(c3cccc(Cl)c3)CC2)[C@H]2CC[C@@H]1O2)c1ccc(-c2c3nc(c(-c4c(F)cccc4F)c4ccc([nH]4)c(-c4c(F)cccc4F)c4nc(c(-c5c(F)cccc5F)c5ccc2[nH]5)C=C4)C=C3)cc1
REMARK SMILES IDX 6 1 5 2 4 3 3 4 1 5 2 6 35 8 36 9 88 10 37 11 87 12 38 13
REMARK SMILES IDX 39 14 40 15 81 16 41 17 86 18 80 19 82 20 42 21 85 22 79 23
REMARK SMILES IDX 78 24 43 26 69 27 52 28 68 29 53 30 56 31 67 32 83 33 54 34
REMARK SMILES IDX 55 35 66 37 84 38 57 39 44 40 45 41 50 42 46 43 47 44 49 45
REMARK SMILES IDX 51 46 48 47 70 48 71 49 76 50 72 51 73 52 75 53 77 54 74 55
REMARK SMILES IDX 58 56 59 57 64 58 60 59 61 60 63 61 65 62 62 63 7 64 8 65
REMARK SMILES IDX 9 66 10 67 11 68 12 70 13 71 14 72 33 73 30 74 32 75 34 76
REMARK SMILES IDX 31 77 15 78 16 79 17 80 18 81 29 82 19 83 28 84 20 85 21 86
REMARK SMILES IDX 22 87 27 88 23 89 25 90 24 91 26 92
REMARK H PARENT 3 7 82 25 56 36 10 69
REMARK Flexibility Score: inf
ROOT
ATOM      1  C   UNL A   1      36.567  19.556  24.992  1.00  0.00     0.002 C 
ENDROOT
BRANCH   1   2
ATOM      2  C   UNL A   1      38.037  19.697  24.599  1.00  0.00     0.021 C 
BRANCH   2   3
ATOM      3  C   UNL A   1      38.964  20.057  25.750  1.00  0.00     0.116 C 
BRANCH   3   4
ATOM      4  N   UNL A   1      40.143  19.207  25.803  1.00  0.00    -0.352 N 
ATOM      5  O   UNL A   1      42.352  18.749  25.970  1.00  0.00    -0.269 OA
ATOM      6  C   UNL A   1      41.435  19.552  26.120  1.00  0.00     0.251 C 
ATOM      7  H   UNL A   1      39.996  18.259  25.583  1.00  0.00     0.163 HD
BRANCH   6   8
ATOM      8  C   UNL A   1      41.719  20.914  26.624  1.00  0.00     0.039 A 
ATOM      9  C   UNL A   1      41.944  21.962  25.731  1.00  0.00     0.014 A 
ATOM     10  C   UNL A   1      41.770  21.141  28.002  1.00  0.00     0.014 A 
ATOM     11  C   UNL A   1      42.364  23.195  26.209  1.00  0.00     0.010 A 
ATOM     12  C   UNL A   1      42.100  22.412  28.485  1.00  0.00     0.010 A 
ATOM     13  C   UNL A   1      42.427  23.442  27.591  1.00  0.00    -0.014 A 
BRANCH  13  14
ATOM     14  C   UNL A   1      42.757  24.816  28.050  1.00  0.00     0.031 A 
ATOM     15  C   UNL A   1      41.691  25.847  28.289  1.00  0.00     0.074 A 
ATOM     16  C   UNL A   1      44.046  25.100  28.319  1.00  0.00     0.049 A 
ATOM     17  N   UNL A   1      41.816  27.059  28.771  1.00  0.00    -0.248 NA
ATOM     18  C   UNL A   1      40.310  25.482  27.936  1.00  0.00     0.031 C 
ATOM     19  C   UNL A   1      45.170  24.184  28.099  1.00  0.00     0.029 A 
ATOM     20  N   UNL A   1      44.628  26.212  28.866  1.00  0.00    -0.354 N 
ATOM     21  C   UNL A   1      40.538  27.603  28.773  1.00  0.00     0.074 A 
ATOM     22  C   UNL A   1      39.654  26.601  28.217  1.00  0.00     0.031 C 
ATOM     23  C   UNL A   1      46.294  24.745  28.567  1.00  0.00     0.029 A 
ATOM     24  C   UNL A   1      45.982  26.079  29.064  1.00  0.00     0.049 A 
ATOM     25  H   UNL A   1      44.126  27.027  29.096  1.00  0.00     0.167 HD
ATOM     26  C   UNL A   1      40.142  28.824  29.209  1.00  0.00     0.037 A 
ATOM     27  C   UNL A   1      46.877  26.938  29.581  1.00  0.00     0.037 A 
ATOM     28  C   UNL A   1      41.026  29.816  29.768  1.00  0.00     0.049 A 
ATOM     29  C   UNL A   1      46.406  28.278  30.063  1.00  0.00     0.074 A 
ATOM     30  C   UNL A   1      40.717  31.080  30.243  1.00  0.00     0.029 A 
ATOM     31  N   UNL A   1      42.394  29.655  29.929  1.00  0.00    -0.354 N 
ATOM     32  N   UNL A   1      45.190  28.767  30.075  1.00  0.00    -0.248 NA
ATOM     33  C   UNL A   1      47.429  29.182  30.600  1.00  0.00     0.031 C 
ATOM     34  C   UNL A   1      41.903  31.694  30.663  1.00  0.00     0.029 A 
ATOM     35  C   UNL A   1      42.944  30.799  30.487  1.00  0.00     0.049 A 
ATOM     36  H   UNL A   1      42.901  28.847  29.684  1.00  0.00     0.167 HD
ATOM     37  C   UNL A   1      45.301  30.039  30.618  1.00  0.00     0.074 A 
ATOM     38  C   UNL A   1      46.698  30.228  30.959  1.00  0.00     0.031 C 
ATOM     39  C   UNL A   1      44.338  30.972  30.806  1.00  0.00     0.037 A 
BRANCH  26  40
ATOM     40  C   UNL A   1      38.684  29.166  29.097  1.00  0.00     0.057 A 
ATOM     41  C   UNL A   1      37.824  29.086  30.200  1.00  0.00     0.134 A 
ATOM     42  C   UNL A   1      38.150  29.642  27.894  1.00  0.00     0.134 A 
ATOM     43  F   UNL A   1      38.270  28.628  31.379  1.00  0.00    -0.206 F 
ATOM     44  C   UNL A   1      36.482  29.458  30.107  1.00  0.00     0.040 A 
ATOM     45  C   UNL A   1      36.814  30.037  27.794  1.00  0.00     0.040 A 
ATOM     46  F   UNL A   1      38.920  29.750  26.801  1.00  0.00    -0.206 F 
ATOM     47  C   UNL A   1      35.974  29.944  28.902  1.00  0.00     0.006 A 
ENDBRANCH  26  40
BRANCH  27  48
ATOM     48  C   UNL A   1      48.307  26.554  29.658  1.00  0.00     0.057 A 
ATOM     49  C   UNL A   1      48.816  25.855  30.759  1.00  0.00     0.134 A 
ATOM     50  C   UNL A   1      49.199  26.870  28.625  1.00  0.00     0.134 A 
ATOM     51  F   UNL A   1      48.014  25.537  31.786  1.00  0.00    -0.206 F 
ATOM     52  C   UNL A   1      50.163  25.497  30.838  1.00  0.00     0.040 A 
ATOM     53  C   UNL A   1      50.541  26.495  28.677  1.00  0.00     0.040 A 
ATOM     54  F   UNL A   1      48.770  27.530  27.540  1.00  0.00    -0.206 F 
ATOM     55  C   UNL A   1      51.028  25.812  29.790  1.00  0.00     0.006 A 
ENDBRANCH  27  48
BRANCH  39  56
ATOM     56  C   UNL A   1      44.773  32.274  31.408  1.00  0.00     0.057 A 
ATOM     57  C   UNL A   1      44.823  32.461  32.795  1.00  0.00     0.134 A 
ATOM     58  C   UNL A   1      45.141  33.352  30.594  1.00  0.00     0.134 A 
ATOM     59  F   UNL A   1      44.466  31.471  33.627  1.00  0.00    -0.206 F 
ATOM     60  C   UNL A   1      45.193  33.686  33.352  1.00  0.00     0.040 A 
ATOM     61  C   UNL A   1      45.535  34.574  31.139  1.00  0.00     0.040 A 
ATOM     62  F   UNL A   1      45.120  33.236  29.257  1.00  0.00    -0.206 F 
ATOM     63  C   UNL A   1      45.554  34.745  32.522  1.00  0.00     0.006 A 
ENDBRANCH  39  56
ENDBRANCH  13  14
ENDBRANCH   6   8
ENDBRANCH   3   4
ENDBRANCH   2   3
ENDBRANCH   1   2
BRANCH   1  64
ATOM     64  C   UNL A   1      35.708  20.804  24.750  1.00  0.00     0.002 C 
BRANCH  64  65
ATOM     65  C   UNL A   1      36.481  22.051  24.296  1.00  0.00     0.021 C 
BRANCH  65  66
ATOM     66  C   UNL A   1      36.250  23.275  25.183  1.00  0.00     0.116 C 
BRANCH  66  67
ATOM     67  N   UNL A   1      35.676  22.871  26.453  1.00  0.00    -0.356 N 
ATOM     68  C   UNL A   1      34.405  23.056  26.918  1.00  0.00     0.226 C 
ATOM     69  H   UNL A   1      36.287  22.398  27.063  1.00  0.00     0.163 HD
ATOM     70  O   UNL A   1      34.198  22.907  28.120  1.00  0.00    -0.275 OA
BRANCH  68  71
ATOM     71  C   UNL A   1      33.316  23.384  25.914  1.00  0.00     0.122 C 
ATOM     72  C   UNL A   1      33.077  24.896  25.738  1.00  0.00     0.122 C 
ATOM     73  C   UNL A   1      31.979  22.912  26.498  1.00  0.00     0.132 C 
ATOM     74  C   UNL A   1      31.640  25.041  26.274  1.00  0.00     0.132 C 
ATOM     75  C   UNL A   1      30.878  22.950  25.437  1.00  0.00     0.035 C 
ATOM     76  O   UNL A   1      31.609  24.045  27.322  1.00  0.00    -0.373 OA
ATOM     77  C   UNL A   1      30.579  24.446  25.341  1.00  0.00     0.035 C 
BRANCH  72  78
ATOM     78  C   UNL A   1      33.134  25.334  24.287  1.00  0.00     0.229 C 
ATOM     79  O   UNL A   1      33.460  24.550  23.393  1.00  0.00    -0.274 OA
ATOM     80  N   UNL A   1      32.629  26.582  23.996  1.00  0.00    -0.339 N 
ATOM     81  C   UNL A   1      31.952  26.786  22.710  1.00  0.00     0.141 C 
ATOM     82  C   UNL A   1      32.729  27.783  24.839  1.00  0.00     0.141 C 
ATOM     83  C   UNL A   1      30.537  27.343  22.957  1.00  0.00     0.138 C 
ATOM     84  C   UNL A   1      31.371  28.489  25.029  1.00  0.00     0.138 C 
ATOM     85  N   UNL A   1      30.647  28.566  23.757  1.00  0.00    -0.368 N 
BRANCH  85  86
ATOM     86  C   UNL A   1      29.928  29.685  23.411  1.00  0.00     0.038 A 
ATOM     87  C   UNL A   1      29.861  30.770  24.294  1.00  0.00     0.026 A 
ATOM     88  C   UNL A   1      29.297  29.798  22.169  1.00  0.00     0.046 A 
ATOM     89  C   UNL A   1      29.209  31.951  23.939  1.00  0.00     0.004 A 
ATOM     90  C   UNL A   1      28.625  30.971  21.821  1.00  0.00     0.043 A 
ATOM     91  C   UNL A   1      28.588  32.053  22.698  1.00  0.00     0.020 A 
ATOM     92  Cl  UNL A   1      27.844  31.086  20.292  1.00  0.00    -0.084 Cl
ENDBRANCH  85  86
ENDBRANCH  72  78
ENDBRANCH  68  71
ENDBRANCH  66  67
ENDBRANCH  65  66
ENDBRANCH  64  65
ENDBRANCH   1  64
TORSDOF 15
ENDMDL
