MODEL 1
REMARK VINA RESULT:     -13.0      0.000      0.000
REMARK SMILES O=C(NCCCCCCNC(=O)c1ccccc1Nc1cccc(S(F)(F)(F)(F)F)c1)c1ccc(-c2c3nc(c(-c4c(F)cccc4F)c4ccc([nH]4)c(-c4c(F)cccc4F)c4nc(c(-c5c(F)cccc5F)c5ccc2[nH]5)C=C4)C=C3)cc1
REMARK SMILES IDX 7 1 6 2 5 3 4 4 3 5 1 6 2 7 32 9 33 10 85 11 34 12 84 13
REMARK SMILES IDX 35 14 36 15 37 16 78 17 38 18 83 19 77 20 79 21 39 22 82 23
REMARK SMILES IDX 76 24 75 25 40 27 66 28 49 29 65 30 50 31 53 32 64 33 80 34
REMARK SMILES IDX 51 35 52 36 63 38 81 39 54 40 41 41 42 42 47 43 43 44 44 45
REMARK SMILES IDX 46 46 48 47 45 48 67 49 68 50 73 51 69 52 70 53 72 54 74 55
REMARK SMILES IDX 71 56 55 57 56 58 61 59 57 60 58 61 60 62 62 63 59 64 8 65
REMARK SMILES IDX 9 66 10 67 11 68 12 70 13 71 14 72 18 73 15 74 17 75 16 76
REMARK SMILES IDX 19 77 20 79 21 80 31 81 22 82 24 83 23 84 25 85 26 86 27 87
REMARK SMILES IDX 28 88 29 89 30 90
REMARK H PARENT 3 8 79 26 53 37 10 69 19 78
REMARK Flexibility Score: inf
ROOT
ATOM      1  C   UNL A   1      33.255  30.383  27.162  1.00  0.00     0.002 C 
ENDROOT
BRANCH   1   2
ATOM      2  C   UNL A   1      31.766  30.531  26.896  1.00  0.00     0.002 C 
BRANCH   2   3
ATOM      3  C   UNL A   1      31.400  32.006  26.873  1.00  0.00     0.021 C 
BRANCH   3   4
ATOM      4  C   UNL A   1      32.667  32.843  26.934  1.00  0.00     0.116 C 
BRANCH   4   5
ATOM      5  N   UNL A   1      32.373  34.133  27.576  1.00  0.00    -0.352 N 
ATOM      6  O   UNL A   1      32.977  35.742  29.216  1.00  0.00    -0.269 OA
ATOM      7  C   UNL A   1      33.232  34.627  28.662  1.00  0.00     0.251 C 
ATOM      8  H   UNL A   1      31.600  34.665  27.279  1.00  0.00     0.163 HD
BRANCH   7   9
ATOM      9  C   UNL A   1      34.426  33.805  29.120  1.00  0.00     0.039 A 
ATOM     10  C   UNL A   1      35.677  34.264  28.742  1.00  0.00     0.014 A 
ATOM     11  C   UNL A   1      34.290  32.759  29.926  1.00  0.00     0.014 A 
ATOM     12  C   UNL A   1      36.730  33.367  29.040  1.00  0.00     0.010 A 
ATOM     13  C   UNL A   1      35.382  32.007  30.287  1.00  0.00     0.010 A 
ATOM     14  C   UNL A   1      36.644  32.368  29.900  1.00  0.00    -0.014 A 
BRANCH  14  15
ATOM     15  C   UNL A   1      37.878  31.659  30.430  1.00  0.00     0.031 A 
ATOM     16  C   UNL A   1      38.526  30.689  29.663  1.00  0.00     0.074 A 
ATOM     17  C   UNL A   1      38.205  31.952  31.743  1.00  0.00     0.049 A 
ATOM     18  N   UNL A   1      39.555  29.921  30.022  1.00  0.00    -0.248 NA
ATOM     19  C   UNL A   1      38.158  30.353  28.279  1.00  0.00     0.031 C 
ATOM     20  C   UNL A   1      37.563  32.935  32.521  1.00  0.00     0.029 A 
ATOM     21  N   UNL A   1      39.180  31.368  32.523  1.00  0.00    -0.354 N 
ATOM     22  C   UNL A   1      39.912  29.126  29.011  1.00  0.00     0.074 A 
ATOM     23  C   UNL A   1      39.015  29.388  27.878  1.00  0.00     0.031 C 
ATOM     24  C   UNL A   1      38.134  32.936  33.755  1.00  0.00     0.029 A 
ATOM     25  C   UNL A   1      39.142  31.955  33.768  1.00  0.00     0.049 A 
ATOM     26  H   UNL A   1      39.796  30.655  32.237  1.00  0.00     0.167 HD
ATOM     27  C   UNL A   1      40.952  28.195  28.989  1.00  0.00     0.037 A 
ATOM     28  C   UNL A   1      39.934  31.662  34.867  1.00  0.00     0.037 A 
ATOM     29  C   UNL A   1      41.772  27.933  30.075  1.00  0.00     0.049 A 
ATOM     30  C   UNL A   1      40.937  30.688  34.864  1.00  0.00     0.074 A 
ATOM     31  C   UNL A   1      42.829  27.004  30.067  1.00  0.00     0.029 A 
ATOM     32  N   UNL A   1      41.719  28.502  31.328  1.00  0.00    -0.354 N 
ATOM     33  N   UNL A   1      41.319  29.922  33.841  1.00  0.00    -0.248 NA
ATOM     34  C   UNL A   1      41.760  30.348  36.031  1.00  0.00     0.031 C 
ATOM     35  C   UNL A   1      43.400  27.005  31.301  1.00  0.00     0.029 A 
ATOM     36  C   UNL A   1      42.708  27.934  32.101  1.00  0.00     0.049 A 
ATOM     37  H   UNL A   1      41.083  29.195  31.622  1.00  0.00     0.167 HD
ATOM     38  C   UNL A   1      42.322  29.125  34.213  1.00  0.00     0.074 A 
ATOM     39  C   UNL A   1      42.615  29.382  35.631  1.00  0.00     0.031 C 
ATOM     40  C   UNL A   1      43.007  28.196  33.428  1.00  0.00     0.037 A 
BRANCH  27  41
ATOM     41  C   UNL A   1      41.199  27.426  27.702  1.00  0.00     0.057 A 
ATOM     42  C   UNL A   1      40.558  26.241  27.375  1.00  0.00     0.134 A 
ATOM     43  C   UNL A   1      42.016  28.026  26.845  1.00  0.00     0.134 A 
ATOM     44  F   UNL A   1      39.552  25.741  28.086  1.00  0.00    -0.206 F 
ATOM     45  C   UNL A   1      41.073  25.613  26.217  1.00  0.00     0.040 A 
ATOM     46  C   UNL A   1      42.369  27.411  25.668  1.00  0.00     0.040 A 
ATOM     47  F   UNL A   1      42.496  29.234  27.128  1.00  0.00    -0.206 F 
ATOM     48  C   UNL A   1      41.820  26.212  25.308  1.00  0.00     0.006 A 
ENDBRANCH  27  41
BRANCH  28  49
ATOM     49  C   UNL A   1      39.698  32.443  36.149  1.00  0.00     0.057 A 
ATOM     50  C   UNL A   1      38.643  32.147  36.995  1.00  0.00     0.134 A 
ATOM     51  C   UNL A   1      40.465  33.508  36.352  1.00  0.00     0.134 A 
ATOM     52  F   UNL A   1      38.013  30.975  36.986  1.00  0.00    -0.206 F 
ATOM     53  C   UNL A   1      38.295  33.203  37.870  1.00  0.00     0.040 A 
ATOM     54  C   UNL A   1      40.140  34.432  37.317  1.00  0.00     0.040 A 
ATOM     55  F   UNL A   1      41.558  33.684  35.615  1.00  0.00    -0.206 F 
ATOM     56  C   UNL A   1      39.075  34.231  38.151  1.00  0.00     0.006 A 
ENDBRANCH  28  49
BRANCH  40  57
ATOM     57  C   UNL A   1      44.149  27.426  34.069  1.00  0.00     0.057 A 
ATOM     58  C   UNL A   1      45.380  28.061  34.039  1.00  0.00     0.134 A 
ATOM     59  C   UNL A   1      43.976  26.292  34.738  1.00  0.00     0.134 A 
ATOM     60  F   UNL A   1      45.542  29.307  33.604  1.00  0.00    -0.206 F 
ATOM     61  C   UNL A   1      46.449  27.263  34.511  1.00  0.00     0.040 A 
ATOM     62  C   UNL A   1      45.050  25.635  35.292  1.00  0.00     0.040 A 
ATOM     63  F   UNL A   1      42.753  25.787  34.875  1.00  0.00    -0.206 F 
ATOM     64  C   UNL A   1      46.305  26.176  35.247  1.00  0.00     0.006 A 
ENDBRANCH  40  57
ENDBRANCH  14  15
ENDBRANCH   7   9
ENDBRANCH   4   5
ENDBRANCH   3   4
ENDBRANCH   2   3
ENDBRANCH   1   2
BRANCH   1  65
ATOM     65  C   UNL A   1      33.859  29.428  26.146  1.00  0.00     0.021 C 
BRANCH  65  66
ATOM     66  C   UNL A   1      32.895  29.249  24.984  1.00  0.00     0.116 C 
BRANCH  66  67
ATOM     67  N   UNL A   1      33.628  29.375  23.716  1.00  0.00    -0.352 N 
ATOM     68  C   UNL A   1      33.756  28.214  22.822  1.00  0.00     0.253 C 
ATOM     69  H   UNL A   1      34.033  30.237  23.464  1.00  0.00     0.163 HD
ATOM     70  O   UNL A   1      34.389  28.324  21.725  1.00  0.00    -0.269 OA
BRANCH  68  71
ATOM     71  C   UNL A   1      33.131  26.884  23.209  1.00  0.00     0.063 A 
ATOM     72  C   UNL A   1      33.806  26.043  24.078  1.00  0.00     0.016 A 
ATOM     73  C   UNL A   1      31.948  26.550  22.708  1.00  0.00     0.051 A 
ATOM     74  C   UNL A   1      33.278  24.732  24.134  1.00  0.00     0.001 A 
ATOM     75  C   UNL A   1      31.429  25.294  22.915  1.00  0.00     0.027 A 
ATOM     76  C   UNL A   1      32.074  24.391  23.716  1.00  0.00     0.002 A 
BRANCH  73  77
ATOM     77  N   UNL A   1      31.184  27.532  21.923  1.00  0.00    -0.355 N 
ATOM     78  H   UNL A   1      31.467  27.756  21.008  1.00  0.00     0.167 HD
BRANCH  77  79
ATOM     79  C   UNL A   1      30.000  28.179  22.507  1.00  0.00     0.040 A 
ATOM     80  C   UNL A   1      29.006  27.402  23.078  1.00  0.00     0.026 A 
ATOM     81  C   UNL A   1      29.926  29.504  22.510  1.00  0.00     0.050 A 
ATOM     82  C   UNL A   1      27.822  28.116  23.376  1.00  0.00     0.004 A 
ATOM     83  C   UNL A   1      28.787  30.140  22.942  1.00  0.00     0.109 A 
ATOM     84  C   UNL A   1      27.742  29.431  23.464  1.00  0.00     0.024 A 
BRANCH  83  85
ATOM     85  S   UNL A   1      28.671  31.942  22.819  1.00  0.00     0.310 S 
ATOM     86  F   UNL A   1      27.239  32.062  23.490  1.00  0.00    -0.094 F 
ATOM     87  F   UNL A   1      27.937  31.867  21.427  1.00  0.00    -0.094 F 
ATOM     88  F   UNL A   1      28.702  33.494  22.751  1.00  0.00    -0.094 F 
ATOM     89  F   UNL A   1      29.279  32.001  24.275  1.00  0.00    -0.094 F 
ATOM     90  F   UNL A   1      28.545  30.372  22.952  1.00  0.00    -0.094 F 
ENDBRANCH  83  85
ENDBRANCH  77  79
ENDBRANCH  73  77
ENDBRANCH  68  71
ENDBRANCH  66  67
ENDBRANCH  65  66
ENDBRANCH   1  65
TORSDOF 16
ENDMDL
MODEL 2
REMARK VINA RESULT:     -12.8      1.414      2.266
REMARK SMILES O=C(NCCCCCCNC(=O)c1ccccc1Nc1cccc(S(F)(F)(F)(F)F)c1)c1ccc(-c2c3nc(c(-c4c(F)cccc4F)c4ccc([nH]4)c(-c4c(F)cccc4F)c4nc(c(-c5c(F)cccc5F)c5ccc2[nH]5)C=C4)C=C3)cc1
REMARK SMILES IDX 7 1 6 2 5 3 4 4 3 5 1 6 2 7 32 9 33 10 85 11 34 12 84 13
REMARK SMILES IDX 35 14 36 15 37 16 78 17 38 18 83 19 77 20 79 21 39 22 82 23
REMARK SMILES IDX 76 24 75 25 40 27 66 28 49 29 65 30 50 31 53 32 64 33 80 34
REMARK SMILES IDX 51 35 52 36 63 38 81 39 54 40 41 41 42 42 47 43 43 44 44 45
REMARK SMILES IDX 46 46 48 47 45 48 67 49 68 50 73 51 69 52 70 53 72 54 74 55
REMARK SMILES IDX 71 56 55 57 56 58 61 59 57 60 58 61 60 62 62 63 59 64 8 65
REMARK SMILES IDX 9 66 10 67 11 68 12 70 13 71 14 72 18 73 15 74 17 75 16 76
REMARK SMILES IDX 19 77 20 79 21 80 31 81 22 82 24 83 23 84 25 85 26 86 27 87
REMARK SMILES IDX 28 88 29 89 30 90
REMARK H PARENT 3 8 79 26 53 37 10 69 19 78
REMARK Flexibility Score: inf
ROOT
ATOM      1  C   UNL A   1      31.819  28.903  26.563  1.00  0.00     0.002 C 
ENDROOT
BRANCH   1   2
ATOM      2  C   UNL A   1      31.837  30.181  25.739  1.00  0.00     0.002 C 
BRANCH   2   3
ATOM      3  C   UNL A   1      31.419  31.353  26.611  1.00  0.00     0.021 C 
BRANCH   3   4
ATOM      4  C   UNL A   1      32.624  32.240  26.878  1.00  0.00     0.116 C 
BRANCH   4   5
ATOM      5  N   UNL A   1      32.168  33.578  27.280  1.00  0.00    -0.352 N 
ATOM      6  O   UNL A   1      32.538  35.506  28.618  1.00  0.00    -0.269 OA
ATOM      7  C   UNL A   1      32.933  34.349  28.271  1.00  0.00     0.251 C 
ATOM      8  H   UNL A   1      31.350  33.958  26.886  1.00  0.00     0.163 HD
BRANCH   7   9
ATOM      9  C   UNL A   1      34.196  33.762  28.879  1.00  0.00     0.039 A 
ATOM     10  C   UNL A   1      34.028  32.703  29.756  1.00  0.00     0.014 A 
ATOM     11  C   UNL A   1      35.406  34.171  28.516  1.00  0.00     0.014 A 
ATOM     12  C   UNL A   1      35.214  32.319  30.425  1.00  0.00     0.010 A 
ATOM     13  C   UNL A   1      36.528  33.655  29.117  1.00  0.00     0.010 A 
ATOM     14  C   UNL A   1      36.434  32.646  30.036  1.00  0.00    -0.014 A 
BRANCH  14  15
ATOM     15  C   UNL A   1      37.664  31.940  30.580  1.00  0.00     0.031 A 
ATOM     16  C   UNL A   1      38.295  30.939  29.837  1.00  0.00     0.074 A 
ATOM     17  C   UNL A   1      38.003  32.268  31.881  1.00  0.00     0.049 A 
ATOM     18  N   UNL A   1      39.318  30.170  30.212  1.00  0.00    -0.248 NA
ATOM     19  C   UNL A   1      37.913  30.566  28.467  1.00  0.00     0.031 C 
ATOM     20  C   UNL A   1      37.378  33.281  32.633  1.00  0.00     0.029 A 
ATOM     21  N   UNL A   1      38.977  31.696  32.670  1.00  0.00    -0.354 N 
ATOM     22  C   UNL A   1      39.658  29.341  29.223  1.00  0.00     0.074 A 
ATOM     23  C   UNL A   1      38.756  29.580  28.089  1.00  0.00     0.031 C 
ATOM     24  C   UNL A   1      37.958  33.312  33.862  1.00  0.00     0.029 A 
ATOM     25  C   UNL A   1      38.955  32.320  33.898  1.00  0.00     0.049 A 
ATOM     26  H   UNL A   1      39.583  30.967  32.403  1.00  0.00     0.167 HD
ATOM     27  C   UNL A   1      40.687  28.398  29.222  1.00  0.00     0.037 A 
ATOM     28  C   UNL A   1      39.751  32.051  35.000  1.00  0.00     0.037 A 
ATOM     29  C   UNL A   1      41.512  28.159  30.309  1.00  0.00     0.049 A 
ATOM     30  C   UNL A   1      40.743  31.066  35.019  1.00  0.00     0.074 A 
ATOM     31  C   UNL A   1      42.558  27.217  30.322  1.00  0.00     0.029 A 
ATOM     32  N   UNL A   1      41.474  28.766  31.545  1.00  0.00    -0.354 N 
ATOM     33  N   UNL A   1      41.109  30.265  34.017  1.00  0.00    -0.248 NA
ATOM     34  C   UNL A   1      41.570  30.751  36.190  1.00  0.00     0.031 C 
ATOM     35  C   UNL A   1      43.138  27.249  31.552  1.00  0.00     0.029 A 
ATOM     36  C   UNL A   1      42.463  28.210  32.328  1.00  0.00     0.049 A 
ATOM     37  H   UNL A   1      40.849  29.475  31.822  1.00  0.00     0.167 HD
ATOM     38  C   UNL A   1      42.105  29.468  34.406  1.00  0.00     0.074 A 
ATOM     39  C   UNL A   1      42.411  29.764  35.813  1.00  0.00     0.031 C 
ATOM     40  C   UNL A   1      42.774  28.508  33.645  1.00  0.00     0.037 A 
BRANCH  27  41
ATOM     41  C   UNL A   1      40.916  27.588  27.957  1.00  0.00     0.057 A 
ATOM     42  C   UNL A   1      41.803  27.951  26.956  1.00  0.00     0.134 A 
ATOM     43  C   UNL A   1      40.267  26.429  27.915  1.00  0.00     0.134 A 
ATOM     44  F   UNL A   1      42.654  28.966  27.075  1.00  0.00    -0.206 F 
ATOM     45  C   UNL A   1      41.720  27.145  25.797  1.00  0.00     0.040 A 
ATOM     46  C   UNL A   1      40.340  25.627  26.802  1.00  0.00     0.040 A 
ATOM     47  F   UNL A   1      39.541  26.044  28.960  1.00  0.00    -0.206 F 
ATOM     48  C   UNL A   1      41.151  25.953  25.751  1.00  0.00     0.006 A 
ENDBRANCH  27  41
BRANCH  28  49
ATOM     49  C   UNL A   1      39.534  32.873  36.260  1.00  0.00     0.057 A 
ATOM     50  C   UNL A   1      38.548  32.549  37.175  1.00  0.00     0.134 A 
ATOM     51  C   UNL A   1      40.239  33.993  36.374  1.00  0.00     0.134 A 
ATOM     52  F   UNL A   1      37.997  31.340  37.251  1.00  0.00    -0.206 F 
ATOM     53  C   UNL A   1      38.178  33.620  38.024  1.00  0.00     0.040 A 
ATOM     54  C   UNL A   1      39.906  34.936  37.317  1.00  0.00     0.040 A 
ATOM     55  F   UNL A   1      41.277  34.204  35.570  1.00  0.00    -0.206 F 
ATOM     56  C   UNL A   1      38.903  34.707  38.217  1.00  0.00     0.006 A 
ENDBRANCH  28  49
BRANCH  40  57
ATOM     57  C   UNL A   1      43.912  27.744  34.301  1.00  0.00     0.057 A 
ATOM     58  C   UNL A   1      43.557  26.537  34.880  1.00  0.00     0.134 A 
ATOM     59  C   UNL A   1      45.183  28.117  34.213  1.00  0.00     0.134 A 
ATOM     60  F   UNL A   1      42.342  26.008  34.766  1.00  0.00    -0.206 F 
ATOM     61  C   UNL A   1      44.603  25.919  35.604  1.00  0.00     0.040 A 
ATOM     62  C   UNL A   1      46.171  27.389  34.833  1.00  0.00     0.040 A 
ATOM     63  F   UNL A   1      45.505  29.206  33.519  1.00  0.00    -0.206 F 
ATOM     64  C   UNL A   1      45.882  26.217  35.475  1.00  0.00     0.006 A 
ENDBRANCH  40  57
ENDBRANCH  14  15
ENDBRANCH   7   9
ENDBRANCH   4   5
ENDBRANCH   3   4
ENDBRANCH   2   3
ENDBRANCH   1   2
BRANCH   1  65
ATOM     65  C   UNL A   1      33.027  28.053  26.207  1.00  0.00     0.021 C 
BRANCH  65  66
ATOM     66  C   UNL A   1      32.632  26.585  26.208  1.00  0.00     0.116 C 
BRANCH  66  67
ATOM     67  N   UNL A   1      31.293  26.440  26.797  1.00  0.00    -0.352 N 
ATOM     68  C   UNL A   1      30.415  25.341  26.366  1.00  0.00     0.253 C 
ATOM     69  H   UNL A   1      30.984  27.077  27.482  1.00  0.00     0.163 HD
ATOM     70  O   UNL A   1      29.257  25.215  26.876  1.00  0.00    -0.269 OA
BRANCH  68  71
ATOM     71  C   UNL A   1      30.891  24.358  25.310  1.00  0.00     0.063 A 
ATOM     72  C   UNL A   1      31.700  23.298  25.683  1.00  0.00     0.016 A 
ATOM     73  C   UNL A   1      30.523  24.531  24.045  1.00  0.00     0.051 A 
ATOM     74  C   UNL A   1      32.311  22.631  24.596  1.00  0.00     0.001 A 
ATOM     75  C   UNL A   1      31.060  23.754  23.048  1.00  0.00     0.027 A 
ATOM     76  C   UNL A   1      31.913  22.725  23.341  1.00  0.00     0.002 A 
BRANCH  73  77
ATOM     77  N   UNL A   1      29.533  25.565  23.709  1.00  0.00    -0.355 N 
ATOM     78  H   UNL A   1      28.573  25.379  23.815  1.00  0.00     0.167 HD
BRANCH  77  79
ATOM     79  C   UNL A   1      29.979  26.875  23.213  1.00  0.00     0.040 A 
ATOM     80  C   UNL A   1      31.264  27.021  22.718  1.00  0.00     0.026 A 
ATOM     81  C   UNL A   1      29.122  27.890  23.215  1.00  0.00     0.050 A 
ATOM     82  C   UNL A   1      31.648  28.366  22.508  1.00  0.00     0.004 A 
ATOM     83  C   UNL A   1      29.535  29.154  22.868  1.00  0.00     0.109 A 
ATOM     84  C   UNL A   1      30.807  29.381  22.425  1.00  0.00     0.024 A 
BRANCH  83  85
ATOM     85  S   UNL A   1      28.374  30.537  22.997  1.00  0.00     0.310 S 
ATOM     86  F   UNL A   1      29.214  31.543  22.104  1.00  0.00    -0.094 F 
ATOM     87  F   UNL A   1      29.121  31.134  24.250  1.00  0.00    -0.094 F 
ATOM     88  F   UNL A   1      27.278  31.634  23.093  1.00  0.00    -0.094 F 
ATOM     89  F   UNL A   1      27.719  30.010  21.660  1.00  0.00    -0.094 F 
ATOM     90  F   UNL A   1      29.542  29.487  22.822  1.00  0.00    -0.094 F 
ENDBRANCH  83  85
ENDBRANCH  77  79
ENDBRANCH  73  77
ENDBRANCH  68  71
ENDBRANCH  66  67
ENDBRANCH  65  66
ENDBRANCH   1  65
TORSDOF 16
ENDMDL
MODEL 3
REMARK VINA RESULT:     -12.7      1.585      5.930
REMARK SMILES O=C(NCCCCCCNC(=O)c1ccccc1Nc1cccc(S(F)(F)(F)(F)F)c1)c1ccc(-c2c3nc(c(-c4c(F)cccc4F)c4ccc([nH]4)c(-c4c(F)cccc4F)c4nc(c(-c5c(F)cccc5F)c5ccc2[nH]5)C=C4)C=C3)cc1
REMARK SMILES IDX 7 1 6 2 5 3 4 4 3 5 1 6 2 7 32 9 33 10 85 11 34 12 84 13
REMARK SMILES IDX 35 14 36 15 37 16 78 17 38 18 83 19 77 20 79 21 39 22 82 23
REMARK SMILES IDX 76 24 75 25 40 27 66 28 49 29 65 30 50 31 53 32 64 33 80 34
REMARK SMILES IDX 51 35 52 36 63 38 81 39 54 40 41 41 42 42 47 43 43 44 44 45
REMARK SMILES IDX 46 46 48 47 45 48 67 49 68 50 73 51 69 52 70 53 72 54 74 55
REMARK SMILES IDX 71 56 55 57 56 58 61 59 57 60 58 61 60 62 62 63 59 64 8 65
REMARK SMILES IDX 9 66 10 67 11 68 12 70 13 71 14 72 18 73 15 74 17 75 16 76
REMARK SMILES IDX 19 77 20 79 21 80 31 81 22 82 24 83 23 84 25 85 26 86 27 87
REMARK SMILES IDX 28 88 29 89 30 90
REMARK H PARENT 3 8 79 26 53 37 10 69 19 78
REMARK Flexibility Score: inf
ROOT
ATOM      1  C   UNL A   1      33.361  30.489  27.320  1.00  0.00     0.002 C 
ENDROOT
BRANCH   1   2
ATOM      2  C   UNL A   1      31.927  30.571  26.821  1.00  0.00     0.002 C 
BRANCH   2   3
ATOM      3  C   UNL A   1      31.453  32.014  26.880  1.00  0.00     0.021 C 
BRANCH   3   4
ATOM      4  C   UNL A   1      32.655  32.939  26.979  1.00  0.00     0.116 C 
BRANCH   4   5
ATOM      5  N   UNL A   1      32.250  34.203  27.610  1.00  0.00    -0.352 N 
ATOM      6  O   UNL A   1      32.706  35.865  29.246  1.00  0.00    -0.269 OA
ATOM      7  C   UNL A   1      33.056  34.772  28.700  1.00  0.00     0.251 C 
ATOM      8  H   UNL A   1      31.440  34.669  27.303  1.00  0.00     0.163 HD
BRANCH   7   9
ATOM      9  C   UNL A   1      34.308  34.052  29.174  1.00  0.00     0.039 A 
ATOM     10  C   UNL A   1      35.490  34.371  28.524  1.00  0.00     0.014 A 
ATOM     11  C   UNL A   1      34.296  33.237  30.222  1.00  0.00     0.014 A 
ATOM     12  C   UNL A   1      36.581  33.545  28.882  1.00  0.00     0.010 A 
ATOM     13  C   UNL A   1      35.434  32.566  30.599  1.00  0.00     0.010 A 
ATOM     14  C   UNL A   1      36.625  32.787  29.963  1.00  0.00    -0.014 A 
BRANCH  14  15
ATOM     15  C   UNL A   1      37.927  32.194  30.474  1.00  0.00     0.031 A 
ATOM     16  C   UNL A   1      38.728  32.904  31.370  1.00  0.00     0.074 A 
ATOM     17  C   UNL A   1      38.298  30.997  29.885  1.00  0.00     0.049 A 
ATOM     18  N   UNL A   1      39.931  32.562  31.834  1.00  0.00    -0.248 NA
ATOM     19  C   UNL A   1      38.350  34.192  31.971  1.00  0.00     0.031 C 
ATOM     20  C   UNL A   1      37.493  30.271  28.987  1.00  0.00     0.029 A 
ATOM     21  N   UNL A   1      39.478  30.304  30.050  1.00  0.00    -0.354 N 
ATOM     22  C   UNL A   1      40.375  33.485  32.689  1.00  0.00     0.074 A 
ATOM     23  C   UNL A   1      39.367  34.550  32.785  1.00  0.00     0.031 C 
ATOM     24  C   UNL A   1      38.181  29.162  28.606  1.00  0.00     0.029 A 
ATOM     25  C   UNL A   1      39.427  29.177  29.260  1.00  0.00     0.049 A 
ATOM     26  H   UNL A   1      40.227  30.570  30.631  1.00  0.00     0.167 HD
ATOM     27  C   UNL A   1      41.579  33.480  33.395  1.00  0.00     0.037 A 
ATOM     28  C   UNL A   1      40.404  28.206  29.105  1.00  0.00     0.037 A 
ATOM     29  C   UNL A   1      42.537  32.486  33.273  1.00  0.00     0.049 A 
ATOM     30  C   UNL A   1      41.634  28.230  29.767  1.00  0.00     0.074 A 
ATOM     31  C   UNL A   1      43.753  32.462  33.982  1.00  0.00     0.029 A 
ATOM     32  N   UNL A   1      42.497  31.371  32.465  1.00  0.00    -0.354 N 
ATOM     33  N   UNL A   1      42.061  29.132  30.652  1.00  0.00    -0.248 NA
ATOM     34  C   UNL A   1      42.688  27.224  29.586  1.00  0.00     0.031 C 
ATOM     35  C   UNL A   1      44.441  31.353  33.601  1.00  0.00     0.029 A 
ATOM     36  C   UNL A   1      43.667  30.667  32.646  1.00  0.00     0.049 A 
ATOM     37  H   UNL A   1      41.760  31.121  31.861  1.00  0.00     0.167 HD
ATOM     38  C   UNL A   1      43.282  28.812  31.084  1.00  0.00     0.074 A 
ATOM     39  C   UNL A   1      43.706  27.583  30.398  1.00  0.00     0.031 C 
ATOM     40  C   UNL A   1      44.057  29.491  32.024  1.00  0.00     0.037 A 
BRANCH  27  41
ATOM     41  C   UNL A   1      41.855  34.628  34.351  1.00  0.00     0.057 A 
ATOM     42  C   UNL A   1      42.456  35.819  33.976  1.00  0.00     0.134 A 
ATOM     43  C   UNL A   1      41.384  34.452  35.581  1.00  0.00     0.134 A 
ATOM     44  F   UNL A   1      42.711  36.135  32.709  1.00  0.00    -0.206 F 
ATOM     45  C   UNL A   1      42.773  36.668  35.062  1.00  0.00     0.040 A 
ATOM     46  C   UNL A   1      41.616  35.389  36.559  1.00  0.00     0.040 A 
ATOM     47  F   UNL A   1      40.681  33.360  35.866  1.00  0.00    -0.206 F 
ATOM     48  C   UNL A   1      42.255  36.563  36.272  1.00  0.00     0.006 A 
ENDBRANCH  27  41
BRANCH  28  49
ATOM     49  C   UNL A   1      40.120  27.048  28.162  1.00  0.00     0.057 A 
ATOM     50  C   UNL A   1      39.533  25.877  28.609  1.00  0.00     0.134 A 
ATOM     51  C   UNL A   1      40.584  27.156  26.922  1.00  0.00     0.134 A 
ATOM     52  F   UNL A   1      38.834  25.801  29.739  1.00  0.00    -0.206 F 
ATOM     53  C   UNL A   1      39.743  24.768  27.755  1.00  0.00     0.040 A 
ATOM     54  C   UNL A   1      40.634  26.059  26.095  1.00  0.00     0.040 A 
ATOM     55  F   UNL A   1      41.005  28.336  26.476  1.00  0.00    -0.206 F 
ATOM     56  C   UNL A   1      40.125  24.855  26.494  1.00  0.00     0.006 A 
ENDBRANCH  28  49
BRANCH  40  57
ATOM     57  C   UNL A   1      45.412  28.907  32.387  1.00  0.00     0.057 A 
ATOM     58  C   UNL A   1      46.479  29.380  31.641  1.00  0.00     0.134 A 
ATOM     59  C   UNL A   1      45.603  28.108  33.431  1.00  0.00     0.134 A 
ATOM     60  F   UNL A   1      46.365  30.369  30.760  1.00  0.00    -0.206 F 
ATOM     61  C   UNL A   1      47.700  28.717  31.903  1.00  0.00     0.040 A 
ATOM     62  C   UNL A   1      46.851  27.603  33.708  1.00  0.00     0.040 A 
ATOM     63  F   UNL A   1      44.576  27.792  34.216  1.00  0.00    -0.206 F 
ATOM     64  C   UNL A   1      47.941  27.982  32.973  1.00  0.00     0.006 A 
ENDBRANCH  40  57
ENDBRANCH  14  15
ENDBRANCH   7   9
ENDBRANCH   4   5
ENDBRANCH   3   4
ENDBRANCH   2   3
ENDBRANCH   1   2
BRANCH   1  65
ATOM     65  C   UNL A   1      34.082  29.359  26.605  1.00  0.00     0.021 C 
BRANCH  65  66
ATOM     66  C   UNL A   1      33.217  28.847  25.465  1.00  0.00     0.116 C 
BRANCH  66  67
ATOM     67  N   UNL A   1      33.855  29.175  24.181  1.00  0.00    -0.352 N 
ATOM     68  C   UNL A   1      33.858  28.190  23.089  1.00  0.00     0.253 C 
ATOM     69  H   UNL A   1      34.279  30.054  24.052  1.00  0.00     0.163 HD
ATOM     70  O   UNL A   1      34.409  28.473  21.979  1.00  0.00    -0.269 OA
BRANCH  68  71
ATOM     71  C   UNL A   1      33.203  26.833  23.287  1.00  0.00     0.063 A 
ATOM     72  C   UNL A   1      33.812  25.897  24.105  1.00  0.00     0.016 A 
ATOM     73  C   UNL A   1      32.056  26.567  22.673  1.00  0.00     0.051 A 
ATOM     74  C   UNL A   1      33.278  24.593  23.984  1.00  0.00     0.001 A 
ATOM     75  C   UNL A   1      31.520  25.303  22.708  1.00  0.00     0.027 A 
ATOM     76  C   UNL A   1      32.103  24.312  23.450  1.00  0.00     0.002 A 
BRANCH  73  77
ATOM     77  N   UNL A   1      31.353  27.636  21.948  1.00  0.00    -0.355 N 
ATOM     78  H   UNL A   1      31.699  27.953  21.083  1.00  0.00     0.167 HD
BRANCH  77  79
ATOM     79  C   UNL A   1      30.134  28.230  22.515  1.00  0.00     0.040 A 
ATOM     80  C   UNL A   1      29.166  27.411  23.071  1.00  0.00     0.026 A 
ATOM     81  C   UNL A   1      30.003  29.552  22.518  1.00  0.00     0.050 A 
ATOM     82  C   UNL A   1      27.948  28.073  23.353  1.00  0.00     0.004 A 
ATOM     83  C   UNL A   1      28.831  30.137  22.935  1.00  0.00     0.109 A 
ATOM     84  C   UNL A   1      27.810  29.383  23.441  1.00  0.00     0.024 A 
BRANCH  83  85
ATOM     85  S   UNL A   1      28.639  31.932  22.812  1.00  0.00     0.310 S 
ATOM     86  F   UNL A   1      27.239  32.001  23.554  1.00  0.00    -0.094 F 
ATOM     87  F   UNL A   1      27.839  31.822  21.459  1.00  0.00    -0.094 F 
ATOM     88  F   UNL A   1      28.606  33.484  22.737  1.00  0.00    -0.094 F 
ATOM     89  F   UNL A   1      29.317  32.023  24.235  1.00  0.00    -0.094 F 
ATOM     90  F   UNL A   1      28.580  30.359  22.956  1.00  0.00    -0.094 F 
ENDBRANCH  83  85
ENDBRANCH  77  79
ENDBRANCH  73  77
ENDBRANCH  68  71
ENDBRANCH  66  67
ENDBRANCH  65  66
ENDBRANCH   1  65
TORSDOF 16
ENDMDL
