MODEL 1
REMARK VINA RESULT:     -11.1      0.000      0.000
REMARK SMILES CC(C)N1C[C@@H](C(=O)N2CCC(C(=O)NCCCCCCNC(=O)c3ccc(-c4c5nc(c(-c6c(F)cccc6F)c6ccc([nH]6)c(-c6c(F)cccc6F)c6nc(c(-c7c(F)cccc7F)c7ccc4[nH]7)C=C6)C=C5)cc3)CC2)CC1=O
REMARK SMILES IDX 18 1 17 2 16 3 15 4 13 5 14 6 12 8 7 9 8 10 9 11 10 12 80 13
REMARK SMILES IDX 11 14 79 15 6 16 4 17 5 18 82 19 81 20 83 21 2 22 1 23 3 24
REMARK SMILES IDX 19 25 20 26 21 27 22 28 23 29 24 31 25 32 26 33 78 34 27 35
REMARK SMILES IDX 77 36 28 37 29 38 30 39 71 40 31 41 76 42 70 43 72 44 32 45
REMARK SMILES IDX 75 46 69 47 68 48 33 50 59 51 42 52 58 53 43 54 46 55 57 56
REMARK SMILES IDX 73 57 44 58 45 59 56 61 74 62 47 63 34 64 35 65 40 66 36 67
REMARK SMILES IDX 37 68 39 69 41 70 38 71 60 72 61 73 66 74 62 75 63 76 65 77
REMARK SMILES IDX 67 78 64 79 48 80 49 81 54 82 50 83 51 84 53 85 55 86 52 87
REMARK H PARENT 15 7 22 30 72 49 46 60
REMARK Flexibility Score: inf
ROOT
ATOM      1  C   UNL A   1      41.809  21.218  26.802  1.00  0.00     0.002 C 
ENDROOT
BRANCH   1   2
ATOM      2  C   UNL A   1      40.791  22.166  27.445  1.00  0.00     0.021 C 
BRANCH   2   3
ATOM      3  C   UNL A   1      39.660  22.578  26.505  1.00  0.00     0.116 C 
BRANCH   3   4
ATOM      4  N   UNL A   1      39.169  21.437  25.752  1.00  0.00    -0.356 N 
ATOM      5  C   UNL A   1      37.970  21.212  25.151  1.00  0.00     0.223 C 
ATOM      6  O   UNL A   1      37.782  20.113  24.626  1.00  0.00    -0.275 OA
ATOM      7  H   UNL A   1      39.814  20.699  25.662  1.00  0.00     0.163 HD
BRANCH   5   8
ATOM      8  C   UNL A   1      36.901  22.292  25.080  1.00  0.00     0.082 C 
ATOM      9  C   UNL A   1      33.014  22.260  24.093  1.00  0.00     0.227 C 
ATOM     10  O   UNL A   1      33.098  21.480  23.139  1.00  0.00    -0.274 OA
ATOM     11  N   UNL A   1      34.136  22.914  24.566  1.00  0.00    -0.342 N 
ATOM     12  C   UNL A   1      35.138  23.368  23.611  1.00  0.00     0.120 C 
ATOM     13  C   UNL A   1      34.575  22.894  25.952  1.00  0.00     0.120 C 
ATOM     14  C   UNL A   1      36.403  22.527  23.649  1.00  0.00     0.035 C 
ATOM     15  C   UNL A   1      35.810  22.019  26.123  1.00  0.00     0.035 C 
BRANCH   9  16
ATOM     16  C   UNL A   1      31.635  22.717  24.562  1.00  0.00     0.107 C 
ATOM     17  N   UNL A   1      30.501  24.614  25.355  1.00  0.00    -0.339 N 
ATOM     18  C   UNL A   1      31.532  24.232  24.421  1.00  0.00     0.133 C 
ATOM     19  C   UNL A   1      30.260  23.622  26.290  1.00  0.00     0.223 C 
ATOM     20  C   UNL A   1      31.122  22.429  25.964  1.00  0.00     0.115 C 
ATOM     21  O   UNL A   1      29.528  23.704  27.267  1.00  0.00    -0.275 OA
BRANCH  17  22
ATOM     22  C   UNL A   1      30.006  25.983  25.497  1.00  0.00     0.078 C 
ATOM     23  C   UNL A   1      31.072  26.876  26.138  1.00  0.00     0.031 C 
ATOM     24  C   UNL A   1      29.527  26.577  24.175  1.00  0.00     0.031 C 
ENDBRANCH  17  22
ENDBRANCH   9  16
ENDBRANCH   5   8
ENDBRANCH   3   4
ENDBRANCH   2   3
ENDBRANCH   1   2
BRANCH   1  25
ATOM     25  C   UNL A   1      42.138  19.969  27.627  1.00  0.00     0.002 C 
BRANCH  25  26
ATOM     26  C   UNL A   1      42.656  18.780  26.815  1.00  0.00     0.021 C 
BRANCH  26  27
ATOM     27  C   UNL A   1      42.676  19.011  25.309  1.00  0.00     0.116 C 
BRANCH  27  28
ATOM     28  N   UNL A   1      43.961  18.664  24.721  1.00  0.00    -0.352 N 
ATOM     29  C   UNL A   1      45.007  19.484  24.380  1.00  0.00     0.251 C 
ATOM     30  H   UNL A   1      44.099  17.706  24.542  1.00  0.00     0.163 HD
ATOM     31  O   UNL A   1      45.938  19.055  23.706  1.00  0.00    -0.269 OA
BRANCH  29  32
ATOM     32  C   UNL A   1      44.996  20.895  24.814  1.00  0.00     0.039 A 
ATOM     33  C   UNL A   1      45.362  21.204  26.126  1.00  0.00     0.014 A 
ATOM     34  C   UNL A   1      44.631  21.910  23.925  1.00  0.00     0.014 A 
ATOM     35  C   UNL A   1      45.424  22.539  26.528  1.00  0.00     0.010 A 
ATOM     36  C   UNL A   1      44.767  23.242  24.304  1.00  0.00     0.010 A 
ATOM     37  C   UNL A   1      45.162  23.570  25.610  1.00  0.00    -0.014 A 
BRANCH  37  38
ATOM     38  C   UNL A   1      45.298  24.998  25.994  1.00  0.00     0.031 A 
ATOM     39  C   UNL A   1      46.642  25.670  25.939  1.00  0.00     0.074 A 
ATOM     40  C   UNL A   1      44.226  25.667  26.461  1.00  0.00     0.049 A 
ATOM     41  N   UNL A   1      46.978  26.878  26.311  1.00  0.00    -0.248 NA
ATOM     42  C   UNL A   1      47.764  24.868  25.421  1.00  0.00     0.031 C 
ATOM     43  C   UNL A   1      42.876  25.114  26.602  1.00  0.00     0.029 A 
ATOM     44  N   UNL A   1      44.104  26.955  26.918  1.00  0.00    -0.354 N 
ATOM     45  C   UNL A   1      48.347  26.974  26.093  1.00  0.00     0.074 A 
ATOM     46  C   UNL A   1      48.789  25.688  25.599  1.00  0.00     0.031 C 
ATOM     47  C   UNL A   1      42.061  26.062  27.091  1.00  0.00     0.029 A 
ATOM     48  C   UNL A   1      42.835  27.273  27.341  1.00  0.00     0.049 A 
ATOM     49  H   UNL A   1      44.855  27.592  26.940  1.00  0.00     0.167 HD
ATOM     50  C   UNL A   1      49.158  28.043  26.272  1.00  0.00     0.037 A 
ATOM     51  C   UNL A   1      42.355  28.408  27.885  1.00  0.00     0.037 A 
ATOM     52  C   UNL A   1      48.709  29.329  26.737  1.00  0.00     0.049 A 
ATOM     53  C   UNL A   1      43.284  29.574  28.090  1.00  0.00     0.074 A 
ATOM     54  C   UNL A   1      49.439  30.496  26.877  1.00  0.00     0.029 A 
ATOM     55  N   UNL A   1      47.414  29.615  27.143  1.00  0.00    -0.354 N 
ATOM     56  N   UNL A   1      44.559  29.677  27.801  1.00  0.00    -0.248 NA
ATOM     57  C   UNL A   1      42.707  30.783  28.693  1.00  0.00     0.031 C 
ATOM     58  C   UNL A   1      48.601  31.472  27.425  1.00  0.00     0.029 A 
ATOM     59  C   UNL A   1      47.334  30.931  27.567  1.00  0.00     0.049 A 
ATOM     60  H   UNL A   1      46.664  28.977  27.132  1.00  0.00     0.167 HD
ATOM     61  C   UNL A   1      44.926  30.969  28.152  1.00  0.00     0.074 A 
ATOM     62  C   UNL A   1      43.737  31.617  28.665  1.00  0.00     0.031 C 
ATOM     63  C   UNL A   1      46.138  31.567  28.060  1.00  0.00     0.037 A 
BRANCH  50  64
ATOM     64  C   UNL A   1      50.620  27.871  25.972  1.00  0.00     0.057 A 
ATOM     65  C   UNL A   1      51.556  27.584  26.974  1.00  0.00     0.134 A 
ATOM     66  C   UNL A   1      51.088  27.939  24.654  1.00  0.00     0.134 A 
ATOM     67  F   UNL A   1      51.177  27.514  28.260  1.00  0.00    -0.206 F 
ATOM     68  C   UNL A   1      52.907  27.394  26.679  1.00  0.00     0.040 A 
ATOM     69  C   UNL A   1      52.431  27.722  24.342  1.00  0.00     0.040 A 
ATOM     70  F   UNL A   1      50.245  28.203  23.644  1.00  0.00    -0.206 F 
ATOM     71  C   UNL A   1      53.345  27.452  25.358  1.00  0.00     0.006 A 
ENDBRANCH  50  64
BRANCH  51  72
ATOM     72  C   UNL A   1      40.924  28.508  28.273  1.00  0.00     0.057 A 
ATOM     73  C   UNL A   1      39.962  28.974  27.368  1.00  0.00     0.134 A 
ATOM     74  C   UNL A   1      40.487  28.175  29.561  1.00  0.00     0.134 A 
ATOM     75  F   UNL A   1      40.319  29.328  26.125  1.00  0.00    -0.206 F 
ATOM     76  C   UNL A   1      38.625  29.134  27.738  1.00  0.00     0.040 A 
ATOM     77  C   UNL A   1      39.148  28.302  29.936  1.00  0.00     0.040 A 
ATOM     78  F   UNL A   1      41.356  27.714  30.473  1.00  0.00    -0.206 F 
ATOM     79  C   UNL A   1      38.215  28.794  29.026  1.00  0.00     0.006 A 
ENDBRANCH  51  72
BRANCH  63  80
ATOM     80  C   UNL A   1      46.234  33.008  28.473  1.00  0.00     0.057 A 
ATOM     81  C   UNL A   1      46.586  33.386  29.775  1.00  0.00     0.134 A 
ATOM     82  C   UNL A   1      46.015  34.029  27.539  1.00  0.00     0.134 A 
ATOM     83  F   UNL A   1      46.795  32.457  30.720  1.00  0.00    -0.206 F 
ATOM     84  C   UNL A   1      46.696  34.729  30.139  1.00  0.00     0.040 A 
ATOM     85  C   UNL A   1      46.153  35.374  27.883  1.00  0.00     0.040 A 
ATOM     86  F   UNL A   1      45.685  33.736  26.272  1.00  0.00    -0.206 F 
ATOM     87  C   UNL A   1      46.489  35.727  29.188  1.00  0.00     0.006 A 
ENDBRANCH  63  80
ENDBRANCH  37  38
ENDBRANCH  29  32
ENDBRANCH  27  28
ENDBRANCH  26  27
ENDBRANCH  25  26
ENDBRANCH   1  25
TORSDOF 15
ENDMDL
MODEL 2
REMARK VINA RESULT:     -11.1      6.041     11.128
REMARK SMILES CC(C)N1C[C@@H](C(=O)N2CCC(C(=O)NCCCCCCNC(=O)c3ccc(-c4c5nc(c(-c6c(F)cccc6F)c6ccc([nH]6)c(-c6c(F)cccc6F)c6nc(c(-c7c(F)cccc7F)c7ccc4[nH]7)C=C6)C=C5)cc3)CC2)CC1=O
REMARK SMILES IDX 18 1 17 2 16 3 15 4 13 5 14 6 12 8 7 9 8 10 9 11 10 12 80 13
REMARK SMILES IDX 11 14 79 15 6 16 4 17 5 18 82 19 81 20 83 21 2 22 1 23 3 24
REMARK SMILES IDX 19 25 20 26 21 27 22 28 23 29 24 31 25 32 26 33 78 34 27 35
REMARK SMILES IDX 77 36 28 37 29 38 30 39 71 40 31 41 76 42 70 43 72 44 32 45
REMARK SMILES IDX 75 46 69 47 68 48 33 50 59 51 42 52 58 53 43 54 46 55 57 56
REMARK SMILES IDX 73 57 44 58 45 59 56 61 74 62 47 63 34 64 35 65 40 66 36 67
REMARK SMILES IDX 37 68 39 69 41 70 38 71 60 72 61 73 66 74 62 75 63 76 65 77
REMARK SMILES IDX 67 78 64 79 48 80 49 81 54 82 50 83 51 84 53 85 55 86 52 87
REMARK H PARENT 15 7 22 30 72 49 46 60
REMARK Flexibility Score: inf
ROOT
ATOM      1  C   UNL A   1      31.743  29.718  25.233  1.00  0.00     0.002 C 
ENDROOT
BRANCH   1   2
ATOM      2  C   UNL A   1      30.585  30.148  24.326  1.00  0.00     0.021 C 
BRANCH   2   3
ATOM      3  C   UNL A   1      30.383  29.236  23.117  1.00  0.00     0.116 C 
BRANCH   3   4
ATOM      4  N   UNL A   1      29.354  28.245  23.382  1.00  0.00    -0.356 N 
ATOM      5  C   UNL A   1      29.445  26.945  23.771  1.00  0.00     0.223 C 
ATOM      6  O   UNL A   1      28.404  26.293  23.862  1.00  0.00    -0.275 OA
ATOM      7  H   UNL A   1      28.432  28.569  23.259  1.00  0.00     0.163 HD
BRANCH   5   8
ATOM      8  C   UNL A   1      30.782  26.315  24.131  1.00  0.00     0.082 C 
ATOM      9  C   UNL A   1      32.011  22.523  24.572  1.00  0.00     0.227 C 
ATOM     10  O   UNL A   1      31.007  22.096  25.151  1.00  0.00    -0.274 OA
ATOM     11  N   UNL A   1      32.269  23.879  24.523  1.00  0.00    -0.342 N 
ATOM     12  C   UNL A   1      31.956  24.695  25.688  1.00  0.00     0.120 C 
ATOM     13  C   UNL A   1      32.510  24.626  23.299  1.00  0.00     0.120 C 
ATOM     14  C   UNL A   1      30.736  25.574  25.473  1.00  0.00     0.035 C 
ATOM     15  C   UNL A   1      31.315  25.501  22.946  1.00  0.00     0.035 C 
BRANCH   9  16
ATOM     16  C   UNL A   1      33.107  21.543  24.161  1.00  0.00     0.107 C 
ATOM     17  N   UNL A   1      33.847  19.349  24.547  1.00  0.00    -0.339 N 
ATOM     18  C   UNL A   1      32.633  20.118  24.424  1.00  0.00     0.133 C 
ATOM     19  C   UNL A   1      34.947  20.156  24.784  1.00  0.00     0.223 C 
ATOM     20  C   UNL A   1      34.504  21.596  24.760  1.00  0.00     0.115 C 
ATOM     21  O   UNL A   1      36.082  19.782  25.043  1.00  0.00    -0.275 OA
BRANCH  17  22
ATOM     22  C   UNL A   1      33.869  17.896  24.723  1.00  0.00     0.078 C 
ATOM     23  C   UNL A   1      32.596  17.421  25.427  1.00  0.00     0.031 C 
ATOM     24  C   UNL A   1      34.073  17.146  23.409  1.00  0.00     0.031 C 
ENDBRANCH  17  22
ENDBRANCH   9  16
ENDBRANCH   5   8
ENDBRANCH   3   4
ENDBRANCH   2   3
ENDBRANCH   1   2
BRANCH   1  25
ATOM     25  C   UNL A   1      31.728  30.339  26.635  1.00  0.00     0.002 C 
BRANCH  25  26
ATOM     26  C   UNL A   1      31.599  31.864  26.660  1.00  0.00     0.021 C 
BRANCH  26  27
ATOM     27  C   UNL A   1      32.786  32.584  27.288  1.00  0.00     0.116 C 
BRANCH  27  28
ATOM     28  N   UNL A   1      32.483  33.973  27.594  1.00  0.00    -0.352 N 
ATOM     29  C   UNL A   1      33.014  34.782  28.566  1.00  0.00     0.251 C 
ATOM     30  H   UNL A   1      31.798  34.391  27.024  1.00  0.00     0.163 HD
ATOM     31  O   UNL A   1      32.501  35.867  28.821  1.00  0.00    -0.269 OA
BRANCH  29  32
ATOM     32  C   UNL A   1      34.201  34.329  29.320  1.00  0.00     0.039 A 
ATOM     33  C   UNL A   1      34.021  33.704  30.555  1.00  0.00     0.014 A 
ATOM     34  C   UNL A   1      35.486  34.515  28.803  1.00  0.00     0.014 A 
ATOM     35  C   UNL A   1      35.129  33.209  31.245  1.00  0.00     0.010 A 
ATOM     36  C   UNL A   1      36.580  33.954  29.453  1.00  0.00     0.010 A 
ATOM     37  C   UNL A   1      36.413  33.297  30.682  1.00  0.00    -0.014 A 
BRANCH  37  38
ATOM     38  C   UNL A   1      37.596  32.708  31.360  1.00  0.00     0.031 A 
ATOM     39  C   UNL A   1      38.273  31.498  30.780  1.00  0.00     0.074 A 
ATOM     40  C   UNL A   1      38.012  33.219  32.536  1.00  0.00     0.049 A 
ATOM     41  N   UNL A   1      39.261  30.792  31.265  1.00  0.00    -0.248 NA
ATOM     42  C   UNL A   1      37.754  30.999  29.496  1.00  0.00     0.031 C 
ATOM     43  C   UNL A   1      37.412  34.365  33.223  1.00  0.00     0.029 A 
ATOM     44  N   UNL A   1      39.031  32.831  33.369  1.00  0.00    -0.354 N 
ATOM     45  C   UNL A   1      39.467  29.758  30.361  1.00  0.00     0.074 A 
ATOM     46  C   UNL A   1      38.473  29.901  29.320  1.00  0.00     0.031 C 
ATOM     47  C   UNL A   1      38.086  34.598  34.361  1.00  0.00     0.029 A 
ATOM     48  C   UNL A   1      39.134  33.593  34.508  1.00  0.00     0.049 A 
ATOM     49  H   UNL A   1      39.632  32.076  33.171  1.00  0.00     0.167 HD
ATOM     50  C   UNL A   1      40.411  28.787  30.387  1.00  0.00     0.037 A 
ATOM     51  C   UNL A   1      39.968  33.485  35.560  1.00  0.00     0.037 A 
ATOM     52  C   UNL A   1      41.417  28.666  31.410  1.00  0.00     0.049 A 
ATOM     53  C   UNL A   1      40.995  32.385  35.571  1.00  0.00     0.074 A 
ATOM     54  C   UNL A   1      42.464  27.765  31.484  1.00  0.00     0.029 A 
ATOM     55  N   UNL A   1      41.496  29.466  32.540  1.00  0.00    -0.354 N 
ATOM     56  N   UNL A   1      41.232  31.465  34.667  1.00  0.00    -0.248 NA
ATOM     57  C   UNL A   1      41.874  32.310  36.746  1.00  0.00     0.031 C 
ATOM     58  C   UNL A   1      43.140  27.980  32.688  1.00  0.00     0.029 A 
ATOM     59  C   UNL A   1      42.553  29.055  33.334  1.00  0.00     0.049 A 
ATOM     60  H   UNL A   1      40.889  30.214  32.747  1.00  0.00     0.167 HD
ATOM     61  C   UNL A   1      42.307  30.727  35.146  1.00  0.00     0.074 A 
ATOM     62  C   UNL A   1      42.684  31.314  36.416  1.00  0.00     0.031 C 
ATOM     63  C   UNL A   1      42.927  29.660  34.588  1.00  0.00     0.037 A 
BRANCH  50  64
ATOM     64  C   UNL A   1      40.403  27.772  29.281  1.00  0.00     0.057 A 
ATOM     65  C   UNL A   1      39.554  26.656  29.302  1.00  0.00     0.134 A 
ATOM     66  C   UNL A   1      41.215  27.942  28.153  1.00  0.00     0.134 A 
ATOM     67  F   UNL A   1      38.757  26.428  30.357  1.00  0.00    -0.206 F 
ATOM     68  C   UNL A   1      39.531  25.737  28.253  1.00  0.00     0.040 A 
ATOM     69  C   UNL A   1      41.180  27.045  27.083  1.00  0.00     0.040 A 
ATOM     70  F   UNL A   1      42.046  28.992  28.063  1.00  0.00    -0.206 F 
ATOM     71  C   UNL A   1      40.338  25.936  27.134  1.00  0.00     0.006 A 
ENDBRANCH  50  64
BRANCH  51  72
ATOM     72  C   UNL A   1      39.878  34.443  36.692  1.00  0.00     0.057 A 
ATOM     73  C   UNL A   1      40.562  35.664  36.660  1.00  0.00     0.134 A 
ATOM     74  C   UNL A   1      39.139  34.150  37.844  1.00  0.00     0.134 A 
ATOM     75  F   UNL A   1      41.303  35.995  35.593  1.00  0.00    -0.206 F 
ATOM     76  C   UNL A   1      40.538  36.545  37.743  1.00  0.00     0.040 A 
ATOM     77  C   UNL A   1      39.082  35.035  38.923  1.00  0.00     0.040 A 
ATOM     78  F   UNL A   1      38.453  33.001  37.936  1.00  0.00    -0.206 F 
ATOM     79  C   UNL A   1      39.794  36.232  38.878  1.00  0.00     0.006 A 
ENDBRANCH  51  72
BRANCH  63  80
ATOM     80  C   UNL A   1      44.108  29.086  35.315  1.00  0.00     0.057 A 
ATOM     81  C   UNL A   1      45.413  29.541  35.089  1.00  0.00     0.134 A 
ATOM     82  C   UNL A   1      43.929  28.096  36.290  1.00  0.00     0.134 A 
ATOM     83  F   UNL A   1      45.655  30.478  34.159  1.00  0.00    -0.206 F 
ATOM     84  C   UNL A   1      46.500  29.017  35.791  1.00  0.00     0.040 A 
ATOM     85  C   UNL A   1      45.003  27.587  37.021  1.00  0.00     0.040 A 
ATOM     86  F   UNL A   1      42.703  27.623  36.563  1.00  0.00    -0.206 F 
ATOM     87  C   UNL A   1      46.294  28.044  36.767  1.00  0.00     0.006 A 
ENDBRANCH  63  80
ENDBRANCH  37  38
ENDBRANCH  29  32
ENDBRANCH  27  28
ENDBRANCH  26  27
ENDBRANCH  25  26
ENDBRANCH   1  25
TORSDOF 15
ENDMDL
MODEL 3
REMARK VINA RESULT:     -11.0      5.274     10.690
REMARK SMILES CC(C)N1C[C@@H](C(=O)N2CCC(C(=O)NCCCCCCNC(=O)c3ccc(-c4c5nc(c(-c6c(F)cccc6F)c6ccc([nH]6)c(-c6c(F)cccc6F)c6nc(c(-c7c(F)cccc7F)c7ccc4[nH]7)C=C6)C=C5)cc3)CC2)CC1=O
REMARK SMILES IDX 18 1 17 2 16 3 15 4 13 5 14 6 12 8 7 9 8 10 9 11 10 12 80 13
REMARK SMILES IDX 11 14 79 15 6 16 4 17 5 18 82 19 81 20 83 21 2 22 1 23 3 24
REMARK SMILES IDX 19 25 20 26 21 27 22 28 23 29 24 31 25 32 26 33 78 34 27 35
REMARK SMILES IDX 77 36 28 37 29 38 30 39 71 40 31 41 76 42 70 43 72 44 32 45
REMARK SMILES IDX 75 46 69 47 68 48 33 50 59 51 42 52 58 53 43 54 46 55 57 56
REMARK SMILES IDX 73 57 44 58 45 59 56 61 74 62 47 63 34 64 35 65 40 66 36 67
REMARK SMILES IDX 37 68 39 69 41 70 38 71 60 72 61 73 66 74 62 75 63 76 65 77
REMARK SMILES IDX 67 78 64 79 48 80 49 81 54 82 50 83 51 84 53 85 55 86 52 87
REMARK H PARENT 15 7 22 30 72 49 46 60
REMARK Flexibility Score: inf
ROOT
ATOM      1  C   UNL A   1      32.146  29.767  25.677  1.00  0.00     0.002 C 
ENDROOT
BRANCH   1   2
ATOM      2  C   UNL A   1      31.755  28.584  26.568  1.00  0.00     0.021 C 
BRANCH   2   3
ATOM      3  C   UNL A   1      31.744  27.243  25.836  1.00  0.00     0.116 C 
BRANCH   3   4
ATOM      4  N   UNL A   1      32.485  27.327  24.589  1.00  0.00    -0.356 N 
ATOM      5  C   UNL A   1      33.299  26.429  23.971  1.00  0.00     0.223 C 
ATOM      6  O   UNL A   1      33.868  26.780  22.937  1.00  0.00    -0.275 OA
ATOM      7  H   UNL A   1      32.380  28.180  24.108  1.00  0.00     0.163 HD
BRANCH   5   8
ATOM      8  C   UNL A   1      33.474  25.016  24.505  1.00  0.00     0.082 C 
ATOM      9  C   UNL A   1      36.515  22.402  24.438  1.00  0.00     0.227 C 
ATOM     10  O   UNL A   1      36.890  22.623  23.282  1.00  0.00    -0.274 OA
ATOM     11  N   UNL A   1      35.248  22.773  24.848  1.00  0.00    -0.342 N 
ATOM     12  C   UNL A   1      34.142  22.644  23.909  1.00  0.00     0.120 C 
ATOM     13  C   UNL A   1      34.971  23.595  26.014  1.00  0.00     0.120 C 
ATOM     14  C   UNL A   1      33.664  23.987  23.384  1.00  0.00     0.035 C 
ATOM     15  C   UNL A   1      34.543  24.999  25.605  1.00  0.00     0.035 C 
BRANCH   9  16
ATOM     16  C   UNL A   1      37.339  21.469  25.322  1.00  0.00     0.107 C 
ATOM     17  N   UNL A   1      39.517  21.166  26.142  1.00  0.00    -0.339 N 
ATOM     18  C   UNL A   1      38.575  22.209  25.821  1.00  0.00     0.133 C 
ATOM     19  C   UNL A   1      39.175  19.962  25.550  1.00  0.00     0.223 C 
ATOM     20  C   UNL A   1      37.870  20.137  24.816  1.00  0.00     0.115 C 
ATOM     21  O   UNL A   1      39.840  18.935  25.549  1.00  0.00    -0.275 OA
BRANCH  17  22
ATOM     22  C   UNL A   1      40.828  21.417  26.742  1.00  0.00     0.078 C 
ATOM     23  C   UNL A   1      41.751  22.117  25.742  1.00  0.00     0.031 C 
ATOM     24  C   UNL A   1      40.738  22.210  28.044  1.00  0.00     0.031 C 
ENDBRANCH  17  22
ENDBRANCH   9  16
ENDBRANCH   5   8
ENDBRANCH   3   4
ENDBRANCH   2   3
ENDBRANCH   1   2
BRANCH   1  25
ATOM     25  C   UNL A   1      31.042  30.809  25.469  1.00  0.00     0.002 C 
BRANCH  25  26
ATOM     26  C   UNL A   1      31.022  31.940  26.500  1.00  0.00     0.021 C 
BRANCH  26  27
ATOM     27  C   UNL A   1      32.403  32.447  26.901  1.00  0.00     0.116 C 
BRANCH  27  28
ATOM     28  N   UNL A   1      32.360  33.815  27.390  1.00  0.00    -0.352 N 
ATOM     29  C   UNL A   1      33.124  34.412  28.361  1.00  0.00     0.251 C 
ATOM     30  H   UNL A   1      31.687  34.395  26.966  1.00  0.00     0.163 HD
ATOM     31  O   UNL A   1      32.822  35.519  28.796  1.00  0.00    -0.269 OA
BRANCH  29  32
ATOM     32  C   UNL A   1      34.305  33.704  28.894  1.00  0.00     0.039 A 
ATOM     33  C   UNL A   1      35.580  34.172  28.567  1.00  0.00     0.014 A 
ATOM     34  C   UNL A   1      34.153  32.587  29.720  1.00  0.00     0.014 A 
ATOM     35  C   UNL A   1      36.703  33.555  29.121  1.00  0.00     0.010 A 
ATOM     36  C   UNL A   1      35.268  32.023  30.330  1.00  0.00     0.010 A 
ATOM     37  C   UNL A   1      36.555  32.499  30.035  1.00  0.00    -0.014 A 
BRANCH  37  38
ATOM     38  C   UNL A   1      37.731  31.879  30.697  1.00  0.00     0.031 A 
ATOM     39  C   UNL A   1      38.519  30.812  29.990  1.00  0.00     0.074 A 
ATOM     40  C   UNL A   1      38.042  32.225  31.962  1.00  0.00     0.049 A 
ATOM     41  N   UNL A   1      39.520  30.095  30.430  1.00  0.00    -0.248 NA
ATOM     42  C   UNL A   1      38.110  30.488  28.613  1.00  0.00     0.031 C 
ATOM     43  C   UNL A   1      37.329  33.217  32.770  1.00  0.00     0.029 A 
ATOM     44  N   UNL A   1      39.033  31.771  32.796  1.00  0.00    -0.354 N 
ATOM     45  C   UNL A   1      39.846  29.226  29.398  1.00  0.00     0.074 A 
ATOM     46  C   UNL A   1      38.909  29.472  28.324  1.00  0.00     0.031 C 
ATOM     47  C   UNL A   1      37.917  33.309  33.973  1.00  0.00     0.029 A 
ATOM     48  C   UNL A   1      39.018  32.354  34.040  1.00  0.00     0.049 A 
ATOM     49  H   UNL A   1      39.692  31.090  32.528  1.00  0.00     0.167 HD
ATOM     50  C   UNL A   1      40.849  28.316  29.343  1.00  0.00     0.037 A 
ATOM     51  C   UNL A   1      39.793  32.131  35.118  1.00  0.00     0.037 A 
ATOM     52  C   UNL A   1      41.797  28.095  30.403  1.00  0.00     0.049 A 
ATOM     53  C   UNL A   1      40.887  31.101  35.035  1.00  0.00     0.074 A 
ATOM     54  C   UNL A   1      42.894  27.253  30.413  1.00  0.00     0.029 A 
ATOM     55  N   UNL A   1      41.756  28.715  31.642  1.00  0.00    -0.354 N 
ATOM     56  N   UNL A   1      41.237  30.345  34.022  1.00  0.00    -0.248 NA
ATOM     57  C   UNL A   1      41.698  30.895  36.244  1.00  0.00     0.031 C 
ATOM     58  C   UNL A   1      43.483  27.317  31.679  1.00  0.00     0.029 A 
ATOM     59  C   UNL A   1      42.789  28.246  32.437  1.00  0.00     0.049 A 
ATOM     60  H   UNL A   1      41.091  29.387  31.917  1.00  0.00     0.167 HD
ATOM     61  C   UNL A   1      42.327  29.603  34.458  1.00  0.00     0.074 A 
ATOM     62  C   UNL A   1      42.589  30.008  35.824  1.00  0.00     0.031 C 
ATOM     63  C   UNL A   1      43.047  28.671  33.790  1.00  0.00     0.037 A 
BRANCH  50  64
ATOM     64  C   UNL A   1      40.972  27.484  28.099  1.00  0.00     0.057 A 
ATOM     65  C   UNL A   1      40.308  26.258  27.956  1.00  0.00     0.134 A 
ATOM     66  C   UNL A   1      41.721  27.942  27.008  1.00  0.00     0.134 A 
ATOM     67  F   UNL A   1      39.582  25.755  28.966  1.00  0.00    -0.206 F 
ATOM     68  C   UNL A   1      40.404  25.509  26.782  1.00  0.00     0.040 A 
ATOM     69  C   UNL A   1      41.800  27.217  25.818  1.00  0.00     0.040 A 
ATOM     70  F   UNL A   1      42.376  29.112  27.074  1.00  0.00    -0.206 F 
ATOM     71  C   UNL A   1      41.143  25.993  25.705  1.00  0.00     0.006 A 
ENDBRANCH  50  64
BRANCH  51  72
ATOM     72  C   UNL A   1      39.574  32.897  36.373  1.00  0.00     0.057 A 
ATOM     73  C   UNL A   1      40.296  34.067  36.640  1.00  0.00     0.134 A 
ATOM     74  C   UNL A   1      38.667  32.464  37.348  1.00  0.00     0.134 A 
ATOM     75  F   UNL A   1      41.194  34.523  35.754  1.00  0.00    -0.206 F 
ATOM     76  C   UNL A   1      40.147  34.761  37.842  1.00  0.00     0.040 A 
ATOM     77  C   UNL A   1      38.487  33.165  38.542  1.00  0.00     0.040 A 
ATOM     78  F   UNL A   1      37.938  31.356  37.152  1.00  0.00    -0.206 F 
ATOM     79  C   UNL A   1      39.237  34.311  38.796  1.00  0.00     0.006 A 
ENDBRANCH  51  72
BRANCH  63  80
ATOM     80  C   UNL A   1      44.218  28.058  34.503  1.00  0.00     0.057 A 
ATOM     81  C   UNL A   1      45.491  28.643  34.481  1.00  0.00     0.134 A 
ATOM     82  C   UNL A   1      44.056  26.891  35.260  1.00  0.00     0.134 A 
ATOM     83  F   UNL A   1      45.716  29.754  33.763  1.00  0.00    -0.206 F 
ATOM     84  C   UNL A   1      46.565  28.077  35.169  1.00  0.00     0.040 A 
ATOM     85  C   UNL A   1      45.114  26.333  35.978  1.00  0.00     0.040 A 
ATOM     86  F   UNL A   1      42.861  26.286  35.332  1.00  0.00    -0.206 F 
ATOM     87  C   UNL A   1      46.375  26.924  35.929  1.00  0.00     0.006 A 
ENDBRANCH  63  80
ENDBRANCH  37  38
ENDBRANCH  29  32
ENDBRANCH  27  28
ENDBRANCH  26  27
ENDBRANCH  25  26
ENDBRANCH   1  25
TORSDOF 15
ENDMDL
