MODEL 1
REMARK VINA RESULT:     -11.5      0.000      0.000
REMARK SMILES COc1cc([C@H]2CC(c3ccc(S(C)(=O)=O)cc3)=NN2c2ccc(C(=O)NCCCCCCNC(=O)c3ccc(-c4c5nc(c(-c6c(F)cccc6F)c6ccc([nH]6)c(-c6c(F)cccc6F)c6nc(c(-c7c(F)cccc7F)c7ccc4[nH]7)C=C6)C=C5)cc3)cc2)cc(OC)c1OC
REMARK SMILES IDX 30 1 29 2 28 3 27 4 25 5 26 6 24 8 21 9 22 10 92 11 23 12
REMARK SMILES IDX 91 13 20 14 6 15 7 16 8 17 19 18 5 19 3 20 4 21 97 22 94 23
REMARK SMILES IDX 93 24 2 25 1 26 98 27 99 28 95 29 96 30 9 31 10 32 18 33
REMARK SMILES IDX 11 34 17 35 12 36 13 37 14 38 15 39 16 40 31 41 32 42 33 43
REMARK SMILES IDX 34 44 35 45 36 47 37 48 38 49 90 50 39 51 89 52 40 53 41 54
REMARK SMILES IDX 42 55 83 56 43 57 88 58 82 59 84 60 44 61 87 62 81 63 80 64
REMARK SMILES IDX 45 66 71 67 54 68 70 69 55 70 58 71 69 72 85 73 56 74 57 75
REMARK SMILES IDX 68 77 86 78 59 79 46 80 47 81 52 82 48 83 49 84 51 85 53 86
REMARK SMILES IDX 50 87 72 88 73 89 78 90 74 91 75 92 77 93 79 94 76 95 60 96
REMARK SMILES IDX 61 97 66 98 62 99 63 100 65 101 67 102 64 103
REMARK H PARENT 27 7 34 46 84 65 58 76
REMARK Flexibility Score: inf
ROOT
ATOM      1  C   UNL A   1      39.115  28.669  27.572  1.00  0.00     0.002 C 
ENDROOT
BRANCH   1   2
ATOM      2  C   UNL A   1      38.235  29.663  28.342  1.00  0.00     0.021 C 
BRANCH   2   3
ATOM      3  C   UNL A   1      36.852  29.101  28.680  1.00  0.00     0.116 C 
BRANCH   3   4
ATOM      4  N   UNL A   1      35.862  30.155  28.599  1.00  0.00    -0.352 N 
ATOM      5  C   UNL A   1      34.652  30.236  27.962  1.00  0.00     0.251 C 
ATOM      6  O   UNL A   1      34.030  31.294  28.057  1.00  0.00    -0.269 OA
ATOM      7  H   UNL A   1      36.104  30.969  29.097  1.00  0.00     0.163 HD
BRANCH   5   8
ATOM      8  C   UNL A   1      34.041  29.096  27.227  1.00  0.00     0.039 A 
ATOM      9  C   UNL A   1      32.747  26.900  26.010  1.00  0.00     0.060 A 
ATOM     10  C   UNL A   1      32.089  27.677  26.968  1.00  0.00     0.029 A 
ATOM     11  C   UNL A   1      34.037  27.267  25.627  1.00  0.00     0.029 A 
ATOM     12  C   UNL A   1      32.732  28.750  27.585  1.00  0.00     0.016 A 
ATOM     13  C   UNL A   1      34.663  28.380  26.199  1.00  0.00     0.016 A 
BRANCH   9  14
ATOM     14  N   UNL A   1      32.098  25.822  25.440  1.00  0.00    -0.257 N 
ATOM     15  C   UNL A   1      30.680  25.778  25.083  1.00  0.00     0.144 C 
ATOM     16  C   UNL A   1      30.513  24.322  24.604  1.00  0.00     0.091 C 
ATOM     17  C   UNL A   1      31.886  23.783  24.910  1.00  0.00     0.071 C 
ATOM     18  N   UNL A   1      32.741  24.635  25.374  1.00  0.00    -0.176 NA
BRANCH  15  19
ATOM     19  C   UNL A   1      30.358  26.847  24.048  1.00  0.00    -0.015 A 
ATOM     20  C   UNL A   1      28.725  28.223  22.850  1.00  0.00     0.164 A 
ATOM     21  C   UNL A   1      29.032  27.149  23.710  1.00  0.00     0.056 A 
ATOM     22  C   UNL A   1      29.738  29.045  22.322  1.00  0.00     0.203 A 
ATOM     23  C   UNL A   1      31.073  28.740  22.658  1.00  0.00     0.164 A 
ATOM     24  C   UNL A   1      31.363  27.651  23.500  1.00  0.00     0.056 A 
BRANCH  20  25
ATOM     25  O   UNL A   1      27.394  28.504  22.661  1.00  0.00    -0.493 OA
ATOM     26  C   UNL A   1      26.597  28.061  23.760  1.00  0.00     0.278 C 
ENDBRANCH  20  25
BRANCH  22  27
ATOM     27  O   UNL A   1      29.561  30.128  21.506  1.00  0.00    -0.490 OA
ATOM     28  C   UNL A   1      29.095  31.365  22.012  1.00  0.00     0.278 C 
ENDBRANCH  22  27
BRANCH  23  29
ATOM     29  O   UNL A   1      32.218  29.378  22.247  1.00  0.00    -0.493 OA
ATOM     30  C   UNL A   1      33.462  28.725  22.448  1.00  0.00     0.278 C 
ENDBRANCH  23  29
ENDBRANCH  15  19
BRANCH  17  31
ATOM     31  C   UNL A   1      32.234  22.367  24.744  1.00  0.00    -0.002 A 
ATOM     32  C   UNL A   1      32.902  21.726  25.796  1.00  0.00     0.011 A 
ATOM     33  C   UNL A   1      31.986  21.700  23.543  1.00  0.00     0.011 A 
ATOM     34  C   UNL A   1      33.313  20.403  25.656  1.00  0.00     0.021 A 
ATOM     35  C   UNL A   1      32.422  20.380  23.391  1.00  0.00     0.021 A 
ATOM     36  C   UNL A   1      33.086  19.741  24.446  1.00  0.00     0.067 A 
BRANCH  36  37
ATOM     37  S   UNL A   1      33.640  18.060  24.265  1.00  0.00     0.175 S 
ATOM     38  C   UNL A   1      32.798  17.176  25.552  1.00  0.00     0.163 C 
ATOM     39  O   UNL A   1      33.137  17.596  22.984  1.00  0.00    -0.224 OA
ATOM     40  O   UNL A   1      35.056  18.030  24.566  1.00  0.00    -0.224 OA
ENDBRANCH  36  37
ENDBRANCH  17  31
ENDBRANCH   9  14
ENDBRANCH   5   8
ENDBRANCH   3   4
ENDBRANCH   2   3
ENDBRANCH   1   2
BRANCH   1  41
ATOM     41  C   UNL A   1      40.013  27.792  28.452  1.00  0.00     0.002 C 
BRANCH  41  42
ATOM     42  C   UNL A   1      39.638  26.309  28.483  1.00  0.00     0.021 C 
BRANCH  42  43
ATOM     43  C   UNL A   1      39.761  25.604  27.136  1.00  0.00     0.116 C 
BRANCH  43  44
ATOM     44  N   UNL A   1      40.372  24.291  27.270  1.00  0.00    -0.352 N 
ATOM     45  C   UNL A   1      41.682  23.926  27.096  1.00  0.00     0.251 C 
ATOM     46  H   UNL A   1      39.759  23.563  27.521  1.00  0.00     0.163 HD
ATOM     47  O   UNL A   1      41.994  22.741  27.031  1.00  0.00    -0.269 OA
BRANCH  45  48
ATOM     48  C   UNL A   1      42.723  24.967  26.975  1.00  0.00     0.039 A 
ATOM     49  C   UNL A   1      43.084  25.422  25.704  1.00  0.00     0.014 A 
ATOM     50  C   UNL A   1      43.352  25.479  28.114  1.00  0.00     0.014 A 
ATOM     51  C   UNL A   1      44.044  26.427  25.577  1.00  0.00     0.010 A 
ATOM     52  C   UNL A   1      44.265  26.523  27.990  1.00  0.00     0.010 A 
ATOM     53  C   UNL A   1      44.624  27.001  26.720  1.00  0.00    -0.014 A 
BRANCH  53  54
ATOM     54  C   UNL A   1      45.620  28.095  26.613  1.00  0.00     0.031 A 
ATOM     55  C   UNL A   1      47.081  27.768  26.484  1.00  0.00     0.074 A 
ATOM     56  C   UNL A   1      45.218  29.376  26.703  1.00  0.00     0.049 A 
ATOM     57  N   UNL A   1      48.111  28.576  26.474  1.00  0.00    -0.248 NA
ATOM     58  C   UNL A   1      47.432  26.343  26.380  1.00  0.00     0.031 C 
ATOM     59  C   UNL A   1      43.832  29.820  26.870  1.00  0.00     0.029 A 
ATOM     60  N   UNL A   1      45.941  30.543  26.684  1.00  0.00    -0.354 N 
ATOM     61  C   UNL A   1      49.230  27.756  26.384  1.00  0.00     0.074 A 
ATOM     62  C   UNL A   1      48.756  26.390  26.385  1.00  0.00     0.031 C 
ATOM     63  C   UNL A   1      43.805  31.162  26.922  1.00  0.00     0.029 A 
ATOM     64  C   UNL A   1      45.170  31.670  26.828  1.00  0.00     0.049 A 
ATOM     65  H   UNL A   1      46.919  30.568  26.576  1.00  0.00     0.167 HD
ATOM     66  C   UNL A   1      50.533  28.113  26.288  1.00  0.00     0.037 A 
ATOM     67  C   UNL A   1      45.526  32.967  26.886  1.00  0.00     0.037 A 
ATOM     68  C   UNL A   1      50.999  29.474  26.253  1.00  0.00     0.049 A 
ATOM     69  C   UNL A   1      46.978  33.338  26.771  1.00  0.00     0.074 A 
ATOM     70  C   UNL A   1      52.293  29.938  26.097  1.00  0.00     0.029 A 
ATOM     71  N   UNL A   1      50.184  30.589  26.373  1.00  0.00    -0.354 N 
ATOM     72  N   UNL A   1      48.020  32.556  26.631  1.00  0.00    -0.248 NA
ATOM     73  C   UNL A   1      47.302  34.770  26.816  1.00  0.00     0.031 C 
ATOM     74  C   UNL A   1      52.265  31.335  26.157  1.00  0.00     0.029 A 
ATOM     75  C   UNL A   1      50.950  31.741  26.312  1.00  0.00     0.049 A 
ATOM     76  H   UNL A   1      49.206  30.565  26.487  1.00  0.00     0.167 HD
ATOM     77  C   UNL A   1      49.120  33.400  26.543  1.00  0.00     0.074 A 
ATOM     78  C   UNL A   1      48.616  34.755  26.637  1.00  0.00     0.031 C 
ATOM     79  C   UNL A   1      50.429  33.082  26.397  1.00  0.00     0.037 A 
BRANCH  66  80
ATOM     80  C   UNL A   1      51.546  27.009  26.210  1.00  0.00     0.057 A 
ATOM     81  C   UNL A   1      51.866  26.387  24.996  1.00  0.00     0.134 A 
ATOM     82  C   UNL A   1      52.232  26.584  27.355  1.00  0.00     0.134 A 
ATOM     83  F   UNL A   1      51.235  26.738  23.865  1.00  0.00    -0.206 F 
ATOM     84  C   UNL A   1      52.810  25.361  24.928  1.00  0.00     0.040 A 
ATOM     85  C   UNL A   1      53.197  25.578  27.296  1.00  0.00     0.040 A 
ATOM     86  F   UNL A   1      51.978  27.143  28.547  1.00  0.00    -0.206 F 
ATOM     87  C   UNL A   1      53.484  24.959  26.080  1.00  0.00     0.006 A 
ENDBRANCH  66  80
BRANCH  67  88
ATOM     88  C   UNL A   1      44.486  34.015  27.036  1.00  0.00     0.057 A 
ATOM     89  C   UNL A   1      44.143  34.510  28.298  1.00  0.00     0.134 A 
ATOM     90  C   UNL A   1      43.814  34.545  25.928  1.00  0.00     0.134 A 
ATOM     91  F   UNL A   1      44.740  34.028  29.398  1.00  0.00    -0.206 F 
ATOM     92  C   UNL A   1      43.155  35.484  28.458  1.00  0.00     0.040 A 
ATOM     93  C   UNL A   1      42.840  35.534  26.070  1.00  0.00     0.040 A 
ATOM     94  F   UNL A   1      44.104  34.115  24.691  1.00  0.00    -0.206 F 
ATOM     95  C   UNL A   1      42.504  36.002  27.340  1.00  0.00     0.006 A 
ENDBRANCH  67  88
BRANCH  79  96
ATOM     96  C   UNL A   1      51.403  34.217  26.294  1.00  0.00     0.057 A 
ATOM     97  C   UNL A   1      51.783  34.753  25.059  1.00  0.00     0.134 A 
ATOM     98  C   UNL A   1      51.932  34.807  27.450  1.00  0.00     0.134 A 
ATOM     99  F   UNL A   1      51.321  34.223  23.916  1.00  0.00    -0.206 F 
ATOM    100  C   UNL A   1      52.670  35.828  24.974  1.00  0.00     0.040 A 
ATOM    101  C   UNL A   1      52.802  35.895  27.378  1.00  0.00     0.040 A 
ATOM    102  F   UNL A   1      51.602  34.343  28.664  1.00  0.00    -0.206 F 
ATOM    103  C   UNL A   1      53.176  36.406  26.137  1.00  0.00     0.006 A 
ENDBRANCH  79  96
ENDBRANCH  53  54
ENDBRANCH  45  48
ENDBRANCH  43  44
ENDBRANCH  42  43
ENDBRANCH  41  42
ENDBRANCH   1  41
TORSDOF 20
ENDMDL
MODEL 2
REMARK VINA RESULT:     -11.5      0.413      5.609
REMARK SMILES COc1cc([C@H]2CC(c3ccc(S(C)(=O)=O)cc3)=NN2c2ccc(C(=O)NCCCCCCNC(=O)c3ccc(-c4c5nc(c(-c6c(F)cccc6F)c6ccc([nH]6)c(-c6c(F)cccc6F)c6nc(c(-c7c(F)cccc7F)c7ccc4[nH]7)C=C6)C=C5)cc3)cc2)cc(OC)c1OC
REMARK SMILES IDX 30 1 29 2 28 3 27 4 25 5 26 6 24 8 21 9 22 10 92 11 23 12
REMARK SMILES IDX 91 13 20 14 6 15 7 16 8 17 19 18 5 19 3 20 4 21 97 22 94 23
REMARK SMILES IDX 93 24 2 25 1 26 98 27 99 28 95 29 96 30 9 31 10 32 18 33
REMARK SMILES IDX 11 34 17 35 12 36 13 37 14 38 15 39 16 40 31 41 32 42 33 43
REMARK SMILES IDX 34 44 35 45 36 47 37 48 38 49 90 50 39 51 89 52 40 53 41 54
REMARK SMILES IDX 42 55 83 56 43 57 88 58 82 59 84 60 44 61 87 62 81 63 80 64
REMARK SMILES IDX 45 66 71 67 54 68 70 69 55 70 58 71 69 72 85 73 56 74 57 75
REMARK SMILES IDX 68 77 86 78 59 79 46 80 47 81 52 82 48 83 49 84 51 85 53 86
REMARK SMILES IDX 50 87 72 88 73 89 78 90 74 91 75 92 77 93 79 94 76 95 60 96
REMARK SMILES IDX 61 97 66 98 62 99 63 100 65 101 67 102 64 103
REMARK H PARENT 27 7 34 46 84 65 58 76
REMARK Flexibility Score: inf
ROOT
ATOM      1  C   UNL A   1      39.440  28.482  27.582  1.00  0.00     0.002 C 
ENDROOT
BRANCH   1   2
ATOM      2  C   UNL A   1      38.433  29.536  28.062  1.00  0.00     0.021 C 
BRANCH   2   3
ATOM      3  C   UNL A   1      37.067  28.944  28.413  1.00  0.00     0.116 C 
BRANCH   3   4
ATOM      4  N   UNL A   1      36.062  29.987  28.400  1.00  0.00    -0.352 N 
ATOM      5  C   UNL A   1      34.814  30.059  27.839  1.00  0.00     0.251 C 
ATOM      6  O   UNL A   1      34.189  31.110  27.979  1.00  0.00    -0.269 OA
ATOM      7  H   UNL A   1      36.326  30.801  28.888  1.00  0.00     0.163 HD
BRANCH   5   8
ATOM      8  C   UNL A   1      34.171  28.917  27.135  1.00  0.00     0.039 A 
ATOM      9  C   UNL A   1      32.826  26.716  25.985  1.00  0.00     0.060 A 
ATOM     10  C   UNL A   1      32.215  27.489  26.977  1.00  0.00     0.029 A 
ATOM     11  C   UNL A   1      34.092  27.090  25.535  1.00  0.00     0.029 A 
ATOM     12  C   UNL A   1      32.885  28.564  27.561  1.00  0.00     0.016 A 
ATOM     13  C   UNL A   1      34.742  28.206  26.075  1.00  0.00     0.016 A 
BRANCH   9  14
ATOM     14  N   UNL A   1      32.153  25.636  25.448  1.00  0.00    -0.257 N 
ATOM     15  C   UNL A   1      30.718  25.584  25.171  1.00  0.00     0.144 C 
ATOM     16  C   UNL A   1      30.534  24.128  24.695  1.00  0.00     0.091 C 
ATOM     17  C   UNL A   1      31.925  23.597  24.923  1.00  0.00     0.071 C 
ATOM     18  N   UNL A   1      32.799  24.454  25.341  1.00  0.00    -0.176 NA
BRANCH  15  19
ATOM     19  C   UNL A   1      30.331  26.654  24.159  1.00  0.00    -0.015 A 
ATOM     20  C   UNL A   1      28.621  28.000  23.038  1.00  0.00     0.164 A 
ATOM     21  C   UNL A   1      28.986  26.926  23.874  1.00  0.00     0.056 A 
ATOM     22  C   UNL A   1      29.593  28.853  22.480  1.00  0.00     0.203 A 
ATOM     23  C   UNL A   1      30.946  28.577  22.764  1.00  0.00     0.164 A 
ATOM     24  C   UNL A   1      31.295  27.488  23.583  1.00  0.00     0.056 A 
BRANCH  20  25
ATOM     25  O   UNL A   1      27.278  28.249  22.901  1.00  0.00    -0.493 OA
ATOM     26  C   UNL A   1      26.903  29.488  23.504  1.00  0.00     0.278 C 
ENDBRANCH  20  25
BRANCH  22  27
ATOM     27  O   UNL A   1      29.359  29.938  21.683  1.00  0.00    -0.490 OA
ATOM     28  C   UNL A   1      29.421  31.256  22.195  1.00  0.00     0.278 C 
ENDBRANCH  22  27
BRANCH  23  29
ATOM     29  O   UNL A   1      32.059  29.248  22.317  1.00  0.00    -0.493 OA
ATOM     30  C   UNL A   1      33.314  28.587  22.380  1.00  0.00     0.278 C 
ENDBRANCH  23  29
ENDBRANCH  15  19
BRANCH  17  31
ATOM     31  C   UNL A   1      32.273  22.184  24.731  1.00  0.00    -0.002 A 
ATOM     32  C   UNL A   1      32.835  21.494  25.813  1.00  0.00     0.011 A 
ATOM     33  C   UNL A   1      32.129  21.569  23.487  1.00  0.00     0.011 A 
ATOM     34  C   UNL A   1      33.245  20.171  25.657  1.00  0.00     0.021 A 
ATOM     35  C   UNL A   1      32.564  20.250  23.322  1.00  0.00     0.021 A 
ATOM     36  C   UNL A   1      33.122  19.561  24.406  1.00  0.00     0.067 A 
BRANCH  36  37
ATOM     37  S   UNL A   1      33.674  17.881  24.208  1.00  0.00     0.175 S 
ATOM     38  C   UNL A   1      32.913  17.005  25.550  1.00  0.00     0.163 C 
ATOM     39  O   UNL A   1      33.098  17.402  22.963  1.00  0.00    -0.224 OA
ATOM     40  O   UNL A   1      35.105  17.860  24.425  1.00  0.00    -0.224 OA
ENDBRANCH  36  37
ENDBRANCH  17  31
ENDBRANCH   9  14
ENDBRANCH   5   8
ENDBRANCH   3   4
ENDBRANCH   2   3
ENDBRANCH   1   2
BRANCH   1  41
ATOM     41  C   UNL A   1      39.849  27.455  28.645  1.00  0.00     0.002 C 
BRANCH  41  42
ATOM     42  C   UNL A   1      39.437  26.013  28.342  1.00  0.00     0.021 C 
BRANCH  42  43
ATOM     43  C   UNL A   1      39.679  25.583  26.899  1.00  0.00     0.116 C 
BRANCH  43  44
ATOM     44  N   UNL A   1      40.301  24.270  26.826  1.00  0.00    -0.352 N 
ATOM     45  C   UNL A   1      41.609  23.946  26.567  1.00  0.00     0.251 C 
ATOM     46  H   UNL A   1      39.700  23.507  26.987  1.00  0.00     0.163 HD
ATOM     47  O   UNL A   1      41.925  22.786  26.324  1.00  0.00    -0.269 OA
BRANCH  45  48
ATOM     48  C   UNL A   1      42.640  25.004  26.568  1.00  0.00     0.039 A 
ATOM     49  C   UNL A   1      43.125  25.477  27.790  1.00  0.00     0.014 A 
ATOM     50  C   UNL A   1      43.111  25.539  25.365  1.00  0.00     0.014 A 
ATOM     51  C   UNL A   1      44.121  26.455  27.806  1.00  0.00     0.010 A 
ATOM     52  C   UNL A   1      44.146  26.470  25.382  1.00  0.00     0.010 A 
ATOM     53  C   UNL A   1      44.655  26.941  26.601  1.00  0.00    -0.014 A 
BRANCH  53  54
ATOM     54  C   UNL A   1      45.739  27.954  26.592  1.00  0.00     0.031 A 
ATOM     55  C   UNL A   1      45.400  29.414  26.704  1.00  0.00     0.074 A 
ATOM     56  C   UNL A   1      47.015  27.567  26.411  1.00  0.00     0.049 A 
ATOM     57  N   UNL A   1      46.190  30.455  26.619  1.00  0.00    -0.248 NA
ATOM     58  C   UNL A   1      43.983  29.750  26.911  1.00  0.00     0.031 C 
ATOM     59  C   UNL A   1      47.465  26.182  26.249  1.00  0.00     0.029 A 
ATOM     60  N   UNL A   1      48.168  28.305  26.316  1.00  0.00    -0.354 N 
ATOM     61  C   UNL A   1      45.363  31.564  26.742  1.00  0.00     0.074 A 
ATOM     62  C   UNL A   1      44.009  31.073  26.864  1.00  0.00     0.031 C 
ATOM     63  C   UNL A   1      48.799  26.171  26.091  1.00  0.00     0.029 A 
ATOM     64  C   UNL A   1      49.292  27.545  26.105  1.00  0.00     0.049 A 
ATOM     65  H   UNL A   1      48.186  29.286  26.393  1.00  0.00     0.167 HD
ATOM     66  C   UNL A   1      45.707  32.875  26.771  1.00  0.00     0.037 A 
ATOM     67  C   UNL A   1      50.574  27.916  25.933  1.00  0.00     0.037 A 
ATOM     68  C   UNL A   1      47.058  33.360  26.684  1.00  0.00     0.049 A 
ATOM     69  C   UNL A   1      50.930  29.376  25.976  1.00  0.00     0.074 A 
ATOM     70  C   UNL A   1      47.514  34.663  26.764  1.00  0.00     0.029 A 
ATOM     71  N   UNL A   1      48.173  32.556  26.498  1.00  0.00    -0.354 N 
ATOM     72  N   UNL A   1      50.146  30.411  26.147  1.00  0.00    -0.248 NA
ATOM     73  C   UNL A   1      52.349  29.717  25.806  1.00  0.00     0.031 C 
ATOM     74  C   UNL A   1      48.902  34.652  26.593  1.00  0.00     0.029 A 
ATOM     75  C   UNL A   1      49.314  33.338  26.445  1.00  0.00     0.049 A 
ATOM     76  H   UNL A   1      48.155  31.575  26.416  1.00  0.00     0.167 HD
ATOM     77  C   UNL A   1      50.978  31.524  26.135  1.00  0.00     0.074 A 
ATOM     78  C   UNL A   1      52.328  31.035  25.948  1.00  0.00     0.031 C 
ATOM     79  C   UNL A   1      50.652  32.832  26.268  1.00  0.00     0.037 A 
BRANCH  66  80
ATOM     80  C   UNL A   1      44.597  33.875  26.908  1.00  0.00     0.057 A 
ATOM     81  C   UNL A   1      43.939  34.404  25.790  1.00  0.00     0.134 A 
ATOM     82  C   UNL A   1      44.160  34.292  28.172  1.00  0.00     0.134 A 
ATOM     83  F   UNL A   1      44.318  34.056  24.551  1.00  0.00    -0.206 F 
ATOM     84  C   UNL A   1      42.905  35.333  25.923  1.00  0.00     0.040 A 
ATOM     85  C   UNL A   1      43.111  35.200  28.319  1.00  0.00     0.040 A 
ATOM     86  F   UNL A   1      44.743  33.820  29.284  1.00  0.00    -0.206 F 
ATOM     87  C   UNL A   1      42.484  35.728  27.191  1.00  0.00     0.006 A 
ENDBRANCH  66  80
BRANCH  67  88
ATOM     88  C   UNL A   1      51.623  26.886  25.729  1.00  0.00     0.057 A 
ATOM     89  C   UNL A   1      52.022  26.511  24.442  1.00  0.00     0.134 A 
ATOM     90  C   UNL A   1      52.249  26.254  26.810  1.00  0.00     0.134 A 
ATOM     91  F   UNL A   1      51.444  27.069  23.368  1.00  0.00    -0.206 F 
ATOM     92  C   UNL A   1      52.994  25.532  24.234  1.00  0.00     0.040 A 
ATOM     93  C   UNL A   1      53.239  25.290  26.618  1.00  0.00     0.040 A 
ATOM     94  F   UNL A   1      51.915  26.576  28.069  1.00  0.00    -0.206 F 
ATOM     95  C   UNL A   1      53.610  24.922  25.325  1.00  0.00     0.006 A 
ENDBRANCH  67  88
BRANCH  79  96
ATOM     96  C   UNL A   1      51.776  33.824  26.251  1.00  0.00     0.057 A 
ATOM     97  C   UNL A   1      52.208  34.429  25.065  1.00  0.00     0.134 A 
ATOM     98  C   UNL A   1      52.403  34.209  27.443  1.00  0.00     0.134 A 
ATOM     99  F   UNL A   1      51.657  34.092  23.889  1.00  0.00    -0.206 F 
ATOM    100  C   UNL A   1      53.238  35.372  25.062  1.00  0.00     0.040 A 
ATOM    101  C   UNL A   1      53.417  35.167  27.456  1.00  0.00     0.040 A 
ATOM    102  F   UNL A   1      52.029  33.672  28.614  1.00  0.00    -0.206 F 
ATOM    103  C   UNL A   1      53.840  35.748  26.262  1.00  0.00     0.006 A 
ENDBRANCH  79  96
ENDBRANCH  53  54
ENDBRANCH  45  48
ENDBRANCH  43  44
ENDBRANCH  42  43
ENDBRANCH  41  42
ENDBRANCH   1  41
TORSDOF 20
ENDMDL
MODEL 3
REMARK VINA RESULT:     -10.7      7.027     14.434
REMARK SMILES COc1cc([C@H]2CC(c3ccc(S(C)(=O)=O)cc3)=NN2c2ccc(C(=O)NCCCCCCNC(=O)c3ccc(-c4c5nc(c(-c6c(F)cccc6F)c6ccc([nH]6)c(-c6c(F)cccc6F)c6nc(c(-c7c(F)cccc7F)c7ccc4[nH]7)C=C6)C=C5)cc3)cc2)cc(OC)c1OC
REMARK SMILES IDX 30 1 29 2 28 3 27 4 25 5 26 6 24 8 21 9 22 10 92 11 23 12
REMARK SMILES IDX 91 13 20 14 6 15 7 16 8 17 19 18 5 19 3 20 4 21 97 22 94 23
REMARK SMILES IDX 93 24 2 25 1 26 98 27 99 28 95 29 96 30 9 31 10 32 18 33
REMARK SMILES IDX 11 34 17 35 12 36 13 37 14 38 15 39 16 40 31 41 32 42 33 43
REMARK SMILES IDX 34 44 35 45 36 47 37 48 38 49 90 50 39 51 89 52 40 53 41 54
REMARK SMILES IDX 42 55 83 56 43 57 88 58 82 59 84 60 44 61 87 62 81 63 80 64
REMARK SMILES IDX 45 66 71 67 54 68 70 69 55 70 58 71 69 72 85 73 56 74 57 75
REMARK SMILES IDX 68 77 86 78 59 79 46 80 47 81 52 82 48 83 49 84 51 85 53 86
REMARK SMILES IDX 50 87 72 88 73 89 78 90 74 91 75 92 77 93 79 94 76 95 60 96
REMARK SMILES IDX 61 97 66 98 62 99 63 100 65 101 67 102 64 103
REMARK H PARENT 27 7 34 46 84 65 58 76
REMARK Flexibility Score: inf
ROOT
ATOM      1  C   UNL A   1      43.831  33.860  38.292  1.00  0.00     0.002 C 
ENDROOT
BRANCH   1   2
ATOM      2  C   UNL A   1      44.786  34.841  37.599  1.00  0.00     0.021 C 
BRANCH   2   3
ATOM      3  C   UNL A   1      44.789  34.699  36.075  1.00  0.00     0.116 C 
BRANCH   3   4
ATOM      4  N   UNL A   1      44.403  35.955  35.465  1.00  0.00    -0.352 N 
ATOM      5  C   UNL A   1      44.123  36.304  34.170  1.00  0.00     0.251 C 
ATOM      6  O   UNL A   1      43.841  37.482  33.948  1.00  0.00    -0.269 OA
ATOM      7  H   UNL A   1      44.327  36.702  36.104  1.00  0.00     0.163 HD
BRANCH   5   8
ATOM      8  C   UNL A   1      44.084  35.322  33.053  1.00  0.00     0.039 A 
ATOM      9  C   UNL A   1      44.216  33.530  30.876  1.00  0.00     0.060 A 
ATOM     10  C   UNL A   1      45.380  33.963  31.517  1.00  0.00     0.029 A 
ATOM     11  C   UNL A   1      42.984  33.958  31.370  1.00  0.00     0.029 A 
ATOM     12  C   UNL A   1      45.319  34.863  32.580  1.00  0.00     0.016 A 
ATOM     13  C   UNL A   1      42.917  34.813  32.476  1.00  0.00     0.016 A 
BRANCH   9  14
ATOM     14  N   UNL A   1      44.307  32.663  29.803  1.00  0.00    -0.257 N 
ATOM     15  C   UNL A   1      43.698  32.872  28.490  1.00  0.00     0.144 C 
ATOM     16  C   UNL A   1      44.041  31.556  27.762  1.00  0.00     0.091 C 
ATOM     17  C   UNL A   1      44.691  30.793  28.887  1.00  0.00     0.071 C 
ATOM     18  N   UNL A   1      44.823  31.430  30.004  1.00  0.00    -0.176 NA
BRANCH  15  19
ATOM     19  C   UNL A   1      44.245  34.137  27.844  1.00  0.00    -0.015 A 
ATOM     20  C   UNL A   1      43.938  36.451  27.105  1.00  0.00     0.164 A 
ATOM     21  C   UNL A   1      43.412  35.234  27.583  1.00  0.00     0.056 A 
ATOM     22  C   UNL A   1      45.320  36.616  26.898  1.00  0.00     0.203 A 
ATOM     23  C   UNL A   1      46.158  35.512  27.157  1.00  0.00     0.164 A 
ATOM     24  C   UNL A   1      45.616  34.298  27.613  1.00  0.00     0.056 A 
BRANCH  20  25
ATOM     25  O   UNL A   1      43.058  37.497  26.977  1.00  0.00    -0.493 OA
ATOM     26  C   UNL A   1      42.126  37.542  28.058  1.00  0.00     0.278 C 
ENDBRANCH  20  25
BRANCH  22  27
ATOM     27  O   UNL A   1      45.946  37.753  26.468  1.00  0.00    -0.490 OA
ATOM     28  C   UNL A   1      46.046  38.898  27.294  1.00  0.00     0.278 C 
ENDBRANCH  22  27
BRANCH  23  29
ATOM     29  O   UNL A   1      47.522  35.430  27.006  1.00  0.00    -0.493 OA
ATOM     30  C   UNL A   1      48.037  34.565  26.004  1.00  0.00     0.278 C 
ENDBRANCH  23  29
ENDBRANCH  15  19
BRANCH  17  31
ATOM     31  C   UNL A   1      45.113  29.394  28.752  1.00  0.00    -0.002 A 
ATOM     32  C   UNL A   1      44.603  28.655  27.676  1.00  0.00     0.011 A 
ATOM     33  C   UNL A   1      45.927  28.791  29.712  1.00  0.00     0.011 A 
ATOM     34  C   UNL A   1      44.920  27.305  27.547  1.00  0.00     0.021 A 
ATOM     35  C   UNL A   1      46.225  27.429  29.598  1.00  0.00     0.021 A 
ATOM     36  C   UNL A   1      45.717  26.694  28.519  1.00  0.00     0.067 A 
BRANCH  36  37
ATOM     37  S   UNL A   1      46.094  24.962  28.362  1.00  0.00     0.175 S 
ATOM     38  C   UNL A   1      45.399  24.499  26.797  1.00  0.00     0.163 C 
ATOM     39  O   UNL A   1      47.540  24.862  28.270  1.00  0.00    -0.224 OA
ATOM     40  O   UNL A   1      45.361  24.258  29.393  1.00  0.00    -0.224 OA
ENDBRANCH  36  37
ENDBRANCH  17  31
ENDBRANCH   9  14
ENDBRANCH   5   8
ENDBRANCH   3   4
ENDBRANCH   2   3
ENDBRANCH   1   2
BRANCH   1  41
ATOM     41  C   UNL A   1      42.684  34.520  39.065  1.00  0.00     0.002 C 
BRANCH  41  42
ATOM     42  C   UNL A   1      43.033  35.859  39.720  1.00  0.00     0.021 C 
BRANCH  42  43
ATOM     43  C   UNL A   1      42.491  37.077  38.980  1.00  0.00     0.116 C 
BRANCH  43  44
ATOM     44  N   UNL A   1      41.117  37.369  39.359  1.00  0.00    -0.352 N 
ATOM     45  C   UNL A   1      39.955  37.054  38.702  1.00  0.00     0.251 C 
ATOM     46  H   UNL A   1      41.006  37.860  40.204  1.00  0.00     0.163 HD
ATOM     47  O   UNL A   1      38.892  37.564  39.041  1.00  0.00    -0.269 OA
BRANCH  45  48
ATOM     48  C   UNL A   1      39.987  36.105  37.571  1.00  0.00     0.039 A 
ATOM     49  C   UNL A   1      40.677  36.456  36.408  1.00  0.00     0.014 A 
ATOM     50  C   UNL A   1      39.320  34.878  37.654  1.00  0.00     0.014 A 
ATOM     51  C   UNL A   1      40.741  35.555  35.343  1.00  0.00     0.010 A 
ATOM     52  C   UNL A   1      39.436  33.957  36.616  1.00  0.00     0.010 A 
ATOM     53  C   UNL A   1      40.141  34.290  35.450  1.00  0.00    -0.014 A 
BRANCH  53  54
ATOM     54  C   UNL A   1      40.225  33.302  34.346  1.00  0.00     0.031 A 
ATOM     55  C   UNL A   1      39.195  33.312  33.252  1.00  0.00     0.074 A 
ATOM     56  C   UNL A   1      41.181  32.356  34.368  1.00  0.00     0.049 A 
ATOM     57  N   UNL A   1      39.038  32.476  32.257  1.00  0.00    -0.248 NA
ATOM     58  C   UNL A   1      38.192  34.387  33.299  1.00  0.00     0.031 C 
ATOM     59  C   UNL A   1      42.213  32.218  35.397  1.00  0.00     0.029 A 
ATOM     60  N   UNL A   1      41.431  31.319  33.505  1.00  0.00    -0.354 N 
ATOM     61  C   UNL A   1      37.910  32.913  31.574  1.00  0.00     0.074 A 
ATOM     62  C   UNL A   1      37.397  34.059  32.291  1.00  0.00     0.031 C 
ATOM     63  C   UNL A   1      42.995  31.167  35.097  1.00  0.00     0.029 A 
ATOM     64  C   UNL A   1      42.498  30.538  33.877  1.00  0.00     0.049 A 
ATOM     65  H   UNL A   1      40.897  31.151  32.695  1.00  0.00     0.167 HD
ATOM     66  C   UNL A   1      37.363  32.413  30.439  1.00  0.00     0.037 A 
ATOM     67  C   UNL A   1      43.012  29.435  33.303  1.00  0.00     0.037 A 
ATOM     68  C   UNL A   1      37.895  31.293  29.709  1.00  0.00     0.049 A 
ATOM     69  C   UNL A   1      42.392  28.904  32.040  1.00  0.00     0.074 A 
ATOM     70  C   UNL A   1      37.449  30.751  28.517  1.00  0.00     0.029 A 
ATOM     71  N   UNL A   1      38.994  30.546  30.103  1.00  0.00    -0.354 N 
ATOM     72  N   UNL A   1      41.359  29.359  31.375  1.00  0.00    -0.248 NA
ATOM     73  C   UNL A   1      43.012  27.711  31.448  1.00  0.00     0.031 C 
ATOM     74  C   UNL A   1      38.258  29.653  28.208  1.00  0.00     0.029 A 
ATOM     75  C   UNL A   1      39.231  29.536  29.187  1.00  0.00     0.049 A 
ATOM     76  H   UNL A   1      39.526  30.709  30.916  1.00  0.00     0.167 HD
ATOM     77  C   UNL A   1      41.221  28.528  30.271  1.00  0.00     0.074 A 
ATOM     78  C   UNL A   1      42.282  27.546  30.352  1.00  0.00     0.031 C 
ATOM     79  C   UNL A   1      40.299  28.573  29.279  1.00  0.00     0.037 A 
BRANCH  66  80
ATOM     80  C   UNL A   1      36.127  33.084  29.917  1.00  0.00     0.057 A 
ATOM     81  C   UNL A   1      34.870  32.866  30.497  1.00  0.00     0.134 A 
ATOM     82  C   UNL A   1      36.196  33.979  28.842  1.00  0.00     0.134 A 
ATOM     83  F   UNL A   1      34.732  32.010  31.521  1.00  0.00    -0.206 F 
ATOM     84  C   UNL A   1      33.722  33.494  30.010  1.00  0.00     0.040 A 
ATOM     85  C   UNL A   1      35.060  34.633  28.362  1.00  0.00     0.040 A 
ATOM     86  F   UNL A   1      37.369  34.237  28.246  1.00  0.00    -0.206 F 
ATOM     87  C   UNL A   1      33.817  34.386  28.943  1.00  0.00     0.006 A 
ENDBRANCH  66  80
BRANCH  67  88
ATOM     88  C   UNL A   1      44.195  28.769  33.903  1.00  0.00     0.057 A 
ATOM     89  C   UNL A   1      44.044  27.699  34.791  1.00  0.00     0.134 A 
ATOM     90  C   UNL A   1      45.499  29.184  33.605  1.00  0.00     0.134 A 
ATOM     91  F   UNL A   1      42.819  27.270  35.127  1.00  0.00    -0.206 F 
ATOM     92  C   UNL A   1      45.146  27.074  35.376  1.00  0.00     0.040 A 
ATOM     93  C   UNL A   1      46.611  28.554  34.165  1.00  0.00     0.040 A 
ATOM     94  F   UNL A   1      45.708  30.200  32.755  1.00  0.00    -0.206 F 
ATOM     95  C   UNL A   1      46.435  27.499  35.059  1.00  0.00     0.006 A 
ENDBRANCH  67  88
BRANCH  79  96
ATOM     96  C   UNL A   1      40.418  27.556  28.185  1.00  0.00     0.057 A 
ATOM     97  C   UNL A   1      39.825  26.292  28.284  1.00  0.00     0.134 A 
ATOM     98  C   UNL A   1      41.098  27.863  26.999  1.00  0.00     0.134 A 
ATOM     99  F   UNL A   1      39.172  25.933  29.400  1.00  0.00    -0.206 F 
ATOM    100  C   UNL A   1      39.918  25.361  27.249  1.00  0.00     0.040 A 
ATOM    101  C   UNL A   1      41.179  26.949  25.948  1.00  0.00     0.040 A 
ATOM    102  F   UNL A   1      41.682  29.060  26.839  1.00  0.00    -0.206 F 
ATOM    103  C   UNL A   1      40.591  25.692  26.073  1.00  0.00     0.006 A 
ENDBRANCH  79  96
ENDBRANCH  53  54
ENDBRANCH  45  48
ENDBRANCH  43  44
ENDBRANCH  42  43
ENDBRANCH  41  42
ENDBRANCH   1  41
TORSDOF 20
ENDMDL
