MODEL 1
REMARK VINA RESULT:      -9.0      0.000      0.000
REMARK SMILES N#C/C(=C\c1ccc(-c2cc(C(=O)NCCCCCCNC(=O)c3ccc(-c4c5nc(c(-c6c(F)cccc6F)c6ccc([nH]6)c(-c6c(F)cccc6F)c6nc(c(-c7c(F)cccc7F)c7ccc4[nH]7)C=C6)C=C5)cc3)ccc2Cl)o1)C(=O)N1CCOCC1
REMARK SMILES IDX 17 1 16 2 15 3 14 4 12 5 13 6 11 8 9 9 10 10 80 11 79 12
REMARK SMILES IDX 81 13 78 14 8 15 5 16 6 17 82 18 7 19 4 20 3 21 2 22 1 23
REMARK SMILES IDX 83 24 84 25 85 26 86 27 90 28 87 29 89 30 88 31 18 32 19 33
REMARK SMILES IDX 20 34 21 35 22 36 23 38 24 39 25 40 77 41 26 42 76 43 27 44
REMARK SMILES IDX 28 45 29 46 70 47 30 48 75 49 69 50 71 51 31 52 74 53 68 54
REMARK SMILES IDX 67 55 32 57 58 58 41 59 57 60 42 61 45 62 56 63 72 64 43 65
REMARK SMILES IDX 44 66 55 68 73 69 46 70 33 71 34 72 39 73 35 74 36 75 38 76
REMARK SMILES IDX 40 77 37 78 59 79 60 80 65 81 61 82 62 83 64 84 66 85 63 86
REMARK SMILES IDX 47 87 48 88 53 89 49 90 50 91 52 92 54 93 51 94
REMARK H PARENT 14 7 21 37 71 56 45 67
REMARK Flexibility Score: inf
ROOT
ATOM      1  C   UNL A   1      44.608  24.208  32.146  1.00  0.00     0.002 C 
ENDROOT
BRANCH   1   2
ATOM      2  C   UNL A   1      43.614  23.713  31.085  1.00  0.00     0.021 C 
BRANCH   2   3
ATOM      3  C   UNL A   1      44.250  22.768  30.061  1.00  0.00     0.116 C 
BRANCH   3   4
ATOM      4  N   UNL A   1      43.259  22.333  29.099  1.00  0.00    -0.352 N 
ATOM      5  C   UNL A   1      42.915  22.727  27.835  1.00  0.00     0.251 C 
ATOM      6  O   UNL A   1      41.979  22.123  27.307  1.00  0.00    -0.269 OA
ATOM      7  H   UNL A   1      42.708  21.587  29.430  1.00  0.00     0.163 HD
BRANCH   5   8
ATOM      8  C   UNL A   1      43.613  23.790  27.049  1.00  0.00     0.040 A 
ATOM      9  C   UNL A   1      44.707  25.993  27.138  1.00  0.00     0.037 A 
ATOM     10  C   UNL A   1      44.073  24.910  27.773  1.00  0.00     0.027 A 
ATOM     11  C   UNL A   1      44.870  25.953  25.746  1.00  0.00     0.052 A 
ATOM     12  C   UNL A   1      44.452  24.836  25.024  1.00  0.00     0.022 A 
ATOM     13  Cl  UNL A   1      45.618  27.234  24.853  1.00  0.00    -0.084 Cl
ATOM     14  C   UNL A   1      43.862  23.750  25.677  1.00  0.00     0.015 A 
BRANCH   9  15
ATOM     15  C   UNL A   1      45.138  27.137  27.921  1.00  0.00     0.136 A 
ATOM     16  C   UNL A   1      44.916  29.217  28.687  1.00  0.00     0.129 A 
ATOM     17  C   UNL A   1      45.978  28.609  29.356  1.00  0.00     0.051 A 
ATOM     18  O   UNL A   1      44.389  28.272  27.825  1.00  0.00    -0.457 OA
ATOM     19  C   UNL A   1      46.157  27.317  28.823  1.00  0.00     0.051 A 
BRANCH  16  20
ATOM     20  C   UNL A   1      44.383  30.542  28.806  1.00  0.00     0.072 C 
ATOM     21  C   UNL A   1      44.740  31.569  27.993  1.00  0.00     0.121 C 
BRANCH  21  22
ATOM     22  C   UNL A   1      45.458  31.130  26.728  1.00  0.00     0.105 C 
ATOM     23  N   UNL A   1      46.054  30.765  25.678  1.00  0.00    -0.192 NA
ENDBRANCH  21  22
BRANCH  21  24
ATOM     24  C   UNL A   1      44.081  32.899  28.067  1.00  0.00     0.264 C 
ATOM     25  O   UNL A   1      43.913  33.527  27.022  1.00  0.00    -0.268 OA
ATOM     26  N   UNL A   1      43.611  33.372  29.283  1.00  0.00    -0.333 N 
ATOM     27  C   UNL A   1      44.006  32.978  30.646  1.00  0.00     0.148 C 
ATOM     28  C   UNL A   1      42.561  34.395  29.280  1.00  0.00     0.148 C 
ATOM     29  C   UNL A   1      42.770  32.543  31.453  1.00  0.00     0.181 C 
ATOM     30  C   UNL A   1      41.363  33.880  30.088  1.00  0.00     0.181 C 
ATOM     31  O   UNL A   1      41.754  33.558  31.435  1.00  0.00    -0.378 OA
ENDBRANCH  21  24
ENDBRANCH  16  20
ENDBRANCH   9  15
ENDBRANCH   5   8
ENDBRANCH   3   4
ENDBRANCH   2   3
ENDBRANCH   1   2
BRANCH   1  32
ATOM     32  C   UNL A   1      44.450  23.564  33.530  1.00  0.00     0.002 C 
BRANCH  32  33
ATOM     33  C   UNL A   1      45.763  23.278  34.262  1.00  0.00     0.021 C 
BRANCH  33  34
ATOM     34  C   UNL A   1      46.878  24.271  33.949  1.00  0.00     0.116 C 
BRANCH  34  35
ATOM     35  N   UNL A   1      47.431  24.855  35.162  1.00  0.00    -0.352 N 
ATOM     36  C   UNL A   1      47.175  26.075  35.735  1.00  0.00     0.251 C 
ATOM     37  H   UNL A   1      48.082  24.292  35.641  1.00  0.00     0.163 HD
ATOM     38  O   UNL A   1      47.904  26.513  36.616  1.00  0.00    -0.269 OA
BRANCH  36  39
ATOM     39  C   UNL A   1      46.017  26.867  35.272  1.00  0.00     0.039 A 
ATOM     40  C   UNL A   1      46.234  27.949  34.415  1.00  0.00     0.014 A 
ATOM     41  C   UNL A   1      44.723  26.540  35.686  1.00  0.00     0.014 A 
ATOM     42  C   UNL A   1      45.142  28.661  33.918  1.00  0.00     0.010 A 
ATOM     43  C   UNL A   1      43.633  27.206  35.134  1.00  0.00     0.010 A 
ATOM     44  C   UNL A   1      43.831  28.269  34.241  1.00  0.00    -0.014 A 
BRANCH  44  45
ATOM     45  C   UNL A   1      42.654  28.946  33.641  1.00  0.00     0.031 A 
ATOM     46  C   UNL A   1      42.197  28.579  32.256  1.00  0.00     0.074 A 
ATOM     47  C   UNL A   1      42.041  29.936  34.319  1.00  0.00     0.049 A 
ATOM     48  N   UNL A   1      41.262  29.126  31.523  1.00  0.00    -0.248 NA
ATOM     49  C   UNL A   1      42.900  27.464  31.600  1.00  0.00     0.031 C 
ATOM     50  C   UNL A   1      42.414  30.406  35.654  1.00  0.00     0.029 A 
ATOM     51  N   UNL A   1      40.984  30.738  33.970  1.00  0.00    -0.354 N 
ATOM     52  C   UNL A   1      41.261  28.423  30.325  1.00  0.00     0.074 A 
ATOM     53  C   UNL A   1      42.328  27.450  30.404  1.00  0.00     0.031 C 
ATOM     54  C   UNL A   1      41.593  31.405  36.015  1.00  0.00     0.029 A 
ATOM     55  C   UNL A   1      40.667  31.678  34.921  1.00  0.00     0.049 A 
ATOM     56  H   UNL A   1      40.497  30.649  33.118  1.00  0.00     0.167 HD
ATOM     57  C   UNL A   1      40.424  28.557  29.269  1.00  0.00     0.037 A 
ATOM     58  C   UNL A   1      39.749  32.663  34.904  1.00  0.00     0.037 A 
ATOM     59  C   UNL A   1      39.358  29.521  29.197  1.00  0.00     0.049 A 
ATOM     60  C   UNL A   1      38.869  32.822  33.693  1.00  0.00     0.074 A 
ATOM     61  C   UNL A   1      38.442  29.717  28.179  1.00  0.00     0.029 A 
ATOM     62  N   UNL A   1      39.065  30.449  30.185  1.00  0.00    -0.354 N 
ATOM     63  N   UNL A   1      38.844  32.113  32.590  1.00  0.00    -0.248 NA
ATOM     64  C   UNL A   1      37.891  33.919  33.722  1.00  0.00     0.031 C 
ATOM     65  C   UNL A   1      37.621  30.792  28.531  1.00  0.00     0.029 A 
ATOM     66  C   UNL A   1      37.994  31.234  29.790  1.00  0.00     0.049 A 
ATOM     67  H   UNL A   1      39.545  30.537  31.039  1.00  0.00     0.167 HD
ATOM     68  C   UNL A   1      37.832  32.659  31.811  1.00  0.00     0.074 A 
ATOM     69  C   UNL A   1      37.254  33.743  32.574  1.00  0.00     0.031 C 
ATOM     70  C   UNL A   1      37.422  32.299  30.571  1.00  0.00     0.037 A 
BRANCH  57  71
ATOM     71  C   UNL A   1      40.615  27.625  28.108  1.00  0.00     0.057 A 
ATOM     72  C   UNL A   1      40.089  26.327  28.119  1.00  0.00     0.134 A 
ATOM     73  C   UNL A   1      41.269  28.048  26.944  1.00  0.00     0.134 A 
ATOM     74  F   UNL A   1      39.460  25.858  29.207  1.00  0.00    -0.206 F 
ATOM     75  C   UNL A   1      40.220  25.476  27.020  1.00  0.00     0.040 A 
ATOM     76  C   UNL A   1      41.382  27.215  25.829  1.00  0.00     0.040 A 
ATOM     77  F   UNL A   1      41.790  29.281  26.863  1.00  0.00    -0.206 F 
ATOM     78  C   UNL A   1      40.860  25.924  25.866  1.00  0.00     0.006 A 
ENDBRANCH  57  71
BRANCH  58  79
ATOM     79  C   UNL A   1      39.615  33.591  36.058  1.00  0.00     0.057 A 
ATOM     80  C   UNL A   1      40.320  34.799  36.103  1.00  0.00     0.134 A 
ATOM     81  C   UNL A   1      38.817  33.271  37.163  1.00  0.00     0.134 A 
ATOM     82  F   UNL A   1      41.116  35.155  35.084  1.00  0.00    -0.206 F 
ATOM     83  C   UNL A   1      40.268  35.636  37.219  1.00  0.00     0.040 A 
ATOM     84  C   UNL A   1      38.730  34.113  38.273  1.00  0.00     0.040 A 
ATOM     85  F   UNL A   1      38.107  32.132  37.181  1.00  0.00    -0.206 F 
ATOM     86  C   UNL A   1      39.470  35.293  38.308  1.00  0.00     0.006 A 
ENDBRANCH  58  79
BRANCH  70  87
ATOM     87  C   UNL A   1      36.272  33.060  29.977  1.00  0.00     0.057 A 
ATOM     88  C   UNL A   1      36.462  34.019  28.974  1.00  0.00     0.134 A 
ATOM     89  C   UNL A   1      34.957  32.795  30.380  1.00  0.00     0.134 A 
ATOM     90  F   UNL A   1      37.697  34.330  28.555  1.00  0.00    -0.206 F 
ATOM     91  C   UNL A   1      35.385  34.701  28.406  1.00  0.00     0.040 A 
ATOM     92  C   UNL A   1      33.870  33.449  29.800  1.00  0.00     0.040 A 
ATOM     93  F   UNL A   1      34.707  31.882  31.330  1.00  0.00    -0.206 F 
ATOM     94  C   UNL A   1      34.084  34.410  28.813  1.00  0.00     0.006 A 
ENDBRANCH  70  87
ENDBRANCH  44  45
ENDBRANCH  36  39
ENDBRANCH  34  35
ENDBRANCH  33  34
ENDBRANCH  32  33
ENDBRANCH   1  32
TORSDOF 17
ENDMDL
MODEL 2
REMARK VINA RESULT:      -8.9      2.796      6.698
REMARK SMILES N#C/C(=C\c1ccc(-c2cc(C(=O)NCCCCCCNC(=O)c3ccc(-c4c5nc(c(-c6c(F)cccc6F)c6ccc([nH]6)c(-c6c(F)cccc6F)c6nc(c(-c7c(F)cccc7F)c7ccc4[nH]7)C=C6)C=C5)cc3)ccc2Cl)o1)C(=O)N1CCOCC1
REMARK SMILES IDX 17 1 16 2 15 3 14 4 12 5 13 6 11 8 9 9 10 10 80 11 79 12
REMARK SMILES IDX 81 13 78 14 8 15 5 16 6 17 82 18 7 19 4 20 3 21 2 22 1 23
REMARK SMILES IDX 83 24 84 25 85 26 86 27 90 28 87 29 89 30 88 31 18 32 19 33
REMARK SMILES IDX 20 34 21 35 22 36 23 38 24 39 25 40 77 41 26 42 76 43 27 44
REMARK SMILES IDX 28 45 29 46 70 47 30 48 75 49 69 50 71 51 31 52 74 53 68 54
REMARK SMILES IDX 67 55 32 57 58 58 41 59 57 60 42 61 45 62 56 63 72 64 43 65
REMARK SMILES IDX 44 66 55 68 73 69 46 70 33 71 34 72 39 73 35 74 36 75 38 76
REMARK SMILES IDX 40 77 37 78 59 79 60 80 65 81 61 82 62 83 64 84 66 85 63 86
REMARK SMILES IDX 47 87 48 88 53 89 49 90 50 91 52 92 54 93 51 94
REMARK H PARENT 14 7 21 37 71 56 45 67
REMARK Flexibility Score: inf
ROOT
ATOM      1  C   UNL A   1      43.197  20.964  25.495  1.00  0.00     0.002 C 
ENDROOT
BRANCH   1   2
ATOM      2  C   UNL A   1      44.600  20.651  24.954  1.00  0.00     0.021 C 
BRANCH   2   3
ATOM      3  C   UNL A   1      45.649  21.685  25.372  1.00  0.00     0.116 C 
BRANCH   3   4
ATOM      4  N   UNL A   1      45.352  22.192  26.696  1.00  0.00    -0.352 N 
ATOM      5  C   UNL A   1      45.411  23.427  27.282  1.00  0.00     0.251 C 
ATOM      6  O   UNL A   1      45.090  23.485  28.471  1.00  0.00    -0.269 OA
ATOM      7  H   UNL A   1      45.039  21.491  27.312  1.00  0.00     0.163 HD
BRANCH   5   8
ATOM      8  C   UNL A   1      45.788  24.692  26.581  1.00  0.00     0.040 A 
ATOM      9  C   UNL A   1      45.262  27.077  26.272  1.00  0.00     0.037 A 
ATOM     10  C   UNL A   1      45.029  25.839  26.898  1.00  0.00     0.027 A 
ATOM     11  C   UNL A   1      46.269  27.159  25.300  1.00  0.00     0.052 A 
ATOM     12  C   UNL A   1      47.050  26.043  25.004  1.00  0.00     0.022 A 
ATOM     13  Cl  UNL A   1      46.634  28.623  24.451  1.00  0.00    -0.084 Cl
ATOM     14  C   UNL A   1      46.832  24.830  25.666  1.00  0.00     0.015 A 
BRANCH   9  15
ATOM     15  C   UNL A   1      44.437  28.223  26.611  1.00  0.00     0.136 A 
ATOM     16  C   UNL A   1      44.104  30.232  27.513  1.00  0.00     0.129 A 
ATOM     17  C   UNL A   1      42.962  29.871  26.799  1.00  0.00     0.051 A 
ATOM     18  O   UNL A   1      45.019  29.208  27.354  1.00  0.00    -0.457 OA
ATOM     19  C   UNL A   1      43.150  28.574  26.286  1.00  0.00     0.051 A 
BRANCH  16  20
ATOM     20  C   UNL A   1      44.385  31.412  28.278  1.00  0.00     0.072 C 
ATOM     21  C   UNL A   1      44.835  32.570  27.732  1.00  0.00     0.121 C 
BRANCH  21  22
ATOM     22  C   UNL A   1      44.669  32.642  26.223  1.00  0.00     0.105 C 
ATOM     23  N   UNL A   1      44.532  32.702  24.971  1.00  0.00    -0.192 NA
ENDBRANCH  21  22
BRANCH  21  24
ATOM     24  C   UNL A   1      45.002  33.808  28.536  1.00  0.00     0.264 C 
ATOM     25  O   UNL A   1      45.923  33.857  29.351  1.00  0.00    -0.268 OA
ATOM     26  N   UNL A   1      44.175  34.898  28.308  1.00  0.00    -0.333 N 
ATOM     27  C   UNL A   1      42.845  34.936  27.675  1.00  0.00     0.148 C 
ATOM     28  C   UNL A   1      44.637  36.228  28.713  1.00  0.00     0.148 C 
ATOM     29  C   UNL A   1      42.842  35.934  26.503  1.00  0.00     0.181 C 
ATOM     30  C   UNL A   1      44.620  37.156  27.491  1.00  0.00     0.181 C 
ATOM     31  O   UNL A   1      43.300  37.229  26.922  1.00  0.00    -0.378 OA
ENDBRANCH  21  24
ENDBRANCH  16  20
ENDBRANCH   9  15
ENDBRANCH   5   8
ENDBRANCH   3   4
ENDBRANCH   2   3
ENDBRANCH   1   2
BRANCH   1  32
ATOM     32  C   UNL A   1      42.592  19.874  26.390  1.00  0.00     0.002 C 
BRANCH  32  33
ATOM     33  C   UNL A   1      41.514  20.362  27.362  1.00  0.00     0.021 C 
BRANCH  33  34
ATOM     34  C   UNL A   1      41.113  21.820  27.162  1.00  0.00     0.116 C 
BRANCH  34  35
ATOM     35  N   UNL A   1      39.992  21.945  26.243  1.00  0.00    -0.352 N 
ATOM     36  C   UNL A   1      39.074  22.958  26.124  1.00  0.00     0.251 C 
ATOM     37  H   UNL A   1      39.875  21.194  25.616  1.00  0.00     0.163 HD
ATOM     38  O   UNL A   1      38.051  22.797  25.470  1.00  0.00    -0.269 OA
BRANCH  36  39
ATOM     39  C   UNL A   1      39.322  24.247  26.802  1.00  0.00     0.039 A 
ATOM     40  C   UNL A   1      38.802  24.452  28.082  1.00  0.00     0.014 A 
ATOM     41  C   UNL A   1      40.066  25.249  26.172  1.00  0.00     0.014 A 
ATOM     42  C   UNL A   1      39.088  25.639  28.758  1.00  0.00     0.010 A 
ATOM     43  C   UNL A   1      40.408  26.400  26.874  1.00  0.00     0.010 A 
ATOM     44  C   UNL A   1      39.927  26.604  28.176  1.00  0.00    -0.014 A 
BRANCH  44  45
ATOM     45  C   UNL A   1      40.330  27.825  28.918  1.00  0.00     0.031 A 
ATOM     46  C   UNL A   1      41.673  27.892  29.589  1.00  0.00     0.074 A 
ATOM     47  C   UNL A   1      39.456  28.843  29.043  1.00  0.00     0.049 A 
ATOM     48  N   UNL A   1      42.162  28.823  30.368  1.00  0.00    -0.248 NA
ATOM     49  C   UNL A   1      42.579  26.752  29.375  1.00  0.00     0.031 C 
ATOM     50  C   UNL A   1      38.111  28.881  28.468  1.00  0.00     0.029 A 
ATOM     51  N   UNL A   1      39.564  30.039  29.710  1.00  0.00    -0.354 N 
ATOM     52  C   UNL A   1      43.428  28.384  30.732  1.00  0.00     0.074 A 
ATOM     53  C   UNL A   1      43.611  27.077  30.141  1.00  0.00     0.031 C 
ATOM     54  C   UNL A   1      37.523  30.043  28.797  1.00  0.00     0.029 A 
ATOM     55  C   UNL A   1      38.430  30.811  29.642  1.00  0.00     0.049 A 
ATOM     56  H   UNL A   1      40.377  30.316  30.190  1.00  0.00     0.167 HD
ATOM     57  C   UNL A   1      44.366  29.028  31.467  1.00  0.00     0.037 A 
ATOM     58  C   UNL A   1      38.144  31.995  30.218  1.00  0.00     0.037 A 
ATOM     59  C   UNL A   1      44.184  30.333  32.047  1.00  0.00     0.049 A 
ATOM     60  C   UNL A   1      39.186  32.662  31.075  1.00  0.00     0.074 A 
ATOM     61  C   UNL A   1      45.084  31.079  32.788  1.00  0.00     0.029 A 
ATOM     62  N   UNL A   1      43.024  31.086  31.950  1.00  0.00    -0.354 N 
ATOM     63  N   UNL A   1      40.400  32.259  31.364  1.00  0.00    -0.248 NA
ATOM     64  C   UNL A   1      38.820  33.947  31.687  1.00  0.00     0.031 C 
ATOM     65  C   UNL A   1      44.454  32.264  33.176  1.00  0.00     0.029 A 
ATOM     66  C   UNL A   1      43.179  32.279  32.635  1.00  0.00     0.049 A 
ATOM     67  H   UNL A   1      42.212  30.813  31.466  1.00  0.00     0.167 HD
ATOM     68  C   UNL A   1      40.949  33.253  32.165  1.00  0.00     0.074 A 
ATOM     69  C   UNL A   1      39.945  34.286  32.298  1.00  0.00     0.031 C 
ATOM     70  C   UNL A   1      42.173  33.304  32.744  1.00  0.00     0.037 A 
BRANCH  57  71
ATOM     71  C   UNL A   1      45.684  28.340  31.672  1.00  0.00     0.057 A 
ATOM     72  C   UNL A   1      46.776  28.588  30.830  1.00  0.00     0.134 A 
ATOM     73  C   UNL A   1      45.886  27.477  32.756  1.00  0.00     0.134 A 
ATOM     74  F   UNL A   1      46.646  29.397  29.768  1.00  0.00    -0.206 F 
ATOM     75  C   UNL A   1      48.018  27.989  31.048  1.00  0.00     0.040 A 
ATOM     76  C   UNL A   1      47.130  26.893  33.000  1.00  0.00     0.040 A 
ATOM     77  F   UNL A   1      44.885  27.202  33.605  1.00  0.00    -0.206 F 
ATOM     78  C   UNL A   1      48.200  27.146  32.143  1.00  0.00     0.006 A 
ENDBRANCH  57  71
BRANCH  58  79
ATOM     79  C   UNL A   1      36.813  32.628  30.023  1.00  0.00     0.057 A 
ATOM     80  C   UNL A   1      36.581  33.518  28.967  1.00  0.00     0.134 A 
ATOM     81  C   UNL A   1      35.758  32.398  30.913  1.00  0.00     0.134 A 
ATOM     82  F   UNL A   1      37.557  33.795  28.090  1.00  0.00    -0.206 F 
ATOM     83  C   UNL A   1      35.363  34.184  28.826  1.00  0.00     0.040 A 
ATOM     84  C   UNL A   1      34.524  33.033  30.767  1.00  0.00     0.040 A 
ATOM     85  F   UNL A   1      35.910  31.550  31.942  1.00  0.00    -0.206 F 
ATOM     86  C   UNL A   1      34.329  33.941  29.728  1.00  0.00     0.006 A 
ENDBRANCH  58  79
BRANCH  70  87
ATOM     87  C   UNL A   1      42.508  34.528  33.543  1.00  0.00     0.057 A 
ATOM     88  C   UNL A   1      43.023  35.685  32.942  1.00  0.00     0.134 A 
ATOM     89  C   UNL A   1      42.266  34.568  34.923  1.00  0.00     0.134 A 
ATOM     90  F   UNL A   1      43.290  35.706  31.628  1.00  0.00    -0.206 F 
ATOM     91  C   UNL A   1      43.303  36.830  33.689  1.00  0.00     0.040 A 
ATOM     92  C   UNL A   1      42.516  35.717  35.675  1.00  0.00     0.040 A 
ATOM     93  F   UNL A   1      41.766  33.498  35.557  1.00  0.00    -0.206 F 
ATOM     94  C   UNL A   1      43.042  36.850  35.057  1.00  0.00     0.006 A 
ENDBRANCH  70  87
ENDBRANCH  44  45
ENDBRANCH  36  39
ENDBRANCH  34  35
ENDBRANCH  33  34
ENDBRANCH  32  33
ENDBRANCH   1  32
TORSDOF 17
ENDMDL
MODEL 3
REMARK VINA RESULT:      -8.6      2.829      6.761
REMARK SMILES N#C/C(=C\c1ccc(-c2cc(C(=O)NCCCCCCNC(=O)c3ccc(-c4c5nc(c(-c6c(F)cccc6F)c6ccc([nH]6)c(-c6c(F)cccc6F)c6nc(c(-c7c(F)cccc7F)c7ccc4[nH]7)C=C6)C=C5)cc3)ccc2Cl)o1)C(=O)N1CCOCC1
REMARK SMILES IDX 17 1 16 2 15 3 14 4 12 5 13 6 11 8 9 9 10 10 80 11 79 12
REMARK SMILES IDX 81 13 78 14 8 15 5 16 6 17 82 18 7 19 4 20 3 21 2 22 1 23
REMARK SMILES IDX 83 24 84 25 85 26 86 27 90 28 87 29 89 30 88 31 18 32 19 33
REMARK SMILES IDX 20 34 21 35 22 36 23 38 24 39 25 40 77 41 26 42 76 43 27 44
REMARK SMILES IDX 28 45 29 46 70 47 30 48 75 49 69 50 71 51 31 52 74 53 68 54
REMARK SMILES IDX 67 55 32 57 58 58 41 59 57 60 42 61 45 62 56 63 72 64 43 65
REMARK SMILES IDX 44 66 55 68 73 69 46 70 33 71 34 72 39 73 35 74 36 75 38 76
REMARK SMILES IDX 40 77 37 78 59 79 60 80 65 81 61 82 62 83 64 84 66 85 63 86
REMARK SMILES IDX 47 87 48 88 53 89 49 90 50 91 52 92 54 93 51 94
REMARK H PARENT 14 7 21 37 71 56 45 67
REMARK Flexibility Score: inf
ROOT
ATOM      1  C   UNL A   1      43.217  21.026  25.399  1.00  0.00     0.002 C 
ENDROOT
BRANCH   1   2
ATOM      2  C   UNL A   1      44.585  20.645  24.815  1.00  0.00     0.021 C 
BRANCH   2   3
ATOM      3  C   UNL A   1      45.703  21.607  25.226  1.00  0.00     0.116 C 
BRANCH   3   4
ATOM      4  N   UNL A   1      45.478  22.088  26.574  1.00  0.00    -0.352 N 
ATOM      5  C   UNL A   1      45.571  23.311  27.180  1.00  0.00     0.251 C 
ATOM      6  O   UNL A   1      45.314  23.346  28.386  1.00  0.00    -0.269 OA
ATOM      7  H   UNL A   1      45.197  21.375  27.192  1.00  0.00     0.163 HD
BRANCH   5   8
ATOM      8  C   UNL A   1      45.912  24.589  26.485  1.00  0.00     0.040 A 
ATOM      9  C   UNL A   1      45.317  26.958  26.184  1.00  0.00     0.037 A 
ATOM     10  C   UNL A   1      45.119  25.712  26.804  1.00  0.00     0.027 A 
ATOM     11  C   UNL A   1      46.323  27.075  25.215  1.00  0.00     0.052 A 
ATOM     12  C   UNL A   1      47.137  25.982  24.917  1.00  0.00     0.022 A 
ATOM     13  Cl  UNL A   1      46.648  28.551  24.373  1.00  0.00    -0.084 Cl
ATOM     14  C   UNL A   1      46.954  24.761  25.573  1.00  0.00     0.015 A 
BRANCH   9  15
ATOM     15  C   UNL A   1      44.458  28.079  26.525  1.00  0.00     0.136 A 
ATOM     16  C   UNL A   1      44.053  30.053  27.474  1.00  0.00     0.129 A 
ATOM     17  C   UNL A   1      42.945  29.693  26.706  1.00  0.00     0.051 A 
ATOM     18  O   UNL A   1      44.992  29.051  27.318  1.00  0.00    -0.457 OA
ATOM     19  C   UNL A   1      43.177  28.415  26.162  1.00  0.00     0.051 A 
BRANCH  16  20
ATOM     20  C   UNL A   1      44.282  31.214  28.283  1.00  0.00     0.072 C 
ATOM     21  C   UNL A   1      44.743  32.392  27.791  1.00  0.00     0.121 C 
BRANCH  21  22
ATOM     22  C   UNL A   1      44.648  32.504  26.278  1.00  0.00     0.105 C 
ATOM     23  N   UNL A   1      44.569  32.598  25.023  1.00  0.00    -0.192 NA
ENDBRANCH  21  22
BRANCH  21  24
ATOM     24  C   UNL A   1      44.856  33.609  28.635  1.00  0.00     0.264 C 
ATOM     25  O   UNL A   1      43.823  34.200  28.951  1.00  0.00    -0.268 OA
ATOM     26  N   UNL A   1      46.097  34.013  29.105  1.00  0.00    -0.333 N 
ATOM     27  C   UNL A   1      47.435  33.689  28.584  1.00  0.00     0.148 C 
ATOM     28  C   UNL A   1      46.154  34.868  30.294  1.00  0.00     0.148 C 
ATOM     29  C   UNL A   1      48.307  33.079  29.695  1.00  0.00     0.181 C 
ATOM     30  C   UNL A   1      47.023  34.185  31.358  1.00  0.00     0.181 C 
ATOM     31  O   UNL A   1      48.346  33.931  30.851  1.00  0.00    -0.378 OA
ENDBRANCH  21  24
ENDBRANCH  16  20
ENDBRANCH   9  15
ENDBRANCH   5   8
ENDBRANCH   3   4
ENDBRANCH   2   3
ENDBRANCH   1   2
BRANCH   1  32
ATOM     32  C   UNL A   1      42.577  19.957  26.295  1.00  0.00     0.002 C 
BRANCH  32  33
ATOM     33  C   UNL A   1      41.667  20.502  27.400  1.00  0.00     0.021 C 
BRANCH  33  34
ATOM     34  C   UNL A   1      41.251  21.956  27.200  1.00  0.00     0.116 C 
BRANCH  34  35
ATOM     35  N   UNL A   1      40.098  22.066  26.319  1.00  0.00    -0.352 N 
ATOM     36  C   UNL A   1      39.161  23.065  26.235  1.00  0.00     0.251 C 
ATOM     37  H   UNL A   1      39.972  21.315  25.694  1.00  0.00     0.163 HD
ATOM     38  O   UNL A   1      38.119  22.889  25.615  1.00  0.00    -0.269 OA
BRANCH  36  39
ATOM     39  C   UNL A   1      39.411  24.355  26.909  1.00  0.00     0.039 A 
ATOM     40  C   UNL A   1      38.912  24.555  28.198  1.00  0.00     0.014 A 
ATOM     41  C   UNL A   1      40.136  25.363  26.266  1.00  0.00     0.014 A 
ATOM     42  C   UNL A   1      39.201  25.744  28.870  1.00  0.00     0.010 A 
ATOM     43  C   UNL A   1      40.481  26.516  26.963  1.00  0.00     0.010 A 
ATOM     44  C   UNL A   1      40.022  26.716  28.273  1.00  0.00    -0.014 A 
BRANCH  44  45
ATOM     45  C   UNL A   1      40.428  27.940  29.009  1.00  0.00     0.031 A 
ATOM     46  C   UNL A   1      41.777  28.012  29.667  1.00  0.00     0.074 A 
ATOM     47  C   UNL A   1      39.553  28.956  29.139  1.00  0.00     0.049 A 
ATOM     48  N   UNL A   1      42.271  28.946  30.439  1.00  0.00    -0.248 NA
ATOM     49  C   UNL A   1      42.685  26.874  29.446  1.00  0.00     0.031 C 
ATOM     50  C   UNL A   1      38.202  28.989  28.577  1.00  0.00     0.029 A 
ATOM     51  N   UNL A   1      39.664  30.153  29.802  1.00  0.00    -0.354 N 
ATOM     52  C   UNL A   1      43.542  28.512  30.792  1.00  0.00     0.074 A 
ATOM     53  C   UNL A   1      43.722  27.203  30.202  1.00  0.00     0.031 C 
ATOM     54  C   UNL A   1      37.614  30.150  28.909  1.00  0.00     0.029 A 
ATOM     55  C   UNL A   1      38.527  30.923  29.744  1.00  0.00     0.049 A 
ATOM     56  H   UNL A   1      40.481  30.434  30.275  1.00  0.00     0.167 HD
ATOM     57  C   UNL A   1      44.485  29.160  31.517  1.00  0.00     0.037 A 
ATOM     58  C   UNL A   1      38.243  32.106  30.319  1.00  0.00     0.037 A 
ATOM     59  C   UNL A   1      44.305  30.465  32.095  1.00  0.00     0.049 A 
ATOM     60  C   UNL A   1      39.292  32.779  31.165  1.00  0.00     0.074 A 
ATOM     61  C   UNL A   1      45.210  31.215  32.826  1.00  0.00     0.029 A 
ATOM     62  N   UNL A   1      43.142  31.215  32.008  1.00  0.00    -0.354 N 
ATOM     63  N   UNL A   1      40.509  32.380  31.444  1.00  0.00    -0.248 NA
ATOM     64  C   UNL A   1      38.927  34.064  31.777  1.00  0.00     0.031 C 
ATOM     65  C   UNL A   1      44.580  32.400  33.217  1.00  0.00     0.029 A 
ATOM     66  C   UNL A   1      43.300  32.411  32.689  1.00  0.00     0.049 A 
ATOM     67  H   UNL A   1      42.326  30.939  31.531  1.00  0.00     0.167 HD
ATOM     68  C   UNL A   1      41.063  33.377  32.237  1.00  0.00     0.074 A 
ATOM     69  C   UNL A   1      40.057  34.408  32.378  1.00  0.00     0.031 C 
ATOM     70  C   UNL A   1      42.292  33.432  32.804  1.00  0.00     0.037 A 
BRANCH  57  71
ATOM     71  C   UNL A   1      45.807  28.476  31.710  1.00  0.00     0.057 A 
ATOM     72  C   UNL A   1      46.001  27.536  32.731  1.00  0.00     0.134 A 
ATOM     73  C   UNL A   1      46.873  28.706  30.832  1.00  0.00     0.134 A 
ATOM     74  F   UNL A   1      45.022  27.277  33.612  1.00  0.00    -0.206 F 
ATOM     75  C   UNL A   1      47.213  26.861  32.882  1.00  0.00     0.040 A 
ATOM     76  C   UNL A   1      48.081  28.017  30.956  1.00  0.00     0.040 A 
ATOM     77  F   UNL A   1      46.752  29.588  29.829  1.00  0.00    -0.206 F 
ATOM     78  C   UNL A   1      48.254  27.093  31.985  1.00  0.00     0.006 A 
ENDBRANCH  57  71
BRANCH  58  79
ATOM     79  C   UNL A   1      36.909  32.736  30.136  1.00  0.00     0.057 A 
ATOM     80  C   UNL A   1      35.833  32.411  30.970  1.00  0.00     0.134 A 
ATOM     81  C   UNL A   1      36.665  33.639  29.094  1.00  0.00     0.134 A 
ATOM     82  F   UNL A   1      35.997  31.538  31.975  1.00  0.00    -0.206 F 
ATOM     83  C   UNL A   1      34.555  32.931  30.753  1.00  0.00     0.040 A 
ATOM     84  C   UNL A   1      35.401  34.191  28.884  1.00  0.00     0.040 A 
ATOM     85  F   UNL A   1      37.655  34.001  28.263  1.00  0.00    -0.206 F 
ATOM     86  C   UNL A   1      34.337  33.825  29.707  1.00  0.00     0.006 A 
ENDBRANCH  58  79
BRANCH  70  87
ATOM     87  C   UNL A   1      42.631  34.660  33.598  1.00  0.00     0.057 A 
ATOM     88  C   UNL A   1      42.525  34.689  34.994  1.00  0.00     0.134 A 
ATOM     89  C   UNL A   1      43.114  35.811  32.961  1.00  0.00     0.134 A 
ATOM     90  F   UNL A   1      42.055  33.625  35.663  1.00  0.00    -0.206 F 
ATOM     91  C   UNL A   1      42.870  35.825  35.727  1.00  0.00     0.040 A 
ATOM     92  C   UNL A   1      43.490  36.942  33.686  1.00  0.00     0.040 A 
ATOM     93  F   UNL A   1      43.248  35.845  31.627  1.00  0.00    -0.206 F 
ATOM     94  C   UNL A   1      43.362  36.953  35.073  1.00  0.00     0.006 A 
ENDBRANCH  70  87
ENDBRANCH  44  45
ENDBRANCH  36  39
ENDBRANCH  34  35
ENDBRANCH  33  34
ENDBRANCH  32  33
ENDBRANCH   1  32
TORSDOF 17
ENDMDL
