MODEL 1
REMARK VINA RESULT:     -12.3      0.000      0.000
REMARK SMILES C[C@@H](C(=O)NCCCCCCNC(=O)c1ccc(-c2c3nc(c(-c4c(F)cccc4F)c4ccc([nH]4)c(-c4c(F)cccc4F)c4nc(c(-c5c(F)cccc5F)c5ccc2[nH]5)C=C4)C=C3)cc1)N1C(=O)/C(=C/c2nc3ccccc3[nH]2)SC1=S
REMARK SMILES IDX 8 1 7 2 6 3 5 4 3 5 4 6 2 8 1 9 69 10 70 11 84 12 71 13
REMARK SMILES IDX 72 14 83 15 85 16 73 17 74 18 75 19 82 20 76 21 81 22 77 24
REMARK SMILES IDX 80 25 78 26 79 27 9 28 10 29 11 30 12 31 13 32 14 34 15 35
REMARK SMILES IDX 16 36 68 37 17 38 67 39 18 40 19 41 20 42 61 43 21 44 66 45
REMARK SMILES IDX 60 46 62 47 22 48 65 49 59 50 58 51 23 53 49 54 32 55 48 56
REMARK SMILES IDX 33 57 36 58 47 59 63 60 34 61 35 62 46 64 64 65 37 66 24 67
REMARK SMILES IDX 25 68 30 69 26 70 27 71 29 72 31 73 28 74 50 75 51 76 56 77
REMARK SMILES IDX 52 78 53 79 55 80 57 81 54 82 38 83 39 84 44 85 40 86 41 87
REMARK SMILES IDX 43 88 45 89 42 90
REMARK H PARENT 5 7 82 23 12 33 62 52 36 63
REMARK Flexibility Score: inf
ROOT
ATOM      1  C   UNL A   1      32.314  30.094  26.433  1.00  0.00     0.002 C 
ENDROOT
BRANCH   1   2
ATOM      2  C   UNL A   1      31.783  28.989  27.355  1.00  0.00     0.021 C 
BRANCH   2   3
ATOM      3  C   UNL A   1      31.774  27.602  26.718  1.00  0.00     0.116 C 
BRANCH   3   4
ATOM      4  N   UNL A   1      31.067  27.614  25.455  1.00  0.00    -0.354 N 
ATOM      5  C   UNL A   1      31.484  27.215  24.219  1.00  0.00     0.242 C 
ATOM      6  O   UNL A   1      30.670  27.287  23.296  1.00  0.00    -0.273 OA
ATOM      7  H   UNL A   1      30.147  27.963  25.493  1.00  0.00     0.163 HD
BRANCH   5   8
ATOM      8  C   UNL A   1      32.910  26.653  24.036  1.00  0.00     0.178 C 
ATOM      9  C   UNL A   1      33.733  27.308  22.931  1.00  0.00     0.042 C 
BRANCH   8  10
ATOM     10  N   UNL A   1      32.831  25.191  23.890  1.00  0.00    -0.281 N 
ATOM     11  C   UNL A   1      32.939  24.374  25.009  1.00  0.00     0.267 C 
ATOM     12  C   UNL A   1      32.718  24.554  22.672  1.00  0.00     0.149 C 
ATOM     13  O   UNL A   1      32.986  24.731  26.181  1.00  0.00    -0.268 OA
ATOM     14  C   UNL A   1      32.949  22.945  24.607  1.00  0.00     0.084 C 
ATOM     15  S   UNL A   1      32.670  22.826  22.911  1.00  0.00    -0.054 SA
ATOM     16  S   UNL A   1      32.590  25.223  21.147  1.00  0.00    -0.052 S 
ATOM     17  C   UNL A   1      33.132  21.950  25.491  1.00  0.00     0.068 C 
BRANCH  17  18
ATOM     18  C   UNL A   1      33.172  20.601  25.063  1.00  0.00     0.132 A 
ATOM     19  N   UNL A   1      32.210  19.706  25.046  1.00  0.00    -0.229 NA
ATOM     20  N   UNL A   1      34.365  20.033  24.679  1.00  0.00    -0.338 N 
ATOM     21  C   UNL A   1      32.820  18.502  24.855  1.00  0.00     0.089 A 
ATOM     22  C   UNL A   1      34.178  18.670  24.615  1.00  0.00     0.066 A 
ATOM     23  H   UNL A   1      35.202  20.513  24.486  1.00  0.00     0.168 HD
ATOM     24  C   UNL A   1      32.271  17.218  24.918  1.00  0.00     0.030 A 
ATOM     25  C   UNL A   1      35.045  17.595  24.409  1.00  0.00     0.028 A 
ATOM     26  C   UNL A   1      33.122  16.124  24.745  1.00  0.00     0.002 A 
ATOM     27  C   UNL A   1      34.483  16.313  24.488  1.00  0.00     0.002 A 
ENDBRANCH  17  18
ENDBRANCH   8  10
ENDBRANCH   5   8
ENDBRANCH   3   4
ENDBRANCH   2   3
ENDBRANCH   1   2
BRANCH   1  28
ATOM     28  C   UNL A   1      31.249  31.054  25.894  1.00  0.00     0.002 C 
BRANCH  28  29
ATOM     29  C   UNL A   1      31.275  32.457  26.503  1.00  0.00     0.021 C 
BRANCH  29  30
ATOM     30  C   UNL A   1      32.583  32.819  27.196  1.00  0.00     0.116 C 
BRANCH  30  31
ATOM     31  N   UNL A   1      32.569  34.176  27.713  1.00  0.00    -0.352 N 
ATOM     32  C   UNL A   1      33.324  34.734  28.712  1.00  0.00     0.251 C 
ATOM     33  H   UNL A   1      31.923  34.783  27.284  1.00  0.00     0.163 HD
ATOM     34  O   UNL A   1      33.036  35.844  29.153  1.00  0.00    -0.269 OA
BRANCH  32  35
ATOM     35  C   UNL A   1      34.480  33.998  29.269  1.00  0.00     0.039 A 
ATOM     36  C   UNL A   1      35.766  34.346  28.847  1.00  0.00     0.014 A 
ATOM     37  C   UNL A   1      34.298  32.947  30.172  1.00  0.00     0.014 A 
ATOM     38  C   UNL A   1      36.870  33.658  29.355  1.00  0.00     0.010 A 
ATOM     39  C   UNL A   1      35.403  32.319  30.740  1.00  0.00     0.010 A 
ATOM     40  C   UNL A   1      36.699  32.651  30.317  1.00  0.00    -0.014 A 
BRANCH  40  41
ATOM     41  C   UNL A   1      37.864  31.904  30.856  1.00  0.00     0.031 A 
ATOM     42  C   UNL A   1      38.374  32.201  32.242  1.00  0.00     0.074 A 
ATOM     43  C   UNL A   1      38.484  30.986  30.091  1.00  0.00     0.049 A 
ATOM     44  N   UNL A   1      39.386  31.673  32.882  1.00  0.00    -0.248 NA
ATOM     45  C   UNL A   1      37.671  33.251  32.997  1.00  0.00     0.031 C 
ATOM     46  C   UNL A   1      38.114  30.638  28.717  1.00  0.00     0.029 A 
ATOM     47  N   UNL A   1      39.559  30.176  30.360  1.00  0.00    -0.354 N 
ATOM     48  C   UNL A   1      39.452  32.338  34.100  1.00  0.00     0.074 A 
ATOM     49  C   UNL A   1      38.417  33.347  34.087  1.00  0.00     0.031 C 
ATOM     50  C   UNL A   1      38.924  29.661  28.278  1.00  0.00     0.029 A 
ATOM     51  C   UNL A   1      39.890  29.338  29.323  1.00  0.00     0.049 A 
ATOM     52  H   UNL A   1      40.045  30.193  31.216  1.00  0.00     0.167 HD
ATOM     53  C   UNL A   1      40.281  32.112  35.147  1.00  0.00     0.037 A 
ATOM     54  C   UNL A   1      40.863  28.412  29.229  1.00  0.00     0.037 A 
ATOM     55  C   UNL A   1      41.289  31.085  35.169  1.00  0.00     0.049 A 
ATOM     56  C   UNL A   1      41.771  28.179  30.406  1.00  0.00     0.074 A 
ATOM     57  C   UNL A   1      42.136  30.730  36.204  1.00  0.00     0.029 A 
ATOM     58  N   UNL A   1      41.589  30.250  34.102  1.00  0.00    -0.354 N 
ATOM     59  N   UNL A   1      41.772  28.763  31.580  1.00  0.00    -0.248 NA
ATOM     60  C   UNL A   1      42.806  27.149  30.246  1.00  0.00     0.031 C 
ATOM     61  C   UNL A   1      42.983  29.715  35.747  1.00  0.00     0.029 A 
ATOM     62  C   UNL A   1      42.624  29.397  34.446  1.00  0.00     0.049 A 
ATOM     63  H   UNL A   1      41.133  30.263  33.230  1.00  0.00     0.167 HD
ATOM     64  C   UNL A   1      42.778  28.144  32.312  1.00  0.00     0.074 A 
ATOM     65  C   UNL A   1      43.358  27.134  31.451  1.00  0.00     0.031 C 
ATOM     66  C   UNL A   1      43.184  28.388  33.583  1.00  0.00     0.037 A 
BRANCH  53  67
ATOM     67  C   UNL A   1      40.132  32.996  36.353  1.00  0.00     0.057 A 
ATOM     68  C   UNL A   1      39.199  32.725  37.364  1.00  0.00     0.134 A 
ATOM     69  C   UNL A   1      40.952  34.120  36.519  1.00  0.00     0.134 A 
ATOM     70  F   UNL A   1      38.375  31.671  37.264  1.00  0.00    -0.206 F 
ATOM     71  C   UNL A   1      39.064  33.557  38.477  1.00  0.00     0.040 A 
ATOM     72  C   UNL A   1      40.848  34.941  37.643  1.00  0.00     0.040 A 
ATOM     73  F   UNL A   1      41.871  34.435  35.594  1.00  0.00    -0.206 F 
ATOM     74  C   UNL A   1      39.896  34.666  38.621  1.00  0.00     0.006 A 
ENDBRANCH  53  67
BRANCH  54  75
ATOM     75  C   UNL A   1      41.007  27.605  27.991  1.00  0.00     0.057 A 
ATOM     76  C   UNL A   1      41.795  28.055  26.925  1.00  0.00     0.134 A 
ATOM     77  C   UNL A   1      40.353  26.377  27.835  1.00  0.00     0.134 A 
ATOM     78  F   UNL A   1      42.433  29.232  27.008  1.00  0.00    -0.206 F 
ATOM     79  C   UNL A   1      41.908  27.327  25.740  1.00  0.00     0.040 A 
ATOM     80  C   UNL A   1      40.479  25.626  26.665  1.00  0.00     0.040 A 
ATOM     81  F   UNL A   1      39.591  25.885  28.822  1.00  0.00    -0.206 F 
ATOM     82  C   UNL A   1      41.252  26.105  25.609  1.00  0.00     0.006 A 
ENDBRANCH  54  75
BRANCH  66  83
ATOM     83  C   UNL A   1      44.270  27.512  34.137  1.00  0.00     0.057 A 
ATOM     84  C   UNL A   1      43.996  26.284  34.753  1.00  0.00     0.134 A 
ATOM     85  C   UNL A   1      45.613  27.894  34.026  1.00  0.00     0.134 A 
ATOM     86  F   UNL A   1      42.731  25.865  34.902  1.00  0.00    -0.206 F 
ATOM     87  C   UNL A   1      45.017  25.483  35.268  1.00  0.00     0.040 A 
ATOM     88  C   UNL A   1      46.645  27.087  34.509  1.00  0.00     0.040 A 
ATOM     89  F   UNL A   1      45.946  29.053  33.438  1.00  0.00    -0.206 F 
ATOM     90  C   UNL A   1      46.346  25.882  35.141  1.00  0.00     0.006 A 
ENDBRANCH  66  83
ENDBRANCH  40  41
ENDBRANCH  32  35
ENDBRANCH  30  31
ENDBRANCH  29  30
ENDBRANCH  28  29
ENDBRANCH   1  28
TORSDOF 15
ENDMDL
MODEL 2
REMARK VINA RESULT:     -12.2      0.586      6.115
REMARK SMILES C[C@@H](C(=O)NCCCCCCNC(=O)c1ccc(-c2c3nc(c(-c4c(F)cccc4F)c4ccc([nH]4)c(-c4c(F)cccc4F)c4nc(c(-c5c(F)cccc5F)c5ccc2[nH]5)C=C4)C=C3)cc1)N1C(=O)/C(=C/c2nc3ccccc3[nH]2)SC1=S
REMARK SMILES IDX 8 1 7 2 6 3 5 4 3 5 4 6 2 8 1 9 69 10 70 11 84 12 71 13
REMARK SMILES IDX 72 14 83 15 85 16 73 17 74 18 75 19 82 20 76 21 81 22 77 24
REMARK SMILES IDX 80 25 78 26 79 27 9 28 10 29 11 30 12 31 13 32 14 34 15 35
REMARK SMILES IDX 16 36 68 37 17 38 67 39 18 40 19 41 20 42 61 43 21 44 66 45
REMARK SMILES IDX 60 46 62 47 22 48 65 49 59 50 58 51 23 53 49 54 32 55 48 56
REMARK SMILES IDX 33 57 36 58 47 59 63 60 34 61 35 62 46 64 64 65 37 66 24 67
REMARK SMILES IDX 25 68 30 69 26 70 27 71 29 72 31 73 28 74 50 75 51 76 56 77
REMARK SMILES IDX 52 78 53 79 55 80 57 81 54 82 38 83 39 84 44 85 40 86 41 87
REMARK SMILES IDX 43 88 45 89 42 90
REMARK H PARENT 5 7 82 23 12 33 62 52 36 63
REMARK Flexibility Score: inf
ROOT
ATOM      1  C   UNL A   1      32.317  29.985  26.800  1.00  0.00     0.002 C 
ENDROOT
BRANCH   1   2
ATOM      2  C   UNL A   1      31.645  28.823  27.541  1.00  0.00     0.021 C 
BRANCH   2   3
ATOM      3  C   UNL A   1      31.743  27.485  26.812  1.00  0.00     0.116 C 
BRANCH   3   4
ATOM      4  N   UNL A   1      31.022  27.522  25.557  1.00  0.00    -0.354 N 
ATOM      5  C   UNL A   1      31.427  27.149  24.309  1.00  0.00     0.242 C 
ATOM      6  O   UNL A   1      30.604  27.239  23.396  1.00  0.00    -0.273 OA
ATOM      7  H   UNL A   1      30.103  27.869  25.612  1.00  0.00     0.163 HD
BRANCH   5   8
ATOM      8  C   UNL A   1      32.852  26.592  24.100  1.00  0.00     0.178 C 
ATOM      9  C   UNL A   1      33.655  27.255  22.985  1.00  0.00     0.042 C 
BRANCH   8  10
ATOM     10  N   UNL A   1      32.775  25.130  23.948  1.00  0.00    -0.281 N 
ATOM     11  C   UNL A   1      32.873  24.310  25.065  1.00  0.00     0.267 C 
ATOM     12  C   UNL A   1      32.674  24.498  22.726  1.00  0.00     0.149 C 
ATOM     13  O   UNL A   1      32.909  24.663  26.238  1.00  0.00    -0.268 OA
ATOM     14  C   UNL A   1      32.888  22.882  24.658  1.00  0.00     0.084 C 
ATOM     15  S   UNL A   1      32.625  22.769  22.959  1.00  0.00    -0.054 SA
ATOM     16  S   UNL A   1      32.560  25.173  21.203  1.00  0.00    -0.052 S 
ATOM     17  C   UNL A   1      33.063  21.884  25.540  1.00  0.00     0.068 C 
BRANCH  17  18
ATOM     18  C   UNL A   1      33.108  20.537  25.108  1.00  0.00     0.132 A 
ATOM     19  N   UNL A   1      32.157  19.629  25.117  1.00  0.00    -0.229 NA
ATOM     20  N   UNL A   1      34.296  19.985  24.688  1.00  0.00    -0.338 N 
ATOM     21  C   UNL A   1      32.778  18.434  24.905  1.00  0.00     0.089 A 
ATOM     22  C   UNL A   1      34.125  18.620  24.625  1.00  0.00     0.066 A 
ATOM     23  H   UNL A   1      35.121  20.476  24.470  1.00  0.00     0.168 HD
ATOM     24  C   UNL A   1      32.247  17.142  24.982  1.00  0.00     0.030 A 
ATOM     25  C   UNL A   1      35.000  17.557  24.391  1.00  0.00     0.028 A 
ATOM     26  C   UNL A   1      33.107  16.060  24.781  1.00  0.00     0.002 A 
ATOM     27  C   UNL A   1      34.457  16.267  24.484  1.00  0.00     0.002 A 
ENDBRANCH  17  18
ENDBRANCH   8  10
ENDBRANCH   5   8
ENDBRANCH   3   4
ENDBRANCH   2   3
ENDBRANCH   1   2
BRANCH   1  28
ATOM     28  C   UNL A   1      31.360  30.899  26.029  1.00  0.00     0.002 C 
BRANCH  28  29
ATOM     29  C   UNL A   1      31.337  32.355  26.500  1.00  0.00     0.021 C 
BRANCH  29  30
ATOM     30  C   UNL A   1      32.634  32.830  27.143  1.00  0.00     0.116 C 
BRANCH  30  31
ATOM     31  N   UNL A   1      32.529  34.190  27.640  1.00  0.00    -0.352 N 
ATOM     32  C   UNL A   1      33.175  34.783  28.695  1.00  0.00     0.251 C 
ATOM     33  H   UNL A   1      31.904  34.771  27.149  1.00  0.00     0.163 HD
ATOM     34  O   UNL A   1      32.813  35.886  29.096  1.00  0.00    -0.269 OA
BRANCH  32  35
ATOM     35  C   UNL A   1      34.300  34.092  29.360  1.00  0.00     0.039 A 
ATOM     36  C   UNL A   1      35.606  34.405  28.973  1.00  0.00     0.014 A 
ATOM     37  C   UNL A   1      34.073  33.115  30.334  1.00  0.00     0.014 A 
ATOM     38  C   UNL A   1      36.682  33.757  29.583  1.00  0.00     0.010 A 
ATOM     39  C   UNL A   1      35.148  32.532  30.999  1.00  0.00     0.010 A 
ATOM     40  C   UNL A   1      36.462  32.828  30.612  1.00  0.00    -0.014 A 
BRANCH  40  41
ATOM     41  C   UNL A   1      37.598  32.125  31.261  1.00  0.00     0.031 A 
ATOM     42  C   UNL A   1      38.344  31.050  30.515  1.00  0.00     0.074 A 
ATOM     43  C   UNL A   1      37.936  32.425  32.530  1.00  0.00     0.049 A 
ATOM     44  N   UNL A   1      39.347  30.310  30.914  1.00  0.00    -0.248 NA
ATOM     45  C   UNL A   1      37.883  30.748  29.151  1.00  0.00     0.031 C 
ATOM     46  C   UNL A   1      37.264  33.414  33.374  1.00  0.00     0.029 A 
ATOM     47  N   UNL A   1      38.932  31.926  33.331  1.00  0.00    -0.354 N 
ATOM     48  C   UNL A   1      39.622  29.445  29.860  1.00  0.00     0.074 A 
ATOM     49  C   UNL A   1      38.644  29.712  28.830  1.00  0.00     0.031 C 
ATOM     50  C   UNL A   1      37.889  33.476  34.561  1.00  0.00     0.029 A 
ATOM     51  C   UNL A   1      38.982  32.508  34.574  1.00  0.00     0.049 A 
ATOM     52  H   UNL A   1      39.553  31.219  33.042  1.00  0.00     0.167 HD
ATOM     53  C   UNL A   1      40.615  28.532  29.749  1.00  0.00     0.037 A 
ATOM     54  C   UNL A   1      39.817  32.288  35.607  1.00  0.00     0.037 A 
ATOM     55  C   UNL A   1      41.606  28.292  30.765  1.00  0.00     0.049 A 
ATOM     56  C   UNL A   1      40.913  31.267  35.458  1.00  0.00     0.074 A 
ATOM     57  C   UNL A   1      42.693  27.436  30.725  1.00  0.00     0.029 A 
ATOM     58  N   UNL A   1      41.628  28.908  32.007  1.00  0.00    -0.354 N 
ATOM     59  N   UNL A   1      41.208  30.512  34.428  1.00  0.00    -0.248 NA
ATOM     60  C   UNL A   1      41.799  31.078  36.615  1.00  0.00     0.031 C 
ATOM     61  C   UNL A   1      43.343  27.496  31.962  1.00  0.00     0.029 A 
ATOM     62  C   UNL A   1      42.696  28.434  32.751  1.00  0.00     0.049 A 
ATOM     63  H   UNL A   1      40.981  29.583  32.315  1.00  0.00     0.167 HD
ATOM     64  C   UNL A   1      42.336  29.788  34.796  1.00  0.00     0.074 A 
ATOM     65  C   UNL A   1      42.676  30.204  36.141  1.00  0.00     0.031 C 
ATOM     66  C   UNL A   1      43.030  28.866  34.085  1.00  0.00     0.037 A 
BRANCH  53  67
ATOM     67  C   UNL A   1      40.673  27.721  28.485  1.00  0.00     0.057 A 
ATOM     68  C   UNL A   1      41.437  28.121  27.380  1.00  0.00     0.134 A 
ATOM     69  C   UNL A   1      39.977  26.510  28.382  1.00  0.00     0.134 A 
ATOM     70  F   UNL A   1      42.121  29.275  27.407  1.00  0.00    -0.206 F 
ATOM     71  C   UNL A   1      41.478  27.364  26.207  1.00  0.00     0.040 A 
ATOM     72  C   UNL A   1      40.036  25.729  27.227  1.00  0.00     0.040 A 
ATOM     73  F   UNL A   1      39.231  26.063  29.403  1.00  0.00    -0.206 F 
ATOM     74  C   UNL A   1      40.781  26.160  26.131  1.00  0.00     0.006 A 
ENDBRANCH  53  67
BRANCH  54  75
ATOM     75  C   UNL A   1      39.681  33.074  36.859  1.00  0.00     0.057 A 
ATOM     76  C   UNL A   1      38.759  32.703  37.845  1.00  0.00     0.134 A 
ATOM     77  C   UNL A   1      40.451  34.218  37.096  1.00  0.00     0.134 A 
ATOM     78  F   UNL A   1      37.979  31.625  37.669  1.00  0.00    -0.206 F 
ATOM     79  C   UNL A   1      38.590  33.454  39.009  1.00  0.00     0.040 A 
ATOM     80  C   UNL A   1      40.311  34.964  38.267  1.00  0.00     0.040 A 
ATOM     81  F   UNL A   1      41.358  34.622  36.195  1.00  0.00    -0.206 F 
ATOM     82  C   UNL A   1      39.372  34.587  39.225  1.00  0.00     0.006 A 
ENDBRANCH  54  75
BRANCH  66  83
ATOM     83  C   UNL A   1      44.256  28.284  34.726  1.00  0.00     0.057 A 
ATOM     84  C   UNL A   1      44.218  27.094  35.465  1.00  0.00     0.134 A 
ATOM     85  C   UNL A   1      45.499  28.911  34.577  1.00  0.00     0.134 A 
ATOM     86  F   UNL A   1      43.058  26.449  35.656  1.00  0.00    -0.206 F 
ATOM     87  C   UNL A   1      45.367  26.568  36.059  1.00  0.00     0.040 A 
ATOM     88  C   UNL A   1      46.660  28.379  35.140  1.00  0.00     0.040 A 
ATOM     89  F   UNL A   1      45.609  30.049  33.873  1.00  0.00    -0.206 F 
ATOM     90  C   UNL A   1      46.593  27.208  35.891  1.00  0.00     0.006 A 
ENDBRANCH  66  83
ENDBRANCH  40  41
ENDBRANCH  32  35
ENDBRANCH  30  31
ENDBRANCH  29  30
ENDBRANCH  28  29
ENDBRANCH   1  28
TORSDOF 15
ENDMDL
MODEL 3
REMARK VINA RESULT:     -12.1      1.910      3.093
REMARK SMILES C[C@@H](C(=O)NCCCCCCNC(=O)c1ccc(-c2c3nc(c(-c4c(F)cccc4F)c4ccc([nH]4)c(-c4c(F)cccc4F)c4nc(c(-c5c(F)cccc5F)c5ccc2[nH]5)C=C4)C=C3)cc1)N1C(=O)/C(=C/c2nc3ccccc3[nH]2)SC1=S
REMARK SMILES IDX 8 1 7 2 6 3 5 4 3 5 4 6 2 8 1 9 69 10 70 11 84 12 71 13
REMARK SMILES IDX 72 14 83 15 85 16 73 17 74 18 75 19 82 20 76 21 81 22 77 24
REMARK SMILES IDX 80 25 78 26 79 27 9 28 10 29 11 30 12 31 13 32 14 34 15 35
REMARK SMILES IDX 16 36 68 37 17 38 67 39 18 40 19 41 20 42 61 43 21 44 66 45
REMARK SMILES IDX 60 46 62 47 22 48 65 49 59 50 58 51 23 53 49 54 32 55 48 56
REMARK SMILES IDX 33 57 36 58 47 59 63 60 34 61 35 62 46 64 64 65 37 66 24 67
REMARK SMILES IDX 25 68 30 69 26 70 27 71 29 72 31 73 28 74 50 75 51 76 56 77
REMARK SMILES IDX 52 78 53 79 55 80 57 81 54 82 38 83 39 84 44 85 40 86 41 87
REMARK SMILES IDX 43 88 45 89 42 90
REMARK H PARENT 5 7 82 23 12 33 62 52 36 63
REMARK Flexibility Score: inf
ROOT
ATOM      1  C   UNL A   1      31.737  29.394  27.159  1.00  0.00     0.002 C 
ENDROOT
BRANCH   1   2
ATOM      2  C   UNL A   1      32.379  28.133  26.565  1.00  0.00     0.021 C 
BRANCH   2   3
ATOM      3  C   UNL A   1      31.391  27.214  25.851  1.00  0.00     0.116 C 
BRANCH   3   4
ATOM      4  N   UNL A   1      31.105  26.039  26.648  1.00  0.00    -0.354 N 
ATOM      5  C   UNL A   1      31.336  24.723  26.373  1.00  0.00     0.242 C 
ATOM      6  O   UNL A   1      31.035  23.903  27.243  1.00  0.00    -0.273 OA
ATOM      7  H   UNL A   1      30.679  26.216  27.517  1.00  0.00     0.163 HD
BRANCH   5   8
ATOM      8  C   UNL A   1      31.996  24.323  25.036  1.00  0.00     0.178 C 
ATOM      9  C   UNL A   1      31.110  23.526  24.083  1.00  0.00     0.042 C 
BRANCH   8  10
ATOM     10  N   UNL A   1      33.273  23.648  25.318  1.00  0.00    -0.281 N 
ATOM     11  C   UNL A   1      34.439  24.392  25.449  1.00  0.00     0.267 C 
ATOM     12  C   UNL A   1      33.405  22.277  25.401  1.00  0.00     0.149 C 
ATOM     13  O   UNL A   1      34.535  25.614  25.468  1.00  0.00    -0.268 OA
ATOM     14  C   UNL A   1      35.610  23.495  25.612  1.00  0.00     0.084 C 
ATOM     15  S   UNL A   1      35.068  21.864  25.732  1.00  0.00    -0.054 SA
ATOM     16  S   UNL A   1      32.227  21.101  25.272  1.00  0.00    -0.052 S 
ATOM     17  C   UNL A   1      36.869  23.958  25.672  1.00  0.00     0.068 C 
BRANCH  17  18
ATOM     18  C   UNL A   1      37.962  23.068  25.791  1.00  0.00     0.132 A 
ATOM     19  N   UNL A   1      38.174  21.925  25.175  1.00  0.00    -0.229 NA
ATOM     20  N   UNL A   1      38.946  23.300  26.723  1.00  0.00    -0.338 N 
ATOM     21  C   UNL A   1      39.182  21.312  25.858  1.00  0.00     0.089 A 
ATOM     22  C   UNL A   1      39.697  22.152  26.837  1.00  0.00     0.066 A 
ATOM     23  H   UNL A   1      39.089  24.138  27.221  1.00  0.00     0.168 HD
ATOM     24  C   UNL A   1      39.677  20.012  25.715  1.00  0.00     0.030 A 
ATOM     25  C   UNL A   1      40.725  21.764  27.698  1.00  0.00     0.028 A 
ATOM     26  C   UNL A   1      40.686  19.588  26.584  1.00  0.00     0.002 A 
ATOM     27  C   UNL A   1      41.203  20.453  27.552  1.00  0.00     0.002 A 
ENDBRANCH  17  18
ENDBRANCH   8  10
ENDBRANCH   5   8
ENDBRANCH   3   4
ENDBRANCH   2   3
ENDBRANCH   1   2
BRANCH   1  28
ATOM     28  C   UNL A   1      31.637  30.582  26.197  1.00  0.00     0.002 C 
BRANCH  28  29
ATOM     29  C   UNL A   1      31.479  31.947  26.871  1.00  0.00     0.021 C 
BRANCH  29  30
ATOM     30  C   UNL A   1      32.730  32.816  26.834  1.00  0.00     0.116 C 
BRANCH  30  31
ATOM     31  N   UNL A   1      32.545  34.067  27.548  1.00  0.00    -0.352 N 
ATOM     32  C   UNL A   1      33.173  34.525  28.678  1.00  0.00     0.251 C 
ATOM     33  H   UNL A   1      31.871  34.675  27.166  1.00  0.00     0.163 HD
ATOM     34  O   UNL A   1      32.747  35.520  29.258  1.00  0.00    -0.269 OA
BRANCH  32  35
ATOM     35  C   UNL A   1      34.358  33.815  29.208  1.00  0.00     0.039 A 
ATOM     36  C   UNL A   1      34.164  32.726  30.061  1.00  0.00     0.014 A 
ATOM     37  C   UNL A   1      35.652  34.241  28.898  1.00  0.00     0.014 A 
ATOM     38  C   UNL A   1      35.269  32.047  30.578  1.00  0.00     0.010 A 
ATOM     39  C   UNL A   1      36.751  33.514  29.347  1.00  0.00     0.010 A 
ATOM     40  C   UNL A   1      36.571  32.426  30.213  1.00  0.00    -0.014 A 
BRANCH  40  41
ATOM     41  C   UNL A   1      37.754  31.720  30.766  1.00  0.00     0.031 A 
ATOM     42  C   UNL A   1      38.193  31.980  32.183  1.00  0.00     0.074 A 
ATOM     43  C   UNL A   1      38.455  30.874  29.987  1.00  0.00     0.049 A 
ATOM     44  N   UNL A   1      39.208  31.479  32.840  1.00  0.00    -0.248 NA
ATOM     45  C   UNL A   1      37.403  32.953  32.954  1.00  0.00     0.031 C 
ATOM     46  C   UNL A   1      38.159  30.571  28.585  1.00  0.00     0.029 A 
ATOM     47  N   UNL A   1      39.563  30.113  30.264  1.00  0.00    -0.354 N 
ATOM     48  C   UNL A   1      39.188  32.089  34.089  1.00  0.00     0.074 A 
ATOM     49  C   UNL A   1      38.099  33.039  34.077  1.00  0.00     0.031 C 
ATOM     50  C   UNL A   1      39.040  29.661  28.137  1.00  0.00     0.029 A 
ATOM     51  C   UNL A   1      39.981  29.344  29.206  1.00  0.00     0.049 A 
ATOM     52  H   UNL A   1      40.014  30.117  31.139  1.00  0.00     0.167 HD
ATOM     53  C   UNL A   1      39.987  31.860  35.158  1.00  0.00     0.037 A 
ATOM     54  C   UNL A   1      41.008  28.478  29.110  1.00  0.00     0.037 A 
ATOM     55  C   UNL A   1      41.051  30.890  35.175  1.00  0.00     0.049 A 
ATOM     56  C   UNL A   1      41.882  28.241  30.313  1.00  0.00     0.074 A 
ATOM     57  C   UNL A   1      41.876  30.535  36.228  1.00  0.00     0.029 A 
ATOM     58  N   UNL A   1      41.439  30.124  34.086  1.00  0.00    -0.354 N 
ATOM     59  N   UNL A   1      41.804  28.768  31.510  1.00  0.00    -0.248 NA
ATOM     60  C   UNL A   1      42.979  27.278  30.150  1.00  0.00     0.031 C 
ATOM     61  C   UNL A   1      42.797  29.591  35.762  1.00  0.00     0.029 A 
ATOM     62  C   UNL A   1      42.507  29.315  34.435  1.00  0.00     0.049 A 
ATOM     63  H   UNL A   1      41.017  30.152  33.197  1.00  0.00     0.167 HD
ATOM     64  C   UNL A   1      42.814  28.173  32.256  1.00  0.00     0.074 A 
ATOM     65  C   UNL A   1      43.484  27.237  31.375  1.00  0.00     0.031 C 
ATOM     66  C   UNL A   1      43.156  28.378  33.551  1.00  0.00     0.037 A 
BRANCH  53  67
ATOM     67  C   UNL A   1      39.743  32.678  36.395  1.00  0.00     0.057 A 
ATOM     68  C   UNL A   1      40.502  33.818  36.696  1.00  0.00     0.134 A 
ATOM     69  C   UNL A   1      38.716  32.336  37.284  1.00  0.00     0.134 A 
ATOM     70  F   UNL A   1      41.507  34.197  35.892  1.00  0.00    -0.206 F 
ATOM     71  C   UNL A   1      40.271  34.565  37.851  1.00  0.00     0.040 A 
ATOM     72  C   UNL A   1      38.456  33.094  38.427  1.00  0.00     0.040 A 
ATOM     73  F   UNL A   1      37.946  31.261  37.056  1.00  0.00    -0.206 F 
ATOM     74  C   UNL A   1      39.240  34.207  38.718  1.00  0.00     0.006 A 
ENDBRANCH  53  67
BRANCH  54  75
ATOM     75  C   UNL A   1      41.246  27.738  27.845  1.00  0.00     0.057 A 
ATOM     76  C   UNL A   1      40.732  26.449  27.658  1.00  0.00     0.134 A 
ATOM     77  C   UNL A   1      42.001  28.288  26.803  1.00  0.00     0.134 A 
ATOM     78  F   UNL A   1      40.015  25.861  28.627  1.00  0.00    -0.206 F 
ATOM     79  C   UNL A   1      40.981  25.724  26.491  1.00  0.00     0.040 A 
ATOM     80  C   UNL A   1      42.235  27.585  25.620  1.00  0.00     0.040 A 
ATOM     81  F   UNL A   1      42.514  29.522  26.916  1.00  0.00    -0.206 F 
ATOM     82  C   UNL A   1      41.731  26.295  25.466  1.00  0.00     0.006 A 
ENDBRANCH  54  75
BRANCH  66  83
ATOM     83  C   UNL A   1      44.268  27.539  34.111  1.00  0.00     0.057 A 
ATOM     84  C   UNL A   1      44.036  26.287  34.694  1.00  0.00     0.134 A 
ATOM     85  C   UNL A   1      45.595  27.981  34.037  1.00  0.00     0.134 A 
ATOM     86  F   UNL A   1      42.787  25.809  34.806  1.00  0.00    -0.206 F 
ATOM     87  C   UNL A   1      45.080  25.521  35.214  1.00  0.00     0.040 A 
ATOM     88  C   UNL A   1      46.651  27.210  34.526  1.00  0.00     0.040 A 
ATOM     89  F   UNL A   1      45.889  29.167  33.481  1.00  0.00    -0.206 F 
ATOM     90  C   UNL A   1      46.393  25.979  35.125  1.00  0.00     0.006 A 
ENDBRANCH  66  83
ENDBRANCH  40  41
ENDBRANCH  32  35
ENDBRANCH  30  31
ENDBRANCH  29  30
ENDBRANCH  28  29
ENDBRANCH   1  28
TORSDOF 15
ENDMDL
