MODEL 1
REMARK VINA RESULT:     -10.8      0.000      0.000
REMARK SMILES C[C@H]1CCC[C@H](C)N1C(=O)C[N@@H+](CC(=O)NCCCCCCNC(=O)c1ccc(-c2c3nc(c(-c4c(F)cccc4F)c4ccc([nH]4)c(-c4c(F)cccc4F)c4nc(c(-c5c(F)cccc5F)c5ccc2[nH]5)C=C4)C=C3)cc1)C(C)(C)C
REMARK SMILES IDX 19 1 18 2 17 3 16 4 14 5 15 6 13 8 12 9 11 11 9 12 1 13 2 14
REMARK SMILES IDX 3 15 8 16 4 17 6 18 5 19 7 20 10 21 80 22 81 23 82 24 83 25
REMARK SMILES IDX 20 26 21 27 22 28 23 29 24 30 25 32 26 33 27 34 79 35 28 36
REMARK SMILES IDX 78 37 29 38 30 39 31 40 72 41 32 42 77 43 71 44 73 45 33 46
REMARK SMILES IDX 76 47 70 48 69 49 34 51 60 52 43 53 59 54 44 55 47 56 58 57
REMARK SMILES IDX 74 58 45 59 46 60 57 62 75 63 48 64 35 65 36 66 41 67 37 68
REMARK SMILES IDX 38 69 40 70 42 71 39 72 61 73 62 74 67 75 63 76 64 77 66 78
REMARK SMILES IDX 68 79 65 80 49 81 50 82 55 83 51 84 52 85 54 86 56 87 53 88
REMARK H PARENT 16 7 12 10 23 31 73 50 47 61
REMARK Flexibility Score: inf
ROOT
ATOM      1  C   UNL A   1      37.495  22.745  25.567  1.00  0.00     0.002 C 
ENDROOT
BRANCH   1   2
ATOM      2  C   UNL A   1      36.766  21.983  24.462  1.00  0.00     0.021 C 
BRANCH   2   3
ATOM      3  C   UNL A   1      35.862  20.837  24.929  1.00  0.00     0.116 C 
BRANCH   3   4
ATOM      4  N   UNL A   1      35.277  21.112  26.227  1.00  0.00    -0.351 N 
ATOM      5  C   UNL A   1      34.015  21.470  26.601  1.00  0.00     0.275 C 
ATOM      6  O   UNL A   1      33.803  21.534  27.818  1.00  0.00    -0.269 OA
ATOM      7  H   UNL A   1      35.909  21.025  26.977  1.00  0.00     0.163 HD
BRANCH   5   8
ATOM      8  C   UNL A   1      32.872  21.712  25.602  1.00  0.00     0.364 C 
BRANCH   8   9
ATOM      9  N   UNL A   1      32.918  22.940  24.744  1.00  0.00    -0.315 N 
ATOM     10  H   UNL A   1      33.883  23.110  24.461  1.00  0.00     0.349 HD
BRANCH   9  11
ATOM     11  C   UNL A   1      32.535  24.109  25.551  1.00  0.00     0.364 C 
BRANCH  11  12
ATOM     12  C   UNL A   1      33.329  25.400  25.455  1.00  0.00     0.278 C 
ATOM     13  C   UNL A   1      30.211  26.119  25.764  1.00  0.00     0.031 C 
ATOM     14  C   UNL A   1      31.376  27.094  25.860  1.00  0.00     0.082 C 
ATOM     15  C   UNL A   1      31.384  27.797  27.228  1.00  0.00     0.025 C 
ATOM     16  N   UNL A   1      32.756  26.666  25.517  1.00  0.00    -0.332 N 
ATOM     17  C   UNL A   1      32.364  28.973  27.237  1.00  0.00     0.004 C 
ATOM     18  C   UNL A   1      33.714  27.795  25.419  1.00  0.00     0.082 C 
ATOM     19  C   UNL A   1      33.750  28.560  26.750  1.00  0.00     0.025 C 
ATOM     20  C   UNL A   1      33.442  28.692  24.207  1.00  0.00     0.031 C 
ATOM     21  O   UNL A   1      34.535  25.269  25.183  1.00  0.00    -0.268 OA
ENDBRANCH  11  12
ENDBRANCH   9  11
BRANCH   9  22
ATOM     22  C   UNL A   1      32.399  22.809  23.350  1.00  0.00     0.090 C 
ATOM     23  C   UNL A   1      33.299  23.408  22.247  1.00  0.00     0.078 C 
ATOM     24  C   UNL A   1      32.162  21.333  22.945  1.00  0.00     0.078 C 
ATOM     25  C   UNL A   1      31.004  23.478  23.262  1.00  0.00     0.078 C 
ENDBRANCH   9  22
ENDBRANCH   8   9
ENDBRANCH   5   8
ENDBRANCH   3   4
ENDBRANCH   2   3
ENDBRANCH   1   2
BRANCH   1  26
ATOM     26  C   UNL A   1      38.776  22.089  26.085  1.00  0.00     0.002 C 
BRANCH  26  27
ATOM     27  C   UNL A   1      39.248  20.846  25.323  1.00  0.00     0.021 C 
BRANCH  27  28
ATOM     28  C   UNL A   1      39.529  19.611  26.177  1.00  0.00     0.116 C 
BRANCH  28  29
ATOM     29  N   UNL A   1      40.816  19.009  25.870  1.00  0.00    -0.352 N 
ATOM     30  C   UNL A   1      42.069  19.565  25.852  1.00  0.00     0.251 C 
ATOM     31  H   UNL A   1      40.783  18.052  25.642  1.00  0.00     0.163 HD
ATOM     32  O   UNL A   1      43.011  18.935  25.380  1.00  0.00    -0.269 OA
BRANCH  30  33
ATOM     33  C   UNL A   1      42.296  20.927  26.383  1.00  0.00     0.039 A 
ATOM     34  C   UNL A   1      42.134  21.146  27.755  1.00  0.00     0.014 A 
ATOM     35  C   UNL A   1      42.617  21.992  25.537  1.00  0.00     0.014 A 
ATOM     36  C   UNL A   1      42.343  22.421  28.285  1.00  0.00     0.010 A 
ATOM     37  C   UNL A   1      42.884  23.250  26.076  1.00  0.00     0.010 A 
ATOM     38  C   UNL A   1      42.742  23.478  27.453  1.00  0.00    -0.014 A 
BRANCH  38  39
ATOM     39  C   UNL A   1      43.003  24.829  28.010  1.00  0.00     0.031 A 
ATOM     40  C   UNL A   1      44.400  25.236  28.390  1.00  0.00     0.074 A 
ATOM     41  C   UNL A   1      41.974  25.672  28.221  1.00  0.00     0.049 A 
ATOM     42  N   UNL A   1      44.819  26.358  28.919  1.00  0.00    -0.248 NA
ATOM     43  C   UNL A   1      45.462  24.243  28.166  1.00  0.00     0.031 C 
ATOM     44  C   UNL A   1      40.569  25.380  27.936  1.00  0.00     0.029 A 
ATOM     45  N   UNL A   1      41.954  26.946  28.729  1.00  0.00    -0.354 N 
ATOM     46  C   UNL A   1      46.185  26.199  29.110  1.00  0.00     0.074 A 
ATOM     47  C   UNL A   1      46.518  24.857  28.680  1.00  0.00     0.031 C 
ATOM     48  C   UNL A   1      39.825  26.455  28.247  1.00  0.00     0.029 A 
ATOM     49  C   UNL A   1      40.697  27.498  28.779  1.00  0.00     0.049 A 
ATOM     50  H   UNL A   1      42.763  27.421  29.029  1.00  0.00     0.167 HD
ATOM     51  C   UNL A   1      47.085  27.094  29.584  1.00  0.00     0.037 A 
ATOM     52  C   UNL A   1      40.294  28.710  29.203  1.00  0.00     0.037 A 
ATOM     53  C   UNL A   1      46.760  28.439  29.979  1.00  0.00     0.049 A 
ATOM     54  C   UNL A   1      41.313  29.689  29.714  1.00  0.00     0.074 A 
ATOM     55  C   UNL A   1      47.612  29.446  30.397  1.00  0.00     0.029 A 
ATOM     56  N   UNL A   1      45.477  28.964  30.007  1.00  0.00    -0.354 N 
ATOM     57  N   UNL A   1      42.612  29.550  29.821  1.00  0.00    -0.248 NA
ATOM     58  C   UNL A   1      40.808  30.996  30.160  1.00  0.00     0.031 C 
ATOM     59  C   UNL A   1      46.840  30.569  30.713  1.00  0.00     0.029 A 
ATOM     60  C   UNL A   1      45.511  30.273  30.456  1.00  0.00     0.049 A 
ATOM     61  H   UNL A   1      44.661  28.477  29.746  1.00  0.00     0.167 HD
ATOM     62  C   UNL A   1      43.084  30.758  30.318  1.00  0.00     0.074 A 
ATOM     63  C   UNL A   1      41.932  31.621  30.483  1.00  0.00     0.031 C 
ATOM     64  C   UNL A   1      44.357  31.121  30.610  1.00  0.00     0.037 A 
BRANCH  51  65
ATOM     65  C   UNL A   1      48.511  26.641  29.699  1.00  0.00     0.057 A 
ATOM     66  C   UNL A   1      49.426  26.808  28.652  1.00  0.00     0.134 A 
ATOM     67  C   UNL A   1      48.980  26.052  30.880  1.00  0.00     0.134 A 
ATOM     68  F   UNL A   1      49.038  27.356  27.490  1.00  0.00    -0.206 F 
ATOM     69  C   UNL A   1      50.750  26.378  28.763  1.00  0.00     0.040 A 
ATOM     70  C   UNL A   1      50.307  25.640  31.012  1.00  0.00     0.040 A 
ATOM     71  F   UNL A   1      48.158  25.868  31.923  1.00  0.00    -0.206 F 
ATOM     72  C   UNL A   1      51.195  25.796  29.949  1.00  0.00     0.006 A 
ENDBRANCH  51  65
BRANCH  52  73
ATOM     73  C   UNL A   1      38.861  29.084  29.123  1.00  0.00     0.057 A 
ATOM     74  C   UNL A   1      38.311  29.558  27.926  1.00  0.00     0.134 A 
ATOM     75  C   UNL A   1      38.011  28.982  30.230  1.00  0.00     0.134 A 
ATOM     76  F   UNL A   1      39.081  29.694  26.837  1.00  0.00    -0.206 F 
ATOM     77  C   UNL A   1      36.969  29.930  27.835  1.00  0.00     0.040 A 
ATOM     78  C   UNL A   1      36.663  29.332  30.148  1.00  0.00     0.040 A 
ATOM     79  F   UNL A   1      38.479  28.529  31.403  1.00  0.00    -0.206 F 
ATOM     80  C   UNL A   1      36.139  29.813  28.950  1.00  0.00     0.006 A 
ENDBRANCH  52  73
BRANCH  64  81
ATOM     81  C   UNL A   1      44.570  32.518  31.107  1.00  0.00     0.057 A 
ATOM     82  C   UNL A   1      44.578  32.822  32.474  1.00  0.00     0.134 A 
ATOM     83  C   UNL A   1      44.794  33.568  30.207  1.00  0.00     0.134 A 
ATOM     84  F   UNL A   1      44.354  31.864  33.385  1.00  0.00    -0.206 F 
ATOM     85  C   UNL A   1      44.781  34.127  32.928  1.00  0.00     0.040 A 
ATOM     86  C   UNL A   1      45.020  34.871  30.650  1.00  0.00     0.040 A 
ATOM     87  F   UNL A   1      44.805  33.342  28.885  1.00  0.00    -0.206 F 
ATOM     88  C   UNL A   1      45.008  35.154  32.015  1.00  0.00     0.006 A 
ENDBRANCH  64  81
ENDBRANCH  38  39
ENDBRANCH  30  33
ENDBRANCH  28  29
ENDBRANCH  27  28
ENDBRANCH  26  27
ENDBRANCH   1  26
TORSDOF 17
ENDMDL
MODEL 2
REMARK VINA RESULT:     -10.8      5.009     10.188
REMARK SMILES C[C@H]1CCC[C@H](C)N1C(=O)C[N@@H+](CC(=O)NCCCCCCNC(=O)c1ccc(-c2c3nc(c(-c4c(F)cccc4F)c4ccc([nH]4)c(-c4c(F)cccc4F)c4nc(c(-c5c(F)cccc5F)c5ccc2[nH]5)C=C4)C=C3)cc1)C(C)(C)C
REMARK SMILES IDX 19 1 18 2 17 3 16 4 14 5 15 6 13 8 12 9 11 11 9 12 1 13 2 14
REMARK SMILES IDX 3 15 8 16 4 17 6 18 5 19 7 20 10 21 80 22 81 23 82 24 83 25
REMARK SMILES IDX 20 26 21 27 22 28 23 29 24 30 25 32 26 33 27 34 79 35 28 36
REMARK SMILES IDX 78 37 29 38 30 39 31 40 72 41 32 42 77 43 71 44 73 45 33 46
REMARK SMILES IDX 76 47 70 48 69 49 34 51 60 52 43 53 59 54 44 55 47 56 58 57
REMARK SMILES IDX 74 58 45 59 46 60 57 62 75 63 48 64 35 65 36 66 41 67 37 68
REMARK SMILES IDX 38 69 40 70 42 71 39 72 61 73 62 74 67 75 63 76 64 77 66 78
REMARK SMILES IDX 68 79 65 80 49 81 50 82 55 83 51 84 52 85 54 86 56 87 53 88
REMARK H PARENT 16 7 12 10 23 31 73 50 47 61
REMARK Flexibility Score: inf
ROOT
ATOM      1  C   UNL A   1      34.398  32.305  29.082  1.00  0.00     0.002 C 
ENDROOT
BRANCH   1   2
ATOM      2  C   UNL A   1      34.687  31.292  27.976  1.00  0.00     0.021 C 
BRANCH   2   3
ATOM      3  C   UNL A   1      33.509  30.958  27.055  1.00  0.00     0.116 C 
BRANCH   3   4
ATOM      4  N   UNL A   1      32.657  29.933  27.626  1.00  0.00    -0.351 N 
ATOM      5  C   UNL A   1      31.924  28.934  27.055  1.00  0.00     0.275 C 
ATOM      6  O   UNL A   1      31.374  28.146  27.833  1.00  0.00    -0.269 OA
ATOM      7  H   UNL A   1      32.598  29.962  28.609  1.00  0.00     0.163 HD
BRANCH   5   8
ATOM      8  C   UNL A   1      31.824  28.719  25.536  1.00  0.00     0.364 C 
BRANCH   8   9
ATOM      9  N   UNL A   1      31.249  27.431  25.030  1.00  0.00    -0.315 N 
ATOM     10  H   UNL A   1      30.495  27.138  25.653  1.00  0.00     0.349 HD
BRANCH   9  11
ATOM     11  C   UNL A   1      32.268  26.374  25.127  1.00  0.00     0.364 C 
BRANCH  11  12
ATOM     12  C   UNL A   1      31.952  25.065  25.829  1.00  0.00     0.278 C 
ATOM     13  C   UNL A   1      34.481  24.622  23.895  1.00  0.00     0.031 C 
ATOM     14  C   UNL A   1      33.969  23.649  24.947  1.00  0.00     0.082 C 
ATOM     15  C   UNL A   1      35.064  23.342  25.982  1.00  0.00     0.025 C 
ATOM     16  N   UNL A   1      32.682  23.896  25.648  1.00  0.00    -0.332 N 
ATOM     17  C   UNL A   1      34.665  22.163  26.873  1.00  0.00     0.004 C 
ATOM     18  C   UNL A   1      32.214  22.733  26.443  1.00  0.00     0.082 C 
ATOM     19  C   UNL A   1      33.279  22.356  27.483  1.00  0.00     0.025 C 
ATOM     20  C   UNL A   1      31.777  21.558  25.563  1.00  0.00     0.031 C 
ATOM     21  O   UNL A   1      30.903  25.055  26.497  1.00  0.00    -0.268 OA
ENDBRANCH  11  12
ENDBRANCH   9  11
BRANCH   9  22
ATOM     22  C   UNL A   1      30.385  27.509  23.815  1.00  0.00     0.090 C 
ATOM     23  C   UNL A   1      29.074  26.693  23.878  1.00  0.00     0.078 C 
ATOM     24  C   UNL A   1      29.961  28.961  23.485  1.00  0.00     0.078 C 
ATOM     25  C   UNL A   1      31.198  27.038  22.582  1.00  0.00     0.078 C 
ENDBRANCH   9  22
ENDBRANCH   8   9
ENDBRANCH   5   8
ENDBRANCH   3   4
ENDBRANCH   2   3
ENDBRANCH   1   2
BRANCH   1  26
ATOM     26  C   UNL A   1      34.508  33.775  28.674  1.00  0.00     0.002 C 
BRANCH  26  27
ATOM     27  C   UNL A   1      33.209  34.586  28.737  1.00  0.00     0.021 C 
BRANCH  27  28
ATOM     28  C   UNL A   1      33.341  36.009  29.278  1.00  0.00     0.116 C 
BRANCH  28  29
ATOM     29  N   UNL A   1      32.527  36.227  30.462  1.00  0.00    -0.352 N 
ATOM     30  C   UNL A   1      32.666  35.731  31.733  1.00  0.00     0.251 C 
ATOM     31  H   UNL A   1      31.757  36.825  30.332  1.00  0.00     0.163 HD
ATOM     32  O   UNL A   1      31.762  35.881  32.551  1.00  0.00    -0.269 OA
BRANCH  30  33
ATOM     33  C   UNL A   1      33.892  35.002  32.126  1.00  0.00     0.039 A 
ATOM     34  C   UNL A   1      33.774  33.675  32.553  1.00  0.00     0.014 A 
ATOM     35  C   UNL A   1      35.141  35.628  32.124  1.00  0.00     0.014 A 
ATOM     36  C   UNL A   1      34.914  32.962  32.929  1.00  0.00     0.010 A 
ATOM     37  C   UNL A   1      36.285  34.897  32.442  1.00  0.00     0.010 A 
ATOM     38  C   UNL A   1      36.181  33.560  32.854  1.00  0.00    -0.014 A 
BRANCH  38  39
ATOM     39  C   UNL A   1      37.405  32.801  33.216  1.00  0.00     0.031 A 
ATOM     40  C   UNL A   1      38.120  33.084  34.508  1.00  0.00     0.074 A 
ATOM     41  C   UNL A   1      37.900  31.891  32.356  1.00  0.00     0.049 A 
ATOM     42  N   UNL A   1      39.217  32.548  34.980  1.00  0.00    -0.248 NA
ATOM     43  C   UNL A   1      37.537  34.121  35.372  1.00  0.00     0.031 C 
ATOM     44  C   UNL A   1      37.325  31.556  31.052  1.00  0.00     0.029 A 
ATOM     45  N   UNL A   1      39.005  31.083  32.450  1.00  0.00    -0.354 N 
ATOM     46  C   UNL A   1      39.467  33.196  36.183  1.00  0.00     0.074 A 
ATOM     47  C   UNL A   1      38.431  34.193  36.348  1.00  0.00     0.031 C 
ATOM     48  C   UNL A   1      38.065  30.592  30.480  1.00  0.00     0.029 A 
ATOM     49  C   UNL A   1      39.181  30.263  31.362  1.00  0.00     0.049 A 
ATOM     50  H   UNL A   1      39.614  31.089  33.224  1.00  0.00     0.167 HD
ATOM     51  C   UNL A   1      40.459  32.969  37.077  1.00  0.00     0.037 A 
ATOM     52  C   UNL A   1      40.134  29.347  31.106  1.00  0.00     0.037 A 
ATOM     53  C   UNL A   1      41.468  31.953  36.929  1.00  0.00     0.049 A 
ATOM     54  C   UNL A   1      41.217  29.106  32.120  1.00  0.00     0.074 A 
ATOM     55  C   UNL A   1      42.467  31.593  37.817  1.00  0.00     0.029 A 
ATOM     56  N   UNL A   1      41.607  31.137  35.817  1.00  0.00    -0.354 N 
ATOM     57  N   UNL A   1      41.398  29.675  33.286  1.00  0.00    -0.248 NA
ATOM     58  C   UNL A   1      42.224  28.091  31.781  1.00  0.00     0.031 C 
ATOM     59  C   UNL A   1      43.234  30.583  37.226  1.00  0.00     0.029 A 
ATOM     60  C   UNL A   1      42.689  30.289  35.986  1.00  0.00     0.049 A 
ATOM     61  H   UNL A   1      41.024  31.158  35.024  1.00  0.00     0.167 HD
ATOM     62  C   UNL A   1      42.522  29.070  33.834  1.00  0.00     0.074 A 
ATOM     63  C   UNL A   1      42.974  28.083  32.874  1.00  0.00     0.031 C 
ATOM     64  C   UNL A   1      43.124  29.309  35.024  1.00  0.00     0.037 A 
BRANCH  51  65
ATOM     65  C   UNL A   1      40.495  33.839  38.299  1.00  0.00     0.057 A 
ATOM     66  C   UNL A   1      39.747  33.537  39.445  1.00  0.00     0.134 A 
ATOM     67  C   UNL A   1      41.306  34.980  38.339  1.00  0.00     0.134 A 
ATOM     68  F   UNL A   1      38.942  32.464  39.467  1.00  0.00    -0.206 F 
ATOM     69  C   UNL A   1      39.781  34.355  40.576  1.00  0.00     0.040 A 
ATOM     70  C   UNL A   1      41.367  35.792  39.473  1.00  0.00     0.040 A 
ATOM     71  F   UNL A   1      42.053  35.323  37.279  1.00  0.00    -0.206 F 
ATOM     72  C   UNL A   1      40.597  35.484  40.593  1.00  0.00     0.006 A 
ENDBRANCH  51  65
BRANCH  52  73
ATOM     73  C   UNL A   1      40.083  28.556  29.853  1.00  0.00     0.057 A 
ATOM     74  C   UNL A   1      40.805  28.958  28.723  1.00  0.00     0.134 A 
ATOM     75  C   UNL A   1      39.318  27.389  29.750  1.00  0.00     0.134 A 
ATOM     76  F   UNL A   1      41.542  30.078  28.756  1.00  0.00    -0.206 F 
ATOM     77  C   UNL A   1      40.757  28.236  27.530  1.00  0.00     0.040 A 
ATOM     78  C   UNL A   1      39.277  26.646  28.569  1.00  0.00     0.040 A 
ATOM     79  F   UNL A   1      38.609  26.949  30.800  1.00  0.00    -0.206 F 
ATOM     80  C   UNL A   1      39.993  27.072  27.453  1.00  0.00     0.006 A 
ENDBRANCH  52  73
BRANCH  64  81
ATOM     81  C   UNL A   1      44.316  28.467  35.366  1.00  0.00     0.057 A 
ATOM     82  C   UNL A   1      45.616  28.853  35.018  1.00  0.00     0.134 A 
ATOM     83  C   UNL A   1      44.162  27.268  36.074  1.00  0.00     0.134 A 
ATOM     84  F   UNL A   1      45.827  29.983  34.326  1.00  0.00    -0.206 F 
ATOM     85  C   UNL A   1      46.721  28.064  35.342  1.00  0.00     0.040 A 
ATOM     86  C   UNL A   1      45.261  26.483  36.424  1.00  0.00     0.040 A 
ATOM     87  F   UNL A   1      42.944  26.846  36.443  1.00  0.00    -0.206 F 
ATOM     88  C   UNL A   1      46.545  26.878  36.053  1.00  0.00     0.006 A 
ENDBRANCH  64  81
ENDBRANCH  38  39
ENDBRANCH  30  33
ENDBRANCH  28  29
ENDBRANCH  27  28
ENDBRANCH  26  27
ENDBRANCH   1  26
TORSDOF 17
ENDMDL
MODEL 3
REMARK VINA RESULT:     -10.6      1.693      6.373
REMARK SMILES C[C@H]1CCC[C@H](C)N1C(=O)C[N@@H+](CC(=O)NCCCCCCNC(=O)c1ccc(-c2c3nc(c(-c4c(F)cccc4F)c4ccc([nH]4)c(-c4c(F)cccc4F)c4nc(c(-c5c(F)cccc5F)c5ccc2[nH]5)C=C4)C=C3)cc1)C(C)(C)C
REMARK SMILES IDX 19 1 18 2 17 3 16 4 14 5 15 6 13 8 12 9 11 11 9 12 1 13 2 14
REMARK SMILES IDX 3 15 8 16 4 17 6 18 5 19 7 20 10 21 80 22 81 23 82 24 83 25
REMARK SMILES IDX 20 26 21 27 22 28 23 29 24 30 25 32 26 33 27 34 79 35 28 36
REMARK SMILES IDX 78 37 29 38 30 39 31 40 72 41 32 42 77 43 71 44 73 45 33 46
REMARK SMILES IDX 76 47 70 48 69 49 34 51 60 52 43 53 59 54 44 55 47 56 58 57
REMARK SMILES IDX 74 58 45 59 46 60 57 62 75 63 48 64 35 65 36 66 41 67 37 68
REMARK SMILES IDX 38 69 40 70 42 71 39 72 61 73 62 74 67 75 63 76 64 77 66 78
REMARK SMILES IDX 68 79 65 80 49 81 50 82 55 83 51 84 52 85 54 86 56 87 53 88
REMARK H PARENT 16 7 12 10 23 31 73 50 47 61
REMARK Flexibility Score: inf
ROOT
ATOM      1  C   UNL A   1      35.013  20.052  24.931  1.00  0.00     0.002 C 
ENDROOT
BRANCH   1   2
ATOM      2  C   UNL A   1      34.000  21.022  25.535  1.00  0.00     0.021 C 
BRANCH   2   3
ATOM      3  C   UNL A   1      32.528  20.626  25.384  1.00  0.00     0.116 C 
BRANCH   3   4
ATOM      4  N   UNL A   1      31.654  21.523  26.115  1.00  0.00    -0.351 N 
ATOM      5  C   UNL A   1      31.007  22.667  25.748  1.00  0.00     0.275 C 
ATOM      6  O   UNL A   1      30.242  23.155  26.587  1.00  0.00    -0.269 OA
ATOM      7  H   UNL A   1      31.500  21.258  27.051  1.00  0.00     0.163 HD
BRANCH   5   8
ATOM      8  C   UNL A   1      31.134  23.300  24.353  1.00  0.00     0.364 C 
BRANCH   8   9
ATOM      9  N   UNL A   1      32.251  24.269  24.104  1.00  0.00    -0.315 N 
ATOM     10  H   UNL A   1      32.981  24.117  24.800  1.00  0.00     0.349 HD
BRANCH   9  11
ATOM     11  C   UNL A   1      31.766  25.638  24.338  1.00  0.00     0.364 C 
BRANCH  11  12
ATOM     12  C   UNL A   1      32.243  26.425  25.546  1.00  0.00     0.278 C 
ATOM     13  C   UNL A   1      32.276  28.352  22.973  1.00  0.00     0.031 C 
ATOM     14  C   UNL A   1      32.458  28.779  24.422  1.00  0.00     0.082 C 
ATOM     15  C   UNL A   1      31.386  29.804  24.825  1.00  0.00     0.025 C 
ATOM     16  N   UNL A   1      32.604  27.767  25.501  1.00  0.00    -0.332 N 
ATOM     17  C   UNL A   1      31.720  30.450  26.173  1.00  0.00     0.004 C 
ATOM     18  C   UNL A   1      33.026  28.348  26.799  1.00  0.00     0.082 C 
ATOM     19  C   UNL A   1      32.007  29.405  27.248  1.00  0.00     0.025 C 
ATOM     20  C   UNL A   1      34.468  28.865  26.770  1.00  0.00     0.031 C 
ATOM     21  O   UNL A   1      32.420  25.760  26.582  1.00  0.00    -0.268 OA
ENDBRANCH  11  12
ENDBRANCH   9  11
BRANCH   9  22
ATOM     22  C   UNL A   1      33.135  23.993  22.932  1.00  0.00     0.090 C 
ATOM     23  C   UNL A   1      33.032  25.006  21.769  1.00  0.00     0.078 C 
ATOM     24  C   UNL A   1      34.633  23.950  23.321  1.00  0.00     0.078 C 
ATOM     25  C   UNL A   1      32.822  22.579  22.381  1.00  0.00     0.078 C 
ENDBRANCH   9  22
ENDBRANCH   8   9
ENDBRANCH   5   8
ENDBRANCH   3   4
ENDBRANCH   2   3
ENDBRANCH   1   2
BRANCH   1  26
ATOM     26  C   UNL A   1      36.429  20.603  24.752  1.00  0.00     0.002 C 
BRANCH  26  27
ATOM     27  C   UNL A   1      37.570  19.611  24.999  1.00  0.00     0.021 C 
BRANCH  27  28
ATOM     28  C   UNL A   1      38.858  20.209  25.565  1.00  0.00     0.116 C 
BRANCH  28  29
ATOM     29  N   UNL A   1      39.882  19.203  25.790  1.00  0.00    -0.352 N 
ATOM     30  C   UNL A   1      41.211  19.347  26.093  1.00  0.00     0.251 C 
ATOM     31  H   UNL A   1      39.572  18.272  25.714  1.00  0.00     0.163 HD
ATOM     32  O   UNL A   1      41.957  18.373  26.056  1.00  0.00    -0.269 OA
BRANCH  30  33
ATOM     33  C   UNL A   1      41.762  20.673  26.451  1.00  0.00     0.039 A 
ATOM     34  C   UNL A   1      42.084  21.564  25.423  1.00  0.00     0.014 A 
ATOM     35  C   UNL A   1      42.005  21.022  27.782  1.00  0.00     0.014 A 
ATOM     36  C   UNL A   1      42.605  22.823  25.731  1.00  0.00     0.010 A 
ATOM     37  C   UNL A   1      42.467  22.301  28.091  1.00  0.00     0.010 A 
ATOM     38  C   UNL A   1      42.779  23.210  27.069  1.00  0.00    -0.014 A 
BRANCH  38  39
ATOM     39  C   UNL A   1      43.295  24.559  27.411  1.00  0.00     0.031 A 
ATOM     40  C   UNL A   1      42.355  25.637  27.874  1.00  0.00     0.074 A 
ATOM     41  C   UNL A   1      44.605  24.828  27.255  1.00  0.00     0.049 A 
ATOM     42  N   UNL A   1      42.613  26.882  28.187  1.00  0.00    -0.248 NA
ATOM     43  C   UNL A   1      40.933  25.274  27.978  1.00  0.00     0.031 C 
ATOM     44  C   UNL A   1      45.613  23.883  26.772  1.00  0.00     0.029 A 
ATOM     45  N   UNL A   1      45.313  25.981  27.484  1.00  0.00    -0.354 N 
ATOM     46  C   UNL A   1      41.389  27.454  28.504  1.00  0.00     0.074 A 
ATOM     47  C   UNL A   1      40.381  26.433  28.305  1.00  0.00     0.031 C 
ATOM     48  C   UNL A   1      46.813  24.485  26.767  1.00  0.00     0.029 A 
ATOM     49  C   UNL A   1      46.655  25.864  27.219  1.00  0.00     0.049 A 
ATOM     50  H   UNL A   1      44.899  26.813  27.810  1.00  0.00     0.167 HD
ATOM     51  C   UNL A   1      41.127  28.710  28.938  1.00  0.00     0.037 A 
ATOM     52  C   UNL A   1      47.648  26.767  27.330  1.00  0.00     0.037 A 
ATOM     53  C   UNL A   1      42.133  29.714  29.169  1.00  0.00     0.049 A 
ATOM     54  C   UNL A   1      47.334  28.151  27.825  1.00  0.00     0.074 A 
ATOM     55  C   UNL A   1      41.977  30.990  29.683  1.00  0.00     0.029 A 
ATOM     56  N   UNL A   1      43.483  29.555  28.897  1.00  0.00    -0.354 N 
ATOM     57  N   UNL A   1      46.181  28.656  28.191  1.00  0.00    -0.248 NA
ATOM     58  C   UNL A   1      48.462  29.088  27.926  1.00  0.00     0.031 C 
ATOM     59  C   UNL A   1      43.229  31.615  29.687  1.00  0.00     0.029 A 
ATOM     60  C   UNL A   1      44.169  30.715  29.211  1.00  0.00     0.049 A 
ATOM     61  H   UNL A   1      43.893  28.737  28.533  1.00  0.00     0.167 HD
ATOM     62  C   UNL A   1      46.447  29.959  28.592  1.00  0.00     0.074 A 
ATOM     63  C   UNL A   1      47.873  30.162  28.432  1.00  0.00     0.031 C 
ATOM     64  C   UNL A   1      45.588  30.901  29.052  1.00  0.00     0.037 A 
BRANCH  51  65
ATOM     65  C   UNL A   1      39.692  29.066  29.193  1.00  0.00     0.057 A 
ATOM     66  C   UNL A   1      38.846  29.506  28.167  1.00  0.00     0.134 A 
ATOM     67  C   UNL A   1      39.144  28.945  30.476  1.00  0.00     0.134 A 
ATOM     68  F   UNL A   1      39.313  29.654  26.918  1.00  0.00    -0.206 F 
ATOM     69  C   UNL A   1      37.513  29.843  28.413  1.00  0.00     0.040 A 
ATOM     70  C   UNL A   1      37.806  29.255  30.730  1.00  0.00     0.040 A 
ATOM     71  F   UNL A   1      39.897  28.523  31.503  1.00  0.00    -0.206 F 
ATOM     72  C   UNL A   1      36.989  29.712  29.698  1.00  0.00     0.006 A 
ENDBRANCH  51  65
BRANCH  52  73
ATOM     73  C   UNL A   1      49.042  26.379  27.007  1.00  0.00     0.057 A 
ATOM     74  C   UNL A   1      49.527  26.476  25.697  1.00  0.00     0.134 A 
ATOM     75  C   UNL A   1      49.919  25.903  27.988  1.00  0.00     0.134 A 
ATOM     76  F   UNL A   1      48.726  26.908  24.712  1.00  0.00    -0.206 F 
ATOM     77  C   UNL A   1      50.830  26.100  25.371  1.00  0.00     0.040 A 
ATOM     78  C   UNL A   1      51.232  25.543  27.679  1.00  0.00     0.040 A 
ATOM     79  F   UNL A   1      49.515  25.794  29.262  1.00  0.00    -0.206 F 
ATOM     80  C   UNL A   1      51.689  25.636  26.367  1.00  0.00     0.006 A 
ENDBRANCH  52  73
BRANCH  64  81
ATOM     81  C   UNL A   1      46.175  32.223  29.444  1.00  0.00     0.057 A 
ATOM     82  C   UNL A   1      46.268  33.287  28.538  1.00  0.00     0.134 A 
ATOM     83  C   UNL A   1      46.628  32.442  30.751  1.00  0.00     0.134 A 
ATOM     84  F   UNL A   1      45.865  33.135  27.267  1.00  0.00    -0.206 F 
ATOM     85  C   UNL A   1      46.813  34.516  28.913  1.00  0.00     0.040 A 
ATOM     86  C   UNL A   1      47.153  33.674  31.143  1.00  0.00     0.040 A 
ATOM     87  F   UNL A   1      46.560  31.466  31.668  1.00  0.00    -0.206 F 
ATOM     88  C   UNL A   1      47.252  34.714  30.220  1.00  0.00     0.006 A 
ENDBRANCH  64  81
ENDBRANCH  38  39
ENDBRANCH  30  33
ENDBRANCH  28  29
ENDBRANCH  27  28
ENDBRANCH  26  27
ENDBRANCH   1  26
TORSDOF 17
ENDMDL
