MODEL 1
REMARK VINA RESULT:     -11.9      0.000      0.000
REMARK SMILES C[C@H]1CC[C@H](CNC(=O)NCc2ccc(C(=O)NCCCCCCNC(=O)c3ccc(-c4c5nc(c(-c6c(F)cccc6F)c6ccc([nH]6)c(-c6c(F)cccc6F)c6nc(c(-c7c(F)cccc7F)c7ccc4[nH]7)C=C6)C=C5)cc3)o2)CC1
REMARK SMILES IDX 20 1 19 2 18 3 16 4 17 5 15 7 12 8 13 9 82 10 14 11 11 12
REMARK SMILES IDX 10 13 7 14 8 15 9 17 6 19 5 20 1 21 2 22 84 23 3 24 83 25
REMARK SMILES IDX 4 26 21 27 22 28 23 29 24 30 25 31 26 32 27 34 28 35 29 36
REMARK SMILES IDX 81 37 30 38 80 39 31 40 32 41 33 42 74 43 34 44 79 45 73 46
REMARK SMILES IDX 75 47 35 48 78 49 72 50 71 51 36 53 62 54 45 55 61 56 46 57
REMARK SMILES IDX 49 58 60 59 76 60 47 61 48 62 59 64 77 65 50 66 37 67 38 68
REMARK SMILES IDX 43 69 39 70 40 71 42 72 44 73 41 74 63 75 64 76 69 77 65 78
REMARK SMILES IDX 66 79 68 80 70 81 67 82 51 83 52 84 57 85 53 86 54 87 56 88
REMARK SMILES IDX 58 89 55 90
REMARK H PARENT 18 6 7 16 10 18 25 33 75 52 49 63
REMARK Flexibility Score: inf
ROOT
ATOM      1  C   UNL A   1      37.343  23.058  25.555  1.00  0.00     0.021 C 
ENDROOT
BRANCH   1   2
ATOM      2  C   UNL A   1      36.040  23.752  25.950  1.00  0.00     0.116 C 
BRANCH   2   3
ATOM      3  N   UNL A   1      35.266  22.939  26.868  1.00  0.00    -0.349 N 
ATOM      4  C   UNL A   1      34.171  22.137  26.667  1.00  0.00     0.286 C 
ATOM      5  O   UNL A   1      33.828  21.452  27.635  1.00  0.00    -0.266 OA
ATOM      6  H   UNL A   1      35.583  22.966  27.799  1.00  0.00     0.163 HD
BRANCH   4   7
ATOM      7  C   UNL A   1      33.476  22.095  25.392  1.00  0.00     0.191 A 
ATOM      8  C   UNL A   1      32.298  23.040  23.761  1.00  0.00     0.124 A 
ATOM      9  C   UNL A   1      32.521  21.736  23.375  1.00  0.00     0.048 A 
ATOM     10  O   UNL A   1      32.860  23.252  24.984  1.00  0.00    -0.454 OA
ATOM     11  C   UNL A   1      33.297  21.140  24.402  1.00  0.00     0.056 A 
BRANCH   8  12
ATOM     12  C   UNL A   1      31.584  24.175  23.112  1.00  0.00     0.193 C 
BRANCH  12  13
ATOM     13  N   UNL A   1      32.153  24.485  21.822  1.00  0.00    -0.331 N 
ATOM     14  N   UNL A   1      32.050  26.832  21.611  1.00  0.00    -0.338 N 
ATOM     15  C   UNL A   1      32.471  25.627  21.207  1.00  0.00     0.315 C 
ATOM     16  H   UNL A   1      32.570  27.575  21.228  1.00  0.00     0.165 HD
ATOM     17  O   UNL A   1      33.200  25.574  20.214  1.00  0.00    -0.249 OA
ATOM     18  H   UNL A   1      32.350  23.685  21.282  1.00  0.00     0.165 HD
BRANCH  14  19
ATOM     19  C   UNL A   1      30.988  27.267  22.496  1.00  0.00     0.121 C 
BRANCH  19  20
ATOM     20  C   UNL A   1      31.536  28.059  23.694  1.00  0.00     0.008 C 
ATOM     21  C   UNL A   1      33.919  28.955  27.273  1.00  0.00     0.007 C 
ATOM     22  C   UNL A   1      33.328  28.223  26.070  1.00  0.00    -0.014 C 
ATOM     23  C   UNL A   1      33.655  28.960  24.767  1.00  0.00     0.003 C 
ATOM     24  C   UNL A   1      31.812  28.057  26.226  1.00  0.00     0.003 C 
ATOM     25  C   UNL A   1      33.054  28.247  23.556  1.00  0.00     0.006 C 
ATOM     26  C   UNL A   1      31.196  27.353  25.019  1.00  0.00     0.006 C 
ENDBRANCH  19  20
ENDBRANCH  14  19
ENDBRANCH  12  13
ENDBRANCH   8  12
ENDBRANCH   4   7
ENDBRANCH   2   3
ENDBRANCH   1   2
BRANCH   1  27
ATOM     27  C   UNL A   1      37.172  21.976  24.478  1.00  0.00     0.002 C 
BRANCH  27  28
ATOM     28  C   UNL A   1      36.886  20.561  25.000  1.00  0.00     0.002 C 
BRANCH  28  29
ATOM     29  C   UNL A   1      38.074  19.593  24.979  1.00  0.00     0.021 C 
BRANCH  29  30
ATOM     30  C   UNL A   1      39.285  20.038  25.797  1.00  0.00     0.116 C 
BRANCH  30  31
ATOM     31  N   UNL A   1      40.306  19.007  25.875  1.00  0.00    -0.352 N 
ATOM     32  C   UNL A   1      41.662  19.126  26.052  1.00  0.00     0.251 C 
ATOM     33  H   UNL A   1      39.976  18.083  25.787  1.00  0.00     0.163 HD
ATOM     34  O   UNL A   1      42.390  18.147  25.910  1.00  0.00    -0.269 OA
BRANCH  32  35
ATOM     35  C   UNL A   1      42.259  20.435  26.397  1.00  0.00     0.039 A 
ATOM     36  C   UNL A   1      42.831  21.203  25.378  1.00  0.00     0.014 A 
ATOM     37  C   UNL A   1      42.273  20.898  27.716  1.00  0.00     0.014 A 
ATOM     38  C   UNL A   1      43.353  22.466  25.669  1.00  0.00     0.010 A 
ATOM     39  C   UNL A   1      42.744  22.180  27.996  1.00  0.00     0.010 A 
ATOM     40  C   UNL A   1      43.278  22.979  26.974  1.00  0.00    -0.014 A 
BRANCH  40  41
ATOM     41  C   UNL A   1      43.718  24.364  27.280  1.00  0.00     0.031 A 
ATOM     42  C   UNL A   1      42.721  25.412  27.682  1.00  0.00     0.074 A 
ATOM     43  C   UNL A   1      45.015  24.693  27.120  1.00  0.00     0.049 A 
ATOM     44  N   UNL A   1      42.910  26.688  27.907  1.00  0.00    -0.248 NA
ATOM     45  C   UNL A   1      41.326  24.974  27.830  1.00  0.00     0.031 C 
ATOM     46  C   UNL A   1      46.074  23.777  26.692  1.00  0.00     0.029 A 
ATOM     47  N   UNL A   1      45.660  25.893  27.283  1.00  0.00    -0.354 N 
ATOM     48  C   UNL A   1      41.659  27.208  28.210  1.00  0.00     0.074 A 
ATOM     49  C   UNL A   1      40.712  26.118  28.101  1.00  0.00     0.031 C 
ATOM     50  C   UNL A   1      47.237  24.444  26.640  1.00  0.00     0.029 A 
ATOM     51  C   UNL A   1      47.002  25.840  26.995  1.00  0.00     0.049 A 
ATOM     52  H   UNL A   1      45.203  26.715  27.577  1.00  0.00     0.167 HD
ATOM     53  C   UNL A   1      41.332  28.473  28.564  1.00  0.00     0.037 A 
ATOM     54  C   UNL A   1      47.936  26.809  27.005  1.00  0.00     0.037 A 
ATOM     55  C   UNL A   1      42.278  29.551  28.697  1.00  0.00     0.049 A 
ATOM     56  C   UNL A   1      47.545  28.208  27.384  1.00  0.00     0.074 A 
ATOM     57  C   UNL A   1      42.055  30.847  29.127  1.00  0.00     0.029 A 
ATOM     58  N   UNL A   1      43.629  29.458  28.394  1.00  0.00    -0.354 N 
ATOM     59  N   UNL A   1      46.370  28.671  27.732  1.00  0.00    -0.248 NA
ATOM     60  C   UNL A   1      48.611  29.221  27.369  1.00  0.00     0.031 C 
ATOM     61  C   UNL A   1      43.262  31.551  29.047  1.00  0.00     0.029 A 
ATOM     62  C   UNL A   1      44.244  30.682  28.600  1.00  0.00     0.049 A 
ATOM     63  H   UNL A   1      44.082  28.643  28.080  1.00  0.00     0.167 HD
ATOM     64  C   UNL A   1      46.554  30.022  27.989  1.00  0.00     0.074 A 
ATOM     65  C   UNL A   1      47.959  30.302  27.773  1.00  0.00     0.031 C 
ATOM     66  C   UNL A   1      45.641  30.948  28.368  1.00  0.00     0.037 A 
BRANCH  53  67
ATOM     67  C   UNL A   1      39.887  28.763  28.838  1.00  0.00     0.057 A 
ATOM     68  C   UNL A   1      39.342  28.647  30.124  1.00  0.00     0.134 A 
ATOM     69  C   UNL A   1      39.037  29.195  27.812  1.00  0.00     0.134 A 
ATOM     70  F   UNL A   1      40.102  28.227  31.147  1.00  0.00    -0.206 F 
ATOM     71  C   UNL A   1      37.999  28.929  30.375  1.00  0.00     0.040 A 
ATOM     72  C   UNL A   1      37.697  29.502  28.056  1.00  0.00     0.040 A 
ATOM     73  F   UNL A   1      39.496  29.333  26.559  1.00  0.00    -0.206 F 
ATOM     74  C   UNL A   1      37.173  29.364  29.340  1.00  0.00     0.006 A 
ENDBRANCH  53  67
BRANCH  54  75
ATOM     75  C   UNL A   1      49.339  26.483  26.651  1.00  0.00     0.057 A 
ATOM     76  C   UNL A   1      49.801  26.632  25.339  1.00  0.00     0.134 A 
ATOM     77  C   UNL A   1      50.249  26.025  27.611  1.00  0.00     0.134 A 
ATOM     78  F   UNL A   1      48.969  27.050  24.374  1.00  0.00    -0.206 F 
ATOM     79  C   UNL A   1      51.117  26.327  24.989  1.00  0.00     0.040 A 
ATOM     80  C   UNL A   1      51.573  25.735  27.279  1.00  0.00     0.040 A 
ATOM     81  F   UNL A   1      49.867  25.868  28.886  1.00  0.00    -0.206 F 
ATOM     82  C   UNL A   1      52.009  25.881  25.963  1.00  0.00     0.006 A 
ENDBRANCH  54  75
BRANCH  66  83
ATOM     83  C   UNL A   1      46.134  32.348  28.575  1.00  0.00     0.057 A 
ATOM     84  C   UNL A   1      46.112  33.292  27.541  1.00  0.00     0.134 A 
ATOM     85  C   UNL A   1      46.606  32.765  29.826  1.00  0.00     0.134 A 
ATOM     86  F   UNL A   1      45.687  32.948  26.316  1.00  0.00    -0.206 F 
ATOM     87  C   UNL A   1      46.557  34.600  27.739  1.00  0.00     0.040 A 
ATOM     88  C   UNL A   1      47.034  34.076  30.042  1.00  0.00     0.040 A 
ATOM     89  F   UNL A   1      46.648  31.910  30.858  1.00  0.00    -0.206 F 
ATOM     90  C   UNL A   1      47.013  34.996  28.995  1.00  0.00     0.006 A 
ENDBRANCH  66  83
ENDBRANCH  40  41
ENDBRANCH  32  35
ENDBRANCH  30  31
ENDBRANCH  29  30
ENDBRANCH  28  29
ENDBRANCH  27  28
ENDBRANCH   1  27
TORSDOF 17
ENDMDL
MODEL 2
REMARK VINA RESULT:     -11.8      1.112      6.282
REMARK SMILES C[C@H]1CC[C@H](CNC(=O)NCc2ccc(C(=O)NCCCCCCNC(=O)c3ccc(-c4c5nc(c(-c6c(F)cccc6F)c6ccc([nH]6)c(-c6c(F)cccc6F)c6nc(c(-c7c(F)cccc7F)c7ccc4[nH]7)C=C6)C=C5)cc3)o2)CC1
REMARK SMILES IDX 20 1 19 2 18 3 16 4 17 5 15 7 12 8 13 9 82 10 14 11 11 12
REMARK SMILES IDX 10 13 7 14 8 15 9 17 6 19 5 20 1 21 2 22 84 23 3 24 83 25
REMARK SMILES IDX 4 26 21 27 22 28 23 29 24 30 25 31 26 32 27 34 28 35 29 36
REMARK SMILES IDX 81 37 30 38 80 39 31 40 32 41 33 42 74 43 34 44 79 45 73 46
REMARK SMILES IDX 75 47 35 48 78 49 72 50 71 51 36 53 62 54 45 55 61 56 46 57
REMARK SMILES IDX 49 58 60 59 76 60 47 61 48 62 59 64 77 65 50 66 37 67 38 68
REMARK SMILES IDX 43 69 39 70 40 71 42 72 44 73 41 74 63 75 64 76 69 77 65 78
REMARK SMILES IDX 66 79 68 80 70 81 67 82 51 83 52 84 57 85 53 86 54 87 56 88
REMARK SMILES IDX 58 89 55 90
REMARK H PARENT 18 6 7 16 10 18 25 33 75 52 49 63
REMARK Flexibility Score: inf
ROOT
ATOM      1  C   UNL A   1      37.272  23.057  25.326  1.00  0.00     0.021 C 
ENDROOT
BRANCH   1   2
ATOM      2  C   UNL A   1      35.986  23.783  25.721  1.00  0.00     0.116 C 
BRANCH   2   3
ATOM      3  N   UNL A   1      35.269  23.060  26.753  1.00  0.00    -0.349 N 
ATOM      4  C   UNL A   1      34.179  22.228  26.687  1.00  0.00     0.286 C 
ATOM      5  O   UNL A   1      33.892  21.643  27.736  1.00  0.00    -0.266 OA
ATOM      6  H   UNL A   1      35.626  23.188  27.661  1.00  0.00     0.163 HD
BRANCH   4   7
ATOM      7  C   UNL A   1      33.429  22.044  25.456  1.00  0.00     0.191 A 
ATOM      8  C   UNL A   1      32.040  22.755  23.875  1.00  0.00     0.124 A 
ATOM      9  C   UNL A   1      32.428  21.484  23.509  1.00  0.00     0.048 A 
ATOM     10  O   UNL A   1      32.631  23.086  25.057  1.00  0.00    -0.454 OA
ATOM     11  C   UNL A   1      33.337  21.040  24.504  1.00  0.00     0.056 A 
BRANCH   8  12
ATOM     12  C   UNL A   1      31.135  23.753  23.240  1.00  0.00     0.193 C 
BRANCH  12  13
ATOM     13  N   UNL A   1      31.755  24.370  22.092  1.00  0.00    -0.331 N 
ATOM     14  N   UNL A   1      32.891  26.270  22.907  1.00  0.00    -0.338 N 
ATOM     15  C   UNL A   1      32.611  25.385  21.943  1.00  0.00     0.315 C 
ATOM     16  H   UNL A   1      33.715  26.783  22.740  1.00  0.00     0.165 HD
ATOM     17  O   UNL A   1      33.184  25.513  20.859  1.00  0.00    -0.249 OA
ATOM     18  H   UNL A   1      31.493  23.955  21.239  1.00  0.00     0.165 HD
BRANCH  14  19
ATOM     19  C   UNL A   1      32.231  26.629  24.148  1.00  0.00     0.121 C 
BRANCH  19  20
ATOM     20  C   UNL A   1      32.762  27.957  24.709  1.00  0.00     0.008 C 
ATOM     21  C   UNL A   1      33.591  31.141  27.620  1.00  0.00     0.007 C 
ATOM     22  C   UNL A   1      33.087  29.841  26.996  1.00  0.00    -0.014 C 
ATOM     23  C   UNL A   1      34.254  28.989  26.487  1.00  0.00     0.003 C 
ATOM     24  C   UNL A   1      32.099  30.131  25.859  1.00  0.00     0.003 C 
ATOM     25  C   UNL A   1      33.762  27.693  25.844  1.00  0.00     0.006 C 
ATOM     26  C   UNL A   1      31.605  28.845  25.202  1.00  0.00     0.006 C 
ENDBRANCH  19  20
ENDBRANCH  14  19
ENDBRANCH  12  13
ENDBRANCH   8  12
ENDBRANCH   4   7
ENDBRANCH   2   3
ENDBRANCH   1   2
BRANCH   1  27
ATOM     27  C   UNL A   1      37.064  21.927  24.308  1.00  0.00     0.002 C 
BRANCH  27  28
ATOM     28  C   UNL A   1      36.939  20.516  24.901  1.00  0.00     0.002 C 
BRANCH  28  29
ATOM     29  C   UNL A   1      38.211  19.663  24.859  1.00  0.00     0.021 C 
BRANCH  29  30
ATOM     30  C   UNL A   1      39.276  20.043  25.887  1.00  0.00     0.116 C 
BRANCH  30  31
ATOM     31  N   UNL A   1      40.387  19.104  25.902  1.00  0.00    -0.352 N 
ATOM     32  C   UNL A   1      41.728  19.334  26.076  1.00  0.00     0.251 C 
ATOM     33  H   UNL A   1      40.139  18.161  25.765  1.00  0.00     0.163 HD
ATOM     34  O   UNL A   1      42.539  18.434  25.875  1.00  0.00    -0.269 OA
BRANCH  32  35
ATOM     35  C   UNL A   1      42.210  20.672  26.489  1.00  0.00     0.039 A 
ATOM     36  C   UNL A   1      42.675  21.552  25.507  1.00  0.00     0.014 A 
ATOM     37  C   UNL A   1      42.222  21.052  27.834  1.00  0.00     0.014 A 
ATOM     38  C   UNL A   1      43.084  22.839  25.865  1.00  0.00     0.010 A 
ATOM     39  C   UNL A   1      42.579  22.353  28.184  1.00  0.00     0.010 A 
ATOM     40  C   UNL A   1      43.003  23.261  27.201  1.00  0.00    -0.014 A 
BRANCH  40  41
ATOM     41  C   UNL A   1      43.320  24.660  27.585  1.00  0.00     0.031 A 
ATOM     42  C   UNL A   1      44.746  25.111  27.724  1.00  0.00     0.074 A 
ATOM     43  C   UNL A   1      42.315  25.505  27.884  1.00  0.00     0.049 A 
ATOM     44  N   UNL A   1      45.211  26.266  28.127  1.00  0.00    -0.248 NA
ATOM     45  C   UNL A   1      45.785  24.129  27.385  1.00  0.00     0.031 C 
ATOM     46  C   UNL A   1      40.888  25.176  27.830  1.00  0.00     0.029 A 
ATOM     47  N   UNL A   1      42.338  26.811  28.307  1.00  0.00    -0.354 N 
ATOM     48  C   UNL A   1      46.594  26.147  28.104  1.00  0.00     0.074 A 
ATOM     49  C   UNL A   1      46.893  24.793  27.684  1.00  0.00     0.031 C 
ATOM     50  C   UNL A   1      40.175  26.253  28.192  1.00  0.00     0.029 A 
ATOM     51  C   UNL A   1      41.090  27.336  28.537  1.00  0.00     0.049 A 
ATOM     52  H   UNL A   1      43.171  27.321  28.434  1.00  0.00     0.167 HD
ATOM     53  C   UNL A   1      47.529  27.084  28.389  1.00  0.00     0.037 A 
ATOM     54  C   UNL A   1      40.724  28.551  28.987  1.00  0.00     0.037 A 
ATOM     55  C   UNL A   1      47.231  28.437  28.781  1.00  0.00     0.049 A 
ATOM     56  C   UNL A   1      41.781  29.567  29.313  1.00  0.00     0.074 A 
ATOM     57  C   UNL A   1      48.109  29.481  29.013  1.00  0.00     0.029 A 
ATOM     58  N   UNL A   1      45.954  28.931  29.006  1.00  0.00    -0.354 N 
ATOM     59  N   UNL A   1      43.083  29.461  29.222  1.00  0.00    -0.248 NA
ATOM     60  C   UNL A   1      41.315  30.872  29.805  1.00  0.00     0.031 C 
ATOM     61  C   UNL A   1      47.367  30.597  29.417  1.00  0.00     0.029 A 
ATOM     62  C   UNL A   1      46.024  30.257  29.403  1.00  0.00     0.049 A 
ATOM     63  H   UNL A   1      45.123  28.416  28.900  1.00  0.00     0.167 HD
ATOM     64  C   UNL A   1      43.594  30.684  29.634  1.00  0.00     0.074 A 
ATOM     65  C   UNL A   1      42.459  31.524  29.958  1.00  0.00     0.031 C 
ATOM     66  C   UNL A   1      44.887  31.075  29.735  1.00  0.00     0.037 A 
BRANCH  53  67
ATOM     67  C   UNL A   1      48.968  26.679  28.282  1.00  0.00     0.057 A 
ATOM     68  C   UNL A   1      49.663  26.739  27.066  1.00  0.00     0.134 A 
ATOM     69  C   UNL A   1      49.678  26.256  29.412  1.00  0.00     0.134 A 
ATOM     70  F   UNL A   1      49.036  27.125  25.945  1.00  0.00    -0.206 F 
ATOM     71  C   UNL A   1      51.006  26.371  26.975  1.00  0.00     0.040 A 
ATOM     72  C   UNL A   1      51.028  25.908  29.338  1.00  0.00     0.040 A 
ATOM     73  F   UNL A   1      49.074  26.182  30.608  1.00  0.00    -0.206 F 
ATOM     74  C   UNL A   1      51.694  25.960  28.115  1.00  0.00     0.006 A 
ENDBRANCH  53  67
BRANCH  54  75
ATOM     75  C   UNL A   1      39.286  28.875  29.148  1.00  0.00     0.057 A 
ATOM     76  C   UNL A   1      38.634  28.664  30.368  1.00  0.00     0.134 A 
ATOM     77  C   UNL A   1      38.532  29.406  28.094  1.00  0.00     0.134 A 
ATOM     78  F   UNL A   1      39.301  28.139  31.407  1.00  0.00    -0.206 F 
ATOM     79  C   UNL A   1      37.281  28.960  30.534  1.00  0.00     0.040 A 
ATOM     80  C   UNL A   1      37.183  29.726  28.252  1.00  0.00     0.040 A 
ATOM     81  F   UNL A   1      39.102  29.636  26.903  1.00  0.00    -0.206 F 
ATOM     82  C   UNL A   1      36.552  29.498  29.474  1.00  0.00     0.006 A 
ENDBRANCH  54  75
BRANCH  66  83
ATOM     83  C   UNL A   1      45.141  32.473  30.214  1.00  0.00     0.057 A 
ATOM     84  C   UNL A   1      45.365  32.753  31.567  1.00  0.00     0.134 A 
ATOM     85  C   UNL A   1      45.193  33.542  29.312  1.00  0.00     0.134 A 
ATOM     86  F   UNL A   1      45.312  31.774  32.482  1.00  0.00    -0.206 F 
ATOM     87  C   UNL A   1      45.618  34.053  32.010  1.00  0.00     0.040 A 
ATOM     88  C   UNL A   1      45.466  34.843  29.739  1.00  0.00     0.040 A 
ATOM     89  F   UNL A   1      44.990  33.339  28.001  1.00  0.00    -0.206 F 
ATOM     90  C   UNL A   1      45.676  35.101  31.093  1.00  0.00     0.006 A 
ENDBRANCH  66  83
ENDBRANCH  40  41
ENDBRANCH  32  35
ENDBRANCH  30  31
ENDBRANCH  29  30
ENDBRANCH  28  29
ENDBRANCH  27  28
ENDBRANCH   1  27
TORSDOF 17
ENDMDL
MODEL 3
REMARK VINA RESULT:     -11.8      1.756      2.576
REMARK SMILES C[C@H]1CC[C@H](CNC(=O)NCc2ccc(C(=O)NCCCCCCNC(=O)c3ccc(-c4c5nc(c(-c6c(F)cccc6F)c6ccc([nH]6)c(-c6c(F)cccc6F)c6nc(c(-c7c(F)cccc7F)c7ccc4[nH]7)C=C6)C=C5)cc3)o2)CC1
REMARK SMILES IDX 20 1 19 2 18 3 16 4 17 5 15 7 12 8 13 9 82 10 14 11 11 12
REMARK SMILES IDX 10 13 7 14 8 15 9 17 6 19 5 20 1 21 2 22 84 23 3 24 83 25
REMARK SMILES IDX 4 26 21 27 22 28 23 29 24 30 25 31 26 32 27 34 28 35 29 36
REMARK SMILES IDX 81 37 30 38 80 39 31 40 32 41 33 42 74 43 34 44 79 45 73 46
REMARK SMILES IDX 75 47 35 48 78 49 72 50 71 51 36 53 62 54 45 55 61 56 46 57
REMARK SMILES IDX 49 58 60 59 76 60 47 61 48 62 59 64 77 65 50 66 37 67 38 68
REMARK SMILES IDX 43 69 39 70 40 71 42 72 44 73 41 74 63 75 64 76 69 77 65 78
REMARK SMILES IDX 66 79 68 80 70 81 67 82 51 83 52 84 57 85 53 86 54 87 56 88
REMARK SMILES IDX 58 89 55 90
REMARK H PARENT 18 6 7 16 10 18 25 33 75 52 49 63
REMARK Flexibility Score: inf
ROOT
ATOM      1  C   UNL A   1      37.674  23.643  26.122  1.00  0.00     0.021 C 
ENDROOT
BRANCH   1   2
ATOM      2  C   UNL A   1      36.193  23.562  25.756  1.00  0.00     0.116 C 
BRANCH   2   3
ATOM      3  N   UNL A   1      35.432  22.882  26.786  1.00  0.00    -0.349 N 
ATOM      4  C   UNL A   1      34.335  22.061  26.711  1.00  0.00     0.286 C 
ATOM      5  O   UNL A   1      34.006  21.516  27.769  1.00  0.00    -0.266 OA
ATOM      6  H   UNL A   1      35.761  23.037  27.701  1.00  0.00     0.163 HD
BRANCH   4   7
ATOM      7  C   UNL A   1      33.624  21.844  25.463  1.00  0.00     0.191 A 
ATOM      8  C   UNL A   1      32.251  22.498  23.843  1.00  0.00     0.124 A 
ATOM      9  C   UNL A   1      32.694  21.240  23.494  1.00  0.00     0.048 A 
ATOM     10  O   UNL A   1      32.798  22.856  25.038  1.00  0.00    -0.454 OA
ATOM     11  C   UNL A   1      33.593  20.834  24.514  1.00  0.00     0.056 A 
BRANCH   8  12
ATOM     12  C   UNL A   1      31.326  23.459  23.180  1.00  0.00     0.193 C 
BRANCH  12  13
ATOM     13  N   UNL A   1      32.041  24.355  22.301  1.00  0.00    -0.331 N 
ATOM     14  N   UNL A   1      32.690  26.193  23.630  1.00  0.00    -0.338 N 
ATOM     15  C   UNL A   1      32.736  25.477  22.499  1.00  0.00     0.315 C 
ATOM     16  H   UNL A   1      33.438  26.826  23.722  1.00  0.00     0.165 HD
ATOM     17  O   UNL A   1      33.470  25.878  21.593  1.00  0.00    -0.249 OA
ATOM     18  H   UNL A   1      32.009  24.079  21.357  1.00  0.00     0.165 HD
BRANCH  14  19
ATOM     19  C   UNL A   1      31.765  26.226  24.746  1.00  0.00     0.121 C 
BRANCH  19  20
ATOM     20  C   UNL A   1      30.657  27.269  24.533  1.00  0.00     0.008 C 
ATOM     21  C   UNL A   1      27.879  29.927  22.408  1.00  0.00     0.007 C 
ATOM     22  C   UNL A   1      28.975  28.901  22.691  1.00  0.00    -0.014 C 
ATOM     23  C   UNL A   1      28.407  27.684  23.430  1.00  0.00     0.003 C 
ATOM     24  C   UNL A   1      30.115  29.533  23.498  1.00  0.00     0.003 C 
ATOM     25  C   UNL A   1      29.497  26.657  23.735  1.00  0.00     0.006 C 
ATOM     26  C   UNL A   1      31.208  28.515  23.818  1.00  0.00     0.006 C 
ENDBRANCH  19  20
ENDBRANCH  14  19
ENDBRANCH  12  13
ENDBRANCH   8  12
ENDBRANCH   4   7
ENDBRANCH   2   3
ENDBRANCH   1   2
BRANCH   1  27
ATOM     27  C   UNL A   1      38.476  22.383  25.766  1.00  0.00     0.002 C 
BRANCH  27  28
ATOM     28  C   UNL A   1      37.767  21.388  24.836  1.00  0.00     0.002 C 
BRANCH  28  29
ATOM     29  C   UNL A   1      38.300  19.952  24.870  1.00  0.00     0.021 C 
BRANCH  29  30
ATOM     30  C   UNL A   1      39.059  19.575  26.141  1.00  0.00     0.116 C 
BRANCH  30  31
ATOM     31  N   UNL A   1      40.352  18.975  25.853  1.00  0.00    -0.352 N 
ATOM     32  C   UNL A   1      41.605  19.533  25.886  1.00  0.00     0.251 C 
ATOM     33  H   UNL A   1      40.324  18.025  25.595  1.00  0.00     0.163 HD
ATOM     34  O   UNL A   1      42.566  18.916  25.434  1.00  0.00    -0.269 OA
BRANCH  32  35
ATOM     35  C   UNL A   1      41.806  20.887  26.449  1.00  0.00     0.039 A 
ATOM     36  C   UNL A   1      41.688  21.066  27.830  1.00  0.00     0.014 A 
ATOM     37  C   UNL A   1      42.091  21.977  25.622  1.00  0.00     0.014 A 
ATOM     38  C   UNL A   1      41.926  22.323  28.391  1.00  0.00     0.010 A 
ATOM     39  C   UNL A   1      42.382  23.219  26.186  1.00  0.00     0.010 A 
ATOM     40  C   UNL A   1      42.312  23.400  27.576  1.00  0.00    -0.014 A 
BRANCH  40  41
ATOM     41  C   UNL A   1      42.684  24.712  28.163  1.00  0.00     0.031 A 
ATOM     42  C   UNL A   1      41.648  25.779  28.370  1.00  0.00     0.074 A 
ATOM     43  C   UNL A   1      43.978  24.967  28.439  1.00  0.00     0.049 A 
ATOM     44  N   UNL A   1      41.802  27.009  28.792  1.00  0.00    -0.248 NA
ATOM     45  C   UNL A   1      40.260  25.425  28.040  1.00  0.00     0.031 C 
ATOM     46  C   UNL A   1      45.085  24.029  28.243  1.00  0.00     0.029 A 
ATOM     47  N   UNL A   1      44.582  26.097  28.930  1.00  0.00    -0.354 N 
ATOM     48  C   UNL A   1      40.536  27.580  28.766  1.00  0.00     0.074 A 
ATOM     49  C   UNL A   1      39.631  26.574  28.249  1.00  0.00     0.031 C 
ATOM     50  C   UNL A   1      46.230  24.617  28.621  1.00  0.00     0.029 A 
ATOM     51  C   UNL A   1      45.946  25.982  29.053  1.00  0.00     0.049 A 
ATOM     52  H   UNL A   1      44.086  26.913  29.170  1.00  0.00     0.167 HD
ATOM     53  C   UNL A   1      40.160  28.821  29.153  1.00  0.00     0.037 A 
ATOM     54  C   UNL A   1      46.865  26.878  29.458  1.00  0.00     0.037 A 
ATOM     55  C   UNL A   1      41.056  29.812  29.691  1.00  0.00     0.049 A 
ATOM     56  C   UNL A   1      46.424  28.254  29.866  1.00  0.00     0.074 A 
ATOM     57  C   UNL A   1      40.756  31.069  30.186  1.00  0.00     0.029 A 
ATOM     58  N   UNL A   1      42.431  29.658  29.797  1.00  0.00    -0.354 N 
ATOM     59  N   UNL A   1      45.215  28.758  29.898  1.00  0.00    -0.248 NA
ATOM     60  C   UNL A   1      47.477  29.188  30.292  1.00  0.00     0.031 C 
ATOM     61  C   UNL A   1      41.953  31.693  30.555  1.00  0.00     0.029 A 
ATOM     62  C   UNL A   1      42.996  30.810  30.323  1.00  0.00     0.049 A 
ATOM     63  H   UNL A   1      42.931  28.851  29.539  1.00  0.00     0.167 HD
ATOM     64  C   UNL A   1      45.357  30.059  30.358  1.00  0.00     0.074 A 
ATOM     65  C   UNL A   1      46.770  30.263  30.608  1.00  0.00     0.031 C 
ATOM     66  C   UNL A   1      44.404  31.002  30.553  1.00  0.00     0.037 A 
BRANCH  53  67
ATOM     67  C   UNL A   1      38.711  29.179  29.014  1.00  0.00     0.057 A 
ATOM     68  C   UNL A   1      38.162  29.566  27.784  1.00  0.00     0.134 A 
ATOM     69  C   UNL A   1      37.847  29.102  30.113  1.00  0.00     0.134 A 
ATOM     70  F   UNL A   1      38.941  29.670  26.696  1.00  0.00    -0.206 F 
ATOM     71  C   UNL A   1      36.810  29.887  27.658  1.00  0.00     0.040 A 
ATOM     72  C   UNL A   1      36.487  29.398  29.993  1.00  0.00     0.040 A 
ATOM     73  F   UNL A   1      38.306  28.731  31.317  1.00  0.00    -0.206 F 
ATOM     74  C   UNL A   1      35.967  29.797  28.763  1.00  0.00     0.006 A 
ENDBRANCH  53  67
BRANCH  54  75
ATOM     75  C   UNL A   1      48.297  26.496  29.504  1.00  0.00     0.057 A 
ATOM     76  C   UNL A   1      49.131  26.701  28.400  1.00  0.00     0.134 A 
ATOM     77  C   UNL A   1      48.866  25.924  30.649  1.00  0.00     0.134 A 
ATOM     78  F   UNL A   1      48.636  27.227  27.269  1.00  0.00    -0.206 F 
ATOM     79  C   UNL A   1      50.479  26.344  28.426  1.00  0.00     0.040 A 
ATOM     80  C   UNL A   1      50.217  25.581  30.696  1.00  0.00     0.040 A 
ATOM     81  F   UNL A   1      48.118  25.709  31.740  1.00  0.00    -0.206 F 
ATOM     82  C   UNL A   1      51.027  25.786  29.580  1.00  0.00     0.006 A 
ENDBRANCH  54  75
BRANCH  66  83
ATOM     83  C   UNL A   1      44.858  32.336  31.064  1.00  0.00     0.057 A 
ATOM     84  C   UNL A   1      45.184  33.381  30.191  1.00  0.00     0.134 A 
ATOM     85  C   UNL A   1      44.940  32.588  32.439  1.00  0.00     0.134 A 
ATOM     86  F   UNL A   1      45.141  33.196  28.863  1.00  0.00    -0.206 F 
ATOM     87  C   UNL A   1      45.591  34.628  30.668  1.00  0.00     0.040 A 
ATOM     88  C   UNL A   1      45.326  33.837  32.928  1.00  0.00     0.040 A 
ATOM     89  F   UNL A   1      44.637  31.629  33.327  1.00  0.00    -0.206 F 
ATOM     90  C   UNL A   1      45.656  34.860  32.040  1.00  0.00     0.006 A 
ENDBRANCH  66  83
ENDBRANCH  40  41
ENDBRANCH  32  35
ENDBRANCH  30  31
ENDBRANCH  29  30
ENDBRANCH  28  29
ENDBRANCH  27  28
ENDBRANCH   1  27
TORSDOF 17
ENDMDL
