MODEL 1
REMARK VINA RESULT:     -11.2      0.000      0.000
REMARK SMILES Cc1cccc([C@H]([NH3+])[C@H](O)C(=O)NCCCCCCNC(=O)c2ccc(-c3c4nc(c(-c5c(F)cccc5F)c5ccc([nH]5)c(-c5c(F)cccc5F)c5nc(c(-c6c(F)cccc6F)c6ccc3[nH]6)C=C5)C=C4)cc2)c1
REMARK SMILES IDX 16 1 15 2 14 3 13 4 11 5 12 6 9 8 7 9 6 10 1 11 2 12 3 13
REMARK SMILES IDX 77 14 4 15 5 16 8 17 10 21 17 23 18 24 19 25 20 26 21 27
REMARK SMILES IDX 22 29 23 30 24 31 76 32 25 33 75 34 26 35 27 36 28 37 69 38
REMARK SMILES IDX 29 39 74 40 68 41 70 42 30 43 73 44 67 45 66 46 31 48 57 49
REMARK SMILES IDX 40 50 56 51 41 52 44 53 55 54 71 55 42 56 43 57 54 59 72 60
REMARK SMILES IDX 45 61 32 62 33 63 38 64 34 65 35 66 37 67 39 68 36 69 58 70
REMARK SMILES IDX 59 71 64 72 60 73 61 74 63 75 65 76 62 77 46 78 47 79 52 80
REMARK SMILES IDX 48 81 49 82 51 83 53 84 50 85
REMARK H PARENT 13 7 8 18 8 19 8 20 10 22 20 28 70 47 44 58
REMARK Flexibility Score: inf
ROOT
ATOM      1  C   UNL A   1      33.313  28.357  26.320  1.00  0.00     0.002 C 
ENDROOT
BRANCH   1   2
ATOM      2  C   UNL A   1      32.882  29.169  25.092  1.00  0.00     0.021 C 
BRANCH   2   3
ATOM      3  C   UNL A   1      31.417  29.591  25.062  1.00  0.00     0.116 C 
BRANCH   3   4
ATOM      4  N   UNL A   1      30.839  29.622  23.744  1.00  0.00    -0.354 N 
ATOM      5  C   UNL A   1      30.112  28.685  23.080  1.00  0.00     0.255 C 
ATOM      6  O   UNL A   1      29.558  29.063  22.040  1.00  0.00    -0.272 OA
ATOM      7  H   UNL A   1      30.996  30.456  23.243  1.00  0.00     0.163 HD
BRANCH   5   8
ATOM      8  C   UNL A   1      29.977  27.202  23.524  1.00  0.00     0.266 C 
BRANCH   8   9
ATOM      9  C   UNL A   1      31.036  26.192  22.943  1.00  0.00     0.250 C 
BRANCH   9  10
ATOM     10  C   UNL A   1      32.136  25.590  23.837  1.00  0.00     0.013 A 
ATOM     11  C   UNL A   1      32.215  23.479  27.044  1.00  0.00     0.044 C 
ATOM     12  C   UNL A   1      32.666  24.286  25.862  1.00  0.00    -0.051 A 
ATOM     13  C   UNL A   1      34.027  24.516  25.658  1.00  0.00     0.003 A 
ATOM     14  C   UNL A   1      31.738  24.831  24.961  1.00  0.00     0.013 A 
ATOM     15  C   UNL A   1      34.449  25.259  24.562  1.00  0.00     0.001 A 
ATOM     16  C   UNL A   1      33.516  25.781  23.660  1.00  0.00     0.010 A 
ENDBRANCH   9  10
BRANCH   9  17
ATOM     17  N   UNL A   1      31.707  26.795  21.760  1.00  0.00    -0.349 N 
ATOM     18  H   UNL A   1      32.470  27.395  22.071  1.00  0.00     0.345 HD
ATOM     19  H   UNL A   1      31.032  27.349  21.232  1.00  0.00     0.345 HD
ATOM     20  H   UNL A   1      32.077  26.054  21.165  1.00  0.00     0.345 HD
ENDBRANCH   9  17
ENDBRANCH   8   9
BRANCH   8  21
ATOM     21  O   UNL A   1      28.634  26.736  23.530  1.00  0.00    -0.378 OA
ATOM     22  H   UNL A   1      28.537  26.021  22.882  1.00  0.00     0.211 HD
ENDBRANCH   8  21
ENDBRANCH   5   8
ENDBRANCH   3   4
ENDBRANCH   2   3
ENDBRANCH   1   2
BRANCH   1  23
ATOM     23  C   UNL A   1      34.286  29.038  27.299  1.00  0.00     0.002 C 
BRANCH  23  24
ATOM     24  C   UNL A   1      33.974  30.488  27.679  1.00  0.00     0.021 C 
BRANCH  24  25
ATOM     25  C   UNL A   1      35.173  31.425  27.639  1.00  0.00     0.116 C 
BRANCH  25  26
ATOM     26  N   UNL A   1      35.633  31.851  28.956  1.00  0.00    -0.352 N 
ATOM     27  C   UNL A   1      36.493  31.204  29.829  1.00  0.00     0.251 C 
ATOM     28  H   UNL A   1      35.285  32.718  29.268  1.00  0.00     0.163 HD
ATOM     29  O   UNL A   1      36.787  31.708  30.901  1.00  0.00    -0.269 OA
BRANCH  27  30
ATOM     30  C   UNL A   1      37.155  29.956  29.380  1.00  0.00     0.039 A 
ATOM     31  C   UNL A   1      37.397  28.971  30.342  1.00  0.00     0.014 A 
ATOM     32  C   UNL A   1      37.735  29.868  28.117  1.00  0.00     0.014 A 
ATOM     33  C   UNL A   1      38.426  28.058  30.131  1.00  0.00     0.010 A 
ATOM     34  C   UNL A   1      38.811  29.017  27.938  1.00  0.00     0.010 A 
ATOM     35  C   UNL A   1      39.208  28.172  28.979  1.00  0.00    -0.014 A 
BRANCH  35  36
ATOM     36  C   UNL A   1      40.547  27.598  28.887  1.00  0.00     0.031 A 
ATOM     37  C   UNL A   1      40.766  26.198  28.481  1.00  0.00     0.074 A 
ATOM     38  C   UNL A   1      41.623  28.370  29.165  1.00  0.00     0.049 A 
ATOM     39  N   UNL A   1      41.780  25.498  28.869  1.00  0.00    -0.248 NA
ATOM     40  C   UNL A   1      39.848  25.464  27.617  1.00  0.00     0.031 C 
ATOM     41  C   UNL A   1      43.029  28.043  28.941  1.00  0.00     0.029 A 
ATOM     42  N   UNL A   1      41.656  29.544  29.929  1.00  0.00    -0.354 N 
ATOM     43  C   UNL A   1      41.793  24.343  28.133  1.00  0.00     0.074 A 
ATOM     44  C   UNL A   1      40.541  24.338  27.407  1.00  0.00     0.031 C 
ATOM     45  C   UNL A   1      43.779  28.778  29.775  1.00  0.00     0.029 A 
ATOM     46  C   UNL A   1      42.877  29.516  30.639  1.00  0.00     0.049 A 
ATOM     47  H   UNL A   1      40.968  30.246  29.963  1.00  0.00     0.167 HD
ATOM     48  C   UNL A   1      42.903  23.554  28.112  1.00  0.00     0.037 A 
ATOM     49  C   UNL A   1      42.894  29.499  32.003  1.00  0.00     0.037 A 
ATOM     50  C   UNL A   1      43.984  24.074  28.941  1.00  0.00     0.049 A 
ATOM     51  C   UNL A   1      43.519  28.263  32.616  1.00  0.00     0.074 A 
ATOM     52  C   UNL A   1      45.141  24.794  28.688  1.00  0.00     0.029 A 
ATOM     53  N   UNL A   1      43.804  24.115  30.310  1.00  0.00    -0.354 N 
ATOM     54  N   UNL A   1      44.012  27.265  31.937  1.00  0.00    -0.248 NA
ATOM     55  C   UNL A   1      43.535  28.014  34.060  1.00  0.00     0.031 C 
ATOM     56  C   UNL A   1      45.655  25.265  29.930  1.00  0.00     0.029 A 
ATOM     57  C   UNL A   1      44.811  24.827  30.933  1.00  0.00     0.049 A 
ATOM     58  H   UNL A   1      43.054  23.690  30.783  1.00  0.00     0.167 HD
ATOM     59  C   UNL A   1      44.319  26.242  32.796  1.00  0.00     0.074 A 
ATOM     60  C   UNL A   1      44.021  26.762  34.116  1.00  0.00     0.031 C 
ATOM     61  C   UNL A   1      44.743  25.019  32.370  1.00  0.00     0.037 A 
BRANCH  48  62
ATOM     62  C   UNL A   1      43.044  22.417  27.145  1.00  0.00     0.057 A 
ATOM     63  C   UNL A   1      42.272  21.250  27.266  1.00  0.00     0.134 A 
ATOM     64  C   UNL A   1      43.967  22.417  26.086  1.00  0.00     0.134 A 
ATOM     65  F   UNL A   1      41.311  21.137  28.191  1.00  0.00    -0.206 F 
ATOM     66  C   UNL A   1      42.470  20.128  26.453  1.00  0.00     0.040 A 
ATOM     67  C   UNL A   1      44.212  21.286  25.298  1.00  0.00     0.040 A 
ATOM     68  F   UNL A   1      44.663  23.522  25.777  1.00  0.00    -0.206 F 
ATOM     69  C   UNL A   1      43.467  20.130  25.489  1.00  0.00     0.006 A 
ENDBRANCH  48  62
BRANCH  49  70
ATOM     70  C   UNL A   1      41.784  30.281  32.606  1.00  0.00     0.057 A 
ATOM     71  C   UNL A   1      41.887  31.684  32.641  1.00  0.00     0.134 A 
ATOM     72  C   UNL A   1      40.521  29.728  32.821  1.00  0.00     0.134 A 
ATOM     73  F   UNL A   1      43.074  32.279  32.439  1.00  0.00    -0.206 F 
ATOM     74  C   UNL A   1      40.764  32.501  32.777  1.00  0.00     0.040 A 
ATOM     75  C   UNL A   1      39.391  30.538  32.974  1.00  0.00     0.040 A 
ATOM     76  F   UNL A   1      40.340  28.400  32.779  1.00  0.00    -0.206 F 
ATOM     77  C   UNL A   1      39.505  31.927  32.913  1.00  0.00     0.006 A 
ENDBRANCH  49  70
BRANCH  61  78
ATOM     78  C   UNL A   1      45.111  23.894  33.293  1.00  0.00     0.057 A 
ATOM     79  C   UNL A   1      44.199  22.896  33.662  1.00  0.00     0.134 A 
ATOM     80  C   UNL A   1      46.360  23.853  33.944  1.00  0.00     0.134 A 
ATOM     81  F   UNL A   1      42.959  22.871  33.152  1.00  0.00    -0.206 F 
ATOM     82  C   UNL A   1      44.522  21.898  34.591  1.00  0.00     0.040 A 
ATOM     83  C   UNL A   1      46.677  22.891  34.906  1.00  0.00     0.040 A 
ATOM     84  F   UNL A   1      47.330  24.732  33.659  1.00  0.00    -0.206 F 
ATOM     85  C   UNL A   1      45.760  21.901  35.225  1.00  0.00     0.006 A 
ENDBRANCH  61  78
ENDBRANCH  35  36
ENDBRANCH  27  30
ENDBRANCH  25  26
ENDBRANCH  24  25
ENDBRANCH  23  24
ENDBRANCH   1  23
TORSDOF 17
ENDMDL
MODEL 2
REMARK VINA RESULT:     -11.2      1.600      2.770
REMARK SMILES Cc1cccc([C@H]([NH3+])[C@H](O)C(=O)NCCCCCCNC(=O)c2ccc(-c3c4nc(c(-c5c(F)cccc5F)c5ccc([nH]5)c(-c5c(F)cccc5F)c5nc(c(-c6c(F)cccc6F)c6ccc3[nH]6)C=C5)C=C4)cc2)c1
REMARK SMILES IDX 16 1 15 2 14 3 13 4 11 5 12 6 9 8 7 9 6 10 1 11 2 12 3 13
REMARK SMILES IDX 77 14 4 15 5 16 8 17 10 21 17 23 18 24 19 25 20 26 21 27
REMARK SMILES IDX 22 29 23 30 24 31 76 32 25 33 75 34 26 35 27 36 28 37 69 38
REMARK SMILES IDX 29 39 74 40 68 41 70 42 30 43 73 44 67 45 66 46 31 48 57 49
REMARK SMILES IDX 40 50 56 51 41 52 44 53 55 54 71 55 42 56 43 57 54 59 72 60
REMARK SMILES IDX 45 61 32 62 33 63 38 64 34 65 35 66 37 67 39 68 36 69 58 70
REMARK SMILES IDX 59 71 64 72 60 73 61 74 63 75 65 76 62 77 46 78 47 79 52 80
REMARK SMILES IDX 48 81 49 82 51 83 53 84 50 85
REMARK H PARENT 13 7 8 18 8 19 8 20 10 22 20 28 70 47 44 58
REMARK Flexibility Score: inf
ROOT
ATOM      1  C   UNL A   1      31.580  29.170  25.750  1.00  0.00     0.002 C 
ENDROOT
BRANCH   1   2
ATOM      2  C   UNL A   1      32.531  28.065  25.272  1.00  0.00     0.021 C 
BRANCH   2   3
ATOM      3  C   UNL A   1      32.507  26.776  26.086  1.00  0.00     0.116 C 
BRANCH   3   4
ATOM      4  N   UNL A   1      31.198  26.395  26.547  1.00  0.00    -0.354 N 
ATOM      5  C   UNL A   1      30.205  25.715  25.913  1.00  0.00     0.255 C 
ATOM      6  O   UNL A   1      29.264  25.339  26.624  1.00  0.00    -0.272 OA
ATOM      7  H   UNL A   1      30.987  26.670  27.470  1.00  0.00     0.163 HD
BRANCH   5   8
ATOM      8  C   UNL A   1      30.172  25.433  24.386  1.00  0.00     0.266 C 
BRANCH   8   9
ATOM      9  C   UNL A   1      29.122  26.245  23.540  1.00  0.00     0.250 C 
BRANCH   9  10
ATOM     10  C   UNL A   1      29.389  27.705  23.128  1.00  0.00     0.013 A 
ATOM     11  C   UNL A   1      27.496  31.032  23.436  1.00  0.00     0.044 C 
ATOM     12  C   UNL A   1      28.544  30.021  23.074  1.00  0.00    -0.051 A 
ATOM     13  C   UNL A   1      29.661  30.415  22.336  1.00  0.00     0.003 A 
ATOM     14  C   UNL A   1      28.414  28.675  23.452  1.00  0.00     0.013 A 
ATOM     15  C   UNL A   1      30.638  29.483  22.003  1.00  0.00     0.001 A 
ATOM     16  C   UNL A   1      30.506  28.148  22.401  1.00  0.00     0.010 A 
ENDBRANCH   9  10
BRANCH   9  17
ATOM     17  N   UNL A   1      27.798  26.210  24.217  1.00  0.00    -0.349 N 
ATOM     18  H   UNL A   1      27.190  26.922  23.811  1.00  0.00     0.345 HD
ATOM     19  H   UNL A   1      27.920  26.395  25.212  1.00  0.00     0.345 HD
ATOM     20  H   UNL A   1      27.376  25.290  24.091  1.00  0.00     0.345 HD
ENDBRANCH   9  17
ENDBRANCH   8   9
BRANCH   8  21
ATOM     21  O   UNL A   1      30.269  24.050  24.068  1.00  0.00    -0.378 OA
ATOM     22  H   UNL A   1      31.015  23.909  23.463  1.00  0.00     0.211 HD
ENDBRANCH   8  21
ENDBRANCH   5   8
ENDBRANCH   3   4
ENDBRANCH   2   3
ENDBRANCH   1   2
BRANCH   1  23
ATOM     23  C   UNL A   1      31.873  29.795  27.124  1.00  0.00     0.002 C 
BRANCH  23  24
ATOM     24  C   UNL A   1      33.039  30.787  27.192  1.00  0.00     0.021 C 
BRANCH  24  25
ATOM     25  C   UNL A   1      34.313  30.224  27.807  1.00  0.00     0.116 C 
BRANCH  25  26
ATOM     26  N   UNL A   1      34.935  31.106  28.788  1.00  0.00    -0.352 N 
ATOM     27  C   UNL A   1      36.155  30.971  29.429  1.00  0.00     0.251 C 
ATOM     28  H   UNL A   1      34.415  31.908  29.028  1.00  0.00     0.163 HD
ATOM     29  O   UNL A   1      36.538  31.814  30.225  1.00  0.00    -0.269 OA
BRANCH  27  30
ATOM     30  C   UNL A   1      37.048  29.857  29.030  1.00  0.00     0.039 A 
ATOM     31  C   UNL A   1      37.327  28.878  29.988  1.00  0.00     0.014 A 
ATOM     32  C   UNL A   1      37.776  29.913  27.844  1.00  0.00     0.014 A 
ATOM     33  C   UNL A   1      38.502  28.139  29.878  1.00  0.00     0.010 A 
ATOM     34  C   UNL A   1      38.983  29.241  27.773  1.00  0.00     0.010 A 
ATOM     35  C   UNL A   1      39.383  28.420  28.831  1.00  0.00    -0.014 A 
BRANCH  35  36
ATOM     36  C   UNL A   1      40.797  28.056  28.885  1.00  0.00     0.031 A 
ATOM     37  C   UNL A   1      41.303  26.812  28.280  1.00  0.00     0.074 A 
ATOM     38  C   UNL A   1      41.675  28.888  29.492  1.00  0.00     0.049 A 
ATOM     39  N   UNL A   1      42.345  26.186  28.715  1.00  0.00    -0.248 NA
ATOM     40  C   UNL A   1      40.663  26.158  27.143  1.00  0.00     0.031 C 
ATOM     41  C   UNL A   1      43.132  28.801  29.476  1.00  0.00     0.029 A 
ATOM     42  N   UNL A   1      41.396  29.873  30.448  1.00  0.00    -0.354 N 
ATOM     43  C   UNL A   1      42.662  25.219  27.797  1.00  0.00     0.074 A 
ATOM     44  C   UNL A   1      41.555  25.201  26.864  1.00  0.00     0.031 C 
ATOM     45  C   UNL A   1      43.613  29.440  30.552  1.00  0.00     0.029 A 
ATOM     46  C   UNL A   1      42.479  29.859  31.354  1.00  0.00     0.049 A 
ATOM     47  H   UNL A   1      40.604  30.457  30.482  1.00  0.00     0.167 HD
ATOM     48  C   UNL A   1      43.876  24.603  27.839  1.00  0.00     0.037 A 
ATOM     49  C   UNL A   1      42.287  29.563  32.671  1.00  0.00     0.037 A 
ATOM     50  C   UNL A   1      44.715  25.077  28.933  1.00  0.00     0.049 A 
ATOM     51  C   UNL A   1      43.004  28.320  33.156  1.00  0.00     0.074 A 
ATOM     52  C   UNL A   1      45.763  25.979  29.033  1.00  0.00     0.029 A 
ATOM     53  N   UNL A   1      44.321  24.811  30.230  1.00  0.00    -0.354 N 
ATOM     54  N   UNL A   1      43.753  27.557  32.410  1.00  0.00    -0.248 NA
ATOM     55  C   UNL A   1      42.837  27.782  34.509  1.00  0.00     0.031 C 
ATOM     56  C   UNL A   1      45.994  26.246  30.412  1.00  0.00     0.029 A 
ATOM     57  C   UNL A   1      45.087  25.504  31.146  1.00  0.00     0.049 A 
ATOM     58  H   UNL A   1      43.587  24.203  30.472  1.00  0.00     0.167 HD
ATOM     59  C   UNL A   1      44.087  26.428  33.112  1.00  0.00     0.074 A 
ATOM     60  C   UNL A   1      43.506  26.620  34.426  1.00  0.00     0.031 C 
ATOM     61  C   UNL A   1      44.767  25.385  32.556  1.00  0.00     0.037 A 
BRANCH  48  62
ATOM     62  C   UNL A   1      44.350  23.719  26.726  1.00  0.00     0.057 A 
ATOM     63  C   UNL A   1      45.252  24.183  25.753  1.00  0.00     0.134 A 
ATOM     64  C   UNL A   1      43.910  22.396  26.552  1.00  0.00     0.134 A 
ATOM     65  F   UNL A   1      45.800  25.402  25.827  1.00  0.00    -0.206 F 
ATOM     66  C   UNL A   1      45.614  23.419  24.637  1.00  0.00     0.040 A 
ATOM     67  C   UNL A   1      44.223  21.640  25.416  1.00  0.00     0.040 A 
ATOM     68  F   UNL A   1      43.161  21.789  27.486  1.00  0.00    -0.206 F 
ATOM     69  C   UNL A   1      45.071  22.157  24.446  1.00  0.00     0.006 A 
ENDBRANCH  48  62
BRANCH  49  70
ATOM     70  C   UNL A   1      40.984  30.052  33.191  1.00  0.00     0.057 A 
ATOM     71  C   UNL A   1      40.831  31.427  33.447  1.00  0.00     0.134 A 
ATOM     72  C   UNL A   1      39.821  29.284  33.112  1.00  0.00     0.134 A 
ATOM     73  F   UNL A   1      41.910  32.222  33.531  1.00  0.00    -0.206 F 
ATOM     74  C   UNL A   1      39.573  32.029  33.514  1.00  0.00     0.040 A 
ATOM     75  C   UNL A   1      38.555  29.874  33.193  1.00  0.00     0.040 A 
ATOM     76  F   UNL A   1      39.885  27.971  32.849  1.00  0.00    -0.206 F 
ATOM     77  C   UNL A   1      38.430  31.254  33.356  1.00  0.00     0.006 A 
ENDBRANCH  49  70
BRANCH  61  78
ATOM     78  C   UNL A   1      45.167  24.151  33.313  1.00  0.00     0.057 A 
ATOM     79  C   UNL A   1      44.308  23.056  33.472  1.00  0.00     0.134 A 
ATOM     80  C   UNL A   1      46.386  24.081  34.017  1.00  0.00     0.134 A 
ATOM     81  F   UNL A   1      43.096  23.040  32.898  1.00  0.00    -0.206 F 
ATOM     82  C   UNL A   1      44.654  21.944  34.251  1.00  0.00     0.040 A 
ATOM     83  C   UNL A   1      46.723  22.999  34.834  1.00  0.00     0.040 A 
ATOM     84  F   UNL A   1      47.308  25.049  33.925  1.00  0.00    -0.206 F 
ATOM     85  C   UNL A   1      45.860  21.919  34.945  1.00  0.00     0.006 A 
ENDBRANCH  61  78
ENDBRANCH  35  36
ENDBRANCH  27  30
ENDBRANCH  25  26
ENDBRANCH  24  25
ENDBRANCH  23  24
ENDBRANCH   1  23
TORSDOF 17
ENDMDL
MODEL 3
REMARK VINA RESULT:     -10.9      1.153      2.611
REMARK SMILES Cc1cccc([C@H]([NH3+])[C@H](O)C(=O)NCCCCCCNC(=O)c2ccc(-c3c4nc(c(-c5c(F)cccc5F)c5ccc([nH]5)c(-c5c(F)cccc5F)c5nc(c(-c6c(F)cccc6F)c6ccc3[nH]6)C=C5)C=C4)cc2)c1
REMARK SMILES IDX 16 1 15 2 14 3 13 4 11 5 12 6 9 8 7 9 6 10 1 11 2 12 3 13
REMARK SMILES IDX 77 14 4 15 5 16 8 17 10 21 17 23 18 24 19 25 20 26 21 27
REMARK SMILES IDX 22 29 23 30 24 31 76 32 25 33 75 34 26 35 27 36 28 37 69 38
REMARK SMILES IDX 29 39 74 40 68 41 70 42 30 43 73 44 67 45 66 46 31 48 57 49
REMARK SMILES IDX 40 50 56 51 41 52 44 53 55 54 71 55 42 56 43 57 54 59 72 60
REMARK SMILES IDX 45 61 32 62 33 63 38 64 34 65 35 66 37 67 39 68 36 69 58 70
REMARK SMILES IDX 59 71 64 72 60 73 61 74 63 75 65 76 62 77 46 78 47 79 52 80
REMARK SMILES IDX 48 81 49 82 51 83 53 84 50 85
REMARK H PARENT 13 7 8 18 8 19 8 20 10 22 20 28 70 47 44 58
REMARK Flexibility Score: inf
ROOT
ATOM      1  C   UNL A   1      32.518  28.653  27.057  1.00  0.00     0.002 C 
ENDROOT
BRANCH   1   2
ATOM      2  C   UNL A   1      31.495  27.572  26.685  1.00  0.00     0.021 C 
BRANCH   2   3
ATOM      3  C   UNL A   1      32.041  26.397  25.880  1.00  0.00     0.116 C 
BRANCH   3   4
ATOM      4  N   UNL A   1      31.067  25.758  25.035  1.00  0.00    -0.354 N 
ATOM      5  C   UNL A   1      30.870  25.851  23.693  1.00  0.00     0.255 C 
ATOM      6  O   UNL A   1      30.095  25.022  23.199  1.00  0.00    -0.272 OA
ATOM      7  H   UNL A   1      30.442  25.158  25.504  1.00  0.00     0.163 HD
BRANCH   5   8
ATOM      8  C   UNL A   1      31.517  26.932  22.784  1.00  0.00     0.266 C 
BRANCH   8   9
ATOM      9  C   UNL A   1      31.254  28.434  23.177  1.00  0.00     0.250 C 
BRANCH   9  10
ATOM     10  C   UNL A   1      29.837  29.037  23.116  1.00  0.00     0.013 A 
ATOM     11  C   UNL A   1      28.363  32.583  23.126  1.00  0.00     0.044 C 
ATOM     12  C   UNL A   1      28.465  31.086  23.123  1.00  0.00    -0.051 A 
ATOM     13  C   UNL A   1      27.304  30.312  23.135  1.00  0.00     0.003 A 
ATOM     14  C   UNL A   1      29.714  30.445  23.124  1.00  0.00     0.013 A 
ATOM     15  C   UNL A   1      27.394  28.924  23.128  1.00  0.00     0.001 A 
ATOM     16  C   UNL A   1      28.644  28.297  23.110  1.00  0.00     0.010 A 
ENDBRANCH   9  10
BRANCH   9  17
ATOM     17  N   UNL A   1      32.149  29.323  22.389  1.00  0.00    -0.349 N 
ATOM     18  H   UNL A   1      31.738  30.255  22.330  1.00  0.00     0.345 HD
ATOM     19  H   UNL A   1      32.263  28.943  21.449  1.00  0.00     0.345 HD
ATOM     20  H   UNL A   1      33.059  29.380  22.845  1.00  0.00     0.345 HD
ENDBRANCH   9  17
ENDBRANCH   8   9
BRANCH   8  21
ATOM     21  O   UNL A   1      31.408  26.640  21.397  1.00  0.00    -0.378 OA
ATOM     22  H   UNL A   1      32.192  26.147  21.108  1.00  0.00     0.211 HD
ENDBRANCH   8  21
ENDBRANCH   5   8
ENDBRANCH   3   4
ENDBRANCH   2   3
ENDBRANCH   1   2
BRANCH   1  23
ATOM     23  C   UNL A   1      32.087  30.117  26.858  1.00  0.00     0.002 C 
BRANCH  23  24
ATOM     24  C   UNL A   1      33.091  31.191  27.289  1.00  0.00     0.021 C 
BRANCH  24  25
ATOM     25  C   UNL A   1      34.479  30.662  27.624  1.00  0.00     0.116 C 
BRANCH  25  26
ATOM     26  N   UNL A   1      35.171  31.429  28.654  1.00  0.00    -0.352 N 
ATOM     27  C   UNL A   1      36.292  31.083  29.390  1.00  0.00     0.251 C 
ATOM     28  H   UNL A   1      34.789  32.315  28.853  1.00  0.00     0.163 HD
ATOM     29  O   UNL A   1      36.757  31.853  30.216  1.00  0.00    -0.269 OA
BRANCH  27  30
ATOM     30  C   UNL A   1      36.997  29.821  29.061  1.00  0.00     0.039 A 
ATOM     31  C   UNL A   1      37.293  28.953  30.116  1.00  0.00     0.014 A 
ATOM     32  C   UNL A   1      37.560  29.622  27.803  1.00  0.00     0.014 A 
ATOM     33  C   UNL A   1      38.355  28.063  29.982  1.00  0.00     0.010 A 
ATOM     34  C   UNL A   1      38.667  28.799  27.693  1.00  0.00     0.010 A 
ATOM     35  C   UNL A   1      39.113  28.085  28.809  1.00  0.00    -0.014 A 
BRANCH  35  36
ATOM     36  C   UNL A   1      40.473  27.555  28.751  1.00  0.00     0.031 A 
ATOM     37  C   UNL A   1      40.750  26.168  28.339  1.00  0.00     0.074 A 
ATOM     38  C   UNL A   1      41.514  28.360  29.067  1.00  0.00     0.049 A 
ATOM     39  N   UNL A   1      41.775  25.498  28.751  1.00  0.00    -0.248 NA
ATOM     40  C   UNL A   1      39.882  25.412  27.443  1.00  0.00     0.031 C 
ATOM     41  C   UNL A   1      42.936  28.081  28.882  1.00  0.00     0.029 A 
ATOM     42  N   UNL A   1      41.487  29.527  29.842  1.00  0.00    -0.354 N 
ATOM     43  C   UNL A   1      41.848  24.351  28.005  1.00  0.00     0.074 A 
ATOM     44  C   UNL A   1      40.617  24.312  27.243  1.00  0.00     0.031 C 
ATOM     45  C   UNL A   1      43.637  28.833  29.743  1.00  0.00     0.029 A 
ATOM     46  C   UNL A   1      42.686  29.532  30.587  1.00  0.00     0.049 A 
ATOM     47  H   UNL A   1      40.774  30.206  29.862  1.00  0.00     0.167 HD
ATOM     48  C   UNL A   1      42.983  23.599  28.010  1.00  0.00     0.037 A 
ATOM     49  C   UNL A   1      42.664  29.503  31.950  1.00  0.00     0.037 A 
ATOM     50  C   UNL A   1      44.022  24.146  28.874  1.00  0.00     0.049 A 
ATOM     51  C   UNL A   1      43.312  28.282  32.571  1.00  0.00     0.074 A 
ATOM     52  C   UNL A   1      45.161  24.906  28.662  1.00  0.00     0.029 A 
ATOM     53  N   UNL A   1      43.802  24.168  30.238  1.00  0.00    -0.354 N 
ATOM     54  N   UNL A   1      43.857  27.308  31.898  1.00  0.00    -0.248 NA
ATOM     55  C   UNL A   1      43.295  28.019  34.013  1.00  0.00     0.031 C 
ATOM     56  C   UNL A   1      45.623  25.382  29.922  1.00  0.00     0.029 A 
ATOM     57  C   UNL A   1      44.765  24.906  30.896  1.00  0.00     0.049 A 
ATOM     58  H   UNL A   1      43.053  23.714  30.685  1.00  0.00     0.167 HD
ATOM     59  C   UNL A   1      44.173  26.287  32.757  1.00  0.00     0.074 A 
ATOM     60  C   UNL A   1      43.820  26.784  34.072  1.00  0.00     0.031 C 
ATOM     61  C   UNL A   1      44.649  25.082  32.332  1.00  0.00     0.037 A 
BRANCH  48  62
ATOM     62  C   UNL A   1      43.190  22.477  27.038  1.00  0.00     0.057 A 
ATOM     63  C   UNL A   1      42.444  21.289  27.118  1.00  0.00     0.134 A 
ATOM     64  C   UNL A   1      44.152  22.513  26.014  1.00  0.00     0.134 A 
ATOM     65  F   UNL A   1      41.452  21.141  28.005  1.00  0.00    -0.206 F 
ATOM     66  C   UNL A   1      42.701  20.181  26.302  1.00  0.00     0.040 A 
ATOM     67  C   UNL A   1      44.455  21.396  25.225  1.00  0.00     0.040 A 
ATOM     68  F   UNL A   1      44.830  23.638  25.742  1.00  0.00    -0.206 F 
ATOM     69  C   UNL A   1      43.734  20.220  25.376  1.00  0.00     0.006 A 
ENDBRANCH  48  62
BRANCH  49  70
ATOM     70  C   UNL A   1      41.512  30.242  32.528  1.00  0.00     0.057 A 
ATOM     71  C   UNL A   1      41.552  31.648  32.545  1.00  0.00     0.134 A 
ATOM     72  C   UNL A   1      40.272  29.635  32.733  1.00  0.00     0.134 A 
ATOM     73  F   UNL A   1      42.713  32.293  32.350  1.00  0.00    -0.206 F 
ATOM     74  C   UNL A   1      40.392  32.416  32.655  1.00  0.00     0.040 A 
ATOM     75  C   UNL A   1      39.105  30.396  32.860  1.00  0.00     0.040 A 
ATOM     76  F   UNL A   1      40.151  28.300  32.708  1.00  0.00    -0.206 F 
ATOM     77  C   UNL A   1      39.158  31.787  32.782  1.00  0.00     0.006 A 
ENDBRANCH  49  70
BRANCH  61  78
ATOM     78  C   UNL A   1      45.028  23.961  33.256  1.00  0.00     0.057 A 
ATOM     79  C   UNL A   1      44.132  22.942  33.607  1.00  0.00     0.134 A 
ATOM     80  C   UNL A   1      46.268  23.944  33.925  1.00  0.00     0.134 A 
ATOM     81  F   UNL A   1      42.901  22.893  33.078  1.00  0.00    -0.206 F 
ATOM     82  C   UNL A   1      44.462  21.947  34.536  1.00  0.00     0.040 A 
ATOM     83  C   UNL A   1      46.591  22.984  34.888  1.00  0.00     0.040 A 
ATOM     84  F   UNL A   1      47.223  24.845  33.659  1.00  0.00    -0.206 F 
ATOM     85  C   UNL A   1      45.690  21.973  35.189  1.00  0.00     0.006 A 
ENDBRANCH  61  78
ENDBRANCH  35  36
ENDBRANCH  27  30
ENDBRANCH  25  26
ENDBRANCH  24  25
ENDBRANCH  23  24
ENDBRANCH   1  23
TORSDOF 17
ENDMDL
