MODEL 1
REMARK VINA RESULT:     -10.3      0.000      0.000
REMARK SMILES Cn1cccc1C(=O)N[C@](C)(C(=O)NCCCCCCNC(=O)c1ccc(-c2c3nc(c(-c4c(F)cccc4F)c4ccc([nH]4)c(-c4c(F)cccc4F)c4nc(c(-c5c(F)cccc5F)c5ccc2[nH]5)C=C4)C=C3)cc1)C(F)(F)F
REMARK SMILES IDX 17 1 16 2 15 3 14 4 12 5 13 6 10 8 11 9 9 10 7 11 8 12 6 14
REMARK SMILES IDX 1 15 2 16 3 17 4 18 5 19 78 20 79 21 80 22 81 23 18 24 19 25
REMARK SMILES IDX 20 26 21 27 22 28 23 30 24 31 25 32 77 33 26 34 76 35 27 36
REMARK SMILES IDX 28 37 29 38 70 39 30 40 75 41 69 42 71 43 31 44 74 45 68 46
REMARK SMILES IDX 67 47 32 49 58 50 41 51 57 52 42 53 45 54 56 55 72 56 43 57
REMARK SMILES IDX 44 58 55 60 73 61 46 62 33 63 34 64 39 65 35 66 36 67 38 68
REMARK SMILES IDX 40 69 37 70 59 71 60 72 65 73 61 74 62 75 64 76 66 77 63 78
REMARK SMILES IDX 47 79 48 80 53 81 49 82 50 83 52 84 54 85 51 86
REMARK H PARENT 14 7 9 13 21 29 71 48 45 59
REMARK Flexibility Score: inf
ROOT
ATOM      1  C   UNL A   1      33.520  22.657  23.356  1.00  0.00     0.002 C 
ENDROOT
BRANCH   1   2
ATOM      2  C   UNL A   1      32.019  22.587  23.652  1.00  0.00     0.021 C 
BRANCH   2   3
ATOM      3  C   UNL A   1      31.346  23.950  23.885  1.00  0.00     0.116 C 
BRANCH   3   4
ATOM      4  N   UNL A   1      31.458  24.773  22.687  1.00  0.00    -0.354 N 
ATOM      5  C   UNL A   1      31.533  26.111  22.453  1.00  0.00     0.254 C 
ATOM      6  O   UNL A   1      31.254  26.438  21.291  1.00  0.00    -0.272 OA
ATOM      7  H   UNL A   1      31.486  24.240  21.859  1.00  0.00     0.163 HD
BRANCH   5   8
ATOM      8  C   UNL A   1      32.012  27.190  23.460  1.00  0.00     0.212 C 
ATOM      9  C   UNL A   1      31.852  28.629  22.925  1.00  0.00     0.056 C 
BRANCH   8  10
ATOM     10  N   UNL A   1      31.549  27.134  24.871  1.00  0.00    -0.329 N 
ATOM     11  C   UNL A   1      31.801  27.621  26.110  1.00  0.00     0.268 C 
ATOM     12  O   UNL A   1      31.130  27.004  26.951  1.00  0.00    -0.268 OA
ATOM     13  H   UNL A   1      30.782  26.521  24.925  1.00  0.00     0.165 HD
BRANCH  11  14
ATOM     14  C   UNL A   1      32.629  28.745  26.538  1.00  0.00     0.106 A 
ATOM     15  C   UNL A   1      31.489  31.024  26.153  1.00  0.00     0.150 C 
ATOM     16  N   UNL A   1      32.537  30.127  26.574  1.00  0.00    -0.347 N 
ATOM     17  C   UNL A   1      33.677  30.670  27.138  1.00  0.00     0.086 A 
ATOM     18  C   UNL A   1      34.529  29.660  27.484  1.00  0.00     0.020 A 
ATOM     19  C   UNL A   1      33.886  28.472  27.106  1.00  0.00     0.033 A 
ENDBRANCH  11  14
ENDBRANCH   8  10
BRANCH   8  20
ATOM     20  C   UNL A   1      33.554  26.914  23.438  1.00  0.00     0.420 C 
ATOM     21  F   UNL A   1      34.033  26.557  22.229  1.00  0.00    -0.168 F 
ATOM     22  F   UNL A   1      34.225  28.045  23.800  1.00  0.00    -0.168 F 
ATOM     23  F   UNL A   1      33.914  25.968  24.337  1.00  0.00    -0.168 F 
ENDBRANCH   8  20
ENDBRANCH   5   8
ENDBRANCH   3   4
ENDBRANCH   2   3
ENDBRANCH   1   2
BRANCH   1  24
ATOM     24  C   UNL A   1      34.425  22.495  24.580  1.00  0.00     0.002 C 
BRANCH  24  25
ATOM     25  C   UNL A   1      35.788  23.199  24.511  1.00  0.00     0.021 C 
BRANCH  25  26
ATOM     26  C   UNL A   1      36.506  23.405  25.846  1.00  0.00     0.116 C 
BRANCH  26  27
ATOM     27  N   UNL A   1      37.643  22.512  26.005  1.00  0.00    -0.352 N 
ATOM     28  C   UNL A   1      38.941  22.764  26.358  1.00  0.00     0.251 C 
ATOM     29  H   UNL A   1      37.445  21.563  25.830  1.00  0.00     0.163 HD
ATOM     30  O   UNL A   1      39.781  21.868  26.234  1.00  0.00    -0.269 OA
BRANCH  28  31
ATOM     31  C   UNL A   1      39.371  24.083  26.878  1.00  0.00     0.039 A 
ATOM     32  C   UNL A   1      40.009  24.968  26.000  1.00  0.00     0.014 A 
ATOM     33  C   UNL A   1      39.243  24.425  28.227  1.00  0.00     0.014 A 
ATOM     34  C   UNL A   1      40.481  26.199  26.462  1.00  0.00     0.010 A 
ATOM     35  C   UNL A   1      39.662  25.682  28.676  1.00  0.00     0.010 A 
ATOM     36  C   UNL A   1      40.299  26.576  27.801  1.00  0.00    -0.014 A 
BRANCH  36  37
ATOM     37  C   UNL A   1      40.787  27.892  28.292  1.00  0.00     0.031 A 
ATOM     38  C   UNL A   1      39.816  28.943  28.762  1.00  0.00     0.074 A 
ATOM     39  C   UNL A   1      42.108  28.157  28.290  1.00  0.00     0.049 A 
ATOM     40  N   UNL A   1      40.058  30.147  29.217  1.00  0.00    -0.248 NA
ATOM     41  C   UNL A   1      38.385  28.606  28.691  1.00  0.00     0.031 C 
ATOM     42  C   UNL A   1      43.152  27.249  27.813  1.00  0.00     0.029 A 
ATOM     43  N   UNL A   1      42.799  29.272  28.696  1.00  0.00    -0.354 N 
ATOM     44  C   UNL A   1      38.815  30.714  29.469  1.00  0.00     0.074 A 
ATOM     45  C   UNL A   1      37.820  29.739  29.079  1.00  0.00     0.031 C 
ATOM     46  C   UNL A   1      44.350  27.835  27.970  1.00  0.00     0.029 A 
ATOM     47  C   UNL A   1      44.160  29.166  28.536  1.00  0.00     0.049 A 
ATOM     48  H   UNL A   1      42.361  30.071  29.069  1.00  0.00     0.167 HD
ATOM     49  C   UNL A   1      38.528  31.929  29.998  1.00  0.00     0.037 A 
ATOM     50  C   UNL A   1      45.142  30.044  28.814  1.00  0.00     0.037 A 
ATOM     51  C   UNL A   1      39.516  32.886  30.424  1.00  0.00     0.049 A 
ATOM     52  C   UNL A   1      44.798  31.373  29.427  1.00  0.00     0.074 A 
ATOM     53  C   UNL A   1      39.321  34.107  31.046  1.00  0.00     0.029 A 
ATOM     54  N   UNL A   1      40.884  32.730  30.269  1.00  0.00    -0.354 N 
ATOM     55  N   UNL A   1      43.622  31.859  29.738  1.00  0.00    -0.248 NA
ATOM     56  C   UNL A   1      45.920  32.271  29.734  1.00  0.00     0.031 C 
ATOM     57  C   UNL A   1      40.570  34.708  31.235  1.00  0.00     0.029 A 
ATOM     58  C   UNL A   1      41.545  33.843  30.765  1.00  0.00     0.049 A 
ATOM     59  H   UNL A   1      41.322  31.945  29.867  1.00  0.00     0.167 HD
ATOM     60  C   UNL A   1      43.863  33.107  30.298  1.00  0.00     0.074 A 
ATOM     61  C   UNL A   1      45.299  33.296  30.300  1.00  0.00     0.031 C 
ATOM     62  C   UNL A   1      42.974  34.017  30.764  1.00  0.00     0.037 A 
BRANCH  49  63
ATOM     63  C   UNL A   1      37.082  32.295  30.159  1.00  0.00     0.057 A 
ATOM     64  C   UNL A   1      36.368  31.986  31.324  1.00  0.00     0.134 A 
ATOM     65  C   UNL A   1      36.410  33.013  29.161  1.00  0.00     0.134 A 
ATOM     66  F   UNL A   1      36.951  31.293  32.314  1.00  0.00    -0.206 F 
ATOM     67  C   UNL A   1      35.033  32.362  31.484  1.00  0.00     0.040 A 
ATOM     68  C   UNL A   1      35.083  33.416  29.319  1.00  0.00     0.040 A 
ATOM     69  F   UNL A   1      37.038  33.348  28.023  1.00  0.00    -0.206 F 
ATOM     70  C   UNL A   1      34.389  33.086  30.482  1.00  0.00     0.006 A 
ENDBRANCH  49  63
BRANCH  50  71
ATOM     71  C   UNL A   1      46.557  29.687  28.536  1.00  0.00     0.057 A 
ATOM     72  C   UNL A   1      47.356  29.078  29.510  1.00  0.00     0.134 A 
ATOM     73  C   UNL A   1      47.148  29.966  27.298  1.00  0.00     0.134 A 
ATOM     74  F   UNL A   1      46.850  28.807  30.723  1.00  0.00    -0.206 F 
ATOM     75  C   UNL A   1      48.697  28.779  29.273  1.00  0.00     0.040 A 
ATOM     76  C   UNL A   1      48.482  29.650  27.038  1.00  0.00     0.040 A 
ATOM     77  F   UNL A   1      46.433  30.544  26.321  1.00  0.00    -0.206 F 
ATOM     78  C   UNL A   1      49.263  29.061  28.031  1.00  0.00     0.006 A 
ENDBRANCH  50  71
BRANCH  62  79
ATOM     79  C   UNL A   1      43.530  35.288  31.333  1.00  0.00     0.057 A 
ATOM     80  C   UNL A   1      43.728  36.425  30.540  1.00  0.00     0.134 A 
ATOM     81  C   UNL A   1      43.842  35.385  32.695  1.00  0.00     0.134 A 
ATOM     82  F   UNL A   1      43.460  36.393  29.226  1.00  0.00    -0.206 F 
ATOM     83  C   UNL A   1      44.239  37.608  31.077  1.00  0.00     0.040 A 
ATOM     84  C   UNL A   1      44.333  36.569  33.248  1.00  0.00     0.040 A 
ATOM     85  F   UNL A   1      43.669  34.335  33.511  1.00  0.00    -0.206 F 
ATOM     86  C   UNL A   1      44.538  37.684  32.436  1.00  0.00     0.006 A 
ENDBRANCH  62  79
ENDBRANCH  36  37
ENDBRANCH  28  31
ENDBRANCH  26  27
ENDBRANCH  25  26
ENDBRANCH  24  25
ENDBRANCH   1  24
TORSDOF 16
ENDMDL
MODEL 2
REMARK VINA RESULT:     -10.3      0.628      6.183
REMARK SMILES Cn1cccc1C(=O)N[C@](C)(C(=O)NCCCCCCNC(=O)c1ccc(-c2c3nc(c(-c4c(F)cccc4F)c4ccc([nH]4)c(-c4c(F)cccc4F)c4nc(c(-c5c(F)cccc5F)c5ccc2[nH]5)C=C4)C=C3)cc1)C(F)(F)F
REMARK SMILES IDX 17 1 16 2 15 3 14 4 12 5 13 6 10 8 11 9 9 10 7 11 8 12 6 14
REMARK SMILES IDX 1 15 2 16 3 17 4 18 5 19 78 20 79 21 80 22 81 23 18 24 19 25
REMARK SMILES IDX 20 26 21 27 22 28 23 30 24 31 25 32 77 33 26 34 76 35 27 36
REMARK SMILES IDX 28 37 29 38 70 39 30 40 75 41 69 42 71 43 31 44 74 45 68 46
REMARK SMILES IDX 67 47 32 49 58 50 41 51 57 52 42 53 45 54 56 55 72 56 43 57
REMARK SMILES IDX 44 58 55 60 73 61 46 62 33 63 34 64 39 65 35 66 36 67 38 68
REMARK SMILES IDX 40 69 37 70 59 71 60 72 65 73 61 74 62 75 64 76 66 77 63 78
REMARK SMILES IDX 47 79 48 80 53 81 49 82 50 83 52 84 54 85 51 86
REMARK H PARENT 14 7 9 13 21 29 71 48 45 59
REMARK Flexibility Score: inf
ROOT
ATOM      1  C   UNL A   1      33.862  22.735  25.042  1.00  0.00     0.002 C 
ENDROOT
BRANCH   1   2
ATOM      2  C   UNL A   1      33.045  23.849  25.703  1.00  0.00     0.021 C 
BRANCH   2   3
ATOM      3  C   UNL A   1      31.626  24.024  25.138  1.00  0.00     0.116 C 
BRANCH   3   4
ATOM      4  N   UNL A   1      31.686  24.631  23.814  1.00  0.00    -0.354 N 
ATOM      5  C   UNL A   1      31.671  25.910  23.349  1.00  0.00     0.254 C 
ATOM      6  O   UNL A   1      31.376  26.009  22.151  1.00  0.00    -0.272 OA
ATOM      7  H   UNL A   1      31.753  23.965  23.092  1.00  0.00     0.163 HD
BRANCH   5   8
ATOM      8  C   UNL A   1      32.072  27.178  24.149  1.00  0.00     0.212 C 
ATOM      9  C   UNL A   1      31.724  28.490  23.413  1.00  0.00     0.056 C 
BRANCH   8  10
ATOM     10  N   UNL A   1      31.686  27.297  25.578  1.00  0.00    -0.329 N 
ATOM     11  C   UNL A   1      31.998  27.937  26.732  1.00  0.00     0.268 C 
ATOM     12  O   UNL A   1      31.381  27.426  27.679  1.00  0.00    -0.268 OA
ATOM     13  H   UNL A   1      30.930  26.691  25.751  1.00  0.00     0.165 HD
BRANCH  11  14
ATOM     14  C   UNL A   1      32.832  29.111  26.970  1.00  0.00     0.106 A 
ATOM     15  C   UNL A   1      31.574  31.324  26.572  1.00  0.00     0.150 C 
ATOM     16  N   UNL A   1      32.697  30.489  26.919  1.00  0.00    -0.347 N 
ATOM     17  C   UNL A   1      33.879  31.102  27.294  1.00  0.00     0.086 A 
ATOM     18  C   UNL A   1      34.803  30.143  27.599  1.00  0.00     0.020 A 
ATOM     19  C   UNL A   1      34.160  28.914  27.391  1.00  0.00     0.033 A 
ENDBRANCH  11  14
ENDBRANCH   8  10
BRANCH   8  20
ATOM     20  C   UNL A   1      33.633  27.065  24.069  1.00  0.00     0.420 C 
ATOM     21  F   UNL A   1      34.083  26.422  22.973  1.00  0.00    -0.168 F 
ATOM     22  F   UNL A   1      34.179  28.314  24.036  1.00  0.00    -0.168 F 
ATOM     23  F   UNL A   1      34.154  26.463  25.163  1.00  0.00    -0.168 F 
ENDBRANCH   8  20
ENDBRANCH   5   8
ENDBRANCH   3   4
ENDBRANCH   2   3
ENDBRANCH   1   2
BRANCH   1  24
ATOM     24  C   UNL A   1      34.741  23.190  23.873  1.00  0.00     0.002 C 
BRANCH  24  25
ATOM     25  C   UNL A   1      36.246  23.286  24.155  1.00  0.00     0.021 C 
BRANCH  25  26
ATOM     26  C   UNL A   1      36.651  23.356  25.628  1.00  0.00     0.116 C 
BRANCH  26  27
ATOM     27  N   UNL A   1      37.742  22.448  25.946  1.00  0.00    -0.352 N 
ATOM     28  C   UNL A   1      39.003  22.689  26.420  1.00  0.00     0.251 C 
ATOM     29  H   UNL A   1      37.539  21.496  25.794  1.00  0.00     0.163 HD
ATOM     30  O   UNL A   1      39.827  21.771  26.425  1.00  0.00    -0.269 OA
BRANCH  28  31
ATOM     31  C   UNL A   1      39.411  24.022  26.922  1.00  0.00     0.039 A 
ATOM     32  C   UNL A   1      39.990  24.923  26.021  1.00  0.00     0.014 A 
ATOM     33  C   UNL A   1      39.320  24.365  28.275  1.00  0.00     0.014 A 
ATOM     34  C   UNL A   1      40.442  26.169  26.463  1.00  0.00     0.010 A 
ATOM     35  C   UNL A   1      39.716  25.635  28.705  1.00  0.00     0.010 A 
ATOM     36  C   UNL A   1      40.295  26.544  27.807  1.00  0.00    -0.014 A 
BRANCH  36  37
ATOM     37  C   UNL A   1      40.760  27.876  28.277  1.00  0.00     0.031 A 
ATOM     38  C   UNL A   1      42.222  28.234  28.243  1.00  0.00     0.074 A 
ATOM     39  C   UNL A   1      39.867  28.762  28.762  1.00  0.00     0.049 A 
ATOM     40  N   UNL A   1      42.811  29.343  28.616  1.00  0.00    -0.248 NA
ATOM     41  C   UNL A   1      43.147  27.203  27.747  1.00  0.00     0.031 C 
ATOM     42  C   UNL A   1      38.429  28.525  28.900  1.00  0.00     0.029 A 
ATOM     43  N   UNL A   1      40.040  30.038  29.238  1.00  0.00    -0.354 N 
ATOM     44  C   UNL A   1      44.170  29.137  28.416  1.00  0.00     0.074 A 
ATOM     45  C   UNL A   1      44.324  27.784  27.928  1.00  0.00     0.031 C 
ATOM     46  C   UNL A   1      37.849  29.624  29.407  1.00  0.00     0.029 A 
ATOM     47  C   UNL A   1      38.873  30.635  29.652  1.00  0.00     0.049 A 
ATOM     48  H   UNL A   1      40.916  30.486  29.277  1.00  0.00     0.167 HD
ATOM     49  C   UNL A   1      45.196  30.003  28.601  1.00  0.00     0.037 A 
ATOM     50  C   UNL A   1      38.654  31.858  30.171  1.00  0.00     0.037 A 
ATOM     51  C   UNL A   1      45.043  31.363  29.049  1.00  0.00     0.049 A 
ATOM     52  C   UNL A   1      39.805  32.809  30.340  1.00  0.00     0.074 A 
ATOM     53  C   UNL A   1      46.014  32.340  29.188  1.00  0.00     0.029 A 
ATOM     54  N   UNL A   1      43.842  31.937  29.433  1.00  0.00    -0.354 N 
ATOM     55  N   UNL A   1      41.073  32.627  30.065  1.00  0.00    -0.248 NA
ATOM     56  C   UNL A   1      39.493  34.138  30.883  1.00  0.00     0.031 C 
ATOM     57  C   UNL A   1      45.407  33.495  29.691  1.00  0.00     0.029 A 
ATOM     58  C   UNL A   1      44.051  33.249  29.830  1.00  0.00     0.049 A 
ATOM     59  H   UNL A   1      42.969  31.482  29.425  1.00  0.00     0.167 HD
ATOM     60  C   UNL A   1      41.705  33.824  30.379  1.00  0.00     0.074 A 
ATOM     61  C   UNL A   1      40.678  34.731  30.848  1.00  0.00     0.031 C 
ATOM     62  C   UNL A   1      43.019  34.141  30.291  1.00  0.00     0.037 A 
BRANCH  49  63
ATOM     63  C   UNL A   1      46.584  29.513  28.310  1.00  0.00     0.057 A 
ATOM     64  C   UNL A   1      47.379  28.920  29.299  1.00  0.00     0.134 A 
ATOM     65  C   UNL A   1      47.110  29.585  27.014  1.00  0.00     0.134 A 
ATOM     66  F   UNL A   1      46.938  28.829  30.562  1.00  0.00    -0.206 F 
ATOM     67  C   UNL A   1      48.656  28.433  29.013  1.00  0.00     0.040 A 
ATOM     68  C   UNL A   1      48.375  29.080  26.710  1.00  0.00     0.040 A 
ATOM     69  F   UNL A   1      46.397  30.134  26.018  1.00  0.00    -0.206 F 
ATOM     70  C   UNL A   1      49.154  28.505  27.713  1.00  0.00     0.006 A 
ENDBRANCH  49  63
BRANCH  50  71
ATOM     71  C   UNL A   1      37.278  32.266  30.553  1.00  0.00     0.057 A 
ATOM     72  C   UNL A   1      36.792  32.055  31.848  1.00  0.00     0.134 A 
ATOM     73  C   UNL A   1      36.411  32.859  29.627  1.00  0.00     0.134 A 
ATOM     74  F   UNL A   1      37.570  31.471  32.772  1.00  0.00    -0.206 F 
ATOM     75  C   UNL A   1      35.487  32.396  32.204  1.00  0.00     0.040 A 
ATOM     76  C   UNL A   1      35.112  33.228  29.976  1.00  0.00     0.040 A 
ATOM     77  F   UNL A   1      36.820  33.094  28.371  1.00  0.00    -0.206 F 
ATOM     78  C   UNL A   1      34.644  32.989  31.267  1.00  0.00     0.006 A 
ENDBRANCH  50  71
BRANCH  62  79
ATOM     79  C   UNL A   1      43.416  35.531  30.691  1.00  0.00     0.057 A 
ATOM     80  C   UNL A   1      43.781  35.843  32.006  1.00  0.00     0.134 A 
ATOM     81  C   UNL A   1      43.462  36.562  29.743  1.00  0.00     0.134 A 
ATOM     82  F   UNL A   1      43.745  34.903  32.963  1.00  0.00    -0.206 F 
ATOM     83  C   UNL A   1      44.157  37.137  32.371  1.00  0.00     0.040 A 
ATOM     84  C   UNL A   1      43.858  37.854  30.091  1.00  0.00     0.040 A 
ATOM     85  F   UNL A   1      43.131  36.328  28.464  1.00  0.00    -0.206 F 
ATOM     86  C   UNL A   1      44.201  38.146  31.410  1.00  0.00     0.006 A 
ENDBRANCH  62  79
ENDBRANCH  36  37
ENDBRANCH  28  31
ENDBRANCH  26  27
ENDBRANCH  25  26
ENDBRANCH  24  25
ENDBRANCH   1  24
TORSDOF 16
ENDMDL
MODEL 3
REMARK VINA RESULT:     -10.3      3.705      7.402
REMARK SMILES Cn1cccc1C(=O)N[C@](C)(C(=O)NCCCCCCNC(=O)c1ccc(-c2c3nc(c(-c4c(F)cccc4F)c4ccc([nH]4)c(-c4c(F)cccc4F)c4nc(c(-c5c(F)cccc5F)c5ccc2[nH]5)C=C4)C=C3)cc1)C(F)(F)F
REMARK SMILES IDX 17 1 16 2 15 3 14 4 12 5 13 6 10 8 11 9 9 10 7 11 8 12 6 14
REMARK SMILES IDX 1 15 2 16 3 17 4 18 5 19 78 20 79 21 80 22 81 23 18 24 19 25
REMARK SMILES IDX 20 26 21 27 22 28 23 30 24 31 25 32 77 33 26 34 76 35 27 36
REMARK SMILES IDX 28 37 29 38 70 39 30 40 75 41 69 42 71 43 31 44 74 45 68 46
REMARK SMILES IDX 67 47 32 49 58 50 41 51 57 52 42 53 45 54 56 55 72 56 43 57
REMARK SMILES IDX 44 58 55 60 73 61 46 62 33 63 34 64 39 65 35 66 36 67 38 68
REMARK SMILES IDX 40 69 37 70 59 71 60 72 65 73 61 74 62 75 64 76 66 77 63 78
REMARK SMILES IDX 47 79 48 80 53 81 49 82 50 83 52 84 54 85 51 86
REMARK H PARENT 14 7 9 13 21 29 71 48 45 59
REMARK Flexibility Score: inf
ROOT
ATOM      1  C   UNL A   1      32.202  30.082  26.119  1.00  0.00     0.002 C 
ENDROOT
BRANCH   1   2
ATOM      2  C   UNL A   1      31.804  28.901  27.009  1.00  0.00     0.021 C 
BRANCH   2   3
ATOM      3  C   UNL A   1      32.396  27.548  26.583  1.00  0.00     0.116 C 
BRANCH   3   4
ATOM      4  N   UNL A   1      31.459  26.474  26.889  1.00  0.00    -0.354 N 
ATOM      5  C   UNL A   1      31.030  25.365  26.228  1.00  0.00     0.254 C 
ATOM      6  O   UNL A   1      29.967  24.898  26.660  1.00  0.00    -0.272 OA
ATOM      7  H   UNL A   1      31.043  26.572  27.777  1.00  0.00     0.163 HD
BRANCH   5   8
ATOM      8  C   UNL A   1      31.788  24.627  25.092  1.00  0.00     0.212 C 
ATOM      9  C   UNL A   1      30.975  23.466  24.479  1.00  0.00     0.056 C 
BRANCH   8  10
ATOM     10  N   UNL A   1      32.424  25.412  24.003  1.00  0.00    -0.329 N 
ATOM     11  C   UNL A   1      32.191  26.403  23.109  1.00  0.00     0.268 C 
ATOM     12  O   UNL A   1      33.131  26.473  22.302  1.00  0.00    -0.268 OA
ATOM     13  H   UNL A   1      33.350  25.098  23.890  1.00  0.00     0.165 HD
BRANCH  11  14
ATOM     14  C   UNL A   1      31.106  27.376  23.031  1.00  0.00     0.106 A 
ATOM     15  C   UNL A   1      28.831  26.385  23.724  1.00  0.00     0.150 C 
ATOM     16  N   UNL A   1      29.741  27.407  23.272  1.00  0.00    -0.347 N 
ATOM     17  C   UNL A   1      29.240  28.674  23.032  1.00  0.00     0.086 A 
ATOM     18  C   UNL A   1      30.260  29.491  22.637  1.00  0.00     0.020 A 
ATOM     19  C   UNL A   1      31.410  28.688  22.627  1.00  0.00     0.033 A 
ENDBRANCH  11  14
ENDBRANCH   8  10
BRANCH   8  20
ATOM     20  C   UNL A   1      32.920  23.938  25.927  1.00  0.00     0.420 C 
ATOM     21  F   UNL A   1      33.405  22.809  25.373  1.00  0.00    -0.168 F 
ATOM     22  F   UNL A   1      33.977  24.791  26.053  1.00  0.00    -0.168 F 
ATOM     23  F   UNL A   1      32.520  23.656  27.189  1.00  0.00    -0.168 F 
ENDBRANCH   8  20
ENDBRANCH   5   8
ENDBRANCH   3   4
ENDBRANCH   2   3
ENDBRANCH   1   2
BRANCH   1  24
ATOM     24  C   UNL A   1      31.072  31.070  25.818  1.00  0.00     0.002 C 
BRANCH  24  25
ATOM     25  C   UNL A   1      31.186  32.450  26.480  1.00  0.00     0.021 C 
BRANCH  25  26
ATOM     26  C   UNL A   1      32.546  32.794  27.089  1.00  0.00     0.116 C 
BRANCH  26  27
ATOM     27  N   UNL A   1      32.582  34.141  27.636  1.00  0.00    -0.352 N 
ATOM     28  C   UNL A   1      33.338  34.682  28.641  1.00  0.00     0.251 C 
ATOM     29  H   UNL A   1      31.956  34.772  27.212  1.00  0.00     0.163 HD
ATOM     30  O   UNL A   1      33.053  35.805  29.067  1.00  0.00    -0.269 OA
BRANCH  28  31
ATOM     31  C   UNL A   1      34.486  33.959  29.236  1.00  0.00     0.039 A 
ATOM     32  C   UNL A   1      35.771  34.248  28.762  1.00  0.00     0.014 A 
ATOM     33  C   UNL A   1      34.313  32.942  30.180  1.00  0.00     0.014 A 
ATOM     34  C   UNL A   1      36.877  33.550  29.255  1.00  0.00     0.010 A 
ATOM     35  C   UNL A   1      35.425  32.286  30.716  1.00  0.00     0.010 A 
ATOM     36  C   UNL A   1      36.717  32.572  30.249  1.00  0.00    -0.014 A 
BRANCH  36  37
ATOM     37  C   UNL A   1      37.894  31.839  30.786  1.00  0.00     0.031 A 
ATOM     38  C   UNL A   1      38.427  32.148  32.160  1.00  0.00     0.074 A 
ATOM     39  C   UNL A   1      38.505  30.908  30.027  1.00  0.00     0.049 A 
ATOM     40  N   UNL A   1      39.445  31.616  32.791  1.00  0.00    -0.248 NA
ATOM     41  C   UNL A   1      37.744  33.210  32.916  1.00  0.00     0.031 C 
ATOM     42  C   UNL A   1      38.123  30.548  28.661  1.00  0.00     0.029 A 
ATOM     43  N   UNL A   1      39.581  30.100  30.295  1.00  0.00    -0.354 N 
ATOM     44  C   UNL A   1      39.532  32.286  34.005  1.00  0.00     0.074 A 
ATOM     45  C   UNL A   1      38.492  33.292  34.007  1.00  0.00     0.031 C 
ATOM     46  C   UNL A   1      38.940  29.580  28.216  1.00  0.00     0.029 A 
ATOM     47  C   UNL A   1      39.917  29.266  29.255  1.00  0.00     0.049 A 
ATOM     48  H   UNL A   1      40.067  30.114  31.151  1.00  0.00     0.167 HD
ATOM     49  C   UNL A   1      40.388  32.071  35.033  1.00  0.00     0.037 A 
ATOM     50  C   UNL A   1      40.900  28.353  29.150  1.00  0.00     0.037 A 
ATOM     51  C   UNL A   1      41.398  31.046  35.051  1.00  0.00     0.049 A 
ATOM     52  C   UNL A   1      41.817  28.113  30.316  1.00  0.00     0.074 A 
ATOM     53  C   UNL A   1      42.256  30.698  36.081  1.00  0.00     0.029 A 
ATOM     54  N   UNL A   1      41.689  30.205  33.989  1.00  0.00    -0.354 N 
ATOM     55  N   UNL A   1      41.831  28.697  31.489  1.00  0.00    -0.248 NA
ATOM     56  C   UNL A   1      42.849  27.081  30.148  1.00  0.00     0.031 C 
ATOM     57  C   UNL A   1      43.091  29.670  35.629  1.00  0.00     0.029 A 
ATOM     58  C   UNL A   1      42.728  29.353  34.331  1.00  0.00     0.049 A 
ATOM     59  H   UNL A   1      41.226  30.210  33.120  1.00  0.00     0.167 HD
ATOM     60  C   UNL A   1      42.855  28.089  32.204  1.00  0.00     0.074 A 
ATOM     61  C   UNL A   1      43.427  27.078  31.341  1.00  0.00     0.031 C 
ATOM     62  C   UNL A   1      43.285  28.349  33.463  1.00  0.00     0.037 A 
BRANCH  49  63
ATOM     63  C   UNL A   1      40.265  32.955  36.239  1.00  0.00     0.057 A 
ATOM     64  C   UNL A   1      39.354  32.678  37.267  1.00  0.00     0.134 A 
ATOM     65  C   UNL A   1      41.105  34.064  36.402  1.00  0.00     0.134 A 
ATOM     66  F   UNL A   1      38.515  31.635  37.169  1.00  0.00    -0.206 F 
ATOM     67  C   UNL A   1      39.270  33.484  38.405  1.00  0.00     0.040 A 
ATOM     68  C   UNL A   1      41.047  34.863  37.545  1.00  0.00     0.040 A 
ATOM     69  F   UNL A   1      42.005  34.381  35.459  1.00  0.00    -0.206 F 
ATOM     70  C   UNL A   1      40.124  34.575  38.549  1.00  0.00     0.006 A 
ENDBRANCH  49  63
BRANCH  50  71
ATOM     71  C   UNL A   1      41.060  27.574  27.896  1.00  0.00     0.057 A 
ATOM     72  C   UNL A   1      40.449  26.325  27.735  1.00  0.00     0.134 A 
ATOM     73  C   UNL A   1      41.843  28.051  26.837  1.00  0.00     0.134 A 
ATOM     74  F   UNL A   1      39.704  25.808  28.724  1.00  0.00    -0.206 F 
ATOM     75  C   UNL A   1      40.628  25.567  26.578  1.00  0.00     0.040 A 
ATOM     76  C   UNL A   1      42.011  27.314  25.665  1.00  0.00     0.040 A 
ATOM     77  F   UNL A   1      42.450  29.243  26.928  1.00  0.00    -0.206 F 
ATOM     78  C   UNL A   1      41.408  26.064  25.535  1.00  0.00     0.006 A 
ENDBRANCH  50  71
BRANCH  62  79
ATOM     79  C   UNL A   1      44.415  27.513  33.986  1.00  0.00     0.057 A 
ATOM     80  C   UNL A   1      45.746  27.941  33.907  1.00  0.00     0.134 A 
ATOM     81  C   UNL A   1      44.167  26.280  34.601  1.00  0.00     0.134 A 
ATOM     82  F   UNL A   1      46.051  29.107  33.317  1.00  0.00    -0.206 F 
ATOM     83  C   UNL A   1      46.793  27.163  34.402  1.00  0.00     0.040 A 
ATOM     84  C   UNL A   1      45.203  25.503  35.121  1.00  0.00     0.040 A 
ATOM     85  F   UNL A   1      42.914  25.814  34.716  1.00  0.00    -0.206 F 
ATOM     86  C   UNL A   1      46.522  25.942  35.016  1.00  0.00     0.006 A 
ENDBRANCH  62  79
ENDBRANCH  36  37
ENDBRANCH  28  31
ENDBRANCH  26  27
ENDBRANCH  25  26
ENDBRANCH  24  25
ENDBRANCH   1  24
TORSDOF 16
ENDMDL
