MODEL 1
REMARK VINA RESULT:      -9.7      0.000      0.000
REMARK SMILES C[C@]12c3ccccc3[C@](C)(c3ccccc31)[C@@H]1C(=O)N(c3ccc(C(=O)NCCCCCCNC(=O)c4ccc(-c5c6nc(c(-c7c(F)cccc7F)c7ccc([nH]7)c(-c7c(F)cccc7F)c7nc(c(-c8c(F)cccc8F)c8ccc5[nH]8)C=C7)C=C6)cc4)cc3)C(=O)[C@H]12
REMARK SMILES IDX 31 1 30 2 29 3 28 4 27 5 25 6 26 7 24 9 21 10 22 11 92 12
REMARK SMILES IDX 23 13 91 14 20 15 1 16 2 17 16 18 3 19 95 20 15 21 11 22
REMARK SMILES IDX 8 23 4 24 17 25 93 26 14 27 12 28 9 29 7 30 5 31 18 32 94 33
REMARK SMILES IDX 13 34 10 35 6 36 19 37 32 38 33 39 34 40 35 41 36 43 37 44
REMARK SMILES IDX 38 45 90 46 39 47 89 48 40 49 41 50 42 51 83 52 43 53 88 54
REMARK SMILES IDX 82 55 84 56 44 57 87 58 81 59 80 60 45 62 71 63 54 64 70 65
REMARK SMILES IDX 55 66 58 67 69 68 85 69 56 70 57 71 68 73 86 74 59 75 46 76
REMARK SMILES IDX 47 77 52 78 48 79 49 80 51 81 53 82 50 83 72 84 73 85 78 86
REMARK SMILES IDX 74 87 75 88 77 89 79 90 76 91 60 92 61 93 66 94 62 95 63 96
REMARK SMILES IDX 65 97 67 98 64 99
REMARK H PARENT 27 8 34 42 84 61 58 72
REMARK Flexibility Score: inf
ROOT
ATOM      1  C   UNL A   1      35.836  33.926  29.772  1.00  0.00     0.002 C 
ENDROOT
BRANCH   1   2
ATOM      2  C   UNL A   1      37.250  33.460  29.416  1.00  0.00     0.002 C 
BRANCH   2   3
ATOM      3  C   UNL A   1      38.109  32.950  30.577  1.00  0.00     0.021 C 
BRANCH   3   4
ATOM      4  C   UNL A   1      38.292  33.908  31.752  1.00  0.00     0.116 C 
BRANCH   4   5
ATOM      5  N   UNL A   1      37.456  33.591  32.894  1.00  0.00    -0.352 N 
ATOM      6  C   UNL A   1      37.571  32.598  33.836  1.00  0.00     0.251 C 
ATOM      7  O   UNL A   1      36.699  32.484  34.696  1.00  0.00    -0.269 OA
ATOM      8  H   UNL A   1      36.680  34.185  33.013  1.00  0.00     0.163 HD
BRANCH   6   9
ATOM      9  C   UNL A   1      38.689  31.623  33.801  1.00  0.00     0.039 A 
ATOM     10  C   UNL A   1      40.793  29.760  34.004  1.00  0.00     0.052 A 
ATOM     11  C   UNL A   1      40.904  31.029  34.587  1.00  0.00     0.027 A 
ATOM     12  C   UNL A   1      39.654  29.474  33.237  1.00  0.00     0.027 A 
ATOM     13  C   UNL A   1      39.869  31.960  34.472  1.00  0.00     0.016 A 
ATOM     14  C   UNL A   1      38.612  30.402  33.131  1.00  0.00     0.016 A 
BRANCH  10  15
ATOM     15  N   UNL A   1      41.775  28.769  34.229  1.00  0.00    -0.250 N 
ATOM     16  C   UNL A   1      45.309  26.769  32.188  1.00  0.00     0.022 C 
ATOM     17  C   UNL A   1      44.854  26.633  33.641  1.00  0.00     0.030 C 
ATOM     18  C   UNL A   1      45.871  27.129  34.702  1.00  0.00    -0.033 A 
ATOM     19  C   UNL A   1      44.533  25.165  34.083  1.00  0.00    -0.033 A 
ATOM     20  C   UNL A   1      43.450  27.249  33.883  1.00  0.00     0.108 C 
ATOM     21  C   UNL A   1      47.123  27.685  34.449  1.00  0.00     0.005 A 
ATOM     22  C   UNL A   1      45.459  26.910  36.064  1.00  0.00    -0.033 A 
ATOM     23  C   UNL A   1      43.975  25.077  35.405  1.00  0.00    -0.033 A 
ATOM     24  C   UNL A   1      44.676  24.022  33.300  1.00  0.00     0.005 A 
ATOM     25  C   UNL A   1      43.297  27.532  35.379  1.00  0.00     0.108 C 
ATOM     26  C   UNL A   1      42.826  28.495  33.339  1.00  0.00     0.238 C 
ATOM     27  C   UNL A   1      47.965  27.990  35.523  1.00  0.00     0.000 A 
ATOM     28  C   UNL A   1      46.317  27.199  37.122  1.00  0.00     0.005 A 
ATOM     29  C   UNL A   1      43.985  26.410  36.189  1.00  0.00     0.030 C 
ATOM     30  C   UNL A   1      43.541  23.847  35.890  1.00  0.00     0.005 A 
ATOM     31  C   UNL A   1      44.241  22.797  33.810  1.00  0.00     0.000 A 
ATOM     32  C   UNL A   1      41.891  28.026  35.408  1.00  0.00     0.238 C 
ATOM     33  O   UNL A   1      43.149  29.067  32.313  1.00  0.00    -0.274 OA
ATOM     34  C   UNL A   1      47.573  27.736  36.843  1.00  0.00     0.000 A 
ATOM     35  C   UNL A   1      43.460  26.335  37.621  1.00  0.00     0.022 C 
ATOM     36  C   UNL A   1      43.670  22.714  35.085  1.00  0.00     0.000 A 
ATOM     37  O   UNL A   1      41.104  27.898  36.333  1.00  0.00    -0.274 OA
ENDBRANCH  10  15
ENDBRANCH   6   9
ENDBRANCH   4   5
ENDBRANCH   3   4
ENDBRANCH   2   3
ENDBRANCH   1   2
BRANCH   1  38
ATOM     38  C   UNL A   1      34.707  32.950  29.445  1.00  0.00     0.021 C 
BRANCH  38  39
ATOM     39  C   UNL A   1      34.761  32.328  28.056  1.00  0.00     0.116 C 
BRANCH  39  40
ATOM     40  N   UNL A   1      34.207  30.983  28.004  1.00  0.00    -0.352 N 
ATOM     41  C   UNL A   1      34.857  29.772  28.066  1.00  0.00     0.251 C 
ATOM     42  H   UNL A   1      33.228  30.933  27.910  1.00  0.00     0.163 HD
ATOM     43  O   UNL A   1      34.244  28.727  27.879  1.00  0.00    -0.269 OA
BRANCH  41  44
ATOM     44  C   UNL A   1      36.314  29.741  28.315  1.00  0.00     0.039 A 
ATOM     45  C   UNL A   1      37.214  30.066  27.299  1.00  0.00     0.014 A 
ATOM     46  C   UNL A   1      36.785  29.328  29.564  1.00  0.00     0.014 A 
ATOM     47  C   UNL A   1      38.565  29.785  27.464  1.00  0.00     0.010 A 
ATOM     48  C   UNL A   1      38.157  29.145  29.760  1.00  0.00     0.010 A 
ATOM     49  C   UNL A   1      39.054  29.314  28.693  1.00  0.00    -0.014 A 
BRANCH  49  50
ATOM     50  C   UNL A   1      40.498  28.985  28.828  1.00  0.00     0.031 A 
ATOM     51  C   UNL A   1      41.026  27.639  28.399  1.00  0.00     0.074 A 
ATOM     52  C   UNL A   1      41.349  29.924  29.283  1.00  0.00     0.049 A 
ATOM     53  N   UNL A   1      42.256  27.184  28.433  1.00  0.00    -0.248 NA
ATOM     54  C   UNL A   1      40.050  26.676  27.868  1.00  0.00     0.031 C 
ATOM     55  C   UNL A   1      40.968  31.272  29.711  1.00  0.00     0.029 A 
ATOM     56  N   UNL A   1      42.711  29.899  29.442  1.00  0.00    -0.354 N 
ATOM     57  C   UNL A   1      42.195  25.882  27.947  1.00  0.00     0.074 A 
ATOM     58  C   UNL A   1      40.805  25.607  27.660  1.00  0.00     0.031 C 
ATOM     59  C   UNL A   1      42.072  31.960  30.032  1.00  0.00     0.029 A 
ATOM     60  C   UNL A   1      43.230  31.082  29.906  1.00  0.00     0.049 A 
ATOM     61  H   UNL A   1      43.263  29.108  29.243  1.00  0.00     0.167 HD
ATOM     62  C   UNL A   1      43.206  25.002  27.747  1.00  0.00     0.037 A 
ATOM     63  C   UNL A   1      44.495  31.418  30.218  1.00  0.00     0.037 A 
ATOM     64  C   UNL A   1      44.593  25.280  28.028  1.00  0.00     0.049 A 
ATOM     65  C   UNL A   1      45.583  30.394  30.062  1.00  0.00     0.074 A 
ATOM     66  C   UNL A   1      45.694  24.461  27.840  1.00  0.00     0.029 A 
ATOM     67  N   UNL A   1      45.068  26.468  28.566  1.00  0.00    -0.354 N 
ATOM     68  N   UNL A   1      45.514  29.176  29.583  1.00  0.00    -0.248 NA
ATOM     69  C   UNL A   1      46.926  30.794  30.501  1.00  0.00     0.031 C 
ATOM     70  C   UNL A   1      46.825  25.130  28.318  1.00  0.00     0.029 A 
ATOM     71  C   UNL A   1      46.441  26.391  28.746  1.00  0.00     0.049 A 
ATOM     72  H   UNL A   1      44.513  27.249  28.787  1.00  0.00     0.167 HD
ATOM     73  C   UNL A   1      46.807  28.673  29.640  1.00  0.00     0.074 A 
ATOM     74  C   UNL A   1      47.642  29.727  30.177  1.00  0.00     0.031 C 
ATOM     75  C   UNL A   1      47.261  27.447  29.283  1.00  0.00     0.037 A 
BRANCH  62  76
ATOM     76  C   UNL A   1      42.846  23.638  27.226  1.00  0.00     0.057 A 
ATOM     77  C   UNL A   1      42.474  22.614  28.106  1.00  0.00     0.134 A 
ATOM     78  C   UNL A   1      42.890  23.327  25.859  1.00  0.00     0.134 A 
ATOM     79  F   UNL A   1      42.419  22.837  29.428  1.00  0.00    -0.206 F 
ATOM     80  C   UNL A   1      42.155  21.333  27.647  1.00  0.00     0.040 A 
ATOM     81  C   UNL A   1      42.545  22.059  25.387  1.00  0.00     0.040 A 
ATOM     82  F   UNL A   1      43.229  24.263  24.960  1.00  0.00    -0.206 F 
ATOM     83  C   UNL A   1      42.181  21.057  26.283  1.00  0.00     0.006 A 
ENDBRANCH  62  76
BRANCH  63  84
ATOM     84  C   UNL A   1      44.804  32.777  30.732  1.00  0.00     0.057 A 
ATOM     85  C   UNL A   1      45.223  33.803  29.876  1.00  0.00     0.134 A 
ATOM     86  C   UNL A   1      44.656  33.088  32.088  1.00  0.00     0.134 A 
ATOM     87  F   UNL A   1      45.390  33.569  28.566  1.00  0.00    -0.206 F 
ATOM     88  C   UNL A   1      45.487  35.089  30.351  1.00  0.00     0.040 A 
ATOM     89  C   UNL A   1      44.885  34.378  32.571  1.00  0.00     0.040 A 
ATOM     90  F   UNL A   1      44.240  32.153  32.955  1.00  0.00    -0.206 F 
ATOM     91  C   UNL A   1      45.305  35.381  31.700  1.00  0.00     0.006 A 
ENDBRANCH  63  84
BRANCH  75  92
ATOM     92  C   UNL A   1      48.736  27.200  29.428  1.00  0.00     0.057 A 
ATOM     93  C   UNL A   1      49.243  26.567  30.570  1.00  0.00     0.134 A 
ATOM     94  C   UNL A   1      49.655  27.588  28.444  1.00  0.00     0.134 A 
ATOM     95  F   UNL A   1      48.421  26.175  31.555  1.00  0.00    -0.206 F 
ATOM     96  C   UNL A   1      50.609  26.325  30.725  1.00  0.00     0.040 A 
ATOM     97  C   UNL A   1      51.019  27.323  28.574  1.00  0.00     0.040 A 
ATOM     98  F   UNL A   1      49.235  28.186  27.318  1.00  0.00    -0.206 F 
ATOM     99  C   UNL A   1      51.500  26.693  29.721  1.00  0.00     0.006 A 
ENDBRANCH  75  92
ENDBRANCH  49  50
ENDBRANCH  41  44
ENDBRANCH  39  40
ENDBRANCH  38  39
ENDBRANCH   1  38
TORSDOF 14
ENDMDL
MODEL 2
REMARK VINA RESULT:      -9.6      2.898      4.886
REMARK SMILES C[C@]12c3ccccc3[C@](C)(c3ccccc31)[C@@H]1C(=O)N(c3ccc(C(=O)NCCCCCCNC(=O)c4ccc(-c5c6nc(c(-c7c(F)cccc7F)c7ccc([nH]7)c(-c7c(F)cccc7F)c7nc(c(-c8c(F)cccc8F)c8ccc5[nH]8)C=C7)C=C6)cc4)cc3)C(=O)[C@H]12
REMARK SMILES IDX 31 1 30 2 29 3 28 4 27 5 25 6 26 7 24 9 21 10 22 11 92 12
REMARK SMILES IDX 23 13 91 14 20 15 1 16 2 17 16 18 3 19 95 20 15 21 11 22
REMARK SMILES IDX 8 23 4 24 17 25 93 26 14 27 12 28 9 29 7 30 5 31 18 32 94 33
REMARK SMILES IDX 13 34 10 35 6 36 19 37 32 38 33 39 34 40 35 41 36 43 37 44
REMARK SMILES IDX 38 45 90 46 39 47 89 48 40 49 41 50 42 51 83 52 43 53 88 54
REMARK SMILES IDX 82 55 84 56 44 57 87 58 81 59 80 60 45 62 71 63 54 64 70 65
REMARK SMILES IDX 55 66 58 67 69 68 85 69 56 70 57 71 68 73 86 74 59 75 46 76
REMARK SMILES IDX 47 77 52 78 48 79 49 80 51 81 53 82 50 83 72 84 73 85 78 86
REMARK SMILES IDX 74 87 75 88 77 89 79 90 76 91 60 92 61 93 66 94 62 95 63 96
REMARK SMILES IDX 65 97 67 98 64 99
REMARK H PARENT 27 8 34 42 84 61 58 72
REMARK Flexibility Score: inf
ROOT
ATOM      1  C   UNL A   1      32.990  29.242  27.083  1.00  0.00     0.002 C 
ENDROOT
BRANCH   1   2
ATOM      2  C   UNL A   1      32.191  30.194  26.189  1.00  0.00     0.002 C 
BRANCH   2   3
ATOM      3  C   UNL A   1      31.796  31.537  26.810  1.00  0.00     0.021 C 
BRANCH   3   4
ATOM      4  C   UNL A   1      32.931  32.364  27.409  1.00  0.00     0.116 C 
BRANCH   4   5
ATOM      5  N   UNL A   1      32.541  33.716  27.760  1.00  0.00    -0.352 N 
ATOM      6  C   UNL A   1      33.147  34.634  28.582  1.00  0.00     0.251 C 
ATOM      7  O   UNL A   1      32.597  35.716  28.779  1.00  0.00    -0.269 OA
ATOM      8  H   UNL A   1      31.706  34.026  27.340  1.00  0.00     0.163 HD
BRANCH   6   9
ATOM      9  C   UNL A   1      34.416  34.325  29.287  1.00  0.00     0.039 A 
ATOM     10  C   UNL A   1      36.684  33.562  30.773  1.00  0.00     0.052 A 
ATOM     11  C   UNL A   1      35.591  34.172  31.402  1.00  0.00     0.027 A 
ATOM     12  C   UNL A   1      36.664  33.429  29.377  1.00  0.00     0.027 A 
ATOM     13  C   UNL A   1      34.473  34.568  30.663  1.00  0.00     0.016 A 
ATOM     14  C   UNL A   1      35.540  33.814  28.638  1.00  0.00     0.016 A 
BRANCH  10  15
ATOM     15  N   UNL A   1      37.758  33.040  31.529  1.00  0.00    -0.250 N 
ATOM     16  C   UNL A   1      42.289  33.220  31.823  1.00  0.00     0.022 C 
ATOM     17  C   UNL A   1      41.304  32.566  32.791  1.00  0.00     0.030 C 
ATOM     18  C   UNL A   1      41.283  33.168  34.221  1.00  0.00    -0.033 A 
ATOM     19  C   UNL A   1      41.548  31.038  33.028  1.00  0.00    -0.033 A 
ATOM     20  C   UNL A   1      39.870  32.474  32.204  1.00  0.00     0.108 C 
ATOM     21  C   UNL A   1      42.056  34.232  34.680  1.00  0.00     0.005 A 
ATOM     22  C   UNL A   1      40.413  32.481  35.139  1.00  0.00    -0.033 A 
ATOM     23  C   UNL A   1      40.529  30.415  33.829  1.00  0.00    -0.033 A 
ATOM     24  C   UNL A   1      42.581  30.277  32.486  1.00  0.00     0.005 A 
ATOM     25  C   UNL A   1      38.883  32.303  33.362  1.00  0.00     0.108 C 
ATOM     26  C   UNL A   1      39.094  33.444  31.371  1.00  0.00     0.238 C 
ATOM     27  C   UNL A   1      41.993  34.590  36.030  1.00  0.00     0.000 A 
ATOM     28  C   UNL A   1      40.377  32.835  36.485  1.00  0.00     0.005 A 
ATOM     29  C   UNL A   1      39.516  31.405  34.450  1.00  0.00     0.030 C 
ATOM     30  C   UNL A   1      40.556  29.039  34.032  1.00  0.00     0.005 A 
ATOM     31  C   UNL A   1      42.593  28.900  32.709  1.00  0.00     0.000 A 
ATOM     32  C   UNL A   1      37.611  32.152  32.600  1.00  0.00     0.238 C 
ATOM     33  O   UNL A   1      39.565  34.325  30.674  1.00  0.00    -0.274 OA
ATOM     34  C   UNL A   1      41.175  33.890  36.926  1.00  0.00     0.000 A 
ATOM     35  C   UNL A   1      38.459  30.781  35.360  1.00  0.00     0.022 C 
ATOM     36  C   UNL A   1      41.585  28.287  33.464  1.00  0.00     0.000 A 
ATOM     37  O   UNL A   1      36.642  31.496  32.945  1.00  0.00    -0.274 OA
ENDBRANCH  10  15
ENDBRANCH   6   9
ENDBRANCH   4   5
ENDBRANCH   3   4
ENDBRANCH   2   3
ENDBRANCH   1   2
BRANCH   1  38
ATOM     38  C   UNL A   1      34.416  28.937  26.629  1.00  0.00     0.021 C 
BRANCH  38  39
ATOM     39  C   UNL A   1      35.515  29.683  27.375  1.00  0.00     0.116 C 
BRANCH  39  40
ATOM     40  N   UNL A   1      35.256  29.818  28.800  1.00  0.00    -0.352 N 
ATOM     41  C   UNL A   1      36.138  29.758  29.855  1.00  0.00     0.251 C 
ATOM     42  H   UNL A   1      34.314  29.974  29.045  1.00  0.00     0.163 HD
ATOM     43  O   UNL A   1      35.729  29.768  31.010  1.00  0.00    -0.269 OA
BRANCH  41  44
ATOM     44  C   UNL A   1      37.586  29.637  29.583  1.00  0.00     0.039 A 
ATOM     45  C   UNL A   1      38.086  29.841  28.296  1.00  0.00     0.014 A 
ATOM     46  C   UNL A   1      38.446  29.258  30.617  1.00  0.00     0.014 A 
ATOM     47  C   UNL A   1      39.393  29.473  28.001  1.00  0.00     0.010 A 
ATOM     48  C   UNL A   1      39.788  28.987  30.337  1.00  0.00     0.010 A 
ATOM     49  C   UNL A   1      40.260  29.034  29.015  1.00  0.00    -0.014 A 
BRANCH  49  50
ATOM     50  C   UNL A   1      41.641  28.609  28.663  1.00  0.00     0.031 A 
ATOM     51  C   UNL A   1      41.929  27.190  28.242  1.00  0.00     0.074 A 
ATOM     52  C   UNL A   1      42.632  29.521  28.665  1.00  0.00     0.049 A 
ATOM     53  N   UNL A   1      43.069  26.648  27.889  1.00  0.00    -0.248 NA
ATOM     54  C   UNL A   1      40.793  26.257  28.218  1.00  0.00     0.031 C 
ATOM     55  C   UNL A   1      42.481  30.931  29.032  1.00  0.00     0.029 A 
ATOM     56  N   UNL A   1      43.957  29.407  28.327  1.00  0.00    -0.354 N 
ATOM     57  C   UNL A   1      42.790  25.312  27.621  1.00  0.00     0.074 A 
ATOM     58  C   UNL A   1      41.382  25.118  27.886  1.00  0.00     0.031 C 
ATOM     59  C   UNL A   1      43.650  31.561  28.850  1.00  0.00     0.029 A 
ATOM     60  C   UNL A   1      44.651  30.588  28.427  1.00  0.00     0.049 A 
ATOM     61  H   UNL A   1      44.369  28.560  28.042  1.00  0.00     0.167 HD
ATOM     62  C   UNL A   1      43.627  24.340  27.182  1.00  0.00     0.037 A 
ATOM     63  C   UNL A   1      45.953  30.855  28.222  1.00  0.00     0.037 A 
ATOM     64  C   UNL A   1      45.029  24.538  26.911  1.00  0.00     0.049 A 
ATOM     65  C   UNL A   1      46.872  29.740  27.813  1.00  0.00     0.074 A 
ATOM     66  C   UNL A   1      45.956  23.621  26.443  1.00  0.00     0.029 A 
ATOM     67  N   UNL A   1      45.709  25.733  27.093  1.00  0.00    -0.354 N 
ATOM     68  N   UNL A   1      46.590  28.488  27.543  1.00  0.00    -0.248 NA
ATOM     69  C   UNL A   1      48.297  30.076  27.689  1.00  0.00     0.031 C 
ATOM     70  C   UNL A   1      47.207  24.246  26.399  1.00  0.00     0.029 A 
ATOM     71  C   UNL A   1      47.050  25.569  26.778  1.00  0.00     0.049 A 
ATOM     72  H   UNL A   1      45.301  26.574  27.401  1.00  0.00     0.167 HD
ATOM     73  C   UNL A   1      47.797  27.894  27.195  1.00  0.00     0.074 A 
ATOM     74  C   UNL A   1      48.806  28.930  27.264  1.00  0.00     0.031 C 
ATOM     75  C   UNL A   1      48.046  26.607  26.852  1.00  0.00     0.037 A 
BRANCH  62  76
ATOM     76  C   UNL A   1      43.053  22.962  26.995  1.00  0.00     0.057 A 
ATOM     77  C   UNL A   1      42.750  22.484  25.714  1.00  0.00     0.134 A 
ATOM     78  C   UNL A   1      42.776  22.117  28.079  1.00  0.00     0.134 A 
ATOM     79  F   UNL A   1      42.980  23.242  24.631  1.00  0.00    -0.206 F 
ATOM     80  C   UNL A   1      42.198  21.216  25.517  1.00  0.00     0.040 A 
ATOM     81  C   UNL A   1      42.251  20.837  27.892  1.00  0.00     0.040 A 
ATOM     82  F   UNL A   1      43.050  22.508  29.333  1.00  0.00    -0.206 F 
ATOM     83  C   UNL A   1      41.956  20.386  26.609  1.00  0.00     0.006 A 
ENDBRANCH  62  76
BRANCH  63  84
ATOM     84  C   UNL A   1      46.476  32.231  28.419  1.00  0.00     0.057 A 
ATOM     85  C   UNL A   1      46.553  33.143  27.359  1.00  0.00     0.134 A 
ATOM     86  C   UNL A   1      46.880  32.676  29.683  1.00  0.00     0.134 A 
ATOM     87  F   UNL A   1      46.186  32.778  26.122  1.00  0.00    -0.206 F 
ATOM     88  C   UNL A   1      47.017  34.445  27.548  1.00  0.00     0.040 A 
ATOM     89  C   UNL A   1      47.315  33.985  29.892  1.00  0.00     0.040 A 
ATOM     90  F   UNL A   1      46.813  31.855  30.742  1.00  0.00    -0.206 F 
ATOM     91  C   UNL A   1      47.388  34.873  28.820  1.00  0.00     0.006 A 
ENDBRANCH  63  84
BRANCH  75  92
ATOM     92  C   UNL A   1      49.463  26.263  26.489  1.00  0.00     0.057 A 
ATOM     93  C   UNL A   1      49.937  26.480  25.189  1.00  0.00     0.134 A 
ATOM     94  C   UNL A   1      50.357  25.718  27.419  1.00  0.00     0.134 A 
ATOM     95  F   UNL A   1      49.133  26.993  24.245  1.00  0.00    -0.206 F 
ATOM     96  C   UNL A   1      51.250  26.171  24.829  1.00  0.00     0.040 A 
ATOM     97  C   UNL A   1      51.681  25.434  27.080  1.00  0.00     0.040 A 
ATOM     98  F   UNL A   1      49.972  25.499  28.686  1.00  0.00    -0.206 F 
ATOM     99  C   UNL A   1      52.129  25.657  25.779  1.00  0.00     0.006 A 
ENDBRANCH  75  92
ENDBRANCH  49  50
ENDBRANCH  41  44
ENDBRANCH  39  40
ENDBRANCH  38  39
ENDBRANCH   1  38
TORSDOF 14
ENDMDL
MODEL 3
REMARK VINA RESULT:      -9.5      3.162      9.755
REMARK SMILES C[C@]12c3ccccc3[C@](C)(c3ccccc31)[C@@H]1C(=O)N(c3ccc(C(=O)NCCCCCCNC(=O)c4ccc(-c5c6nc(c(-c7c(F)cccc7F)c7ccc([nH]7)c(-c7c(F)cccc7F)c7nc(c(-c8c(F)cccc8F)c8ccc5[nH]8)C=C7)C=C6)cc4)cc3)C(=O)[C@H]12
REMARK SMILES IDX 31 1 30 2 29 3 28 4 27 5 25 6 26 7 24 9 21 10 22 11 92 12
REMARK SMILES IDX 23 13 91 14 20 15 1 16 2 17 16 18 3 19 95 20 15 21 11 22
REMARK SMILES IDX 8 23 4 24 17 25 93 26 14 27 12 28 9 29 7 30 5 31 18 32 94 33
REMARK SMILES IDX 13 34 10 35 6 36 19 37 32 38 33 39 34 40 35 41 36 43 37 44
REMARK SMILES IDX 38 45 90 46 39 47 89 48 40 49 41 50 42 51 83 52 43 53 88 54
REMARK SMILES IDX 82 55 84 56 44 57 87 58 81 59 80 60 45 62 71 63 54 64 70 65
REMARK SMILES IDX 55 66 58 67 69 68 85 69 56 70 57 71 68 73 86 74 59 75 46 76
REMARK SMILES IDX 47 77 52 78 48 79 49 80 51 81 53 82 50 83 72 84 73 85 78 86
REMARK SMILES IDX 74 87 75 88 77 89 79 90 76 91 60 92 61 93 66 94 62 95 63 96
REMARK SMILES IDX 65 97 67 98 64 99
REMARK H PARENT 27 8 34 42 84 61 58 72
REMARK Flexibility Score: inf
ROOT
ATOM      1  C   UNL A   1      42.517  22.117  27.678  1.00  0.00     0.002 C 
ENDROOT
BRANCH   1   2
ATOM      2  C   UNL A   1      43.070  23.512  27.978  1.00  0.00     0.002 C 
BRANCH   2   3
ATOM      3  C   UNL A   1      44.299  23.574  28.891  1.00  0.00     0.021 C 
BRANCH   3   4
ATOM      4  C   UNL A   1      45.521  24.297  28.330  1.00  0.00     0.116 C 
BRANCH   4   5
ATOM      5  N   UNL A   1      45.539  24.367  26.882  1.00  0.00    -0.352 N 
ATOM      6  C   UNL A   1      45.504  25.452  26.040  1.00  0.00     0.251 C 
ATOM      7  O   UNL A   1      45.472  25.267  24.826  1.00  0.00    -0.269 OA
ATOM      8  H   UNL A   1      45.585  23.494  26.428  1.00  0.00     0.163 HD
BRANCH   6   9
ATOM      9  C   UNL A   1      45.439  26.838  26.566  1.00  0.00     0.039 A 
ATOM     10  C   UNL A   1      45.446  29.547  27.340  1.00  0.00     0.052 A 
ATOM     11  C   UNL A   1      46.649  28.852  27.165  1.00  0.00     0.027 A 
ATOM     12  C   UNL A   1      44.241  28.840  27.217  1.00  0.00     0.027 A 
ATOM     13  C   UNL A   1      46.647  27.504  26.799  1.00  0.00     0.016 A 
ATOM     14  C   UNL A   1      44.238  27.492  26.839  1.00  0.00     0.016 A 
BRANCH  10  15
ATOM     15  N   UNL A   1      45.439  30.940  27.579  1.00  0.00    -0.250 N 
ATOM     16  C   UNL A   1      45.768  34.904  25.380  1.00  0.00     0.022 C 
ATOM     17  C   UNL A   1      45.406  34.662  26.845  1.00  0.00     0.030 C 
ATOM     18  C   UNL A   1      43.982  35.119  27.259  1.00  0.00    -0.033 A 
ATOM     19  C   UNL A   1      46.346  35.380  27.871  1.00  0.00    -0.033 A 
ATOM     20  C   UNL A   1      45.671  33.198  27.287  1.00  0.00     0.108 C 
ATOM     21  C   UNL A   1      43.029  35.703  26.427  1.00  0.00     0.005 A 
ATOM     22  C   UNL A   1      43.694  34.963  28.660  1.00  0.00    -0.033 A 
ATOM     23  C   UNL A   1      46.073  35.027  29.238  1.00  0.00    -0.033 A 
ATOM     24  C   UNL A   1      47.408  36.226  27.560  1.00  0.00     0.005 A 
ATOM     25  C   UNL A   1      44.838  32.912  28.539  1.00  0.00     0.108 C 
ATOM     26  C   UNL A   1      45.462  31.907  26.560  1.00  0.00     0.238 C 
ATOM     27  C   UNL A   1      41.825  36.153  26.978  1.00  0.00     0.000 A 
ATOM     28  C   UNL A   1      42.500  35.435  29.198  1.00  0.00     0.005 A 
ATOM     29  C   UNL A   1      44.799  34.173  29.432  1.00  0.00     0.030 C 
ATOM     30  C   UNL A   1      46.898  35.504  30.251  1.00  0.00     0.005 A 
ATOM     31  C   UNL A   1      48.218  36.699  28.593  1.00  0.00     0.000 A 
ATOM     32  C   UNL A   1      45.291  31.524  28.841  1.00  0.00     0.238 C 
ATOM     33  O   UNL A   1      45.401  31.769  25.352  1.00  0.00    -0.274 OA
ATOM     34  C   UNL A   1      41.570  36.035  28.350  1.00  0.00     0.000 A 
ATOM     35  C   UNL A   1      44.445  33.837  30.879  1.00  0.00     0.022 C 
ATOM     36  C   UNL A   1      47.972  36.333  29.922  1.00  0.00     0.000 A 
ATOM     37  O   UNL A   1      45.368  31.020  29.950  1.00  0.00    -0.274 OA
ENDBRANCH  10  15
ENDBRANCH   6   9
ENDBRANCH   4   5
ENDBRANCH   3   4
ENDBRANCH   2   3
ENDBRANCH   1   2
BRANCH   1  38
ATOM     38  C   UNL A   1      41.613  22.005  26.452  1.00  0.00     0.021 C 
BRANCH  38  39
ATOM     39  C   UNL A   1      40.171  21.605  26.736  1.00  0.00     0.116 C 
BRANCH  39  40
ATOM     40  N   UNL A   1      39.210  22.238  25.845  1.00  0.00    -0.352 N 
ATOM     41  C   UNL A   1      38.738  23.530  25.852  1.00  0.00     0.251 C 
ATOM     42  H   UNL A   1      38.845  21.658  25.138  1.00  0.00     0.163 HD
ATOM     43  O   UNL A   1      37.829  23.865  25.101  1.00  0.00    -0.269 OA
BRANCH  41  44
ATOM     44  C   UNL A   1      39.307  24.506  26.806  1.00  0.00     0.039 A 
ATOM     45  C   UNL A   1      38.977  24.447  28.161  1.00  0.00     0.014 A 
ATOM     46  C   UNL A   1      40.135  25.525  26.329  1.00  0.00     0.014 A 
ATOM     47  C   UNL A   1      39.304  25.511  28.994  1.00  0.00     0.010 A 
ATOM     48  C   UNL A   1      40.550  26.542  27.195  1.00  0.00     0.010 A 
ATOM     49  C   UNL A   1      40.088  26.576  28.520  1.00  0.00    -0.014 A 
BRANCH  49  50
ATOM     50  C   UNL A   1      40.388  27.719  29.422  1.00  0.00     0.031 A 
ATOM     51  C   UNL A   1      41.684  27.775  30.193  1.00  0.00     0.074 A 
ATOM     52  C   UNL A   1      39.517  28.743  29.503  1.00  0.00     0.049 A 
ATOM     53  N   UNL A   1      42.117  28.700  31.015  1.00  0.00    -0.248 NA
ATOM     54  C   UNL A   1      42.610  26.646  30.024  1.00  0.00     0.031 C 
ATOM     55  C   UNL A   1      38.238  28.821  28.793  1.00  0.00     0.029 A 
ATOM     56  N   UNL A   1      39.581  29.923  30.199  1.00  0.00    -0.354 N 
ATOM     57  C   UNL A   1      43.353  28.255  31.472  1.00  0.00     0.074 A 
ATOM     58  C   UNL A   1      43.584  26.963  30.865  1.00  0.00     0.031 C 
ATOM     59  C   UNL A   1      37.665  30.005  29.047  1.00  0.00     0.029 A 
ATOM     60  C   UNL A   1      38.496  30.739  29.994  1.00  0.00     0.049 A 
ATOM     61  H   UNL A   1      40.333  30.161  30.788  1.00  0.00     0.167 HD
ATOM     62  C   UNL A   1      44.221  28.872  32.311  1.00  0.00     0.037 A 
ATOM     63  C   UNL A   1      38.191  31.936  30.527  1.00  0.00     0.037 A 
ATOM     64  C   UNL A   1      43.993  30.164  32.910  1.00  0.00     0.049 A 
ATOM     65  C   UNL A   1      39.135  32.558  31.516  1.00  0.00     0.074 A 
ATOM     66  C   UNL A   1      44.821  30.882  33.756  1.00  0.00     0.029 A 
ATOM     67  N   UNL A   1      42.847  30.926  32.733  1.00  0.00    -0.354 N 
ATOM     68  N   UNL A   1      40.308  32.137  31.921  1.00  0.00    -0.248 NA
ATOM     69  C   UNL A   1      38.705  33.823  32.127  1.00  0.00     0.031 C 
ATOM     70  C   UNL A   1      44.152  32.050  34.137  1.00  0.00     0.029 A 
ATOM     71  C   UNL A   1      42.934  32.092  33.479  1.00  0.00     0.049 A 
ATOM     72  H   UNL A   1      42.086  30.677  32.162  1.00  0.00     0.167 HD
ATOM     73  C   UNL A   1      40.767  33.095  32.817  1.00  0.00     0.074 A 
ATOM     74  C   UNL A   1      39.756  34.130  32.873  1.00  0.00     0.031 C 
ATOM     75  C   UNL A   1      41.920  33.114  33.529  1.00  0.00     0.037 A 
BRANCH  62  76
ATOM     76  C   UNL A   1      45.490  28.142  32.656  1.00  0.00     0.057 A 
ATOM     77  C   UNL A   1      46.588  28.171  31.786  1.00  0.00     0.134 A 
ATOM     78  C   UNL A   1      45.622  27.391  33.833  1.00  0.00     0.134 A 
ATOM     79  F   UNL A   1      46.530  28.861  30.638  1.00  0.00    -0.206 F 
ATOM     80  C   UNL A   1      47.770  27.484  32.075  1.00  0.00     0.040 A 
ATOM     81  C   UNL A   1      46.808  26.725  34.146  1.00  0.00     0.040 A 
ATOM     82  F   UNL A   1      44.613  27.329  34.715  1.00  0.00    -0.206 F 
ATOM     83  C   UNL A   1      47.884  26.766  33.263  1.00  0.00     0.006 A 
ENDBRANCH  62  76
BRANCH  63  84
ATOM     84  C   UNL A   1      36.925  32.620  30.158  1.00  0.00     0.057 A 
ATOM     85  C   UNL A   1      35.740  32.398  30.871  1.00  0.00     0.134 A 
ATOM     86  C   UNL A   1      36.881  33.539  29.103  1.00  0.00     0.134 A 
ATOM     87  F   UNL A   1      35.714  31.526  31.889  1.00  0.00    -0.206 F 
ATOM     88  C   UNL A   1      34.556  33.062  30.545  1.00  0.00     0.040 A 
ATOM     89  C   UNL A   1      35.713  34.233  28.788  1.00  0.00     0.040 A 
ATOM     90  F   UNL A   1      37.988  33.808  28.395  1.00  0.00    -0.206 F 
ATOM     91  C   UNL A   1      34.544  33.991  29.508  1.00  0.00     0.006 A 
ENDBRANCH  63  84
BRANCH  75  92
ATOM     92  C   UNL A   1      42.159  34.315  34.400  1.00  0.00     0.057 A 
ATOM     93  C   UNL A   1      42.590  35.525  33.842  1.00  0.00     0.134 A 
ATOM     94  C   UNL A   1      41.967  34.276  35.787  1.00  0.00     0.134 A 
ATOM     95  F   UNL A   1      42.802  35.631  32.521  1.00  0.00    -0.206 F 
ATOM     96  C   UNL A   1      42.816  36.654  34.631  1.00  0.00     0.040 A 
ATOM     97  C   UNL A   1      42.159  35.407  36.583  1.00  0.00     0.040 A 
ATOM     98  F   UNL A   1      41.540  33.153  36.385  1.00  0.00    -0.206 F 
ATOM     99  C   UNL A   1      42.591  36.599  36.004  1.00  0.00     0.006 A 
ENDBRANCH  75  92
ENDBRANCH  49  50
ENDBRANCH  41  44
ENDBRANCH  39  40
ENDBRANCH  38  39
ENDBRANCH   1  38
TORSDOF 14
ENDMDL
