MODEL 1
REMARK VINA RESULT:     -11.3      0.000      0.000
REMARK SMILES O=C(C[C@H]1C[C@H]2CC[C@@H](C1)[N@H+]2C[C@@H]1CNC(=O)O1)NCCCCCCNC(=O)c1ccc(-c2c3nc(c(-c4c(F)cccc4F)c4ccc([nH]4)c(-c4c(F)cccc4F)c4nc(c(-c5c(F)cccc5F)c5ccc2[nH]5)C=C4)C=C3)cc1
REMARK SMILES IDX 22 1 21 2 20 3 19 4 1 5 2 6 3 8 4 9 5 10 10 11 6 12 9 13
REMARK SMILES IDX 7 14 11 15 8 16 12 18 13 19 14 20 18 21 15 22 16 23 17 25
REMARK SMILES IDX 23 26 24 27 25 28 26 29 27 30 28 32 29 33 30 34 82 35 31 36
REMARK SMILES IDX 81 37 32 38 33 39 34 40 75 41 35 42 80 43 74 44 76 45 36 46
REMARK SMILES IDX 79 47 73 48 72 49 37 51 63 52 46 53 62 54 47 55 50 56 61 57
REMARK SMILES IDX 77 58 48 59 49 60 60 62 78 63 51 64 38 65 39 66 44 67 40 68
REMARK SMILES IDX 41 69 43 70 45 71 42 72 64 73 65 74 70 75 66 76 67 77 69 78
REMARK SMILES IDX 71 79 68 80 52 81 53 82 58 83 54 84 55 85 57 86 59 87 56 88
REMARK H PARENT 19 7 11 17 15 24 26 31 76 50 50 61
REMARK Flexibility Score: inf
ROOT
ATOM      1  C   UNL A   1      34.406  32.399  29.129  1.00  0.00     0.002 C 
ENDROOT
BRANCH   1   2
ATOM      2  C   UNL A   1      33.995  31.551  27.915  1.00  0.00     0.021 C 
BRANCH   2   3
ATOM      3  C   UNL A   1      34.813  30.273  27.715  1.00  0.00     0.116 C 
BRANCH   3   4
ATOM      4  N   UNL A   1      33.940  29.128  27.603  1.00  0.00    -0.356 N 
ATOM      5  O   UNL A   1      34.393  28.647  25.418  1.00  0.00    -0.275 OA
ATOM      6  C   UNL A   1      33.735  28.436  26.434  1.00  0.00     0.220 C 
ATOM      7  H   UNL A   1      33.464  28.826  28.411  1.00  0.00     0.163 HD
BRANCH   6   8
ATOM      8  C   UNL A   1      32.552  27.468  26.416  1.00  0.00     0.104 C 
BRANCH   8   9
ATOM      9  C   UNL A   1      31.256  28.002  25.782  1.00  0.00     0.010 C 
ATOM     10  C   UNL A   1      31.495  29.351  25.046  1.00  0.00     0.069 C 
ATOM     11  C   UNL A   1      30.520  26.916  24.955  1.00  0.00     0.069 C 
ATOM     12  C   UNL A   1      31.208  29.373  23.552  1.00  0.00     0.184 C 
ATOM     13  C   UNL A   1      30.363  27.226  23.468  1.00  0.00     0.184 C 
ATOM     14  C   UNL A   1      32.281  28.565  22.809  1.00  0.00     0.071 C 
ATOM     15  N   UNL A   1      30.022  28.618  23.235  1.00  0.00    -0.327 N 
ATOM     16  C   UNL A   1      31.742  27.137  22.790  1.00  0.00     0.071 C 
ATOM     17  H   UNL A   1      29.753  28.765  22.263  1.00  0.00     0.348 HD
BRANCH  15  18
ATOM     18  C   UNL A   1      28.673  29.144  23.374  1.00  0.00     0.310 C 
BRANCH  18  19
ATOM     19  C   UNL A   1      27.959  30.279  22.587  1.00  0.00     0.252 C 
ATOM     20  C   UNL A   1      28.411  30.623  21.182  1.00  0.00     0.170 C 
ATOM     21  O   UNL A   1      27.910  31.526  23.294  1.00  0.00    -0.438 OA
ATOM     22  N   UNL A   1      28.792  31.986  21.290  1.00  0.00    -0.318 N 
ATOM     23  C   UNL A   1      28.410  32.511  22.491  1.00  0.00     0.407 C 
ATOM     24  H   UNL A   1      29.268  32.487  20.590  1.00  0.00     0.167 HD
ATOM     25  O   UNL A   1      28.526  33.679  22.809  1.00  0.00    -0.225 OA
ENDBRANCH  18  19
ENDBRANCH  15  18
ENDBRANCH   8   9
ENDBRANCH   6   8
ENDBRANCH   3   4
ENDBRANCH   2   3
ENDBRANCH   1   2
BRANCH   1  26
ATOM     26  C   UNL A   1      34.627  33.890  28.854  1.00  0.00     0.002 C 
BRANCH  26  27
ATOM     27  C   UNL A   1      33.356  34.737  28.778  1.00  0.00     0.021 C 
BRANCH  27  28
ATOM     28  C   UNL A   1      33.393  36.033  29.583  1.00  0.00     0.116 C 
BRANCH  28  29
ATOM     29  N   UNL A   1      32.442  36.032  30.682  1.00  0.00    -0.352 N 
ATOM     30  C   UNL A   1      32.532  35.451  31.924  1.00  0.00     0.251 C 
ATOM     31  H   UNL A   1      31.606  36.524  30.511  1.00  0.00     0.163 HD
ATOM     32  O   UNL A   1      31.544  35.414  32.651  1.00  0.00    -0.269 OA
BRANCH  30  33
ATOM     33  C   UNL A   1      33.803  34.842  32.381  1.00  0.00     0.039 A 
ATOM     34  C   UNL A   1      33.773  33.548  32.906  1.00  0.00     0.014 A 
ATOM     35  C   UNL A   1      35.015  35.537  32.314  1.00  0.00     0.014 A 
ATOM     36  C   UNL A   1      34.961  32.930  33.302  1.00  0.00     0.010 A 
ATOM     37  C   UNL A   1      36.209  34.890  32.632  1.00  0.00     0.010 A 
ATOM     38  C   UNL A   1      36.196  33.579  33.129  1.00  0.00    -0.014 A 
BRANCH  38  39
ATOM     39  C   UNL A   1      37.468  32.872  33.434  1.00  0.00     0.031 A 
ATOM     40  C   UNL A   1      38.235  33.162  34.696  1.00  0.00     0.074 A 
ATOM     41  C   UNL A   1      37.952  31.981  32.547  1.00  0.00     0.049 A 
ATOM     42  N   UNL A   1      39.339  32.610  35.136  1.00  0.00    -0.248 NA
ATOM     43  C   UNL A   1      37.710  34.225  35.565  1.00  0.00     0.031 C 
ATOM     44  C   UNL A   1      37.337  31.651  31.260  1.00  0.00     0.029 A 
ATOM     45  N   UNL A   1      39.068  31.183  32.594  1.00  0.00    -0.354 N 
ATOM     46  C   UNL A   1      39.642  33.262  36.325  1.00  0.00     0.074 A 
ATOM     47  C   UNL A   1      38.639  34.289  36.507  1.00  0.00     0.031 C 
ATOM     48  C   UNL A   1      38.051  30.684  30.665  1.00  0.00     0.029 A 
ATOM     49  C   UNL A   1      39.197  30.355  31.505  1.00  0.00     0.049 A 
ATOM     50  H   UNL A   1      39.713  31.200  33.337  1.00  0.00     0.167 HD
ATOM     51  C   UNL A   1      40.652  33.015  37.195  1.00  0.00     0.037 A 
ATOM     52  C   UNL A   1      40.131  29.430  31.216  1.00  0.00     0.037 A 
ATOM     53  C   UNL A   1      41.647  31.988  37.012  1.00  0.00     0.049 A 
ATOM     54  C   UNL A   1      41.249  29.186  32.190  1.00  0.00     0.074 A 
ATOM     55  C   UNL A   1      42.667  31.612  37.869  1.00  0.00     0.029 A 
ATOM     56  N   UNL A   1      41.759  31.184  35.887  1.00  0.00    -0.354 N 
ATOM     57  N   UNL A   1      41.469  29.743  33.357  1.00  0.00    -0.248 NA
ATOM     58  C   UNL A   1      42.244  28.176  31.809  1.00  0.00     0.031 C 
ATOM     59  C   UNL A   1      43.436  30.630  37.234  1.00  0.00     0.029 A 
ATOM     60  C   UNL A   1      42.855  30.343  36.009  1.00  0.00     0.049 A 
ATOM     61  H   UNL A   1      41.150  31.207  35.114  1.00  0.00     0.167 HD
ATOM     62  C   UNL A   1      42.612  29.134  33.859  1.00  0.00     0.074 A 
ATOM     63  C   UNL A   1      43.021  28.147  32.881  1.00  0.00     0.031 C 
ATOM     64  C   UNL A   1      43.265  29.373  35.025  1.00  0.00     0.037 A 
BRANCH  51  65
ATOM     65  C   UNL A   1      40.741  33.886  38.419  1.00  0.00     0.057 A 
ATOM     66  C   UNL A   1      41.553  35.027  38.464  1.00  0.00     0.134 A 
ATOM     67  C   UNL A   1      39.987  33.590  39.561  1.00  0.00     0.134 A 
ATOM     68  F   UNL A   1      42.310  35.368  37.409  1.00  0.00    -0.206 F 
ATOM     69  C   UNL A   1      41.639  35.821  39.611  1.00  0.00     0.040 A 
ATOM     70  C   UNL A   1      40.039  34.394  40.702  1.00  0.00     0.040 A 
ATOM     71  F   UNL A   1      39.181  32.518  39.588  1.00  0.00    -0.206 F 
ATOM     72  C   UNL A   1      40.875  35.508  40.732  1.00  0.00     0.006 A 
ENDBRANCH  51  65
BRANCH  52  73
ATOM     73  C   UNL A   1      40.030  28.637  29.963  1.00  0.00     0.057 A 
ATOM     74  C   UNL A   1      40.668  29.058  28.791  1.00  0.00     0.134 A 
ATOM     75  C   UNL A   1      39.295  27.447  29.905  1.00  0.00     0.134 A 
ATOM     76  F   UNL A   1      41.372  30.199  28.778  1.00  0.00    -0.206 F 
ATOM     77  C   UNL A   1      40.563  28.337  27.600  1.00  0.00     0.040 A 
ATOM     78  C   UNL A   1      39.206  26.700  28.729  1.00  0.00     0.040 A 
ATOM     79  F   UNL A   1      38.668  26.983  30.996  1.00  0.00    -0.206 F 
ATOM     80  C   UNL A   1      39.834  27.150  27.570  1.00  0.00     0.006 A 
ENDBRANCH  52  73
BRANCH  64  81
ATOM     81  C   UNL A   1      44.478  28.531  35.310  1.00  0.00     0.057 A 
ATOM     82  C   UNL A   1      45.766  28.925  34.921  1.00  0.00     0.134 A 
ATOM     83  C   UNL A   1      44.356  27.305  35.979  1.00  0.00     0.134 A 
ATOM     84  F   UNL A   1      45.955  30.080  34.266  1.00  0.00    -0.206 F 
ATOM     85  C   UNL A   1      46.878  28.112  35.147  1.00  0.00     0.040 A 
ATOM     86  C   UNL A   1      45.465  26.502  36.242  1.00  0.00     0.040 A 
ATOM     87  F   UNL A   1      43.155  26.870  36.391  1.00  0.00    -0.206 F 
ATOM     88  C   UNL A   1      46.730  26.897  35.813  1.00  0.00     0.006 A 
ENDBRANCH  64  81
ENDBRANCH  38  39
ENDBRANCH  30  33
ENDBRANCH  28  29
ENDBRANCH  27  28
ENDBRANCH  26  27
ENDBRANCH   1  26
TORSDOF 16
ENDMDL
MODEL 2
REMARK VINA RESULT:     -11.3      5.690     10.766
REMARK SMILES O=C(C[C@H]1C[C@H]2CC[C@@H](C1)[N@H+]2C[C@@H]1CNC(=O)O1)NCCCCCCNC(=O)c1ccc(-c2c3nc(c(-c4c(F)cccc4F)c4ccc([nH]4)c(-c4c(F)cccc4F)c4nc(c(-c5c(F)cccc5F)c5ccc2[nH]5)C=C4)C=C3)cc1
REMARK SMILES IDX 22 1 21 2 20 3 19 4 1 5 2 6 3 8 4 9 5 10 10 11 6 12 9 13
REMARK SMILES IDX 7 14 11 15 8 16 12 18 13 19 14 20 18 21 15 22 16 23 17 25
REMARK SMILES IDX 23 26 24 27 25 28 26 29 27 30 28 32 29 33 30 34 82 35 31 36
REMARK SMILES IDX 81 37 32 38 33 39 34 40 75 41 35 42 80 43 74 44 76 45 36 46
REMARK SMILES IDX 79 47 73 48 72 49 37 51 63 52 46 53 62 54 47 55 50 56 61 57
REMARK SMILES IDX 77 58 48 59 49 60 60 62 78 63 51 64 38 65 39 66 44 67 40 68
REMARK SMILES IDX 41 69 43 70 45 71 42 72 64 73 65 74 70 75 66 76 67 77 69 78
REMARK SMILES IDX 71 79 68 80 52 81 53 82 58 83 54 84 55 85 57 86 59 87 56 88
REMARK H PARENT 19 7 11 17 15 24 26 31 76 50 50 61
REMARK Flexibility Score: inf
ROOT
ATOM      1  C   UNL A   1      35.140  19.936  24.989  1.00  0.00     0.002 C 
ENDROOT
BRANCH   1   2
ATOM      2  C   UNL A   1      33.932  20.885  24.986  1.00  0.00     0.021 C 
BRANCH   2   3
ATOM      3  C   UNL A   1      34.031  22.052  24.000  1.00  0.00     0.116 C 
BRANCH   3   4
ATOM      4  N   UNL A   1      33.830  23.308  24.685  1.00  0.00    -0.356 N 
ATOM      5  O   UNL A   1      34.223  24.665  22.892  1.00  0.00    -0.275 OA
ATOM      6  C   UNL A   1      34.014  24.535  24.096  1.00  0.00     0.220 C 
ATOM      7  H   UNL A   1      33.546  23.283  25.628  1.00  0.00     0.163 HD
BRANCH   6   8
ATOM      8  C   UNL A   1      34.072  25.739  25.036  1.00  0.00     0.104 C 
BRANCH   8   9
ATOM      9  C   UNL A   1      33.091  26.882  24.726  1.00  0.00     0.010 C 
ATOM     10  C   UNL A   1      31.896  26.895  25.720  1.00  0.00     0.069 C 
ATOM     11  C   UNL A   1      33.816  28.241  24.541  1.00  0.00     0.069 C 
ATOM     12  C   UNL A   1      31.728  28.147  26.569  1.00  0.00     0.184 C 
ATOM     13  C   UNL A   1      33.427  29.326  25.542  1.00  0.00     0.184 C 
ATOM     14  C   UNL A   1      32.844  28.210  27.621  1.00  0.00     0.071 C 
ATOM     15  N   UNL A   1      31.999  29.338  25.804  1.00  0.00    -0.327 N 
ATOM     16  C   UNL A   1      33.984  28.953  26.927  1.00  0.00     0.071 C 
ATOM     17  H   UNL A   1      31.737  30.170  26.332  1.00  0.00     0.348 HD
BRANCH  15  18
ATOM     18  C   UNL A   1      31.029  29.962  24.918  1.00  0.00     0.310 C 
BRANCH  18  19
ATOM     19  C   UNL A   1      30.303  29.388  23.669  1.00  0.00     0.252 C 
ATOM     20  C   UNL A   1      31.046  29.270  22.353  1.00  0.00     0.170 C 
ATOM     21  O   UNL A   1      29.073  30.058  23.360  1.00  0.00    -0.438 OA
ATOM     22  N   UNL A   1      30.278  30.079  21.475  1.00  0.00    -0.318 N 
ATOM     23  C   UNL A   1      29.097  30.449  22.052  1.00  0.00     0.407 C 
ATOM     24  H   UNL A   1      30.560  30.338  20.568  1.00  0.00     0.167 HD
ATOM     25  O   UNL A   1      28.210  31.063  21.491  1.00  0.00    -0.225 OA
ENDBRANCH  18  19
ENDBRANCH  15  18
ENDBRANCH   8   9
ENDBRANCH   6   8
ENDBRANCH   3   4
ENDBRANCH   2   3
ENDBRANCH   1   2
BRANCH   1  26
ATOM     26  C   UNL A   1      36.516  20.611  24.994  1.00  0.00     0.002 C 
BRANCH  26  27
ATOM     27  C   UNL A   1      37.711  19.658  24.945  1.00  0.00     0.021 C 
BRANCH  27  28
ATOM     28  C   UNL A   1      38.926  20.103  25.756  1.00  0.00     0.116 C 
BRANCH  28  29
ATOM     29  N   UNL A   1      39.982  19.104  25.768  1.00  0.00    -0.352 N 
ATOM     30  C   UNL A   1      41.334  19.257  25.953  1.00  0.00     0.251 C 
ATOM     31  H   UNL A   1      39.682  18.178  25.622  1.00  0.00     0.163 HD
ATOM     32  O   UNL A   1      42.086  18.307  25.751  1.00  0.00    -0.269 OA
BRANCH  30  33
ATOM     33  C   UNL A   1      41.897  20.563  26.366  1.00  0.00     0.039 A 
ATOM     34  C   UNL A   1      42.278  21.470  25.375  1.00  0.00     0.014 A 
ATOM     35  C   UNL A   1      42.067  20.895  27.714  1.00  0.00     0.014 A 
ATOM     36  C   UNL A   1      42.767  22.728  25.733  1.00  0.00     0.010 A 
ATOM     37  C   UNL A   1      42.478  22.180  28.070  1.00  0.00     0.010 A 
ATOM     38  C   UNL A   1      42.832  23.111  27.084  1.00  0.00    -0.014 A 
BRANCH  38  39
ATOM     39  C   UNL A   1      43.234  24.493  27.457  1.00  0.00     0.031 A 
ATOM     40  C   UNL A   1      44.674  24.927  27.394  1.00  0.00     0.074 A 
ATOM     41  C   UNL A   1      42.294  25.356  27.888  1.00  0.00     0.049 A 
ATOM     42  N   UNL A   1      45.193  26.104  27.646  1.00  0.00    -0.248 NA
ATOM     43  C   UNL A   1      45.662  23.904  27.024  1.00  0.00     0.031 C 
ATOM     44  C   UNL A   1      40.873  25.044  28.051  1.00  0.00     0.029 A 
ATOM     45  N   UNL A   1      42.387  26.675  28.260  1.00  0.00    -0.354 N 
ATOM     46  C   UNL A   1      46.564  25.960  27.473  1.00  0.00     0.074 A 
ATOM     47  C   UNL A   1      46.801  24.569  27.151  1.00  0.00     0.031 C 
ATOM     48  C   UNL A   1      40.220  26.151  28.437  1.00  0.00     0.029 A 
ATOM     49  C   UNL A   1      41.179  27.239  28.592  1.00  0.00     0.049 A 
ATOM     50  H   UNL A   1      43.238  27.169  28.285  1.00  0.00     0.167 HD
ATOM     51  C   UNL A   1      47.534  26.904  27.554  1.00  0.00     0.037 A 
ATOM     52  C   UNL A   1      40.875  28.493  28.973  1.00  0.00     0.037 A 
ATOM     53  C   UNL A   1      47.292  28.289  27.870  1.00  0.00     0.049 A 
ATOM     54  C   UNL A   1      41.972  29.516  29.070  1.00  0.00     0.074 A 
ATOM     55  C   UNL A   1      48.197  29.336  27.906  1.00  0.00     0.029 A 
ATOM     56  N   UNL A   1      46.060  28.819  28.222  1.00  0.00    -0.354 N 
ATOM     57  N   UNL A   1      43.250  29.390  28.809  1.00  0.00    -0.248 NA
ATOM     58  C   UNL A   1      41.577  30.862  29.508  1.00  0.00     0.031 C 
ATOM     59  C   UNL A   1      47.526  30.482  28.347  1.00  0.00     0.029 A 
ATOM     60  C   UNL A   1      46.188  30.168  28.518  1.00  0.00     0.049 A 
ATOM     61  H   UNL A   1      45.216  28.312  28.257  1.00  0.00     0.167 HD
ATOM     62  C   UNL A   1      43.809  30.643  29.027  1.00  0.00     0.074 A 
ATOM     63  C   UNL A   1      42.723  31.520  29.414  1.00  0.00     0.031 C 
ATOM     64  C   UNL A   1      45.104  31.031  28.917  1.00  0.00     0.037 A 
BRANCH  51  65
ATOM     65  C   UNL A   1      48.952  26.462  27.314  1.00  0.00     0.057 A 
ATOM     66  C   UNL A   1      49.804  26.087  28.362  1.00  0.00     0.134 A 
ATOM     67  C   UNL A   1      49.466  26.390  26.013  1.00  0.00     0.134 A 
ATOM     68  F   UNL A   1      49.382  26.139  29.635  1.00  0.00    -0.206 F 
ATOM     69  C   UNL A   1      51.124  25.692  28.129  1.00  0.00     0.040 A 
ATOM     70  C   UNL A   1      50.774  25.965  25.764  1.00  0.00     0.040 A 
ATOM     71  F   UNL A   1      48.707  26.725  24.959  1.00  0.00    -0.206 F 
ATOM     72  C   UNL A   1      51.609  25.624  26.825  1.00  0.00     0.006 A 
ENDBRANCH  51  65
BRANCH  52  73
ATOM     73  C   UNL A   1      39.465  28.864  29.257  1.00  0.00     0.057 A 
ATOM     74  C   UNL A   1      38.921  28.701  30.536  1.00  0.00     0.134 A 
ATOM     75  C   UNL A   1      38.627  29.383  28.262  1.00  0.00     0.134 A 
ATOM     76  F   UNL A   1      39.667  28.191  31.527  1.00  0.00    -0.206 F 
ATOM     77  C   UNL A   1      37.590  29.022  30.813  1.00  0.00     0.040 A 
ATOM     78  C   UNL A   1      37.305  29.736  28.532  1.00  0.00     0.040 A 
ATOM     79  F   UNL A   1      39.091  29.572  27.018  1.00  0.00    -0.206 F 
ATOM     80  C   UNL A   1      36.780  29.547  29.808  1.00  0.00     0.006 A 
ENDBRANCH  52  73
BRANCH  64  81
ATOM     81  C   UNL A   1      45.407  32.477  29.199  1.00  0.00     0.057 A 
ATOM     82  C   UNL A   1      45.718  32.935  30.487  1.00  0.00     0.134 A 
ATOM     83  C   UNL A   1      45.383  33.427  28.169  1.00  0.00     0.134 A 
ATOM     84  F   UNL A   1      45.747  32.083  31.523  1.00  0.00    -0.206 F 
ATOM     85  C   UNL A   1      45.949  34.287  30.747  1.00  0.00     0.040 A 
ATOM     86  C   UNL A   1      45.648  34.775  28.410  1.00  0.00     0.040 A 
ATOM     87  F   UNL A   1      45.105  33.059  26.909  1.00  0.00    -0.206 F 
ATOM     88  C   UNL A   1      45.917  35.212  29.705  1.00  0.00     0.006 A 
ENDBRANCH  64  81
ENDBRANCH  38  39
ENDBRANCH  30  33
ENDBRANCH  28  29
ENDBRANCH  27  28
ENDBRANCH  26  27
ENDBRANCH   1  26
TORSDOF 16
ENDMDL
MODEL 3
REMARK VINA RESULT:     -11.1      5.058      9.956
REMARK SMILES O=C(C[C@H]1C[C@H]2CC[C@@H](C1)[N@H+]2C[C@@H]1CNC(=O)O1)NCCCCCCNC(=O)c1ccc(-c2c3nc(c(-c4c(F)cccc4F)c4ccc([nH]4)c(-c4c(F)cccc4F)c4nc(c(-c5c(F)cccc5F)c5ccc2[nH]5)C=C4)C=C3)cc1
REMARK SMILES IDX 22 1 21 2 20 3 19 4 1 5 2 6 3 8 4 9 5 10 10 11 6 12 9 13
REMARK SMILES IDX 7 14 11 15 8 16 12 18 13 19 14 20 18 21 15 22 16 23 17 25
REMARK SMILES IDX 23 26 24 27 25 28 26 29 27 30 28 32 29 33 30 34 82 35 31 36
REMARK SMILES IDX 81 37 32 38 33 39 34 40 75 41 35 42 80 43 74 44 76 45 36 46
REMARK SMILES IDX 79 47 73 48 72 49 37 51 63 52 46 53 62 54 47 55 50 56 61 57
REMARK SMILES IDX 77 58 48 59 49 60 60 62 78 63 51 64 38 65 39 66 44 67 40 68
REMARK SMILES IDX 41 69 43 70 45 71 42 72 64 73 65 74 70 75 66 76 67 77 69 78
REMARK SMILES IDX 71 79 68 80 52 81 53 82 58 83 54 84 55 85 57 86 59 87 56 88
REMARK H PARENT 19 7 11 17 15 24 26 31 76 50 50 61
REMARK Flexibility Score: inf
ROOT
ATOM      1  C   UNL A   1      35.182  20.002  24.974  1.00  0.00     0.002 C 
ENDROOT
BRANCH   1   2
ATOM      2  C   UNL A   1      33.945  20.874  25.242  1.00  0.00     0.021 C 
BRANCH   2   3
ATOM      3  C   UNL A   1      33.470  21.703  24.047  1.00  0.00     0.116 C 
BRANCH   3   4
ATOM      4  N   UNL A   1      33.428  23.105  24.391  1.00  0.00    -0.356 N 
ATOM      5  O   UNL A   1      34.155  23.905  22.380  1.00  0.00    -0.275 OA
ATOM      6  C   UNL A   1      33.846  24.109  23.552  1.00  0.00     0.220 C 
ATOM      7  H   UNL A   1      33.080  23.356  25.278  1.00  0.00     0.163 HD
BRANCH   6   8
ATOM      8  C   UNL A   1      34.033  25.489  24.183  1.00  0.00     0.104 C 
BRANCH   8   9
ATOM      9  C   UNL A   1      33.098  26.596  23.666  1.00  0.00     0.010 C 
ATOM     10  C   UNL A   1      31.603  26.198  23.820  1.00  0.00     0.069 C 
ATOM     11  C   UNL A   1      33.476  27.990  24.231  1.00  0.00     0.069 C 
ATOM     12  C   UNL A   1      30.748  27.092  24.706  1.00  0.00     0.184 C 
ATOM     13  C   UNL A   1      32.399  28.662  25.079  1.00  0.00     0.184 C 
ATOM     14  C   UNL A   1      31.144  26.893  26.175  1.00  0.00     0.071 C 
ATOM     15  N   UNL A   1      31.074  28.484  24.516  1.00  0.00    -0.327 N 
ATOM     16  C   UNL A   1      32.265  27.902  26.411  1.00  0.00     0.071 C 
ATOM     17  H   UNL A   1      30.397  29.078  24.993  1.00  0.00     0.348 HD
BRANCH  15  18
ATOM     18  C   UNL A   1      30.556  29.288  23.421  1.00  0.00     0.310 C 
BRANCH  18  19
ATOM     19  C   UNL A   1      29.169  29.970  23.252  1.00  0.00     0.252 C 
ATOM     20  C   UNL A   1      28.003  29.180  22.691  1.00  0.00     0.170 C 
ATOM     21  O   UNL A   1      29.214  31.185  22.491  1.00  0.00    -0.438 OA
ATOM     22  N   UNL A   1      27.647  29.912  21.529  1.00  0.00    -0.318 N 
ATOM     23  C   UNL A   1      28.297  31.112  21.482  1.00  0.00     0.407 C 
ATOM     24  H   UNL A   1      27.013  29.597  20.845  1.00  0.00     0.167 HD
ATOM     25  O   UNL A   1      28.108  31.975  20.648  1.00  0.00    -0.225 OA
ENDBRANCH  18  19
ENDBRANCH  15  18
ENDBRANCH   8   9
ENDBRANCH   6   8
ENDBRANCH   3   4
ENDBRANCH   2   3
ENDBRANCH   1   2
BRANCH   1  26
ATOM     26  C   UNL A   1      36.527  20.735  24.984  1.00  0.00     0.002 C 
BRANCH  26  27
ATOM     27  C   UNL A   1      37.763  19.835  24.949  1.00  0.00     0.021 C 
BRANCH  27  28
ATOM     28  C   UNL A   1      38.935  20.311  25.802  1.00  0.00     0.116 C 
BRANCH  28  29
ATOM     29  N   UNL A   1      40.051  19.380  25.783  1.00  0.00    -0.352 N 
ATOM     30  C   UNL A   1      41.380  19.594  26.060  1.00  0.00     0.251 C 
ATOM     31  H   UNL A   1      39.820  18.456  25.534  1.00  0.00     0.163 HD
ATOM     32  O   UNL A   1      42.201  18.715  25.815  1.00  0.00    -0.269 OA
BRANCH  30  33
ATOM     33  C   UNL A   1      41.834  20.886  26.626  1.00  0.00     0.039 A 
ATOM     34  C   UNL A   1      42.276  21.880  25.750  1.00  0.00     0.014 A 
ATOM     35  C   UNL A   1      41.844  21.120  28.004  1.00  0.00     0.014 A 
ATOM     36  C   UNL A   1      42.666  23.125  26.249  1.00  0.00     0.010 A 
ATOM     37  C   UNL A   1      42.155  22.388  28.495  1.00  0.00     0.010 A 
ATOM     38  C   UNL A   1      42.569  23.405  27.623  1.00  0.00    -0.014 A 
BRANCH  38  39
ATOM     39  C   UNL A   1      42.865  24.769  28.136  1.00  0.00     0.031 A 
ATOM     40  C   UNL A   1      44.274  25.190  28.455  1.00  0.00     0.074 A 
ATOM     41  C   UNL A   1      41.847  25.626  28.347  1.00  0.00     0.049 A 
ATOM     42  N   UNL A   1      44.713  26.352  28.874  1.00  0.00    -0.248 NA
ATOM     43  C   UNL A   1      45.323  24.171  28.309  1.00  0.00     0.031 C 
ATOM     44  C   UNL A   1      40.430  25.323  28.133  1.00  0.00     0.029 A 
ATOM     45  N   UNL A   1      41.844  26.929  28.778  1.00  0.00    -0.354 N 
ATOM     46  C   UNL A   1      46.083  26.200  29.047  1.00  0.00     0.074 A 
ATOM     47  C   UNL A   1      46.393  24.819  28.745  1.00  0.00     0.031 C 
ATOM     48  C   UNL A   1      39.702  26.421  28.383  1.00  0.00     0.029 A 
ATOM     49  C   UNL A   1      40.592  27.494  28.815  1.00  0.00     0.049 A 
ATOM     50  H   UNL A   1      42.661  27.413  29.036  1.00  0.00     0.167 HD
ATOM     51  C   UNL A   1      47.002  27.130  29.405  1.00  0.00     0.037 A 
ATOM     52  C   UNL A   1      40.203  28.737  29.153  1.00  0.00     0.037 A 
ATOM     53  C   UNL A   1      46.689  28.507  29.701  1.00  0.00     0.049 A 
ATOM     54  C   UNL A   1      41.239  29.745  29.562  1.00  0.00     0.074 A 
ATOM     55  C   UNL A   1      47.557  29.542  30.004  1.00  0.00     0.029 A 
ATOM     56  N   UNL A   1      45.408  29.036  29.750  1.00  0.00    -0.354 N 
ATOM     57  N   UNL A   1      42.542  29.614  29.628  1.00  0.00    -0.248 NA
ATOM     58  C   UNL A   1      40.748  31.078  29.934  1.00  0.00     0.031 C 
ATOM     59  C   UNL A   1      46.797  30.679  30.302  1.00  0.00     0.029 A 
ATOM     60  C   UNL A   1      45.459  30.372  30.117  1.00  0.00     0.049 A 
ATOM     61  H   UNL A   1      44.583  28.536  29.551  1.00  0.00     0.167 HD
ATOM     62  C   UNL A   1      43.029  30.853  30.026  1.00  0.00     0.074 A 
ATOM     63  C   UNL A   1      41.881  31.727  30.157  1.00  0.00     0.031 C 
ATOM     64  C   UNL A   1      44.310  31.232  30.261  1.00  0.00     0.037 A 
BRANCH  51  65
ATOM     65  C   UNL A   1      48.434  26.683  29.516  1.00  0.00     0.057 A 
ATOM     66  C   UNL A   1      49.308  26.703  28.420  1.00  0.00     0.134 A 
ATOM     67  C   UNL A   1      48.953  26.248  30.742  1.00  0.00     0.134 A 
ATOM     68  F   UNL A   1      48.878  27.101  27.212  1.00  0.00    -0.206 F 
ATOM     69  C   UNL A   1      50.633  26.273  28.531  1.00  0.00     0.040 A 
ATOM     70  C   UNL A   1      50.285  25.845  30.873  1.00  0.00     0.040 A 
ATOM     71  F   UNL A   1      48.178  26.210  31.836  1.00  0.00    -0.206 F 
ATOM     72  C   UNL A   1      51.126  25.848  29.762  1.00  0.00     0.006 A 
ENDBRANCH  51  65
BRANCH  52  73
ATOM     73  C   UNL A   1      38.766  29.111  29.084  1.00  0.00     0.057 A 
ATOM     74  C   UNL A   1      38.196  29.560  27.887  1.00  0.00     0.134 A 
ATOM     75  C   UNL A   1      37.933  29.036  30.206  1.00  0.00     0.134 A 
ATOM     76  F   UNL A   1      38.946  29.672  26.782  1.00  0.00    -0.206 F 
ATOM     77  C   UNL A   1      36.853  29.939  27.812  1.00  0.00     0.040 A 
ATOM     78  C   UNL A   1      36.583  29.383  30.139  1.00  0.00     0.040 A 
ATOM     79  F   UNL A   1      38.416  28.605  31.381  1.00  0.00    -0.206 F 
ATOM     80  C   UNL A   1      36.042  29.844  28.941  1.00  0.00     0.006 A 
ENDBRANCH  52  73
BRANCH  64  81
ATOM     81  C   UNL A   1      44.533  32.664  30.664  1.00  0.00     0.057 A 
ATOM     82  C   UNL A   1      44.722  33.682  29.719  1.00  0.00     0.134 A 
ATOM     83  C   UNL A   1      44.564  33.029  32.017  1.00  0.00     0.134 A 
ATOM     84  F   UNL A   1      44.717  33.402  28.408  1.00  0.00    -0.206 F 
ATOM     85  C   UNL A   1      44.977  34.999  30.106  1.00  0.00     0.040 A 
ATOM     86  C   UNL A   1      44.782  34.348  32.414  1.00  0.00     0.040 A 
ATOM     87  F   UNL A   1      44.378  32.109  32.976  1.00  0.00    -0.206 F 
ATOM     88  C   UNL A   1      45.004  35.336  31.457  1.00  0.00     0.006 A 
ENDBRANCH  64  81
ENDBRANCH  38  39
ENDBRANCH  30  33
ENDBRANCH  28  29
ENDBRANCH  27  28
ENDBRANCH  26  27
ENDBRANCH   1  26
TORSDOF 16
ENDMDL
