MODEL 1
REMARK VINA RESULT:     -11.1      0.000      0.000
REMARK SMILES C[C@H](Oc1ccc(-c2ccccc2)cc1)C(=O)N[C@H](C)C(=O)NCCCCCCNC(=O)c1ccc(-c2c3nc(c(-c4c(F)cccc4F)c4ccc([nH]4)c(-c4c(F)cccc4F)c4nc(c(-c5c(F)cccc5F)c5ccc2[nH]5)C=C4)C=C3)cc1
REMARK SMILES IDX 25 1 24 2 23 3 21 4 22 5 19 7 20 8 18 9 16 10 17 11 2 13
REMARK SMILES IDX 1 14 3 15 4 16 5 17 15 18 6 19 14 20 7 21 8 22 9 23 13 24
REMARK SMILES IDX 10 25 12 26 11 27 26 28 27 29 28 30 29 31 30 32 31 33 32 35
REMARK SMILES IDX 33 36 34 37 86 38 35 39 85 40 36 41 37 42 38 43 79 44 39 45
REMARK SMILES IDX 84 46 78 47 80 48 40 49 83 50 77 51 76 52 41 54 67 55 50 56
REMARK SMILES IDX 66 57 51 58 54 59 65 60 81 61 52 62 53 63 64 65 82 66 55 67
REMARK SMILES IDX 42 68 43 69 48 70 44 71 45 72 47 73 49 74 46 75 68 76 69 77
REMARK SMILES IDX 74 78 70 79 71 80 73 81 75 82 72 83 56 84 57 85 62 86 58 87
REMARK SMILES IDX 59 88 61 89 63 90 60 91
REMARK H PARENT 23 6 18 12 30 34 80 53 54 64
REMARK Flexibility Score: inf
ROOT
ATOM      1  C   UNL A   1      40.463  22.641  27.182  1.00  0.00     0.021 C 
ENDROOT
BRANCH   1   2
ATOM      2  C   UNL A   1      39.126  22.771  26.439  1.00  0.00     0.116 C 
BRANCH   2   3
ATOM      3  N   UNL A   1      38.729  21.532  25.798  1.00  0.00    -0.354 N 
ATOM      4  C   UNL A   1      37.678  21.188  25.007  1.00  0.00     0.242 C 
ATOM      5  O   UNL A   1      37.663  20.009  24.623  1.00  0.00    -0.273 OA
ATOM      6  H   UNL A   1      39.349  20.786  25.971  1.00  0.00     0.163 HD
BRANCH   4   7
ATOM      7  C   UNL A   1      36.437  22.084  24.745  1.00  0.00     0.168 C 
ATOM      8  C   UNL A   1      36.700  22.905  23.503  1.00  0.00     0.041 C 
BRANCH   7   9
ATOM      9  N   UNL A   1      35.108  21.473  24.899  1.00  0.00    -0.341 N 
ATOM     10  C   UNL A   1      34.113  21.698  25.819  1.00  0.00     0.261 C 
ATOM     11  O   UNL A   1      33.651  20.701  26.387  1.00  0.00    -0.271 OA
ATOM     12  H   UNL A   1      34.894  20.786  24.229  1.00  0.00     0.164 HD
BRANCH  10  13
ATOM     13  C   UNL A   1      33.385  23.070  25.938  1.00  0.00     0.258 C 
ATOM     14  C   UNL A   1      32.381  22.908  27.067  1.00  0.00     0.064 C 
BRANCH  13  15
ATOM     15  O   UNL A   1      32.990  23.629  24.692  1.00  0.00    -0.481 OA
BRANCH  15  16
ATOM     16  C   UNL A   1      31.995  24.527  24.461  1.00  0.00     0.120 A 
ATOM     17  C   UNL A   1      30.738  24.309  23.919  1.00  0.00     0.047 A 
ATOM     18  C   UNL A   1      32.343  25.844  24.769  1.00  0.00     0.047 A 
ATOM     19  C   UNL A   1      29.922  25.386  23.537  1.00  0.00     0.012 A 
ATOM     20  C   UNL A   1      31.513  26.922  24.426  1.00  0.00     0.012 A 
ATOM     21  C   UNL A   1      30.299  26.719  23.756  1.00  0.00    -0.018 A 
BRANCH  21  22
ATOM     22  C   UNL A   1      29.459  27.847  23.285  1.00  0.00    -0.018 A 
ATOM     23  C   UNL A   1      30.020  28.959  22.630  1.00  0.00     0.009 A 
ATOM     24  C   UNL A   1      28.069  27.867  23.502  1.00  0.00     0.009 A 
ATOM     25  C   UNL A   1      29.236  30.041  22.219  1.00  0.00     0.001 A 
ATOM     26  C   UNL A   1      27.278  28.942  23.081  1.00  0.00     0.001 A 
ATOM     27  C   UNL A   1      27.864  30.031  22.442  1.00  0.00     0.000 A 
ENDBRANCH  21  22
ENDBRANCH  15  16
ENDBRANCH  13  15
ENDBRANCH  10  13
ENDBRANCH   7   9
ENDBRANCH   4   7
ENDBRANCH   2   3
ENDBRANCH   1   2
BRANCH   1  28
ATOM     28  C   UNL A   1      41.430  21.601  26.604  1.00  0.00     0.002 C 
BRANCH  28  29
ATOM     29  C   UNL A   1      41.798  20.443  27.544  1.00  0.00     0.002 C 
BRANCH  29  30
ATOM     30  C   UNL A   1      42.471  19.222  26.902  1.00  0.00     0.021 C 
BRANCH  30  31
ATOM     31  C   UNL A   1      42.430  19.159  25.375  1.00  0.00     0.116 C 
BRANCH  31  32
ATOM     32  N   UNL A   1      43.704  18.762  24.802  1.00  0.00    -0.352 N 
ATOM     33  C   UNL A   1      44.798  19.503  24.426  1.00  0.00     0.251 C 
ATOM     34  H   UNL A   1      43.801  17.793  24.657  1.00  0.00     0.163 HD
ATOM     35  O   UNL A   1      45.683  18.972  23.762  1.00  0.00    -0.269 OA
BRANCH  33  36
ATOM     36  C   UNL A   1      44.932  20.930  24.802  1.00  0.00     0.039 A 
ATOM     37  C   UNL A   1      45.352  21.241  26.100  1.00  0.00     0.014 A 
ATOM     38  C   UNL A   1      44.566  21.957  23.928  1.00  0.00     0.014 A 
ATOM     39  C   UNL A   1      45.453  22.577  26.504  1.00  0.00     0.010 A 
ATOM     40  C   UNL A   1      44.722  23.290  24.313  1.00  0.00     0.010 A 
ATOM     41  C   UNL A   1      45.162  23.615  25.605  1.00  0.00    -0.014 A 
BRANCH  41  42
ATOM     42  C   UNL A   1      45.312  25.039  26.004  1.00  0.00     0.031 A 
ATOM     43  C   UNL A   1      46.655  25.713  25.938  1.00  0.00     0.074 A 
ATOM     44  C   UNL A   1      44.248  25.712  26.482  1.00  0.00     0.049 A 
ATOM     45  N   UNL A   1      46.994  26.921  26.312  1.00  0.00    -0.248 NA
ATOM     46  C   UNL A   1      47.770  24.916  25.401  1.00  0.00     0.031 C 
ATOM     47  C   UNL A   1      42.899  25.165  26.633  1.00  0.00     0.029 A 
ATOM     48  N   UNL A   1      44.138  27.001  26.943  1.00  0.00    -0.354 N 
ATOM     49  C   UNL A   1      48.359  27.024  26.073  1.00  0.00     0.074 A 
ATOM     50  C   UNL A   1      48.794  25.742  25.561  1.00  0.00     0.031 C 
ATOM     51  C   UNL A   1      42.093  26.113  27.136  1.00  0.00     0.029 A 
ATOM     52  C   UNL A   1      42.875  27.324  27.377  1.00  0.00     0.049 A 
ATOM     53  H   UNL A   1      44.892  27.633  26.962  1.00  0.00     0.167 HD
ATOM     54  C   UNL A   1      49.173  28.094  26.247  1.00  0.00     0.037 A 
ATOM     55  C   UNL A   1      42.399  28.463  27.914  1.00  0.00     0.037 A 
ATOM     56  C   UNL A   1      48.736  29.379  26.730  1.00  0.00     0.049 A 
ATOM     57  C   UNL A   1      43.322  29.635  28.098  1.00  0.00     0.074 A 
ATOM     58  C   UNL A   1      49.475  30.540  26.883  1.00  0.00     0.029 A 
ATOM     59  N   UNL A   1      47.444  29.671  27.139  1.00  0.00    -0.354 N 
ATOM     60  N   UNL A   1      44.597  29.736  27.812  1.00  0.00    -0.248 NA
ATOM     61  C   UNL A   1      42.737  30.856  28.671  1.00  0.00     0.031 C 
ATOM     62  C   UNL A   1      48.638  31.524  27.421  1.00  0.00     0.029 A 
ATOM     63  C   UNL A   1      47.369  30.988  27.562  1.00  0.00     0.049 A 
ATOM     64  H   UNL A   1      46.691  29.037  27.130  1.00  0.00     0.167 HD
ATOM     65  C   UNL A   1      44.961  31.033  28.146  1.00  0.00     0.074 A 
ATOM     66  C   UNL A   1      43.769  31.687  28.644  1.00  0.00     0.031 C 
ATOM     67  C   UNL A   1      46.174  31.629  28.050  1.00  0.00     0.037 A 
BRANCH  54  68
ATOM     68  C   UNL A   1      50.625  27.922  25.909  1.00  0.00     0.057 A 
ATOM     69  C   UNL A   1      51.589  27.677  26.895  1.00  0.00     0.134 A 
ATOM     70  C   UNL A   1      51.060  27.963  24.577  1.00  0.00     0.134 A 
ATOM     71  F   UNL A   1      51.241  27.636  28.190  1.00  0.00    -0.206 F 
ATOM     72  C   UNL A   1      52.938  27.505  26.572  1.00  0.00     0.040 A 
ATOM     73  C   UNL A   1      52.401  27.768  24.240  1.00  0.00     0.040 A 
ATOM     74  F   UNL A   1      50.188  28.186  23.582  1.00  0.00    -0.206 F 
ATOM     75  C   UNL A   1      53.345  27.544  25.240  1.00  0.00     0.006 A 
ENDBRANCH  54  68
BRANCH  55  76
ATOM     76  C   UNL A   1      40.969  28.558  28.302  1.00  0.00     0.057 A 
ATOM     77  C   UNL A   1      40.000  28.969  27.380  1.00  0.00     0.134 A 
ATOM     78  C   UNL A   1      40.540  28.246  29.597  1.00  0.00     0.134 A 
ATOM     79  F   UNL A   1      40.354  29.300  26.131  1.00  0.00    -0.206 F 
ATOM     80  C   UNL A   1      38.655  29.081  27.737  1.00  0.00     0.040 A 
ATOM     81  C   UNL A   1      39.195  28.331  29.960  1.00  0.00     0.040 A 
ATOM     82  F   UNL A   1      41.421  27.840  30.523  1.00  0.00    -0.206 F 
ATOM     83  C   UNL A   1      38.249  28.757  29.029  1.00  0.00     0.006 A 
ENDBRANCH  55  76
BRANCH  67  84
ATOM     84  C   UNL A   1      46.266  33.070  28.457  1.00  0.00     0.057 A 
ATOM     85  C   UNL A   1      46.032  34.111  27.549  1.00  0.00     0.134 A 
ATOM     86  C   UNL A   1      46.558  33.418  29.781  1.00  0.00     0.134 A 
ATOM     87  F   UNL A   1      45.762  33.842  26.263  1.00  0.00    -0.206 F 
ATOM     88  C   UNL A   1      46.107  35.448  27.940  1.00  0.00     0.040 A 
ATOM     89  C   UNL A   1      46.612  34.752  30.190  1.00  0.00     0.040 A 
ATOM     90  F   UNL A   1      46.784  32.469  30.702  1.00  0.00    -0.206 F 
ATOM     91  C   UNL A   1      46.392  35.771  29.265  1.00  0.00     0.006 A 
ENDBRANCH  67  84
ENDBRANCH  41  42
ENDBRANCH  33  36
ENDBRANCH  31  32
ENDBRANCH  30  31
ENDBRANCH  29  30
ENDBRANCH  28  29
ENDBRANCH   1  28
TORSDOF 18
ENDMDL
MODEL 2
REMARK VINA RESULT:     -11.0      5.681      9.955
REMARK SMILES C[C@H](Oc1ccc(-c2ccccc2)cc1)C(=O)N[C@H](C)C(=O)NCCCCCCNC(=O)c1ccc(-c2c3nc(c(-c4c(F)cccc4F)c4ccc([nH]4)c(-c4c(F)cccc4F)c4nc(c(-c5c(F)cccc5F)c5ccc2[nH]5)C=C4)C=C3)cc1
REMARK SMILES IDX 25 1 24 2 23 3 21 4 22 5 19 7 20 8 18 9 16 10 17 11 2 13
REMARK SMILES IDX 1 14 3 15 4 16 5 17 15 18 6 19 14 20 7 21 8 22 9 23 13 24
REMARK SMILES IDX 10 25 12 26 11 27 26 28 27 29 28 30 29 31 30 32 31 33 32 35
REMARK SMILES IDX 33 36 34 37 86 38 35 39 85 40 36 41 37 42 38 43 79 44 39 45
REMARK SMILES IDX 84 46 78 47 80 48 40 49 83 50 77 51 76 52 41 54 67 55 50 56
REMARK SMILES IDX 66 57 51 58 54 59 65 60 81 61 52 62 53 63 64 65 82 66 55 67
REMARK SMILES IDX 42 68 43 69 48 70 44 71 45 72 47 73 49 74 46 75 68 76 69 77
REMARK SMILES IDX 74 78 70 79 71 80 73 81 75 82 72 83 56 84 57 85 62 86 58 87
REMARK SMILES IDX 59 88 61 89 63 90 60 91
REMARK H PARENT 23 6 18 12 30 34 80 53 54 64
REMARK Flexibility Score: inf
ROOT
ATOM      1  C   UNL A   1      44.361  23.630  31.251  1.00  0.00     0.021 C 
ENDROOT
BRANCH   1   2
ATOM      2  C   UNL A   1      44.349  24.374  29.908  1.00  0.00     0.116 C 
BRANCH   2   3
ATOM      3  N   UNL A   1      45.152  23.706  28.901  1.00  0.00    -0.354 N 
ATOM      4  C   UNL A   1      45.123  23.698  27.542  1.00  0.00     0.242 C 
ATOM      5  O   UNL A   1      45.990  23.001  26.994  1.00  0.00    -0.273 OA
ATOM      6  H   UNL A   1      45.866  23.143  29.280  1.00  0.00     0.163 HD
BRANCH   4   7
ATOM      7  C   UNL A   1      43.988  24.308  26.677  1.00  0.00     0.168 C 
ATOM      8  C   UNL A   1      44.428  25.680  26.217  1.00  0.00     0.041 C 
BRANCH   7   9
ATOM      9  N   UNL A   1      43.327  23.433  25.697  1.00  0.00    -0.341 N 
ATOM     10  C   UNL A   1      42.656  22.245  25.857  1.00  0.00     0.261 C 
ATOM     11  O   UNL A   1      43.000  21.312  25.121  1.00  0.00    -0.271 OA
ATOM     12  H   UNL A   1      43.375  23.751  24.768  1.00  0.00     0.164 HD
BRANCH  10  13
ATOM     13  C   UNL A   1      41.342  22.138  26.687  1.00  0.00     0.258 C 
ATOM     14  C   UNL A   1      41.754  22.320  28.138  1.00  0.00     0.064 C 
BRANCH  13  15
ATOM     15  O   UNL A   1      40.498  21.061  26.303  1.00  0.00    -0.481 OA
BRANCH  15  16
ATOM     16  C   UNL A   1      39.193  21.120  25.922  1.00  0.00     0.120 A 
ATOM     17  C   UNL A   1      38.415  20.135  25.335  1.00  0.00     0.047 A 
ATOM     18  C   UNL A   1      38.610  22.376  26.108  1.00  0.00     0.047 A 
ATOM     19  C   UNL A   1      37.154  20.440  24.796  1.00  0.00     0.012 A 
ATOM     20  C   UNL A   1      37.335  22.675  25.605  1.00  0.00     0.012 A 
ATOM     21  C   UNL A   1      36.594  21.722  24.893  1.00  0.00    -0.018 A 
BRANCH  21  22
ATOM     22  C   UNL A   1      35.294  22.047  24.258  1.00  0.00    -0.018 A 
ATOM     23  C   UNL A   1      34.102  21.414  24.657  1.00  0.00     0.009 A 
ATOM     24  C   UNL A   1      35.202  22.980  23.209  1.00  0.00     0.009 A 
ATOM     25  C   UNL A   1      32.880  21.691  24.035  1.00  0.00     0.001 A 
ATOM     26  C   UNL A   1      33.980  23.270  22.592  1.00  0.00     0.001 A 
ATOM     27  C   UNL A   1      32.819  22.622  23.004  1.00  0.00     0.000 A 
ENDBRANCH  21  22
ENDBRANCH  15  16
ENDBRANCH  13  15
ENDBRANCH  10  13
ENDBRANCH   7   9
ENDBRANCH   4   7
ENDBRANCH   2   3
ENDBRANCH   1   2
BRANCH   1  28
ATOM     28  C   UNL A   1      44.654  24.502  32.476  1.00  0.00     0.002 C 
BRANCH  28  29
ATOM     29  C   UNL A   1      45.927  25.357  32.393  1.00  0.00     0.002 C 
BRANCH  29  30
ATOM     30  C   UNL A   1      47.117  24.907  33.252  1.00  0.00     0.021 C 
BRANCH  30  31
ATOM     31  C   UNL A   1      46.769  24.243  34.585  1.00  0.00     0.116 C 
BRANCH  31  32
ATOM     32  N   UNL A   1      47.185  25.039  35.726  1.00  0.00    -0.352 N 
ATOM     33  C   UNL A   1      46.819  26.299  36.132  1.00  0.00     0.251 C 
ATOM     34  H   UNL A   1      47.844  24.600  36.311  1.00  0.00     0.163 HD
ATOM     35  O   UNL A   1      47.467  26.857  37.014  1.00  0.00    -0.269 OA
BRANCH  33  36
ATOM     36  C   UNL A   1      45.664  27.002  35.528  1.00  0.00     0.039 A 
ATOM     37  C   UNL A   1      45.908  28.137  34.745  1.00  0.00     0.014 A 
ATOM     38  C   UNL A   1      44.347  26.617  35.794  1.00  0.00     0.014 A 
ATOM     39  C   UNL A   1      44.841  28.850  34.190  1.00  0.00     0.010 A 
ATOM     40  C   UNL A   1      43.285  27.295  35.193  1.00  0.00     0.010 A 
ATOM     41  C   UNL A   1      43.519  28.421  34.389  1.00  0.00    -0.014 A 
BRANCH  41  42
ATOM     42  C   UNL A   1      42.377  29.140  33.765  1.00  0.00     0.031 A 
ATOM     43  C   UNL A   1      41.878  28.743  32.403  1.00  0.00     0.074 A 
ATOM     44  C   UNL A   1      41.823  30.190  34.401  1.00  0.00     0.049 A 
ATOM     45  N   UNL A   1      40.946  29.298  31.669  1.00  0.00    -0.248 NA
ATOM     46  C   UNL A   1      42.529  27.585  31.771  1.00  0.00     0.031 C 
ATOM     47  C   UNL A   1      42.237  30.700  35.710  1.00  0.00     0.029 A 
ATOM     48  N   UNL A   1      40.801  31.026  34.026  1.00  0.00    -0.354 N 
ATOM     49  C   UNL A   1      40.909  28.569  30.487  1.00  0.00     0.074 A 
ATOM     50  C   UNL A   1      41.941  27.559  30.583  1.00  0.00     0.031 C 
ATOM     51  C   UNL A   1      41.468  31.751  36.035  1.00  0.00     0.029 A 
ATOM     52  C   UNL A   1      40.532  32.012  34.945  1.00  0.00     0.049 A 
ATOM     53  H   UNL A   1      40.309  30.930  33.180  1.00  0.00     0.167 HD
ATOM     54  C   UNL A   1      40.080  28.716  29.425  1.00  0.00     0.037 A 
ATOM     55  C   UNL A   1      39.636  33.017  34.911  1.00  0.00     0.037 A 
ATOM     56  C   UNL A   1      39.034  29.703  29.339  1.00  0.00     0.049 A 
ATOM     57  C   UNL A   1      38.728  33.159  33.723  1.00  0.00     0.074 A 
ATOM     58  C   UNL A   1      38.105  29.890  28.329  1.00  0.00     0.029 A 
ATOM     59  N   UNL A   1      38.780  30.670  30.300  1.00  0.00    -0.354 N 
ATOM     60  N   UNL A   1      38.666  32.426  32.638  1.00  0.00    -0.248 NA
ATOM     61  C   UNL A   1      37.760  34.264  33.756  1.00  0.00     0.031 C 
ATOM     62  C   UNL A   1      37.313  30.995  28.662  1.00  0.00     0.029 A 
ATOM     63  C   UNL A   1      37.721  31.468  29.898  1.00  0.00     0.049 A 
ATOM     64  H   UNL A   1      39.278  30.773  31.143  1.00  0.00     0.167 HD
ATOM     65  C   UNL A   1      37.639  32.963  31.873  1.00  0.00     0.074 A 
ATOM     66  C   UNL A   1      37.097  34.076  32.624  1.00  0.00     0.031 C 
ATOM     67  C   UNL A   1      37.187  32.569  30.658  1.00  0.00     0.037 A 
BRANCH  54  68
ATOM     68  C   UNL A   1      40.268  27.782  28.264  1.00  0.00     0.057 A 
ATOM     69  C   UNL A   1      40.991  28.156  27.125  1.00  0.00     0.134 A 
ATOM     70  C   UNL A   1      39.752  26.480  28.304  1.00  0.00     0.134 A 
ATOM     71  F   UNL A   1      41.502  29.392  27.019  1.00  0.00    -0.206 F 
ATOM     72  C   UNL A   1      41.173  27.278  26.054  1.00  0.00     0.040 A 
ATOM     73  C   UNL A   1      39.949  25.585  27.250  1.00  0.00     0.040 A 
ATOM     74  F   UNL A   1      39.057  26.053  29.369  1.00  0.00    -0.206 F 
ATOM     75  C   UNL A   1      40.656  25.985  26.119  1.00  0.00     0.006 A 
ENDBRANCH  54  68
BRANCH  55  76
ATOM     76  C   UNL A   1      39.540  33.960  36.054  1.00  0.00     0.057 A 
ATOM     77  C   UNL A   1      40.192  35.198  36.022  1.00  0.00     0.134 A 
ATOM     78  C   UNL A   1      38.802  33.647  37.201  1.00  0.00     0.134 A 
ATOM     79  F   UNL A   1      40.930  35.544  34.958  1.00  0.00    -0.206 F 
ATOM     80  C   UNL A   1      40.125  36.086  37.096  1.00  0.00     0.040 A 
ATOM     81  C   UNL A   1      38.708  34.535  38.273  1.00  0.00     0.040 A 
ATOM     82  F   UNL A   1      38.150  32.478  37.289  1.00  0.00    -0.206 F 
ATOM     83  C   UNL A   1      39.377  35.757  38.225  1.00  0.00     0.006 A 
ENDBRANCH  55  76
BRANCH  67  84
ATOM     84  C   UNL A   1      36.027  33.325  30.080  1.00  0.00     0.057 A 
ATOM     85  C   UNL A   1      36.189  34.231  29.024  1.00  0.00     0.134 A 
ATOM     86  C   UNL A   1      34.729  33.118  30.564  1.00  0.00     0.134 A 
ATOM     87  F   UNL A   1      37.408  34.484  28.527  1.00  0.00    -0.206 F 
ATOM     88  C   UNL A   1      35.102  34.920  28.483  1.00  0.00     0.040 A 
ATOM     89  C   UNL A   1      33.632  33.783  30.014  1.00  0.00     0.040 A 
ATOM     90  F   UNL A   1      34.505  32.258  31.568  1.00  0.00    -0.206 F 
ATOM     91  C   UNL A   1      33.818  34.692  28.975  1.00  0.00     0.006 A 
ENDBRANCH  67  84
ENDBRANCH  41  42
ENDBRANCH  33  36
ENDBRANCH  31  32
ENDBRANCH  30  31
ENDBRANCH  29  30
ENDBRANCH  28  29
ENDBRANCH   1  28
TORSDOF 18
ENDMDL
MODEL 3
REMARK VINA RESULT:     -10.9      6.665     12.203
REMARK SMILES C[C@H](Oc1ccc(-c2ccccc2)cc1)C(=O)N[C@H](C)C(=O)NCCCCCCNC(=O)c1ccc(-c2c3nc(c(-c4c(F)cccc4F)c4ccc([nH]4)c(-c4c(F)cccc4F)c4nc(c(-c5c(F)cccc5F)c5ccc2[nH]5)C=C4)C=C3)cc1
REMARK SMILES IDX 25 1 24 2 23 3 21 4 22 5 19 7 20 8 18 9 16 10 17 11 2 13
REMARK SMILES IDX 1 14 3 15 4 16 5 17 15 18 6 19 14 20 7 21 8 22 9 23 13 24
REMARK SMILES IDX 10 25 12 26 11 27 26 28 27 29 28 30 29 31 30 32 31 33 32 35
REMARK SMILES IDX 33 36 34 37 86 38 35 39 85 40 36 41 37 42 38 43 79 44 39 45
REMARK SMILES IDX 84 46 78 47 80 48 40 49 83 50 77 51 76 52 41 54 67 55 50 56
REMARK SMILES IDX 66 57 51 58 54 59 65 60 81 61 52 62 53 63 64 65 82 66 55 67
REMARK SMILES IDX 42 68 43 69 48 70 44 71 45 72 47 73 49 74 46 75 68 76 69 77
REMARK SMILES IDX 74 78 70 79 71 80 73 81 75 82 72 83 56 84 57 85 62 86 58 87
REMARK SMILES IDX 59 88 61 89 63 90 60 91
REMARK H PARENT 23 6 18 12 30 34 80 53 54 64
REMARK Flexibility Score: inf
ROOT
ATOM      1  C   UNL A   1      33.569  31.852  27.610  1.00  0.00     0.021 C 
ENDROOT
BRANCH   1   2
ATOM      2  C   UNL A   1      33.497  30.330  27.426  1.00  0.00     0.116 C 
BRANCH   2   3
ATOM      3  N   UNL A   1      33.778  29.926  26.061  1.00  0.00    -0.354 N 
ATOM      4  C   UNL A   1      33.069  29.233  25.131  1.00  0.00     0.242 C 
ATOM      5  O   UNL A   1      33.633  29.077  24.038  1.00  0.00    -0.273 OA
ATOM      6  H   UNL A   1      34.664  30.214  25.743  1.00  0.00     0.163 HD
BRANCH   4   7
ATOM      7  C   UNL A   1      31.745  28.472  25.413  1.00  0.00     0.168 C 
ATOM      8  C   UNL A   1      30.806  28.710  24.253  1.00  0.00     0.041 C 
BRANCH   7   9
ATOM      9  N   UNL A   1      31.841  27.108  25.953  1.00  0.00    -0.341 N 
ATOM     10  C   UNL A   1      31.741  25.884  25.337  1.00  0.00     0.261 C 
ATOM     11  O   UNL A   1      30.961  25.071  25.847  1.00  0.00    -0.271 OA
ATOM     12  H   UNL A   1      32.005  27.063  26.922  1.00  0.00     0.164 HD
BRANCH  10  13
ATOM     13  C   UNL A   1      32.753  25.417  24.249  1.00  0.00     0.258 C 
ATOM     14  C   UNL A   1      31.941  25.247  22.975  1.00  0.00     0.064 C 
BRANCH  13  15
ATOM     15  O   UNL A   1      33.642  24.395  24.681  1.00  0.00    -0.481 OA
BRANCH  15  16
ATOM     16  C   UNL A   1      33.505  23.051  24.524  1.00  0.00     0.120 A 
ATOM     17  C   UNL A   1      32.348  22.313  24.324  1.00  0.00     0.047 A 
ATOM     18  C   UNL A   1      34.705  22.346  24.643  1.00  0.00     0.047 A 
ATOM     19  C   UNL A   1      32.364  20.912  24.413  1.00  0.00     0.012 A 
ATOM     20  C   UNL A   1      34.731  20.944  24.692  1.00  0.00     0.012 A 
ATOM     21  C   UNL A   1      33.550  20.193  24.625  1.00  0.00    -0.018 A 
BRANCH  21  22
ATOM     22  C   UNL A   1      33.542  18.719  24.785  1.00  0.00    -0.018 A 
ATOM     23  C   UNL A   1      34.461  17.900  24.103  1.00  0.00     0.009 A 
ATOM     24  C   UNL A   1      32.594  18.074  25.602  1.00  0.00     0.009 A 
ATOM     25  C   UNL A   1      34.431  16.507  24.223  1.00  0.00     0.001 A 
ATOM     26  C   UNL A   1      32.569  16.682  25.734  1.00  0.00     0.001 A 
ATOM     27  C   UNL A   1      33.487  15.898  25.042  1.00  0.00     0.000 A 
ENDBRANCH  21  22
ENDBRANCH  15  16
ENDBRANCH  13  15
ENDBRANCH  10  13
ENDBRANCH   7   9
ENDBRANCH   4   7
ENDBRANCH   2   3
ENDBRANCH   1   2
BRANCH   1  28
ATOM     28  C   UNL A   1      34.740  32.351  28.462  1.00  0.00     0.002 C 
BRANCH  28  29
ATOM     29  C   UNL A   1      34.655  33.816  28.915  1.00  0.00     0.002 C 
BRANCH  29  30
ATOM     30  C   UNL A   1      33.249  34.423  29.027  1.00  0.00     0.021 C 
BRANCH  30  31
ATOM     31  C   UNL A   1      33.188  35.921  29.330  1.00  0.00     0.116 C 
BRANCH  31  32
ATOM     32  N   UNL A   1      32.494  36.206  30.574  1.00  0.00    -0.352 N 
ATOM     33  C   UNL A   1      32.703  35.750  31.852  1.00  0.00     0.251 C 
ATOM     34  H   UNL A   1      31.743  36.837  30.486  1.00  0.00     0.163 HD
ATOM     35  O   UNL A   1      31.852  35.961  32.711  1.00  0.00    -0.269 OA
BRANCH  33  36
ATOM     36  C   UNL A   1      33.930  35.003  32.216  1.00  0.00     0.039 A 
ATOM     37  C   UNL A   1      33.799  33.687  32.674  1.00  0.00     0.014 A 
ATOM     38  C   UNL A   1      35.190  35.607  32.201  1.00  0.00     0.014 A 
ATOM     39  C   UNL A   1      34.930  32.963  33.065  1.00  0.00     0.010 A 
ATOM     40  C   UNL A   1      36.324  34.866  32.536  1.00  0.00     0.010 A 
ATOM     41  C   UNL A   1      36.207  33.539  32.976  1.00  0.00    -0.014 A 
BRANCH  41  42
ATOM     42  C   UNL A   1      37.424  32.766  33.341  1.00  0.00     0.031 A 
ATOM     43  C   UNL A   1      38.159  33.059  34.620  1.00  0.00     0.074 A 
ATOM     44  C   UNL A   1      37.902  31.837  32.491  1.00  0.00     0.049 A 
ATOM     45  N   UNL A   1      39.276  32.543  35.069  1.00  0.00    -0.248 NA
ATOM     46  C   UNL A   1      37.576  34.083  35.500  1.00  0.00     0.031 C 
ATOM     47  C   UNL A   1      37.305  31.483  31.202  1.00  0.00     0.029 A 
ATOM     48  N   UNL A   1      39.009  31.030  32.578  1.00  0.00    -0.354 N 
ATOM     49  C   UNL A   1      39.537  33.189  36.272  1.00  0.00     0.074 A 
ATOM     50  C   UNL A   1      38.485  34.164  36.461  1.00  0.00     0.031 C 
ATOM     51  C   UNL A   1      38.043  30.522  30.625  1.00  0.00     0.029 A 
ATOM     52  C   UNL A   1      39.183  30.216  31.485  1.00  0.00     0.049 A 
ATOM     53  H   UNL A   1      39.621  31.035  33.349  1.00  0.00     0.167 HD
ATOM     54  C   UNL A   1      40.550  32.977  37.146  1.00  0.00     0.037 A 
ATOM     55  C   UNL A   1      40.155  29.327  31.203  1.00  0.00     0.037 A 
ATOM     56  C   UNL A   1      41.582  31.987  36.972  1.00  0.00     0.049 A 
ATOM     57  C   UNL A   1      41.268  29.110  32.189  1.00  0.00     0.074 A 
ATOM     58  C   UNL A   1      42.616  31.658  37.833  1.00  0.00     0.029 A 
ATOM     59  N   UNL A   1      41.711  31.168  35.861  1.00  0.00    -0.354 N 
ATOM     60  N   UNL A   1      41.469  29.688  33.348  1.00  0.00    -0.248 NA
ATOM     61  C   UNL A   1      42.287  28.113  31.830  1.00  0.00     0.031 C 
ATOM     62  C   UNL A   1      43.393  30.665  37.225  1.00  0.00     0.029 A 
ATOM     63  C   UNL A   1      42.818  30.347  36.006  1.00  0.00     0.049 A 
ATOM     64  H   UNL A   1      41.105  31.168  35.085  1.00  0.00     0.167 HD
ATOM     65  C   UNL A   1      42.618  29.107  33.869  1.00  0.00     0.074 A 
ATOM     66  C   UNL A   1      43.063  28.124  32.904  1.00  0.00     0.031 C 
ATOM     67  C   UNL A   1      43.247  29.367  35.040  1.00  0.00     0.037 A 
BRANCH  54  68
ATOM     68  C   UNL A   1      40.591  33.833  38.379  1.00  0.00     0.057 A 
ATOM     69  C   UNL A   1      39.881  33.493  39.538  1.00  0.00     0.134 A 
ATOM     70  C   UNL A   1      41.380  34.990  38.421  1.00  0.00     0.134 A 
ATOM     71  F   UNL A   1      39.098  32.404  39.560  1.00  0.00    -0.206 F 
ATOM     72  C   UNL A   1      39.934  34.287  40.686  1.00  0.00     0.040 A 
ATOM     73  C   UNL A   1      41.461  35.778  39.571  1.00  0.00     0.040 A 
ATOM     74  F   UNL A   1      42.092  35.368  37.349  1.00  0.00    -0.206 F 
ATOM     75  C   UNL A   1      40.731  35.430  40.706  1.00  0.00     0.006 A 
ENDBRANCH  54  68
BRANCH  55  76
ATOM     76  C   UNL A   1      40.108  28.558  29.934  1.00  0.00     0.057 A 
ATOM     77  C   UNL A   1      40.800  28.998  28.800  1.00  0.00     0.134 A 
ATOM     78  C   UNL A   1      39.372  27.373  29.824  1.00  0.00     0.134 A 
ATOM     79  F   UNL A   1      41.506  30.136  28.840  1.00  0.00    -0.206 F 
ATOM     80  C   UNL A   1      40.748  28.294  27.595  1.00  0.00     0.040 A 
ATOM     81  C   UNL A   1      39.330  26.647  28.632  1.00  0.00     0.040 A 
ATOM     82  F   UNL A   1      38.692  26.897  30.878  1.00  0.00    -0.206 F 
ATOM     83  C   UNL A   1      40.016  27.112  27.511  1.00  0.00     0.006 A 
ENDBRANCH  55  76
BRANCH  67  84
ATOM     84  C   UNL A   1      44.465  28.552  35.361  1.00  0.00     0.057 A 
ATOM     85  C   UNL A   1      44.380  27.341  36.060  1.00  0.00     0.134 A 
ATOM     86  C   UNL A   1      45.733  28.967  34.936  1.00  0.00     0.134 A 
ATOM     87  F   UNL A   1      43.196  26.896  36.506  1.00  0.00    -0.206 F 
ATOM     88  C   UNL A   1      45.516  26.582  36.342  1.00  0.00     0.040 A 
ATOM     89  C   UNL A   1      46.873  28.204  35.191  1.00  0.00     0.040 A 
ATOM     90  F   UNL A   1      45.882  30.113  34.255  1.00  0.00    -0.206 F 
ATOM     91  C   UNL A   1      46.767  27.011  35.903  1.00  0.00     0.006 A 
ENDBRANCH  67  84
ENDBRANCH  41  42
ENDBRANCH  33  36
ENDBRANCH  31  32
ENDBRANCH  30  31
ENDBRANCH  29  30
ENDBRANCH  28  29
ENDBRANCH   1  28
TORSDOF 18
ENDMDL
