MODEL 1
REMARK VINA RESULT:     -11.8      0.000      0.000
REMARK SMILES N#Cc1ccc2c(c1)C=C(C(=O)NCCCCCCNC(=O)c1ccc(-c3c4nc(c(-c5c(F)cccc5F)c5ccc([nH]5)c(-c5c(F)cccc5F)c5nc(c(-c6c(F)cccc6F)c6ccc3[nH]6)C=C5)C=C4)cc1)[C@@H](C(F)(F)F)O2
REMARK SMILES IDX 17 1 16 2 15 3 14 4 13 5 11 6 12 7 10 9 3 10 4 11 8 12 5 13
REMARK SMILES IDX 7 14 6 15 9 16 82 17 77 18 2 19 1 20 78 21 79 22 80 23 81 24
REMARK SMILES IDX 18 25 19 26 20 27 21 28 22 30 23 31 24 32 76 33 25 34 75 35
REMARK SMILES IDX 26 36 27 37 28 38 69 39 29 40 74 41 68 42 70 43 30 44 73 45
REMARK SMILES IDX 67 46 66 47 31 49 57 50 40 51 56 52 41 53 44 54 55 55 71 56
REMARK SMILES IDX 42 57 43 58 54 60 72 61 45 62 32 63 33 64 38 65 34 66 35 67
REMARK SMILES IDX 37 68 39 69 36 70 58 71 59 72 64 73 60 74 61 75 63 76 65 77
REMARK SMILES IDX 62 78 46 79 47 80 52 81 48 82 49 83 51 84 53 85 50 86
REMARK H PARENT 13 8 20 29 70 48 44 59
REMARK Flexibility Score: inf
ROOT
ATOM      1  C   UNL A   1      36.836  21.458  24.538  1.00  0.00     0.002 C 
ENDROOT
BRANCH   1   2
ATOM      2  C   UNL A   1      37.206  22.788  25.208  1.00  0.00     0.002 C 
BRANCH   2   3
ATOM      3  C   UNL A   1      36.116  23.372  26.107  1.00  0.00     0.021 C 
BRANCH   3   4
ATOM      4  C   UNL A   1      35.192  24.334  25.373  1.00  0.00     0.116 C 
BRANCH   4   5
ATOM      5  N   UNL A   1      33.829  24.257  25.866  1.00  0.00    -0.352 N 
ATOM      6  C   UNL A   1      32.772  23.422  25.732  1.00  0.00     0.251 C 
ATOM      7  O   UNL A   1      31.766  23.728  26.378  1.00  0.00    -0.270 OA
ATOM      8  H   UNL A   1      33.616  25.016  26.456  1.00  0.00     0.163 HD
BRANCH   6   9
ATOM      9  C   UNL A   1      32.756  22.198  24.874  1.00  0.00     0.067 C 
ATOM     10  C   UNL A   1      33.834  17.511  24.338  1.00  0.00     0.053 A 
ATOM     11  C   UNL A   1      33.144  17.495  23.122  1.00  0.00     0.023 A 
ATOM     12  C   UNL A   1      33.894  18.690  25.098  1.00  0.00     0.031 A 
ATOM     13  C   UNL A   1      32.521  18.651  22.663  1.00  0.00     0.048 A 
ATOM     14  C   UNL A   1      33.268  19.852  24.636  1.00  0.00     0.018 A 
ATOM     15  C   UNL A   1      32.595  19.820  23.415  1.00  0.00     0.128 A 
ATOM     16  C   UNL A   1      33.263  21.079  25.424  1.00  0.00     0.025 C 
ATOM     17  O   UNL A   1      31.938  20.891  22.897  1.00  0.00    -0.475 OA
ATOM     18  C   UNL A   1      32.241  22.188  23.465  1.00  0.00     0.314 C 
BRANCH  10  19
ATOM     19  C   UNL A   1      34.469  16.317  24.806  1.00  0.00     0.099 C 
ATOM     20  N   UNL A   1      34.989  15.355  25.198  1.00  0.00    -0.192 NA
ENDBRANCH  10  19
BRANCH  18  21
ATOM     21  C   UNL A   1      33.160  22.952  22.493  1.00  0.00     0.429 C 
ATOM     22  F   UNL A   1      32.903  22.586  21.212  1.00  0.00    -0.167 F 
ATOM     23  F   UNL A   1      32.988  24.293  22.545  1.00  0.00    -0.167 F 
ATOM     24  F   UNL A   1      34.471  22.717  22.729  1.00  0.00    -0.167 F 
ENDBRANCH  18  21
ENDBRANCH   6   9
ENDBRANCH   4   5
ENDBRANCH   3   4
ENDBRANCH   2   3
ENDBRANCH   1   2
BRANCH   1  25
ATOM     25  C   UNL A   1      37.663  20.255  24.997  1.00  0.00     0.021 C 
BRANCH  25  26
ATOM     26  C   UNL A   1      38.925  20.633  25.759  1.00  0.00     0.116 C 
BRANCH  26  27
ATOM     27  N   UNL A   1      39.870  19.529  25.829  1.00  0.00    -0.352 N 
ATOM     28  C   UNL A   1      41.215  19.551  26.102  1.00  0.00     0.251 C 
ATOM     29  H   UNL A   1      39.490  18.636  25.656  1.00  0.00     0.163 HD
ATOM     30  O   UNL A   1      41.908  18.556  25.917  1.00  0.00    -0.269 OA
BRANCH  28  31
ATOM     31  C   UNL A   1      41.824  20.804  26.589  1.00  0.00     0.039 A 
ATOM     32  C   UNL A   1      41.864  21.078  27.957  1.00  0.00     0.014 A 
ATOM     33  C   UNL A   1      42.293  21.739  25.665  1.00  0.00     0.014 A 
ATOM     34  C   UNL A   1      42.180  22.358  28.388  1.00  0.00     0.010 A 
ATOM     35  C   UNL A   1      42.717  22.992  26.114  1.00  0.00     0.010 A 
ATOM     36  C   UNL A   1      42.603  23.333  27.472  1.00  0.00    -0.014 A 
BRANCH  36  37
ATOM     37  C   UNL A   1      42.884  24.713  27.944  1.00  0.00     0.031 A 
ATOM     38  C   UNL A   1      44.300  25.157  28.205  1.00  0.00     0.074 A 
ATOM     39  C   UNL A   1      41.867  25.584  28.094  1.00  0.00     0.049 A 
ATOM     40  N   UNL A   1      44.737  26.306  28.658  1.00  0.00    -0.248 NA
ATOM     41  C   UNL A   1      45.366  24.182  27.925  1.00  0.00     0.031 C 
ATOM     42  C   UNL A   1      40.455  25.288  27.841  1.00  0.00     0.029 A 
ATOM     43  N   UNL A   1      41.865  26.897  28.486  1.00  0.00    -0.354 N 
ATOM     44  C   UNL A   1      46.119  26.185  28.735  1.00  0.00     0.074 A 
ATOM     45  C   UNL A   1      46.447  24.838  28.321  1.00  0.00     0.031 C 
ATOM     46  C   UNL A   1      39.730  26.397  28.049  1.00  0.00     0.029 A 
ATOM     47  C   UNL A   1      40.611  27.455  28.526  1.00  0.00     0.049 A 
ATOM     48  H   UNL A   1      42.685  27.393  28.716  1.00  0.00     0.167 HD
ATOM     49  C   UNL A   1      47.033  27.115  29.105  1.00  0.00     0.037 A 
ATOM     50  C   UNL A   1      40.211  28.671  28.938  1.00  0.00     0.037 A 
ATOM     51  C   UNL A   1      46.703  28.455  29.518  1.00  0.00     0.049 A 
ATOM     52  C   UNL A   1      41.239  29.646  29.442  1.00  0.00     0.074 A 
ATOM     53  C   UNL A   1      47.557  29.473  29.904  1.00  0.00     0.029 A 
ATOM     54  N   UNL A   1      45.414  28.960  29.607  1.00  0.00    -0.354 N 
ATOM     55  N   UNL A   1      42.544  29.522  29.498  1.00  0.00    -0.248 NA
ATOM     56  C   UNL A   1      40.735  30.930  29.945  1.00  0.00     0.031 C 
ATOM     57  C   UNL A   1      46.782  30.570  30.293  1.00  0.00     0.029 A 
ATOM     58  C   UNL A   1      45.449  30.264  30.073  1.00  0.00     0.049 A 
ATOM     59  H   UNL A   1      44.596  28.464  29.373  1.00  0.00     0.167 HD
ATOM     60  C   UNL A   1      43.016  30.725  30.009  1.00  0.00     0.074 A 
ATOM     61  C   UNL A   1      41.860  31.570  30.224  1.00  0.00     0.031 C 
ATOM     62  C   UNL A   1      44.292  31.099  30.276  1.00  0.00     0.037 A 
BRANCH  49  63
ATOM     63  C   UNL A   1      48.479  26.704  29.112  1.00  0.00     0.057 A 
ATOM     64  C   UNL A   1      49.037  26.079  30.236  1.00  0.00     0.134 A 
ATOM     65  C   UNL A   1      49.330  26.947  28.024  1.00  0.00     0.134 A 
ATOM     66  F   UNL A   1      48.287  25.824  31.318  1.00  0.00    -0.206 F 
ATOM     67  C   UNL A   1      50.383  25.711  30.277  1.00  0.00     0.040 A 
ATOM     68  C   UNL A   1      50.670  26.553  28.041  1.00  0.00     0.040 A 
ATOM     69  F   UNL A   1      48.861  27.534  26.912  1.00  0.00    -0.206 F 
ATOM     70  C   UNL A   1      51.201  25.939  29.172  1.00  0.00     0.006 A 
ENDBRANCH  49  63
BRANCH  50  71
ATOM     71  C   UNL A   1      38.770  29.033  28.935  1.00  0.00     0.057 A 
ATOM     72  C   UNL A   1      37.986  28.924  30.090  1.00  0.00     0.134 A 
ATOM     73  C   UNL A   1      38.158  29.558  27.789  1.00  0.00     0.134 A 
ATOM     74  F   UNL A   1      38.505  28.420  31.218  1.00  0.00    -0.206 F 
ATOM     75  C   UNL A   1      36.651  29.329  30.110  1.00  0.00     0.040 A 
ATOM     76  C   UNL A   1      36.836  30.003  27.807  1.00  0.00     0.040 A 
ATOM     77  F   UNL A   1      38.859  29.702  26.655  1.00  0.00    -0.206 F 
ATOM     78  C   UNL A   1      36.079  29.888  28.970  1.00  0.00     0.006 A 
ENDBRANCH  50  71
BRANCH  62  79
ATOM     79  C   UNL A   1      44.505  32.501  30.773  1.00  0.00     0.057 A 
ATOM     80  C   UNL A   1      44.682  33.554  29.866  1.00  0.00     0.134 A 
ATOM     81  C   UNL A   1      44.546  32.813  32.139  1.00  0.00     0.134 A 
ATOM     82  F   UNL A   1      44.666  33.327  28.545  1.00  0.00    -0.206 F 
ATOM     83  C   UNL A   1      44.887  34.865  30.299  1.00  0.00     0.040 A 
ATOM     84  C   UNL A   1      44.713  34.126  32.583  1.00  0.00     0.040 A 
ATOM     85  F   UNL A   1      44.373  31.854  33.062  1.00  0.00    -0.206 F 
ATOM     86  C   UNL A   1      44.890  35.156  31.661  1.00  0.00     0.006 A 
ENDBRANCH  62  79
ENDBRANCH  36  37
ENDBRANCH  28  31
ENDBRANCH  26  27
ENDBRANCH  25  26
ENDBRANCH   1  25
TORSDOF 15
ENDMDL
MODEL 2
REMARK VINA RESULT:     -11.8      5.247     10.105
REMARK SMILES N#Cc1ccc2c(c1)C=C(C(=O)NCCCCCCNC(=O)c1ccc(-c3c4nc(c(-c5c(F)cccc5F)c5ccc([nH]5)c(-c5c(F)cccc5F)c5nc(c(-c6c(F)cccc6F)c6ccc3[nH]6)C=C5)C=C4)cc1)[C@@H](C(F)(F)F)O2
REMARK SMILES IDX 17 1 16 2 15 3 14 4 13 5 11 6 12 7 10 9 3 10 4 11 8 12 5 13
REMARK SMILES IDX 7 14 6 15 9 16 82 17 77 18 2 19 1 20 78 21 79 22 80 23 81 24
REMARK SMILES IDX 18 25 19 26 20 27 21 28 22 30 23 31 24 32 76 33 25 34 75 35
REMARK SMILES IDX 26 36 27 37 28 38 69 39 29 40 74 41 68 42 70 43 30 44 73 45
REMARK SMILES IDX 67 46 66 47 31 49 57 50 40 51 56 52 41 53 44 54 55 55 71 56
REMARK SMILES IDX 42 57 43 58 54 60 72 61 45 62 32 63 33 64 38 65 34 66 35 67
REMARK SMILES IDX 37 68 39 69 36 70 58 71 59 72 64 73 60 74 61 75 63 76 65 77
REMARK SMILES IDX 62 78 46 79 47 80 52 81 48 82 49 83 51 84 53 85 50 86
REMARK H PARENT 13 8 20 29 70 48 44 59
REMARK Flexibility Score: inf
ROOT
ATOM      1  C   UNL A   1      31.765  30.517  26.457  1.00  0.00     0.002 C 
ENDROOT
BRANCH   1   2
ATOM      2  C   UNL A   1      33.021  29.912  27.097  1.00  0.00     0.002 C 
BRANCH   2   3
ATOM      3  C   UNL A   1      33.897  29.102  26.140  1.00  0.00     0.021 C 
BRANCH   3   4
ATOM      4  C   UNL A   1      33.654  27.602  26.239  1.00  0.00     0.116 C 
BRANCH   4   5
ATOM      5  N   UNL A   1      33.777  26.949  24.948  1.00  0.00    -0.352 N 
ATOM      6  C   UNL A   1      32.995  26.746  23.862  1.00  0.00     0.251 C 
ATOM      7  O   UNL A   1      33.526  26.137  22.929  1.00  0.00    -0.270 OA
ATOM      8  H   UNL A   1      34.667  26.545  24.832  1.00  0.00     0.163 HD
BRANCH   6   9
ATOM      9  C   UNL A   1      31.575  27.197  23.737  1.00  0.00     0.067 C 
ATOM     10  C   UNL A   1      28.436  30.715  22.646  1.00  0.00     0.053 A 
ATOM     11  C   UNL A   1      27.380  29.808  22.776  1.00  0.00     0.023 A 
ATOM     12  C   UNL A   1      29.759  30.285  22.833  1.00  0.00     0.031 A 
ATOM     13  C   UNL A   1      27.641  28.480  23.097  1.00  0.00     0.048 A 
ATOM     14  C   UNL A   1      30.022  28.950  23.155  1.00  0.00     0.018 A 
ATOM     15  C   UNL A   1      28.954  28.064  23.293  1.00  0.00     0.128 A 
ATOM     16  C   UNL A   1      31.387  28.457  23.303  1.00  0.00     0.025 C 
ATOM     17  O   UNL A   1      29.113  26.744  23.582  1.00  0.00    -0.475 OA
ATOM     18  C   UNL A   1      30.402  26.333  24.098  1.00  0.00     0.314 C 
BRANCH  10  19
ATOM     19  C   UNL A   1      28.160  32.078  22.311  1.00  0.00     0.099 C 
ATOM     20  N   UNL A   1      27.938  33.190  22.053  1.00  0.00    -0.192 NA
ENDBRANCH  10  19
BRANCH  18  21
ATOM     21  C   UNL A   1      30.278  26.105  25.616  1.00  0.00     0.429 C 
ATOM     22  F   UNL A   1      29.009  25.750  25.939  1.00  0.00    -0.167 F 
ATOM     23  F   UNL A   1      31.076  25.111  26.070  1.00  0.00    -0.167 F 
ATOM     24  F   UNL A   1      30.587  27.211  26.331  1.00  0.00    -0.167 F 
ENDBRANCH  18  21
ENDBRANCH   6   9
ENDBRANCH   4   5
ENDBRANCH   3   4
ENDBRANCH   2   3
ENDBRANCH   1   2
BRANCH   1  25
ATOM     25  C   UNL A   1      31.475  31.965  26.854  1.00  0.00     0.021 C 
BRANCH  25  26
ATOM     26  C   UNL A   1      32.695  32.719  27.362  1.00  0.00     0.116 C 
BRANCH  26  27
ATOM     27  N   UNL A   1      32.397  34.117  27.636  1.00  0.00    -0.352 N 
ATOM     28  C   UNL A   1      32.978  34.968  28.542  1.00  0.00     0.251 C 
ATOM     29  H   UNL A   1      31.676  34.509  27.092  1.00  0.00     0.163 HD
ATOM     30  O   UNL A   1      32.470  36.056  28.792  1.00  0.00    -0.269 OA
BRANCH  28  31
ATOM     31  C   UNL A   1      34.206  34.539  29.239  1.00  0.00     0.039 A 
ATOM     32  C   UNL A   1      35.443  34.629  28.600  1.00  0.00     0.014 A 
ATOM     33  C   UNL A   1      34.106  33.980  30.514  1.00  0.00     0.014 A 
ATOM     34  C   UNL A   1      36.541  33.979  29.142  1.00  0.00     0.010 A 
ATOM     35  C   UNL A   1      35.241  33.423  31.108  1.00  0.00     0.010 A 
ATOM     36  C   UNL A   1      36.453  33.362  30.399  1.00  0.00    -0.014 A 
BRANCH  36  37
ATOM     37  C   UNL A   1      37.623  32.624  30.940  1.00  0.00     0.031 A 
ATOM     38  C   UNL A   1      38.280  33.067  32.221  1.00  0.00     0.074 A 
ATOM     39  C   UNL A   1      38.067  31.523  30.301  1.00  0.00     0.049 A 
ATOM     40  N   UNL A   1      39.334  32.575  32.824  1.00  0.00    -0.248 NA
ATOM     41  C   UNL A   1      37.680  34.217  32.914  1.00  0.00     0.031 C 
ATOM     42  C   UNL A   1      37.496  30.969  29.071  1.00  0.00     0.029 A 
ATOM     43  N   UNL A   1      39.094  30.668  30.604  1.00  0.00    -0.354 N 
ATOM     44  C   UNL A   1      39.532  33.364  33.951  1.00  0.00     0.074 A 
ATOM     45  C   UNL A   1      38.515  34.392  33.928  1.00  0.00     0.031 C 
ATOM     46  C   UNL A   1      38.156  29.849  28.745  1.00  0.00     0.029 A 
ATOM     47  C   UNL A   1      39.245  29.651  29.693  1.00  0.00     0.049 A 
ATOM     48  H   UNL A   1      39.668  30.772  31.397  1.00  0.00     0.167 HD
ATOM     49  C   UNL A   1      40.468  33.236  34.923  1.00  0.00     0.037 A 
ATOM     50  C   UNL A   1      40.181  28.687  29.610  1.00  0.00     0.037 A 
ATOM     51  C   UNL A   1      41.479  32.210  34.942  1.00  0.00     0.049 A 
ATOM     52  C   UNL A   1      41.268  28.634  30.647  1.00  0.00     0.074 A 
ATOM     53  C   UNL A   1      42.467  31.992  35.887  1.00  0.00     0.029 A 
ATOM     54  N   UNL A   1      41.639  31.238  33.966  1.00  0.00    -0.354 N 
ATOM     55  N   UNL A   1      41.436  29.379  31.714  1.00  0.00    -0.248 NA
ATOM     56  C   UNL A   1      42.300  27.607  30.464  1.00  0.00     0.031 C 
ATOM     57  C   UNL A   1      43.266  30.931  35.447  1.00  0.00     0.029 A 
ATOM     58  C   UNL A   1      42.728  30.437  34.270  1.00  0.00     0.049 A 
ATOM     59  H   UNL A   1      41.062  31.132  33.175  1.00  0.00     0.167 HD
ATOM     60  C   UNL A   1      42.572  28.886  32.345  1.00  0.00     0.074 A 
ATOM     61  C   UNL A   1      43.035  27.766  31.554  1.00  0.00     0.031 C 
ATOM     62  C   UNL A   1      43.176  29.319  33.479  1.00  0.00     0.037 A 
BRANCH  49  63
ATOM     63  C   UNL A   1      40.461  34.251  36.032  1.00  0.00     0.057 A 
ATOM     64  C   UNL A   1      41.220  35.425  35.927  1.00  0.00     0.134 A 
ATOM     65  C   UNL A   1      39.732  34.061  37.214  1.00  0.00     0.134 A 
ATOM     66  F   UNL A   1      41.952  35.669  34.830  1.00  0.00    -0.206 F 
ATOM     67  C   UNL A   1      41.251  36.371  36.954  1.00  0.00     0.040 A 
ATOM     68  C   UNL A   1      39.728  35.016  38.233  1.00  0.00     0.040 A 
ATOM     69  F   UNL A   1      38.977  32.964  37.379  1.00  0.00    -0.206 F 
ATOM     70  C   UNL A   1      40.495  36.172  38.107  1.00  0.00     0.006 A 
ENDBRANCH  49  63
BRANCH  50  71
ATOM     71  C   UNL A   1      40.164  27.714  28.488  1.00  0.00     0.057 A 
ATOM     72  C   UNL A   1      40.802  27.989  27.272  1.00  0.00     0.134 A 
ATOM     73  C   UNL A   1      39.562  26.457  28.629  1.00  0.00     0.134 A 
ATOM     74  F   UNL A   1      41.390  29.177  27.067  1.00  0.00    -0.206 F 
ATOM     75  C   UNL A   1      40.851  27.050  26.242  1.00  0.00     0.040 A 
ATOM     76  C   UNL A   1      39.636  25.495  27.620  1.00  0.00     0.040 A 
ATOM     77  F   UNL A   1      38.947  26.127  29.774  1.00  0.00    -0.206 F 
ATOM     78  C   UNL A   1      40.282  25.792  26.422  1.00  0.00     0.006 A 
ENDBRANCH  50  71
BRANCH  62  79
ATOM     79  C   UNL A   1      44.370  28.543  33.959  1.00  0.00     0.057 A 
ATOM     80  C   UNL A   1      45.661  28.910  33.558  1.00  0.00     0.134 A 
ATOM     81  C   UNL A   1      44.249  27.432  34.805  1.00  0.00     0.134 A 
ATOM     82  F   UNL A   1      45.850  29.956  32.740  1.00  0.00    -0.206 F 
ATOM     83  C   UNL A   1      46.787  28.205  33.985  1.00  0.00     0.040 A 
ATOM     84  C   UNL A   1      45.372  26.742  35.268  1.00  0.00     0.040 A 
ATOM     85  F   UNL A   1      43.043  27.032  35.236  1.00  0.00    -0.206 F 
ATOM     86  C   UNL A   1      46.645  27.125  34.852  1.00  0.00     0.006 A 
ENDBRANCH  62  79
ENDBRANCH  36  37
ENDBRANCH  28  31
ENDBRANCH  26  27
ENDBRANCH  25  26
ENDBRANCH   1  25
TORSDOF 15
ENDMDL
MODEL 3
REMARK VINA RESULT:     -11.8      0.999      6.266
REMARK SMILES N#Cc1ccc2c(c1)C=C(C(=O)NCCCCCCNC(=O)c1ccc(-c3c4nc(c(-c5c(F)cccc5F)c5ccc([nH]5)c(-c5c(F)cccc5F)c5nc(c(-c6c(F)cccc6F)c6ccc3[nH]6)C=C5)C=C4)cc1)[C@@H](C(F)(F)F)O2
REMARK SMILES IDX 17 1 16 2 15 3 14 4 13 5 11 6 12 7 10 9 3 10 4 11 8 12 5 13
REMARK SMILES IDX 7 14 6 15 9 16 82 17 77 18 2 19 1 20 78 21 79 22 80 23 81 24
REMARK SMILES IDX 18 25 19 26 20 27 21 28 22 30 23 31 24 32 76 33 25 34 75 35
REMARK SMILES IDX 26 36 27 37 28 38 69 39 29 40 74 41 68 42 70 43 30 44 73 45
REMARK SMILES IDX 67 46 66 47 31 49 57 50 40 51 56 52 41 53 44 54 55 55 71 56
REMARK SMILES IDX 42 57 43 58 54 60 72 61 45 62 32 63 33 64 38 65 34 66 35 67
REMARK SMILES IDX 37 68 39 69 36 70 58 71 59 72 64 73 60 74 61 75 63 76 65 77
REMARK SMILES IDX 62 78 46 79 47 80 52 81 48 82 49 83 51 84 53 85 50 86
REMARK H PARENT 13 8 20 29 70 48 44 59
REMARK Flexibility Score: inf
ROOT
ATOM      1  C   UNL A   1      36.954  21.625  24.607  1.00  0.00     0.002 C 
ENDROOT
BRANCH   1   2
ATOM      2  C   UNL A   1      37.443  22.900  25.307  1.00  0.00     0.002 C 
BRANCH   2   3
ATOM      3  C   UNL A   1      36.374  23.626  26.126  1.00  0.00     0.021 C 
BRANCH   3   4
ATOM      4  C   UNL A   1      35.335  24.324  25.260  1.00  0.00     0.116 C 
BRANCH   4   5
ATOM      5  N   UNL A   1      34.007  24.247  25.843  1.00  0.00    -0.352 N 
ATOM      6  C   UNL A   1      32.944  23.412  25.779  1.00  0.00     0.251 C 
ATOM      7  O   UNL A   1      31.982  23.718  26.490  1.00  0.00    -0.270 OA
ATOM      8  H   UNL A   1      33.833  25.007  26.445  1.00  0.00     0.163 HD
BRANCH   6   9
ATOM      9  C   UNL A   1      32.872  22.187  24.925  1.00  0.00     0.067 C 
ATOM     10  C   UNL A   1      33.911  17.499  24.324  1.00  0.00     0.053 A 
ATOM     11  C   UNL A   1      33.144  17.482  23.156  1.00  0.00     0.023 A 
ATOM     12  C   UNL A   1      34.021  18.678  25.077  1.00  0.00     0.031 A 
ATOM     13  C   UNL A   1      32.493  18.638  22.736  1.00  0.00     0.048 A 
ATOM     14  C   UNL A   1      33.366  19.840  24.656  1.00  0.00     0.018 A 
ATOM     15  C   UNL A   1      32.616  19.807  23.481  1.00  0.00     0.128 A 
ATOM     16  C   UNL A   1      33.413  21.069  25.442  1.00  0.00     0.025 C 
ATOM     17  O   UNL A   1      31.927  20.879  23.006  1.00  0.00    -0.475 OA
ATOM     18  C   UNL A   1      32.267  22.176  23.552  1.00  0.00     0.314 C 
BRANCH  10  19
ATOM     19  C   UNL A   1      34.574  16.305  24.752  1.00  0.00     0.099 C 
ATOM     20  N   UNL A   1      35.111  15.339  25.113  1.00  0.00    -0.192 NA
ENDBRANCH  10  19
BRANCH  18  21
ATOM     21  C   UNL A   1      33.122  22.939  22.522  1.00  0.00     0.429 C 
ATOM     22  F   UNL A   1      32.867  24.269  22.590  1.00  0.00    -0.167 F 
ATOM     23  F   UNL A   1      34.452  22.798  22.728  1.00  0.00    -0.167 F 
ATOM     24  F   UNL A   1      32.878  22.541  21.252  1.00  0.00    -0.167 F 
ENDBRANCH  18  21
ENDBRANCH   6   9
ENDBRANCH   4   5
ENDBRANCH   3   4
ENDBRANCH   2   3
ENDBRANCH   1   2
BRANCH   1  25
ATOM     25  C   UNL A   1      37.792  20.376  24.888  1.00  0.00     0.021 C 
BRANCH  25  26
ATOM     26  C   UNL A   1      39.017  20.640  25.752  1.00  0.00     0.116 C 
BRANCH  26  27
ATOM     27  N   UNL A   1      39.862  19.462  25.873  1.00  0.00    -0.352 N 
ATOM     28  C   UNL A   1      41.213  19.380  26.096  1.00  0.00     0.251 C 
ATOM     29  H   UNL A   1      39.397  18.597  25.783  1.00  0.00     0.163 HD
ATOM     30  O   UNL A   1      41.806  18.315  25.964  1.00  0.00    -0.269 OA
BRANCH  28  31
ATOM     31  C   UNL A   1      41.951  20.604  26.464  1.00  0.00     0.039 A 
ATOM     32  C   UNL A   1      42.107  20.952  27.807  1.00  0.00     0.014 A 
ATOM     33  C   UNL A   1      42.429  21.442  25.455  1.00  0.00     0.014 A 
ATOM     34  C   UNL A   1      42.552  22.224  28.136  1.00  0.00     0.010 A 
ATOM     35  C   UNL A   1      42.979  22.679  25.796  1.00  0.00     0.010 A 
ATOM     36  C   UNL A   1      42.986  23.106  27.135  1.00  0.00    -0.014 A 
BRANCH  36  37
ATOM     37  C   UNL A   1      43.408  24.482  27.501  1.00  0.00     0.031 A 
ATOM     38  C   UNL A   1      42.385  25.511  27.908  1.00  0.00     0.074 A 
ATOM     39  C   UNL A   1      44.718  24.795  27.511  1.00  0.00     0.049 A 
ATOM     40  N   UNL A   1      42.559  26.772  28.221  1.00  0.00    -0.248 NA
ATOM     41  C   UNL A   1      40.984  25.070  27.968  1.00  0.00     0.031 C 
ATOM     42  C   UNL A   1      45.810  23.879  27.171  1.00  0.00     0.029 A 
ATOM     43  N   UNL A   1      45.355  25.966  27.829  1.00  0.00    -0.354 N 
ATOM     44  C   UNL A   1      41.292  27.275  28.495  1.00  0.00     0.074 A 
ATOM     45  C   UNL A   1      40.355  26.196  28.272  1.00  0.00     0.031 C 
ATOM     46  C   UNL A   1      46.981  24.512  27.334  1.00  0.00     0.029 A 
ATOM     47  C   UNL A   1      46.722  25.896  27.709  1.00  0.00     0.049 A 
ATOM     48  H   UNL A   1      44.879  26.779  28.117  1.00  0.00     0.167 HD
ATOM     49  C   UNL A   1      40.943  28.518  28.905  1.00  0.00     0.037 A 
ATOM     50  C   UNL A   1      47.659  26.851  27.849  1.00  0.00     0.037 A 
ATOM     51  C   UNL A   1      41.880  29.590  29.125  1.00  0.00     0.049 A 
ATOM     52  C   UNL A   1      47.231  28.248  28.204  1.00  0.00     0.074 A 
ATOM     53  C   UNL A   1      41.627  30.883  29.549  1.00  0.00     0.029 A 
ATOM     54  N   UNL A   1      43.250  29.497  28.929  1.00  0.00    -0.354 N 
ATOM     55  N   UNL A   1      46.031  28.706  28.472  1.00  0.00    -0.248 NA
ATOM     56  C   UNL A   1      48.290  29.262  28.272  1.00  0.00     0.031 C 
ATOM     57  C   UNL A   1      42.833  31.590  29.542  1.00  0.00     0.029 A 
ATOM     58  C   UNL A   1      43.850  30.717  29.192  1.00  0.00     0.049 A 
ATOM     59  H   UNL A   1      43.726  28.682  28.646  1.00  0.00     0.167 HD
ATOM     60  C   UNL A   1      46.199  30.052  28.774  1.00  0.00     0.074 A 
ATOM     61  C   UNL A   1      47.617  30.327  28.678  1.00  0.00     0.031 C 
ATOM     62  C   UNL A   1      45.264  30.978  29.101  1.00  0.00     0.037 A 
BRANCH  49  63
ATOM     63  C   UNL A   1      39.481  28.797  29.113  1.00  0.00     0.057 A 
ATOM     64  C   UNL A   1      38.686  29.258  28.054  1.00  0.00     0.134 A 
ATOM     65  C   UNL A   1      38.860  28.638  30.360  1.00  0.00     0.134 A 
ATOM     66  F   UNL A   1      39.214  29.444  26.836  1.00  0.00    -0.206 F 
ATOM     67  C   UNL A   1      37.331  29.548  28.228  1.00  0.00     0.040 A 
ATOM     68  C   UNL A   1      37.498  28.893  30.538  1.00  0.00     0.040 A 
ATOM     69  F   UNL A   1      39.559  28.192  31.416  1.00  0.00    -0.206 F 
ATOM     70  C   UNL A   1      36.732  29.356  29.471  1.00  0.00     0.006 A 
ENDBRANCH  49  63
BRANCH  50  71
ATOM     71  C   UNL A   1      49.093  26.541  27.616  1.00  0.00     0.057 A 
ATOM     72  C   UNL A   1      49.939  26.161  28.666  1.00  0.00     0.134 A 
ATOM     73  C   UNL A   1      49.637  26.556  26.326  1.00  0.00     0.134 A 
ATOM     74  F   UNL A   1      49.487  26.135  29.928  1.00  0.00    -0.206 F 
ATOM     75  C   UNL A   1      51.268  25.799  28.442  1.00  0.00     0.040 A 
ATOM     76  C   UNL A   1      50.952  26.160  26.083  1.00  0.00     0.040 A 
ATOM     77  F   UNL A   1      48.874  26.897  25.277  1.00  0.00    -0.206 F 
ATOM     78  C   UNL A   1      51.772  25.781  27.143  1.00  0.00     0.006 A 
ENDBRANCH  50  71
BRANCH  62  79
ATOM     79  C   UNL A   1      45.755  32.358  29.437  1.00  0.00     0.057 A 
ATOM     80  C   UNL A   1      46.119  32.679  30.752  1.00  0.00     0.134 A 
ATOM     81  C   UNL A   1      45.862  33.370  28.474  1.00  0.00     0.134 A 
ATOM     82  F   UNL A   1      46.032  31.763  31.727  1.00  0.00    -0.206 F 
ATOM     83  C   UNL A   1      46.574  33.953  31.094  1.00  0.00     0.040 A 
ATOM     84  C   UNL A   1      46.351  34.637  28.797  1.00  0.00     0.040 A 
ATOM     85  F   UNL A   1      45.541  33.128  27.193  1.00  0.00    -0.206 F 
ATOM     86  C   UNL A   1      46.703  34.933  30.113  1.00  0.00     0.006 A 
ENDBRANCH  62  79
ENDBRANCH  36  37
ENDBRANCH  28  31
ENDBRANCH  26  27
ENDBRANCH  25  26
ENDBRANCH   1  25
TORSDOF 15
ENDMDL
