MODEL 1
REMARK VINA RESULT:     -12.3      0.000      0.000
REMARK SMILES Cc1ccc(NC(=O)C[C@H]2C(=O)NCCN2C(=O)CCC(=O)NCCCCCCNC(=O)c2ccc(-c3c4nc(c(-c5c(F)cccc5F)c5ccc([nH]5)c(-c5c(F)cccc5F)c5nc(c(-c6c(F)cccc6F)c6ccc3[nH]6)C=C5)C=C4)cc2)c(C)c1
REMARK SMILES IDX 24 1 23 2 21 3 22 4 20 6 19 7 17 8 18 9 16 10 10 11 11 12
REMARK SMILES IDX 12 13 13 14 15 15 14 16 9 18 7 19 6 20 8 22 5 23 1 24 2 25
REMARK SMILES IDX 3 26 89 27 4 28 87 29 88 30 25 31 26 32 27 33 28 34 29 35
REMARK SMILES IDX 30 36 31 37 32 39 33 40 34 41 86 42 35 43 85 44 36 45 37 46
REMARK SMILES IDX 38 47 79 48 39 49 84 50 78 51 80 52 40 53 83 54 77 55 76 56
REMARK SMILES IDX 41 58 67 59 50 60 66 61 51 62 54 63 65 64 81 65 52 66 53 67
REMARK SMILES IDX 64 69 82 70 55 71 42 72 43 73 48 74 44 75 45 76 47 77 49 78
REMARK SMILES IDX 46 79 68 80 69 81 74 82 70 83 71 84 73 85 75 86 72 87 56 88
REMARK SMILES IDX 57 89 62 90 58 91 59 92 61 93 63 94 60 95
REMARK H PARENT 23 5 13 17 6 21 30 38 80 57 54 68
REMARK Flexibility Score: inf
ROOT
ATOM      1  C   UNL A   1      34.243  23.832  23.693  1.00  0.00     0.116 C 
ENDROOT
BRANCH   1   2
ATOM      2  N   UNL A   1      33.993  24.408  22.367  1.00  0.00    -0.356 N 
ATOM      3  C   UNL A   1      33.038  25.171  21.763  1.00  0.00     0.220 C 
ATOM      4  O   UNL A   1      33.248  25.626  20.635  1.00  0.00    -0.275 OA
ATOM      5  H   UNL A   1      34.717  24.181  21.739  1.00  0.00     0.163 HD
BRANCH   3   6
ATOM      6  C   UNL A   1      31.688  25.335  22.346  1.00  0.00     0.110 C 
BRANCH   6   7
ATOM      7  C   UNL A   1      31.289  26.775  22.105  1.00  0.00     0.110 C 
BRANCH   7   8
ATOM      8  C   UNL A   1      32.024  27.610  23.098  1.00  0.00     0.223 C 
ATOM      9  O   UNL A   1      32.512  28.667  22.666  1.00  0.00    -0.275 OA
BRANCH   8  10
ATOM     10  N   UNL A   1      32.244  27.191  24.423  1.00  0.00    -0.328 N 
ATOM     11  C   UNL A   1      31.220  26.800  25.531  1.00  0.00     0.183 C 
ATOM     12  C   UNL A   1      31.632  27.421  26.904  1.00  0.00     0.243 C 
ATOM     13  O   UNL A   1      30.849  27.508  27.848  1.00  0.00    -0.273 OA
ATOM     14  N   UNL A   1      32.896  27.904  27.090  1.00  0.00    -0.353 N 
ATOM     15  C   UNL A   1      33.649  27.491  24.768  1.00  0.00     0.141 C 
ATOM     16  C   UNL A   1      34.013  27.761  26.206  1.00  0.00     0.137 C 
ATOM     17  H   UNL A   1      33.057  28.404  27.923  1.00  0.00     0.163 HD
BRANCH  11  18
ATOM     18  C   UNL A   1      30.242  25.392  25.753  1.00  0.00     0.135 C 
BRANCH  18  19
ATOM     19  C   UNL A   1      30.278  23.919  26.546  1.00  0.00     0.227 C 
ATOM     20  N   UNL A   1      31.021  22.739  26.490  1.00  0.00    -0.326 N 
ATOM     21  H   UNL A   1      30.646  22.127  27.164  1.00  0.00     0.169 HD
ATOM     22  O   UNL A   1      29.422  23.817  27.457  1.00  0.00    -0.275 OA
BRANCH  20  23
ATOM     23  C   UNL A   1      32.113  22.050  25.848  1.00  0.00     0.044 A 
ATOM     24  C   UNL A   1      34.037  18.489  24.462  1.00  0.00     0.044 C 
ATOM     25  C   UNL A   1      33.617  19.910  24.745  1.00  0.00    -0.051 A 
ATOM     26  C   UNL A   1      32.628  20.535  23.986  1.00  0.00     0.005 A 
ATOM     27  C   UNL A   1      34.041  20.562  25.906  1.00  0.00     0.009 A 
ATOM     28  C   UNL A   1      31.919  21.637  24.516  1.00  0.00     0.026 A 
ATOM     29  C   UNL A   1      33.319  21.661  26.442  1.00  0.00    -0.027 A 
ATOM     30  C   UNL A   1      33.925  22.420  27.582  1.00  0.00     0.046 C 
ENDBRANCH  20  23
ENDBRANCH  18  19
ENDBRANCH  11  18
ENDBRANCH   8  10
ENDBRANCH   7   8
ENDBRANCH   6   7
ENDBRANCH   3   6
ENDBRANCH   1   2
BRANCH   1  31
ATOM     31  C   UNL A   1      35.540  24.178  24.551  1.00  0.00     0.021 C 
BRANCH  31  32
ATOM     32  C   UNL A   1      36.700  23.247  24.979  1.00  0.00     0.002 C 
BRANCH  32  33
ATOM     33  C   UNL A   1      36.989  21.986  24.134  1.00  0.00     0.002 C 
BRANCH  33  34
ATOM     34  C   UNL A   1      37.454  20.771  24.914  1.00  0.00     0.021 C 
BRANCH  34  35
ATOM     35  C   UNL A   1      38.754  20.984  25.665  1.00  0.00     0.116 C 
BRANCH  35  36
ATOM     36  N   UNL A   1      39.642  19.830  25.624  1.00  0.00    -0.352 N 
ATOM     37  C   UNL A   1      40.980  19.757  25.977  1.00  0.00     0.251 C 
ATOM     38  H   UNL A   1      39.238  18.992  25.305  1.00  0.00     0.163 HD
ATOM     39  O   UNL A   1      41.630  18.761  25.801  1.00  0.00    -0.269 OA
BRANCH  37  40
ATOM     40  C   UNL A   1      41.597  20.979  26.545  1.00  0.00     0.039 A 
ATOM     41  C   UNL A   1      42.127  21.932  25.675  1.00  0.00     0.014 A 
ATOM     42  C   UNL A   1      41.522  21.221  27.916  1.00  0.00     0.014 A 
ATOM     43  C   UNL A   1      42.497  23.179  26.180  1.00  0.00     0.010 A 
ATOM     44  C   UNL A   1      41.784  22.496  28.394  1.00  0.00     0.010 A 
ATOM     45  C   UNL A   1      42.278  23.487  27.532  1.00  0.00    -0.014 A 
BRANCH  45  46
ATOM     46  C   UNL A   1      42.570  24.834  28.079  1.00  0.00     0.031 A 
ATOM     47  C   UNL A   1      43.973  25.175  28.502  1.00  0.00     0.074 A 
ATOM     48  C   UNL A   1      41.570  25.715  28.273  1.00  0.00     0.049 A 
ATOM     49  N   UNL A   1      44.422  26.256  29.083  1.00  0.00    -0.248 NA
ATOM     50  C   UNL A   1      44.999  24.141  28.282  1.00  0.00     0.031 C 
ATOM     51  C   UNL A   1      40.155  25.478  27.971  1.00  0.00     0.029 A 
ATOM     52  N   UNL A   1      41.589  26.990  28.779  1.00  0.00    -0.354 N 
ATOM     53  C   UNL A   1      45.769  26.020  29.321  1.00  0.00     0.074 A 
ATOM     54  C   UNL A   1      46.052  24.673  28.882  1.00  0.00     0.031 C 
ATOM     55  C   UNL A   1      39.450  26.582  28.267  1.00  0.00     0.029 A 
ATOM     56  C   UNL A   1      40.354  27.592  28.807  1.00  0.00     0.049 A 
ATOM     57  H   UNL A   1      42.410  27.432  29.095  1.00  0.00     0.167 HD
ATOM     58  C   UNL A   1      46.699  26.863  29.830  1.00  0.00     0.037 A 
ATOM     59  C   UNL A   1      39.996  28.825  29.216  1.00  0.00     0.037 A 
ATOM     60  C   UNL A   1      46.427  28.221  30.215  1.00  0.00     0.049 A 
ATOM     61  C   UNL A   1      41.054  29.760  29.731  1.00  0.00     0.074 A 
ATOM     62  C   UNL A   1      47.311  29.182  30.669  1.00  0.00     0.029 A 
ATOM     63  N   UNL A   1      45.172  28.811  30.179  1.00  0.00    -0.354 N 
ATOM     64  N   UNL A   1      42.339  29.548  29.885  1.00  0.00    -0.248 NA
ATOM     65  C   UNL A   1      40.615  31.107  30.121  1.00  0.00     0.031 C 
ATOM     66  C   UNL A   1      46.586  30.349  30.935  1.00  0.00     0.029 A 
ATOM     67  C   UNL A   1      45.257  30.123  30.611  1.00  0.00     0.049 A 
ATOM     68  H   UNL A   1      44.345  28.364  29.887  1.00  0.00     0.167 HD
ATOM     69  C   UNL A   1      42.866  30.741  30.363  1.00  0.00     0.074 A 
ATOM     70  C   UNL A   1      41.764  31.675  30.461  1.00  0.00     0.031 C 
ATOM     71  C   UNL A   1      44.147  31.037  30.691  1.00  0.00     0.037 A 
BRANCH  58  72
ATOM     72  C   UNL A   1      48.095  26.338  29.975  1.00  0.00     0.057 A 
ATOM     73  C   UNL A   1      49.023  26.409  28.926  1.00  0.00     0.134 A 
ATOM     74  C   UNL A   1      48.523  25.762  31.178  1.00  0.00     0.134 A 
ATOM     75  F   UNL A   1      48.672  26.932  27.743  1.00  0.00    -0.206 F 
ATOM     76  C   UNL A   1      50.316  25.901  29.059  1.00  0.00     0.040 A 
ATOM     77  C   UNL A   1      49.821  25.275  31.331  1.00  0.00     0.040 A 
ATOM     78  F   UNL A   1      47.686  25.663  32.221  1.00  0.00    -0.206 F 
ATOM     79  C   UNL A   1      50.719  25.336  30.267  1.00  0.00     0.006 A 
ENDBRANCH  58  72
BRANCH  59  80
ATOM     80  C   UNL A   1      38.583  29.262  29.109  1.00  0.00     0.057 A 
ATOM     81  C   UNL A   1      37.734  29.229  30.223  1.00  0.00     0.134 A 
ATOM     82  C   UNL A   1      38.044  29.721  27.902  1.00  0.00     0.134 A 
ATOM     83  F   UNL A   1      38.190  28.784  31.404  1.00  0.00    -0.206 F 
ATOM     84  C   UNL A   1      36.397  29.617  30.137  1.00  0.00     0.040 A 
ATOM     85  C   UNL A   1      36.712  30.131  27.806  1.00  0.00     0.040 A 
ATOM     86  F   UNL A   1      38.806  29.785  26.801  1.00  0.00    -0.206 F 
ATOM     87  C   UNL A   1      35.883  30.074  28.925  1.00  0.00     0.006 A 
ENDBRANCH  59  80
BRANCH  71  88
ATOM     88  C   UNL A   1      44.428  32.434  31.153  1.00  0.00     0.057 A 
ATOM     89  C   UNL A   1      44.408  32.778  32.510  1.00  0.00     0.134 A 
ATOM     90  C   UNL A   1      44.764  33.434  30.233  1.00  0.00     0.134 A 
ATOM     91  F   UNL A   1      44.081  31.866  33.438  1.00  0.00    -0.206 F 
ATOM     92  C   UNL A   1      44.694  34.076  32.934  1.00  0.00     0.040 A 
ATOM     93  C   UNL A   1      45.075  34.729  30.646  1.00  0.00     0.040 A 
ATOM     94  F   UNL A   1      44.809  33.164  28.919  1.00  0.00    -0.206 F 
ATOM     95  C   UNL A   1      45.036  35.054  32.001  1.00  0.00     0.006 A 
ENDBRANCH  71  88
ENDBRANCH  45  46
ENDBRANCH  37  40
ENDBRANCH  35  36
ENDBRANCH  34  35
ENDBRANCH  33  34
ENDBRANCH  32  33
ENDBRANCH  31  32
ENDBRANCH   1  31
TORSDOF 19
ENDMDL
MODEL 2
REMARK VINA RESULT:     -12.1      0.384      5.957
REMARK SMILES Cc1ccc(NC(=O)C[C@H]2C(=O)NCCN2C(=O)CCC(=O)NCCCCCCNC(=O)c2ccc(-c3c4nc(c(-c5c(F)cccc5F)c5ccc([nH]5)c(-c5c(F)cccc5F)c5nc(c(-c6c(F)cccc6F)c6ccc3[nH]6)C=C5)C=C4)cc2)c(C)c1
REMARK SMILES IDX 24 1 23 2 21 3 22 4 20 6 19 7 17 8 18 9 16 10 10 11 11 12
REMARK SMILES IDX 12 13 13 14 15 15 14 16 9 18 7 19 6 20 8 22 5 23 1 24 2 25
REMARK SMILES IDX 3 26 89 27 4 28 87 29 88 30 25 31 26 32 27 33 28 34 29 35
REMARK SMILES IDX 30 36 31 37 32 39 33 40 34 41 86 42 35 43 85 44 36 45 37 46
REMARK SMILES IDX 38 47 79 48 39 49 84 50 78 51 80 52 40 53 83 54 77 55 76 56
REMARK SMILES IDX 41 58 67 59 50 60 66 61 51 62 54 63 65 64 81 65 52 66 53 67
REMARK SMILES IDX 64 69 82 70 55 71 42 72 43 73 48 74 44 75 45 76 47 77 49 78
REMARK SMILES IDX 46 79 68 80 69 81 74 82 70 83 71 84 73 85 75 86 72 87 56 88
REMARK SMILES IDX 57 89 62 90 58 91 59 92 61 93 63 94 60 95
REMARK H PARENT 23 5 13 17 6 21 30 38 80 57 54 68
REMARK Flexibility Score: inf
ROOT
ATOM      1  C   UNL A   1      34.109  24.286  24.055  1.00  0.00     0.116 C 
ENDROOT
BRANCH   1   2
ATOM      2  N   UNL A   1      33.944  24.649  22.643  1.00  0.00    -0.356 N 
ATOM      3  C   UNL A   1      33.021  25.288  21.868  1.00  0.00     0.220 C 
ATOM      4  O   UNL A   1      33.302  25.573  20.700  1.00  0.00    -0.275 OA
ATOM      5  H   UNL A   1      34.713  24.349  22.107  1.00  0.00     0.163 HD
BRANCH   3   6
ATOM      6  C   UNL A   1      31.632  25.502  22.327  1.00  0.00     0.110 C 
BRANCH   6   7
ATOM      7  C   UNL A   1      31.303  26.951  22.040  1.00  0.00     0.110 C 
BRANCH   7   8
ATOM      8  C   UNL A   1      32.006  27.776  23.063  1.00  0.00     0.223 C 
ATOM      9  O   UNL A   1      32.464  28.861  22.669  1.00  0.00    -0.275 OA
BRANCH   8  10
ATOM     10  N   UNL A   1      32.230  27.322  24.377  1.00  0.00    -0.328 N 
ATOM     11  C   UNL A   1      31.210  26.866  25.464  1.00  0.00     0.183 C 
ATOM     12  C   UNL A   1      31.594  27.454  26.859  1.00  0.00     0.243 C 
ATOM     13  O   UNL A   1      30.802  27.488  27.799  1.00  0.00    -0.273 OA
ATOM     14  N   UNL A   1      32.840  27.970  27.070  1.00  0.00    -0.353 N 
ATOM     15  C   UNL A   1      33.622  27.654  24.743  1.00  0.00     0.141 C 
ATOM     16  C   UNL A   1      33.967  27.890  26.191  1.00  0.00     0.137 C 
ATOM     17  H   UNL A   1      32.980  28.448  27.919  1.00  0.00     0.163 HD
BRANCH  11  18
ATOM     18  C   UNL A   1      30.275  25.421  25.634  1.00  0.00     0.135 C 
BRANCH  18  19
ATOM     19  C   UNL A   1      30.298  23.971  26.466  1.00  0.00     0.227 C 
ATOM     20  N   UNL A   1      31.027  22.781  26.440  1.00  0.00    -0.326 N 
ATOM     21  H   UNL A   1      30.648  22.192  27.133  1.00  0.00     0.169 HD
ATOM     22  O   UNL A   1      29.445  23.903  27.384  1.00  0.00    -0.275 OA
BRANCH  20  23
ATOM     23  C   UNL A   1      32.108  22.062  25.813  1.00  0.00     0.044 A 
ATOM     24  C   UNL A   1      33.907  18.462  24.360  1.00  0.00     0.044 C 
ATOM     25  C   UNL A   1      33.547  19.891  24.683  1.00  0.00    -0.051 A 
ATOM     26  C   UNL A   1      32.620  20.593  23.913  1.00  0.00     0.005 A 
ATOM     27  C   UNL A   1      33.957  20.477  25.884  1.00  0.00     0.009 A 
ATOM     28  C   UNL A   1      31.947  21.709  24.459  1.00  0.00     0.026 A 
ATOM     29  C   UNL A   1      33.269  21.590  26.435  1.00  0.00    -0.027 A 
ATOM     30  C   UNL A   1      33.867  22.274  27.626  1.00  0.00     0.046 C 
ENDBRANCH  20  23
ENDBRANCH  18  19
ENDBRANCH  11  18
ENDBRANCH   8  10
ENDBRANCH   7   8
ENDBRANCH   6   7
ENDBRANCH   3   6
ENDBRANCH   1   2
BRANCH   1  31
ATOM     31  C   UNL A   1      35.538  24.111  24.737  1.00  0.00     0.021 C 
BRANCH  31  32
ATOM     32  C   UNL A   1      36.807  23.426  24.174  1.00  0.00     0.002 C 
BRANCH  32  33
ATOM     33  C   UNL A   1      36.815  21.888  24.025  1.00  0.00     0.002 C 
BRANCH  33  34
ATOM     34  C   UNL A   1      37.253  21.115  25.254  1.00  0.00     0.021 C 
BRANCH  34  35
ATOM     35  C   UNL A   1      38.708  21.324  25.625  1.00  0.00     0.116 C 
BRANCH  35  36
ATOM     36  N   UNL A   1      39.494  20.098  25.600  1.00  0.00    -0.352 N 
ATOM     37  C   UNL A   1      40.810  19.907  25.991  1.00  0.00     0.251 C 
ATOM     38  H   UNL A   1      39.029  19.300  25.263  1.00  0.00     0.163 HD
ATOM     39  O   UNL A   1      41.377  18.860  25.826  1.00  0.00    -0.269 OA
BRANCH  37  40
ATOM     40  C   UNL A   1      41.514  21.068  26.586  1.00  0.00     0.039 A 
ATOM     41  C   UNL A   1      42.077  22.021  25.737  1.00  0.00     0.014 A 
ATOM     42  C   UNL A   1      41.488  21.261  27.967  1.00  0.00     0.014 A 
ATOM     43  C   UNL A   1      42.535  23.223  26.277  1.00  0.00     0.010 A 
ATOM     44  C   UNL A   1      41.838  22.500  28.484  1.00  0.00     0.010 A 
ATOM     45  C   UNL A   1      42.369  23.492  27.646  1.00  0.00    -0.014 A 
BRANCH  45  46
ATOM     46  C   UNL A   1      42.756  24.797  28.233  1.00  0.00     0.031 A 
ATOM     47  C   UNL A   1      41.705  25.850  28.456  1.00  0.00     0.074 A 
ATOM     48  C   UNL A   1      44.051  25.066  28.487  1.00  0.00     0.049 A 
ATOM     49  N   UNL A   1      41.844  27.081  28.873  1.00  0.00    -0.248 NA
ATOM     50  C   UNL A   1      40.319  25.481  28.123  1.00  0.00     0.031 C 
ATOM     51  C   UNL A   1      45.173  24.155  28.245  1.00  0.00     0.029 A 
ATOM     52  N   UNL A   1      44.646  26.192  28.997  1.00  0.00    -0.354 N 
ATOM     53  C   UNL A   1      40.573  27.638  28.824  1.00  0.00     0.074 A 
ATOM     54  C   UNL A   1      39.687  26.634  28.279  1.00  0.00     0.031 C 
ATOM     55  C   UNL A   1      46.314  24.746  28.639  1.00  0.00     0.029 A 
ATOM     56  C   UNL A   1      46.009  26.085  29.130  1.00  0.00     0.049 A 
ATOM     57  H   UNL A   1      44.143  27.001  29.244  1.00  0.00     0.167 HD
ATOM     58  C   UNL A   1      40.170  28.865  29.229  1.00  0.00     0.037 A 
ATOM     59  C   UNL A   1      46.909  26.969  29.603  1.00  0.00     0.037 A 
ATOM     60  C   UNL A   1      41.042  29.842  29.821  1.00  0.00     0.049 A 
ATOM     61  C   UNL A   1      46.431  28.308  30.093  1.00  0.00     0.074 A 
ATOM     62  C   UNL A   1      40.723  31.085  30.336  1.00  0.00     0.029 A 
ATOM     63  N   UNL A   1      42.410  29.676  29.987  1.00  0.00    -0.354 N 
ATOM     64  N   UNL A   1      45.215  28.795  30.107  1.00  0.00    -0.248 NA
ATOM     65  C   UNL A   1      47.450  29.215  30.640  1.00  0.00     0.031 C 
ATOM     66  C   UNL A   1      41.903  31.684  30.789  1.00  0.00     0.029 A 
ATOM     67  C   UNL A   1      42.950  30.799  30.589  1.00  0.00     0.049 A 
ATOM     68  H   UNL A   1      42.919  28.877  29.718  1.00  0.00     0.167 HD
ATOM     69  C   UNL A   1      45.315  30.052  30.687  1.00  0.00     0.074 A 
ATOM     70  C   UNL A   1      46.711  30.246  31.023  1.00  0.00     0.031 C 
ATOM     71  C   UNL A   1      44.341  30.965  30.922  1.00  0.00     0.037 A 
BRANCH  58  72
ATOM     72  C   UNL A   1      38.719  29.203  29.060  1.00  0.00     0.057 A 
ATOM     73  C   UNL A   1      37.816  29.134  30.130  1.00  0.00     0.134 A 
ATOM     74  C   UNL A   1      38.218  29.610  27.817  1.00  0.00     0.134 A 
ATOM     75  F   UNL A   1      38.228  28.733  31.342  1.00  0.00    -0.206 F 
ATOM     76  C   UNL A   1      36.462  29.428  29.964  1.00  0.00     0.040 A 
ATOM     77  C   UNL A   1      36.872  29.933  27.645  1.00  0.00     0.040 A 
ATOM     78  F   UNL A   1      39.028  29.697  26.752  1.00  0.00    -0.206 F 
ATOM     79  C   UNL A   1      35.988  29.835  28.718  1.00  0.00     0.006 A 
ENDBRANCH  58  72
BRANCH  59  80
ATOM     80  C   UNL A   1      48.344  26.600  29.682  1.00  0.00     0.057 A 
ATOM     81  C   UNL A   1      49.233  26.948  28.658  1.00  0.00     0.134 A 
ATOM     82  C   UNL A   1      48.862  25.892  30.772  1.00  0.00     0.134 A 
ATOM     83  F   UNL A   1      48.791  27.613  27.580  1.00  0.00    -0.206 F 
ATOM     84  C   UNL A   1      50.581  26.592  28.706  1.00  0.00     0.040 A 
ATOM     85  C   UNL A   1      50.213  25.546  30.843  1.00  0.00     0.040 A 
ATOM     86  F   UNL A   1      48.065  25.536  31.789  1.00  0.00    -0.206 F 
ATOM     87  C   UNL A   1      51.075  25.891  29.803  1.00  0.00     0.006 A 
ENDBRANCH  59  80
BRANCH  71  88
ATOM     88  C   UNL A   1      44.747  32.238  31.601  1.00  0.00     0.057 A 
ATOM     89  C   UNL A   1      44.773  32.351  32.996  1.00  0.00     0.134 A 
ATOM     90  C   UNL A   1      45.157  33.346  30.849  1.00  0.00     0.134 A 
ATOM     91  F   UNL A   1      44.380  31.327  33.769  1.00  0.00    -0.206 F 
ATOM     92  C   UNL A   1      45.175  33.532  33.621  1.00  0.00     0.040 A 
ATOM     93  C   UNL A   1      45.582  34.523  31.463  1.00  0.00     0.040 A 
ATOM     94  F   UNL A   1      45.161  33.296  29.509  1.00  0.00    -0.206 F 
ATOM     95  C   UNL A   1      45.588  34.620  32.854  1.00  0.00     0.006 A 
ENDBRANCH  71  88
ENDBRANCH  45  46
ENDBRANCH  37  40
ENDBRANCH  35  36
ENDBRANCH  34  35
ENDBRANCH  33  34
ENDBRANCH  32  33
ENDBRANCH  31  32
ENDBRANCH   1  31
TORSDOF 19
ENDMDL
MODEL 3
REMARK VINA RESULT:     -11.6      2.067      4.679
REMARK SMILES Cc1ccc(NC(=O)C[C@H]2C(=O)NCCN2C(=O)CCC(=O)NCCCCCCNC(=O)c2ccc(-c3c4nc(c(-c5c(F)cccc5F)c5ccc([nH]5)c(-c5c(F)cccc5F)c5nc(c(-c6c(F)cccc6F)c6ccc3[nH]6)C=C5)C=C4)cc2)c(C)c1
REMARK SMILES IDX 24 1 23 2 21 3 22 4 20 6 19 7 17 8 18 9 16 10 10 11 11 12
REMARK SMILES IDX 12 13 13 14 15 15 14 16 9 18 7 19 6 20 8 22 5 23 1 24 2 25
REMARK SMILES IDX 3 26 89 27 4 28 87 29 88 30 25 31 26 32 27 33 28 34 29 35
REMARK SMILES IDX 30 36 31 37 32 39 33 40 34 41 86 42 35 43 85 44 36 45 37 46
REMARK SMILES IDX 38 47 79 48 39 49 84 50 78 51 80 52 40 53 83 54 77 55 76 56
REMARK SMILES IDX 41 58 67 59 50 60 66 61 51 62 54 63 65 64 81 65 52 66 53 67
REMARK SMILES IDX 64 69 82 70 55 71 42 72 43 73 48 74 44 75 45 76 47 77 49 78
REMARK SMILES IDX 46 79 68 80 69 81 74 82 70 83 71 84 73 85 75 86 72 87 56 88
REMARK SMILES IDX 57 89 62 90 58 91 59 92 61 93 63 94 60 95
REMARK H PARENT 23 5 13 17 6 21 30 38 80 57 54 68
REMARK Flexibility Score: inf
ROOT
ATOM      1  C   UNL A   1      33.585  22.087  26.880  1.00  0.00     0.116 C 
ENDROOT
BRANCH   1   2
ATOM      2  N   UNL A   1      32.242  22.410  27.373  1.00  0.00    -0.356 N 
ATOM      3  C   UNL A   1      31.124  23.040  26.913  1.00  0.00     0.220 C 
ATOM      4  O   UNL A   1      30.078  22.975  27.565  1.00  0.00    -0.275 OA
ATOM      5  H   UNL A   1      32.112  22.080  28.291  1.00  0.00     0.163 HD
BRANCH   3   6
ATOM      6  C   UNL A   1      31.164  23.941  25.740  1.00  0.00     0.110 C 
BRANCH   6   7
ATOM      7  C   UNL A   1      31.797  25.232  26.213  1.00  0.00     0.110 C 
BRANCH   7   8
ATOM      8  C   UNL A   1      32.967  25.502  25.330  1.00  0.00     0.223 C 
ATOM      9  O   UNL A   1      34.066  25.097  25.742  1.00  0.00    -0.275 OA
BRANCH   8  10
ATOM     10  N   UNL A   1      32.863  26.255  24.146  1.00  0.00    -0.328 N 
ATOM     11  C   UNL A   1      31.988  27.506  23.831  1.00  0.00     0.183 C 
ATOM     12  C   UNL A   1      31.340  27.382  22.414  1.00  0.00     0.243 C 
ATOM     13  O   UNL A   1      30.391  28.080  22.061  1.00  0.00    -0.273 OA
ATOM     14  N   UNL A   1      31.814  26.466  21.518  1.00  0.00    -0.353 N 
ATOM     15  C   UNL A   1      33.484  25.477  23.054  1.00  0.00     0.141 C 
ATOM     16  C   UNL A   1      32.999  25.673  21.641  1.00  0.00     0.137 C 
ATOM     17  H   UNL A   1      31.283  26.339  20.699  1.00  0.00     0.163 HD
BRANCH  11  18
ATOM     18  C   UNL A   1      32.131  29.163  24.306  1.00  0.00     0.135 C 
BRANCH  18  19
ATOM     19  C   UNL A   1      31.224  30.373  25.021  1.00  0.00     0.227 C 
ATOM     20  N   UNL A   1      30.135  31.178  24.683  1.00  0.00    -0.326 N 
ATOM     21  H   UNL A   1      29.967  31.776  25.448  1.00  0.00     0.169 HD
ATOM     22  O   UNL A   1      31.585  30.650  26.190  1.00  0.00    -0.275 OA
BRANCH  20  23
ATOM     23  C   UNL A   1      29.157  31.493  23.672  1.00  0.00     0.044 A 
ATOM     24  C   UNL A   1      27.730  31.401  19.639  1.00  0.00     0.044 C 
ATOM     25  C   UNL A   1      27.888  31.545  21.132  1.00  0.00    -0.051 A 
ATOM     26  C   UNL A   1      27.704  30.457  21.985  1.00  0.00     0.005 A 
ATOM     27  C   UNL A   1      28.439  32.705  21.684  1.00  0.00     0.009 A 
ATOM     28  C   UNL A   1      28.289  30.459  23.271  1.00  0.00     0.026 A 
ATOM     29  C   UNL A   1      29.038  32.699  22.971  1.00  0.00    -0.027 A 
ATOM     30  C   UNL A   1      29.446  34.009  23.570  1.00  0.00     0.046 C 
ENDBRANCH  20  23
ENDBRANCH  18  19
ENDBRANCH  11  18
ENDBRANCH   8  10
ENDBRANCH   7   8
ENDBRANCH   6   7
ENDBRANCH   3   6
ENDBRANCH   1   2
BRANCH   1  31
ATOM     31  C   UNL A   1      33.834  21.243  25.552  1.00  0.00     0.021 C 
BRANCH  31  32
ATOM     32  C   UNL A   1      35.149  20.610  25.034  1.00  0.00     0.002 C 
BRANCH  32  33
ATOM     33  C   UNL A   1      36.487  21.318  25.347  1.00  0.00     0.002 C 
BRANCH  33  34
ATOM     34  C   UNL A   1      37.732  20.612  24.846  1.00  0.00     0.021 C 
BRANCH  34  35
ATOM     35  C   UNL A   1      38.938  20.780  25.749  1.00  0.00     0.116 C 
BRANCH  35  36
ATOM     36  N   UNL A   1      39.860  19.653  25.698  1.00  0.00    -0.352 N 
ATOM     37  C   UNL A   1      41.206  19.622  26.029  1.00  0.00     0.251 C 
ATOM     38  H   UNL A   1      39.477  18.801  25.390  1.00  0.00     0.163 HD
ATOM     39  O   UNL A   1      41.883  18.646  25.846  1.00  0.00    -0.269 OA
BRANCH  37  40
ATOM     40  C   UNL A   1      41.796  20.865  26.579  1.00  0.00     0.039 A 
ATOM     41  C   UNL A   1      42.290  21.825  25.696  1.00  0.00     0.014 A 
ATOM     42  C   UNL A   1      41.728  21.118  27.949  1.00  0.00     0.014 A 
ATOM     43  C   UNL A   1      42.632  23.086  26.186  1.00  0.00     0.010 A 
ATOM     44  C   UNL A   1      41.960  22.404  28.413  1.00  0.00     0.010 A 
ATOM     45  C   UNL A   1      42.419  23.400  27.538  1.00  0.00    -0.014 A 
BRANCH  45  46
ATOM     46  C   UNL A   1      42.680  24.759  28.070  1.00  0.00     0.031 A 
ATOM     47  C   UNL A   1      44.072  25.133  28.498  1.00  0.00     0.074 A 
ATOM     48  C   UNL A   1      41.660  25.622  28.246  1.00  0.00     0.049 A 
ATOM     49  N   UNL A   1      44.495  26.231  29.068  1.00  0.00    -0.248 NA
ATOM     50  C   UNL A   1      45.120  24.118  28.296  1.00  0.00     0.031 C 
ATOM     51  C   UNL A   1      40.253  25.352  27.939  1.00  0.00     0.029 A 
ATOM     52  N   UNL A   1      41.650  26.902  28.738  1.00  0.00    -0.354 N 
ATOM     53  C   UNL A   1      45.846  26.025  29.317  1.00  0.00     0.074 A 
ATOM     54  C   UNL A   1      46.158  24.679  28.897  1.00  0.00     0.031 C 
ATOM     55  C   UNL A   1      39.523  26.445  28.217  1.00  0.00     0.029 A 
ATOM     56  C   UNL A   1      40.403  27.479  28.750  1.00  0.00     0.049 A 
ATOM     57  H   UNL A   1      42.460  27.365  29.053  1.00  0.00     0.167 HD
ATOM     58  C   UNL A   1      46.755  26.893  29.821  1.00  0.00     0.037 A 
ATOM     59  C   UNL A   1      40.017  28.710  29.142  1.00  0.00     0.037 A 
ATOM     60  C   UNL A   1      46.453  28.249  30.188  1.00  0.00     0.049 A 
ATOM     61  C   UNL A   1      41.053  29.672  29.652  1.00  0.00     0.074 A 
ATOM     62  C   UNL A   1      47.314  29.234  30.636  1.00  0.00     0.029 A 
ATOM     63  N   UNL A   1      45.186  28.814  30.137  1.00  0.00    -0.354 N 
ATOM     64  N   UNL A   1      42.340  29.489  29.816  1.00  0.00    -0.248 NA
ATOM     65  C   UNL A   1      40.584  31.015  30.023  1.00  0.00     0.031 C 
ATOM     66  C   UNL A   1      46.564  30.389  30.883  1.00  0.00     0.029 A 
ATOM     67  C   UNL A   1      45.242  30.132  30.554  1.00  0.00     0.049 A 
ATOM     68  H   UNL A   1      44.370  28.346  29.846  1.00  0.00     0.167 HD
ATOM     69  C   UNL A   1      42.840  30.698  30.283  1.00  0.00     0.074 A 
ATOM     70  C   UNL A   1      41.719  31.610  30.363  1.00  0.00     0.031 C 
ATOM     71  C   UNL A   1      44.113  31.024  30.616  1.00  0.00     0.037 A 
BRANCH  58  72
ATOM     72  C   UNL A   1      48.160  26.398  29.982  1.00  0.00     0.057 A 
ATOM     73  C   UNL A   1      49.120  26.561  28.972  1.00  0.00     0.134 A 
ATOM     74  C   UNL A   1      48.566  25.760  31.161  1.00  0.00     0.134 A 
ATOM     75  F   UNL A   1      48.791  27.147  27.811  1.00  0.00    -0.206 F 
ATOM     76  C   UNL A   1      50.422  26.080  29.117  1.00  0.00     0.040 A 
ATOM     77  C   UNL A   1      49.872  25.300  31.328  1.00  0.00     0.040 A 
ATOM     78  F   UNL A   1      47.698  25.573  32.166  1.00  0.00    -0.206 F 
ATOM     79  C   UNL A   1      50.802  25.452  30.301  1.00  0.00     0.006 A 
ENDBRANCH  58  72
BRANCH  59  80
ATOM     80  C   UNL A   1      38.596  29.117  29.021  1.00  0.00     0.057 A 
ATOM     81  C   UNL A   1      38.086  29.593  27.807  1.00  0.00     0.134 A 
ATOM     82  C   UNL A   1      37.716  29.046  30.107  1.00  0.00     0.134 A 
ATOM     83  F   UNL A   1      38.886  29.698  26.735  1.00  0.00    -0.206 F 
ATOM     84  C   UNL A   1      36.757  30.000  27.680  1.00  0.00     0.040 A 
ATOM     85  C   UNL A   1      36.379  29.431  29.989  1.00  0.00     0.040 A 
ATOM     86  F   UNL A   1      38.141  28.592  31.294  1.00  0.00    -0.206 F 
ATOM     87  C   UNL A   1      35.898  29.916  28.773  1.00  0.00     0.006 A 
ENDBRANCH  59  80
BRANCH  71  88
ATOM     88  C   UNL A   1      44.363  32.432  31.063  1.00  0.00     0.057 A 
ATOM     89  C   UNL A   1      44.647  33.454  30.150  1.00  0.00     0.134 A 
ATOM     90  C   UNL A   1      44.274  32.775  32.417  1.00  0.00     0.134 A 
ATOM     91  F   UNL A   1      44.756  33.185  28.840  1.00  0.00    -0.206 F 
ATOM     92  C   UNL A   1      44.854  34.768  30.572  1.00  0.00     0.040 A 
ATOM     93  C   UNL A   1      44.457  34.088  32.849  1.00  0.00     0.040 A 
ATOM     94  F   UNL A   1      43.997  31.841  33.339  1.00  0.00    -0.206 F 
ATOM     95  C   UNL A   1      44.752  35.089  31.924  1.00  0.00     0.006 A 
ENDBRANCH  71  88
ENDBRANCH  45  46
ENDBRANCH  37  40
ENDBRANCH  35  36
ENDBRANCH  34  35
ENDBRANCH  33  34
ENDBRANCH  32  33
ENDBRANCH  31  32
ENDBRANCH   1  31
TORSDOF 19
ENDMDL
