MODEL 1
REMARK VINA RESULT:     -10.1      0.000      0.000
REMARK SMILES Cc1ccc(-c2noc(CCC(=O)NCCCCCCNC(=O)c3ccc(-c4c5nc(c(-c6c(F)cccc6F)c6ccc([nH]6)c(-c6c(F)cccc6F)c6nc(c(-c7c(F)cccc7F)c7ccc4[nH]7)C=C6)C=C5)cc3)n2)cc1C
REMARK SMILES IDX 17 1 16 2 15 3 14 4 12 5 13 6 11 8 10 9 9 10 6 11 7 12 78 13
REMARK SMILES IDX 8 14 5 15 1 16 2 17 3 18 80 19 4 20 79 21 81 22 18 23 19 24
REMARK SMILES IDX 20 25 21 26 22 27 23 29 24 30 25 31 77 32 26 33 76 34 27 35
REMARK SMILES IDX 28 36 29 37 70 38 30 39 75 40 69 41 71 42 31 43 74 44 68 45
REMARK SMILES IDX 67 46 32 48 58 49 41 50 57 51 42 52 45 53 56 54 72 55 43 56
REMARK SMILES IDX 44 57 55 59 73 60 46 61 33 62 34 63 39 64 35 65 36 66 38 67
REMARK SMILES IDX 40 68 37 69 59 70 60 71 65 72 61 73 62 74 64 75 66 76 63 77
REMARK SMILES IDX 47 78 48 79 53 80 49 81 50 82 52 83 54 84 51 85
REMARK H PARENT 14 7 21 28 71 47 45 58
REMARK Flexibility Score: inf
ROOT
ATOM      1  C   UNL A   1      34.914  34.482  33.660  1.00  0.00     0.002 C 
ENDROOT
BRANCH   1   2
ATOM      2  C   UNL A   1      36.382  34.548  34.091  1.00  0.00     0.021 C 
BRANCH   2   3
ATOM      3  C   UNL A   1      36.820  33.371  34.961  1.00  0.00     0.116 C 
BRANCH   3   4
ATOM      4  N   UNL A   1      36.964  32.173  34.158  1.00  0.00    -0.356 N 
ATOM      5  C   UNL A   1      37.981  31.272  34.126  1.00  0.00     0.220 C 
ATOM      6  O   UNL A   1      37.951  30.377  33.280  1.00  0.00    -0.275 OA
ATOM      7  H   UNL A   1      36.217  31.985  33.546  1.00  0.00     0.163 HD
BRANCH   5   8
ATOM      8  C   UNL A   1      39.131  31.375  35.101  1.00  0.00     0.110 C 
BRANCH   8   9
ATOM      9  C   UNL A   1      40.428  30.868  34.488  1.00  0.00     0.110 C 
BRANCH   9  10
ATOM     10  C   UNL A   1      40.799  29.497  34.923  1.00  0.00     0.227 A 
ATOM     11  C   UNL A   1      41.579  27.571  35.231  1.00  0.00     0.202 A 
ATOM     12  N   UNL A   1      41.163  27.947  36.452  1.00  0.00    -0.057 NA
ATOM     13  N   UNL A   1      41.331  28.503  34.244  1.00  0.00    -0.191 NA
ATOM     14  O   UNL A   1      40.647  29.223  36.250  1.00  0.00    -0.339 OA
BRANCH  11  15
ATOM     15  C   UNL A   1      42.241  26.299  34.980  1.00  0.00     0.023 A 
ATOM     16  C   UNL A   1      44.091  22.448  34.259  1.00  0.00     0.044 C 
ATOM     17  C   UNL A   1      43.471  23.802  34.482  1.00  0.00    -0.048 A 
ATOM     18  C   UNL A   1      42.458  23.926  35.444  1.00  0.00     0.004 A 
ATOM     19  C   UNL A   1      43.879  24.944  33.763  1.00  0.00    -0.047 A 
ATOM     20  C   UNL A   1      41.844  25.157  35.684  1.00  0.00     0.012 A 
ATOM     21  C   UNL A   1      43.263  26.185  34.028  1.00  0.00     0.015 A 
ATOM     22  C   UNL A   1      44.911  24.877  32.668  1.00  0.00     0.044 C 
ENDBRANCH  11  15
ENDBRANCH   9  10
ENDBRANCH   8   9
ENDBRANCH   5   8
ENDBRANCH   3   4
ENDBRANCH   2   3
ENDBRANCH   1   2
BRANCH   1  23
ATOM     23  C   UNL A   1      34.289  35.831  33.278  1.00  0.00     0.002 C 
BRANCH  23  24
ATOM     24  C   UNL A   1      33.097  35.760  32.318  1.00  0.00     0.021 C 
BRANCH  24  25
ATOM     25  C   UNL A   1      33.343  36.360  30.936  1.00  0.00     0.116 C 
BRANCH  25  26
ATOM     26  N   UNL A   1      32.683  35.600  29.888  1.00  0.00    -0.352 N 
ATOM     27  C   UNL A   1      33.174  34.591  29.099  1.00  0.00     0.251 C 
ATOM     28  H   UNL A   1      31.745  35.845  29.719  1.00  0.00     0.163 HD
ATOM     29  O   UNL A   1      32.526  34.197  28.132  1.00  0.00    -0.269 OA
BRANCH  27  30
ATOM     30  C   UNL A   1      34.488  33.982  29.395  1.00  0.00     0.039 A 
ATOM     31  C   UNL A   1      34.568  33.011  30.398  1.00  0.00     0.014 A 
ATOM     32  C   UNL A   1      35.643  34.397  28.725  1.00  0.00     0.014 A 
ATOM     33  C   UNL A   1      35.796  32.421  30.698  1.00  0.00     0.010 A 
ATOM     34  C   UNL A   1      36.858  33.771  28.987  1.00  0.00     0.010 A 
ATOM     35  C   UNL A   1      36.948  32.785  29.982  1.00  0.00    -0.014 A 
BRANCH  35  36
ATOM     36  C   UNL A   1      38.263  32.168  30.277  1.00  0.00     0.031 A 
ATOM     37  C   UNL A   1      39.259  32.897  31.133  1.00  0.00     0.074 A 
ATOM     38  C   UNL A   1      38.588  30.985  29.724  1.00  0.00     0.049 A 
ATOM     39  N   UNL A   1      40.489  32.571  31.434  1.00  0.00    -0.248 NA
ATOM     40  C   UNL A   1      38.816  34.176  31.710  1.00  0.00     0.031 C 
ATOM     41  C   UNL A   1      37.720  30.188  28.857  1.00  0.00     0.029 A 
ATOM     42  N   UNL A   1      39.747  30.255  29.800  1.00  0.00    -0.354 N 
ATOM     43  C   UNL A   1      40.974  33.610  32.217  1.00  0.00     0.074 A 
ATOM     44  C   UNL A   1      39.918  34.596  32.311  1.00  0.00     0.031 C 
ATOM     45  C   UNL A   1      38.370  29.069  28.497  1.00  0.00     0.029 A 
ATOM     46  C   UNL A   1      39.708  29.087  29.081  1.00  0.00     0.049 A 
ATOM     47  H   UNL A   1      40.532  30.543  30.320  1.00  0.00     0.167 HD
ATOM     48  C   UNL A   1      42.181  33.725  32.818  1.00  0.00     0.037 A 
ATOM     49  C   UNL A   1      40.647  28.137  28.913  1.00  0.00     0.037 A 
ATOM     50  C   UNL A   1      43.221  32.732  32.750  1.00  0.00     0.049 A 
ATOM     51  C   UNL A   1      41.985  28.293  29.576  1.00  0.00     0.074 A 
ATOM     52  C   UNL A   1      44.456  32.730  33.373  1.00  0.00     0.029 A 
ATOM     53  N   UNL A   1      43.142  31.560  32.013  1.00  0.00    -0.354 N 
ATOM     54  N   UNL A   1      42.416  29.260  30.348  1.00  0.00    -0.248 NA
ATOM     55  C   UNL A   1      42.969  27.225  29.341  1.00  0.00     0.031 C 
ATOM     56  C   UNL A   1      45.139  31.570  32.987  1.00  0.00     0.029 A 
ATOM     57  C   UNL A   1      44.315  30.836  32.150  1.00  0.00     0.049 A 
ATOM     58  H   UNL A   1      42.367  31.285  31.472  1.00  0.00     0.167 HD
ATOM     59  C   UNL A   1      43.707  28.904  30.718  1.00  0.00     0.074 A 
ATOM     60  C   UNL A   1      43.990  27.632  30.083  1.00  0.00     0.031 C 
ATOM     61  C   UNL A   1      44.577  29.569  31.517  1.00  0.00     0.037 A 
BRANCH  48  62
ATOM     62  C   UNL A   1      42.437  34.979  33.599  1.00  0.00     0.057 A 
ATOM     63  C   UNL A   1      43.035  36.103  33.014  1.00  0.00     0.134 A 
ATOM     64  C   UNL A   1      42.084  35.063  34.952  1.00  0.00     0.134 A 
ATOM     65  F   UNL A   1      43.410  36.080  31.726  1.00  0.00    -0.206 F 
ATOM     66  C   UNL A   1      43.301  37.256  33.755  1.00  0.00     0.040 A 
ATOM     67  C   UNL A   1      42.324  36.219  35.697  1.00  0.00     0.040 A 
ATOM     68  F   UNL A   1      41.505  34.023  35.570  1.00  0.00    -0.206 F 
ATOM     69  C   UNL A   1      42.943  37.315  35.100  1.00  0.00     0.006 A 
ENDBRANCH  48  62
BRANCH  49  70
ATOM     70  C   UNL A   1      40.335  26.931  28.110  1.00  0.00     0.057 A 
ATOM     71  C   UNL A   1      40.841  26.787  26.814  1.00  0.00     0.134 A 
ATOM     72  C   UNL A   1      39.547  25.893  28.619  1.00  0.00     0.134 A 
ATOM     73  F   UNL A   1      41.589  27.758  26.270  1.00  0.00    -0.206 F 
ATOM     74  C   UNL A   1      40.568  25.655  26.046  1.00  0.00     0.040 A 
ATOM     75  C   UNL A   1      39.280  24.747  27.868  1.00  0.00     0.040 A 
ATOM     76  F   UNL A   1      39.041  25.972  29.858  1.00  0.00    -0.206 F 
ATOM     77  C   UNL A   1      39.789  24.628  26.576  1.00  0.00     0.006 A 
ENDBRANCH  49  70
BRANCH  61  78
ATOM     78  C   UNL A   1      45.900  28.917  31.779  1.00  0.00     0.057 A 
ATOM     79  C   UNL A   1      46.174  28.266  32.987  1.00  0.00     0.134 A 
ATOM     80  C   UNL A   1      46.895  28.906  30.794  1.00  0.00     0.134 A 
ATOM     81  F   UNL A   1      45.266  28.255  33.975  1.00  0.00    -0.206 F 
ATOM     82  C   UNL A   1      47.401  27.638  33.213  1.00  0.00     0.040 A 
ATOM     83  C   UNL A   1      48.118  28.266  31.000  1.00  0.00     0.040 A 
ATOM     84  F   UNL A   1      46.691  29.508  29.613  1.00  0.00    -0.206 F 
ATOM     85  C   UNL A   1      48.374  27.631  32.215  1.00  0.00     0.006 A 
ENDBRANCH  61  78
ENDBRANCH  35  36
ENDBRANCH  27  30
ENDBRANCH  25  26
ENDBRANCH  24  25
ENDBRANCH  23  24
ENDBRANCH   1  23
TORSDOF 16
ENDMDL
MODEL 2
REMARK VINA RESULT:      -9.6      1.439      2.446
REMARK SMILES Cc1ccc(-c2noc(CCC(=O)NCCCCCCNC(=O)c3ccc(-c4c5nc(c(-c6c(F)cccc6F)c6ccc([nH]6)c(-c6c(F)cccc6F)c6nc(c(-c7c(F)cccc7F)c7ccc4[nH]7)C=C6)C=C5)cc3)n2)cc1C
REMARK SMILES IDX 17 1 16 2 15 3 14 4 12 5 13 6 11 8 10 9 9 10 6 11 7 12 78 13
REMARK SMILES IDX 8 14 5 15 1 16 2 17 3 18 80 19 4 20 79 21 81 22 18 23 19 24
REMARK SMILES IDX 20 25 21 26 22 27 23 29 24 30 25 31 77 32 26 33 76 34 27 35
REMARK SMILES IDX 28 36 29 37 70 38 30 39 75 40 69 41 71 42 31 43 74 44 68 45
REMARK SMILES IDX 67 46 32 48 58 49 41 50 57 51 42 52 45 53 56 54 72 55 43 56
REMARK SMILES IDX 44 57 55 59 73 60 46 61 33 62 34 63 39 64 35 65 36 66 38 67
REMARK SMILES IDX 40 68 37 69 59 70 60 71 65 72 61 73 62 74 64 75 66 76 63 77
REMARK SMILES IDX 47 78 48 79 53 80 49 81 50 82 52 83 54 84 51 85
REMARK H PARENT 14 7 21 28 71 47 45 58
REMARK Flexibility Score: inf
ROOT
ATOM      1  C   UNL A   1      35.304  35.329  33.151  1.00  0.00     0.002 C 
ENDROOT
BRANCH   1   2
ATOM      2  C   UNL A   1      34.878  34.165  34.052  1.00  0.00     0.021 C 
BRANCH   2   3
ATOM      3  C   UNL A   1      36.025  33.228  34.427  1.00  0.00     0.116 C 
BRANCH   3   4
ATOM      4  N   UNL A   1      36.827  33.807  35.486  1.00  0.00    -0.356 N 
ATOM      5  C   UNL A   1      37.672  33.199  36.360  1.00  0.00     0.220 C 
ATOM      6  O   UNL A   1      38.174  33.871  37.261  1.00  0.00    -0.275 OA
ATOM      7  H   UNL A   1      36.748  34.782  35.588  1.00  0.00     0.163 HD
BRANCH   5   8
ATOM      8  C   UNL A   1      37.979  31.724  36.234  1.00  0.00     0.110 C 
BRANCH   8   9
ATOM      9  C   UNL A   1      38.613  31.399  34.890  1.00  0.00     0.110 C 
BRANCH   9  10
ATOM     10  C   UNL A   1      39.745  30.442  34.979  1.00  0.00     0.227 A 
ATOM     11  C   UNL A   1      41.363  29.202  35.487  1.00  0.00     0.202 A 
ATOM     12  N   UNL A   1      40.780  28.562  34.460  1.00  0.00    -0.057 NA
ATOM     13  N   UNL A   1      40.762  30.401  35.813  1.00  0.00    -0.191 NA
ATOM     14  O   UNL A   1      39.708  29.382  34.123  1.00  0.00    -0.339 OA
BRANCH  11  15
ATOM     15  C   UNL A   1      42.517  28.669  36.197  1.00  0.00     0.023 A 
ATOM     16  C   UNL A   1      45.962  27.203  38.378  1.00  0.00     0.044 C 
ATOM     17  C   UNL A   1      44.751  27.676  37.619  1.00  0.00    -0.048 A 
ATOM     18  C   UNL A   1      44.652  29.037  37.292  1.00  0.00     0.004 A 
ATOM     19  C   UNL A   1      43.721  26.799  37.224  1.00  0.00    -0.047 A 
ATOM     20  C   UNL A   1      43.545  29.529  36.598  1.00  0.00     0.012 A 
ATOM     21  C   UNL A   1      42.616  27.307  36.506  1.00  0.00     0.015 A 
ATOM     22  C   UNL A   1      43.721  25.339  37.596  1.00  0.00     0.044 C 
ENDBRANCH  11  15
ENDBRANCH   9  10
ENDBRANCH   8   9
ENDBRANCH   5   8
ENDBRANCH   3   4
ENDBRANCH   2   3
ENDBRANCH   1   2
BRANCH   1  23
ATOM     23  C   UNL A   1      34.260  36.443  32.995  1.00  0.00     0.002 C 
BRANCH  23  24
ATOM     24  C   UNL A   1      33.128  36.155  32.003  1.00  0.00     0.021 C 
BRANCH  24  25
ATOM     25  C   UNL A   1      33.390  36.616  30.572  1.00  0.00     0.116 C 
BRANCH  25  26
ATOM     26  N   UNL A   1      32.702  35.785  29.598  1.00  0.00    -0.352 N 
ATOM     27  C   UNL A   1      33.145  34.670  28.933  1.00  0.00     0.251 C 
ATOM     28  H   UNL A   1      31.783  36.063  29.383  1.00  0.00     0.163 HD
ATOM     29  O   UNL A   1      32.489  34.210  28.001  1.00  0.00    -0.269 OA
BRANCH  27  30
ATOM     30  C   UNL A   1      34.416  34.023  29.322  1.00  0.00     0.039 A 
ATOM     31  C   UNL A   1      34.402  33.076  30.350  1.00  0.00     0.014 A 
ATOM     32  C   UNL A   1      35.622  34.380  28.711  1.00  0.00     0.014 A 
ATOM     33  C   UNL A   1      35.589  32.453  30.737  1.00  0.00     0.010 A 
ATOM     34  C   UNL A   1      36.796  33.718  29.059  1.00  0.00     0.010 A 
ATOM     35  C   UNL A   1      36.792  32.757  30.081  1.00  0.00    -0.014 A 
BRANCH  35  36
ATOM     36  C   UNL A   1      38.064  32.102  30.469  1.00  0.00     0.031 A 
ATOM     37  C   UNL A   1      38.977  32.764  31.462  1.00  0.00     0.074 A 
ATOM     38  C   UNL A   1      38.431  30.949  29.881  1.00  0.00     0.049 A 
ATOM     39  N   UNL A   1      40.167  32.400  31.863  1.00  0.00    -0.248 NA
ATOM     40  C   UNL A   1      38.492  34.014  32.067  1.00  0.00     0.031 C 
ATOM     41  C   UNL A   1      37.646  30.218  28.885  1.00  0.00     0.029 A 
ATOM     42  N   UNL A   1      39.569  30.197  30.028  1.00  0.00    -0.354 N 
ATOM     43  C   UNL A   1      40.582  33.383  32.752  1.00  0.00     0.074 A 
ATOM     44  C   UNL A   1      39.532  34.379  32.799  1.00  0.00     0.031 C 
ATOM     45  C   UNL A   1      38.318  29.111  28.526  1.00  0.00     0.029 A 
ATOM     46  C   UNL A   1      39.590  29.073  29.240  1.00  0.00     0.049 A 
ATOM     47  H   UNL A   1      40.301  30.440  30.640  1.00  0.00     0.167 HD
ATOM     48  C   UNL A   1      41.724  33.443  33.476  1.00  0.00     0.037 A 
ATOM     49  C   UNL A   1      40.532  28.119  29.110  1.00  0.00     0.037 A 
ATOM     50  C   UNL A   1      42.755  32.439  33.453  1.00  0.00     0.049 A 
ATOM     51  C   UNL A   1      41.798  28.214  29.911  1.00  0.00     0.074 A 
ATOM     52  C   UNL A   1      43.921  32.381  34.194  1.00  0.00     0.029 A 
ATOM     53  N   UNL A   1      42.738  31.314  32.642  1.00  0.00    -0.354 N 
ATOM     54  N   UNL A   1      42.159  29.127  30.779  1.00  0.00    -0.248 NA
ATOM     55  C   UNL A   1      42.789  27.146  29.712  1.00  0.00     0.031 C 
ATOM     56  C   UNL A   1      44.627  31.235  33.809  1.00  0.00     0.029 A 
ATOM     57  C   UNL A   1      43.884  30.564  32.852  1.00  0.00     0.049 A 
ATOM     58  H   UNL A   1      42.019  31.083  32.011  1.00  0.00     0.167 HD
ATOM     59  C   UNL A   1      43.403  28.729  31.254  1.00  0.00     0.074 A 
ATOM     60  C   UNL A   1      43.734  27.492  30.575  1.00  0.00     0.031 C 
ATOM     61  C   UNL A   1      44.194  29.332  32.173  1.00  0.00     0.037 A 
BRANCH  48  62
ATOM     62  C   UNL A   1      41.913  34.645  34.352  1.00  0.00     0.057 A 
ATOM     63  C   UNL A   1      41.562  34.632  35.708  1.00  0.00     0.134 A 
ATOM     64  C   UNL A   1      42.451  35.830  33.833  1.00  0.00     0.134 A 
ATOM     65  F   UNL A   1      41.028  33.533  36.261  1.00  0.00    -0.206 F 
ATOM     66  C   UNL A   1      41.709  35.765  36.510  1.00  0.00     0.040 A 
ATOM     67  C   UNL A   1      42.624  36.962  34.632  1.00  0.00     0.040 A 
ATOM     68  F   UNL A   1      42.811  35.907  32.544  1.00  0.00    -0.206 F 
ATOM     69  C   UNL A   1      42.244  36.933  35.972  1.00  0.00     0.006 A 
ENDBRANCH  48  62
BRANCH  49  70
ATOM     70  C   UNL A   1      40.289  26.968  28.209  1.00  0.00     0.057 A 
ATOM     71  C   UNL A   1      39.475  25.905  28.614  1.00  0.00     0.134 A 
ATOM     72  C   UNL A   1      40.845  26.909  26.926  1.00  0.00     0.134 A 
ATOM     73  F   UNL A   1      38.931  25.902  29.839  1.00  0.00    -0.206 F 
ATOM     74  C   UNL A   1      39.225  24.818  27.777  1.00  0.00     0.040 A 
ATOM     75  C   UNL A   1      40.590  25.835  26.072  1.00  0.00     0.040 A 
ATOM     76  F   UNL A   1      41.627  27.902  26.480  1.00  0.00    -0.206 F 
ATOM     77  C   UNL A   1      39.780  24.784  26.498  1.00  0.00     0.006 A 
ENDBRANCH  49  70
BRANCH  61  78
ATOM     78  C   UNL A   1      45.477  28.644  32.527  1.00  0.00     0.057 A 
ATOM     79  C   UNL A   1      46.703  29.049  31.986  1.00  0.00     0.134 A 
ATOM     80  C   UNL A   1      45.490  27.591  33.450  1.00  0.00     0.134 A 
ATOM     81  F   UNL A   1      46.754  30.042  31.085  1.00  0.00    -0.206 F 
ATOM     82  C   UNL A   1      47.899  28.420  32.341  1.00  0.00     0.040 A 
ATOM     83  C   UNL A   1      46.680  26.967  33.827  1.00  0.00     0.040 A 
ATOM     84  F   UNL A   1      44.349  27.161  34.007  1.00  0.00    -0.206 F 
ATOM     85  C   UNL A   1      47.889  27.380  33.269  1.00  0.00     0.006 A 
ENDBRANCH  61  78
ENDBRANCH  35  36
ENDBRANCH  27  30
ENDBRANCH  25  26
ENDBRANCH  24  25
ENDBRANCH  23  24
ENDBRANCH   1  23
TORSDOF 16
ENDMDL
MODEL 3
REMARK VINA RESULT:      -9.5      0.540      6.256
REMARK SMILES Cc1ccc(-c2noc(CCC(=O)NCCCCCCNC(=O)c3ccc(-c4c5nc(c(-c6c(F)cccc6F)c6ccc([nH]6)c(-c6c(F)cccc6F)c6nc(c(-c7c(F)cccc7F)c7ccc4[nH]7)C=C6)C=C5)cc3)n2)cc1C
REMARK SMILES IDX 17 1 16 2 15 3 14 4 12 5 13 6 11 8 10 9 9 10 6 11 7 12 78 13
REMARK SMILES IDX 8 14 5 15 1 16 2 17 3 18 80 19 4 20 79 21 81 22 18 23 19 24
REMARK SMILES IDX 20 25 21 26 22 27 23 29 24 30 25 31 77 32 26 33 76 34 27 35
REMARK SMILES IDX 28 36 29 37 70 38 30 39 75 40 69 41 71 42 31 43 74 44 68 45
REMARK SMILES IDX 67 46 32 48 58 49 41 50 57 51 42 52 45 53 56 54 72 55 43 56
REMARK SMILES IDX 44 57 55 59 73 60 46 61 33 62 34 63 39 64 35 65 36 66 38 67
REMARK SMILES IDX 40 68 37 69 59 70 60 71 65 72 61 73 62 74 64 75 66 76 63 77
REMARK SMILES IDX 47 78 48 79 53 80 49 81 50 82 52 83 54 84 51 85
REMARK H PARENT 14 7 21 28 71 47 45 58
REMARK Flexibility Score: inf
ROOT
ATOM      1  C   UNL A   1      35.492  35.259  32.897  1.00  0.00     0.002 C 
ENDROOT
BRANCH   1   2
ATOM      2  C   UNL A   1      35.340  34.328  34.104  1.00  0.00     0.021 C 
BRANCH   2   3
ATOM      3  C   UNL A   1      36.651  33.682  34.550  1.00  0.00     0.116 C 
BRANCH   3   4
ATOM      4  N   UNL A   1      36.727  32.313  34.081  1.00  0.00    -0.356 N 
ATOM      5  C   UNL A   1      37.768  31.441  34.125  1.00  0.00     0.220 C 
ATOM      6  O   UNL A   1      37.652  30.352  33.563  1.00  0.00    -0.275 OA
ATOM      7  H   UNL A   1      35.904  31.964  33.670  1.00  0.00     0.163 HD
BRANCH   5   8
ATOM      8  C   UNL A   1      39.050  31.808  34.838  1.00  0.00     0.110 C 
BRANCH   8   9
ATOM      9  C   UNL A   1      39.447  30.746  35.852  1.00  0.00     0.110 C 
BRANCH   9  10
ATOM     10  C   UNL A   1      40.388  29.731  35.316  1.00  0.00     0.227 A 
ATOM     11  C   UNL A   1      41.521  28.040  34.792  1.00  0.00     0.202 A 
ATOM     12  N   UNL A   1      41.623  28.839  33.717  1.00  0.00    -0.057 NA
ATOM     13  N   UNL A   1      40.785  28.584  35.826  1.00  0.00    -0.191 NA
ATOM     14  O   UNL A   1      40.873  29.959  34.063  1.00  0.00    -0.339 OA
BRANCH  11  15
ATOM     15  C   UNL A   1      42.122  26.716  34.852  1.00  0.00     0.023 A 
ATOM     16  C   UNL A   1      43.790  22.722  35.068  1.00  0.00     0.044 C 
ATOM     17  C   UNL A   1      43.235  24.118  34.964  1.00  0.00    -0.048 A 
ATOM     18  C   UNL A   1      42.225  24.508  35.856  1.00  0.00     0.004 A 
ATOM     19  C   UNL A   1      43.699  25.043  34.006  1.00  0.00    -0.047 A 
ATOM     20  C   UNL A   1      41.669  25.788  35.795  1.00  0.00     0.012 A 
ATOM     21  C   UNL A   1      43.141  26.339  33.967  1.00  0.00     0.015 A 
ATOM     22  C   UNL A   1      44.731  24.677  32.971  1.00  0.00     0.044 C 
ENDBRANCH  11  15
ENDBRANCH   9  10
ENDBRANCH   8   9
ENDBRANCH   5   8
ENDBRANCH   3   4
ENDBRANCH   2   3
ENDBRANCH   1   2
BRANCH   1  23
ATOM     23  C   UNL A   1      34.360  36.280  32.720  1.00  0.00     0.002 C 
BRANCH  23  24
ATOM     24  C   UNL A   1      33.208  35.840  31.810  1.00  0.00     0.021 C 
BRANCH  24  25
ATOM     25  C   UNL A   1      33.345  36.255  30.347  1.00  0.00     0.116 C 
BRANCH  25  26
ATOM     26  N   UNL A   1      32.692  35.316  29.452  1.00  0.00    -0.352 N 
ATOM     27  C   UNL A   1      33.206  34.219  28.809  1.00  0.00     0.251 C 
ATOM     28  H   UNL A   1      31.739  35.493  29.280  1.00  0.00     0.163 HD
ATOM     29  O   UNL A   1      32.549  33.654  27.937  1.00  0.00    -0.269 OA
BRANCH  27  30
ATOM     30  C   UNL A   1      34.554  33.718  29.148  1.00  0.00     0.039 A 
ATOM     31  C   UNL A   1      34.689  32.817  30.209  1.00  0.00     0.014 A 
ATOM     32  C   UNL A   1      35.685  34.166  28.458  1.00  0.00     0.014 A 
ATOM     33  C   UNL A   1      35.952  32.330  30.550  1.00  0.00     0.010 A 
ATOM     34  C   UNL A   1      36.936  33.639  28.763  1.00  0.00     0.010 A 
ATOM     35  C   UNL A   1      37.082  32.724  29.818  1.00  0.00    -0.014 A 
BRANCH  35  36
ATOM     36  C   UNL A   1      38.433  32.215  30.156  1.00  0.00     0.031 A 
ATOM     37  C   UNL A   1      38.889  30.887  29.622  1.00  0.00     0.074 A 
ATOM     38  C   UNL A   1      39.221  32.910  30.996  1.00  0.00     0.049 A 
ATOM     39  N   UNL A   1      39.992  30.229  29.871  1.00  0.00    -0.248 NA
ATOM     40  C   UNL A   1      37.972  30.200  28.700  1.00  0.00     0.031 C 
ATOM     41  C   UNL A   1      38.885  34.199  31.601  1.00  0.00     0.029 A 
ATOM     42  N   UNL A   1      40.466  32.620  31.495  1.00  0.00    -0.354 N 
ATOM     43  C   UNL A   1      39.893  29.044  29.154  1.00  0.00     0.074 A 
ATOM     44  C   UNL A   1      38.605  29.057  28.492  1.00  0.00     0.031 C 
ATOM     45  C   UNL A   1      39.908  34.599  32.375  1.00  0.00     0.029 A 
ATOM     46  C   UNL A   1      40.954  33.581  32.345  1.00  0.00     0.049 A 
ATOM     47  H   UNL A   1      40.961  31.801  31.266  1.00  0.00     0.167 HD
ATOM     48  C   UNL A   1      40.799  28.044  29.041  1.00  0.00     0.037 A 
ATOM     49  C   UNL A   1      42.116  33.633  33.023  1.00  0.00     0.037 A 
ATOM     50  C   UNL A   1      42.092  28.044  29.674  1.00  0.00     0.049 A 
ATOM     51  C   UNL A   1      43.099  32.506  32.897  1.00  0.00     0.074 A 
ATOM     52  C   UNL A   1      43.102  27.105  29.574  1.00  0.00     0.029 A 
ATOM     53  N   UNL A   1      42.550  29.036  30.527  1.00  0.00    -0.354 N 
ATOM     54  N   UNL A   1      43.011  31.411  32.182  1.00  0.00    -0.248 NA
ATOM     55  C   UNL A   1      44.342  32.621  33.673  1.00  0.00     0.031 C 
ATOM     56  C   UNL A   1      44.162  27.514  30.391  1.00  0.00     0.029 A 
ATOM     57  C   UNL A   1      43.823  28.724  30.974  1.00  0.00     0.049 A 
ATOM     58  H   UNL A   1      42.045  29.844  30.776  1.00  0.00     0.167 HD
ATOM     59  C   UNL A   1      44.199  30.722  32.396  1.00  0.00     0.074 A 
ATOM     60  C   UNL A   1      44.989  31.522  33.309  1.00  0.00     0.031 C 
ATOM     61  C   UNL A   1      44.598  29.535  31.877  1.00  0.00     0.037 A 
BRANCH  48  62
ATOM     62  C   UNL A   1      40.411  26.865  28.201  1.00  0.00     0.057 A 
ATOM     63  C   UNL A   1      39.495  25.906  28.654  1.00  0.00     0.134 A 
ATOM     64  C   UNL A   1      40.962  26.683  26.926  1.00  0.00     0.134 A 
ATOM     65  F   UNL A   1      38.944  26.015  29.872  1.00  0.00    -0.206 F 
ATOM     66  C   UNL A   1      39.164  24.792  27.881  1.00  0.00     0.040 A 
ATOM     67  C   UNL A   1      40.620  25.585  26.134  1.00  0.00     0.040 A 
ATOM     68  F   UNL A   1      41.842  27.567  26.433  1.00  0.00    -0.206 F 
ATOM     69  C   UNL A   1      39.725  24.632  26.616  1.00  0.00     0.006 A 
ENDBRANCH  48  62
BRANCH  49  70
ATOM     70  C   UNL A   1      42.427  34.820  33.853  1.00  0.00     0.057 A 
ATOM     71  C   UNL A   1      42.149  34.825  35.225  1.00  0.00     0.134 A 
ATOM     72  C   UNL A   1      43.023  35.963  33.308  1.00  0.00     0.134 A 
ATOM     73  F   UNL A   1      41.564  33.763  35.797  1.00  0.00    -0.206 F 
ATOM     74  C   UNL A   1      42.445  35.928  36.025  1.00  0.00     0.040 A 
ATOM     75  C   UNL A   1      43.339  37.068  34.100  1.00  0.00     0.040 A 
ATOM     76  F   UNL A   1      43.319  36.014  32.001  1.00  0.00    -0.206 F 
ATOM     77  C   UNL A   1      43.048  37.052  35.463  1.00  0.00     0.006 A 
ENDBRANCH  49  70
BRANCH  61  78
ATOM     78  C   UNL A   1      45.964  29.050  32.255  1.00  0.00     0.057 A 
ATOM     79  C   UNL A   1      46.203  28.393  33.468  1.00  0.00     0.134 A 
ATOM     80  C   UNL A   1      47.044  29.206  31.377  1.00  0.00     0.134 A 
ATOM     81  F   UNL A   1      45.213  28.225  34.357  1.00  0.00    -0.206 F 
ATOM     82  C   UNL A   1      47.474  27.919  33.801  1.00  0.00     0.040 A 
ATOM     83  C   UNL A   1      48.314  28.721  31.689  1.00  0.00     0.040 A 
ATOM     84  F   UNL A   1      46.877  29.823  30.197  1.00  0.00    -0.206 F 
ATOM     85  C   UNL A   1      48.532  28.077  32.906  1.00  0.00     0.006 A 
ENDBRANCH  61  78
ENDBRANCH  35  36
ENDBRANCH  27  30
ENDBRANCH  25  26
ENDBRANCH  24  25
ENDBRANCH  23  24
ENDBRANCH   1  23
TORSDOF 16
ENDMDL
