MODEL 1
REMARK VINA RESULT:     -12.4      0.000      0.000
REMARK SMILES Cc1c2c([nH]c(=O)c1C(=O)NCCCCCCNC(=O)c1ccc(-c3c4nc(c(-c5c(F)cccc5F)c5ccc([nH]5)c(-c5c(F)cccc5F)c5nc(c(-c6c(F)cccc6F)c6ccc3[nH]6)C=C5)C=C4)cc1)CC(C)(C)CC2=O
REMARK SMILES IDX 15 1 14 2 13 3 12 4 11 5 9 6 10 7 8 9 1 10 2 11 3 12 4 13
REMARK SMILES IDX 80 14 6 15 5 16 75 17 79 18 81 19 7 20 76 22 77 23 78 24
REMARK SMILES IDX 16 25 17 26 18 27 19 28 20 30 21 31 22 32 74 33 23 34 73 35
REMARK SMILES IDX 24 36 25 37 26 38 67 39 27 40 72 41 66 42 68 43 28 44 71 45
REMARK SMILES IDX 65 46 64 47 29 49 55 50 38 51 54 52 39 53 42 54 53 55 69 56
REMARK SMILES IDX 40 57 41 58 52 60 70 61 43 62 30 63 31 64 36 65 32 66 33 67
REMARK SMILES IDX 35 68 37 69 34 70 56 71 57 72 62 73 58 74 59 75 61 76 63 77
REMARK SMILES IDX 60 78 44 79 45 80 50 81 46 82 47 83 49 84 51 85 48 86
REMARK H PARENT 11 8 5 21 18 29 68 48 42 59
REMARK Flexibility Score: inf
ROOT
ATOM      1  C   UNL A   1      37.310  21.148  24.625  1.00  0.00     0.002 C 
ENDROOT
BRANCH   1   2
ATOM      2  C   UNL A   1      35.888  21.039  25.190  1.00  0.00     0.002 C 
BRANCH   2   3
ATOM      3  C   UNL A   1      35.389  22.185  26.075  1.00  0.00     0.021 C 
BRANCH   3   4
ATOM      4  C   UNL A   1      34.148  21.901  26.910  1.00  0.00     0.116 C 
BRANCH   4   5
ATOM      5  N   UNL A   1      33.263  20.875  26.399  1.00  0.00    -0.352 N 
ATOM      6  C   UNL A   1      32.269  20.984  25.456  1.00  0.00     0.257 C 
ATOM      7  O   UNL A   1      31.778  19.953  25.000  1.00  0.00    -0.269 OA
ATOM      8  H   UNL A   1      33.391  19.976  26.781  1.00  0.00     0.163 HD
BRANCH   6   9
ATOM      9  C   UNL A   1      31.775  22.330  25.034  1.00  0.00     0.108 A 
ATOM     10  C   UNL A   1      32.528  22.112  22.625  1.00  0.00     0.046 C 
ATOM     11  C   UNL A   1      32.004  22.875  23.815  1.00  0.00    -0.020 A 
ATOM     12  C   UNL A   1      31.619  24.265  23.550  1.00  0.00     0.041 A 
ATOM     13  C   UNL A   1      30.698  24.870  24.320  1.00  0.00     0.030 A 
ATOM     14  C   UNL A   1      32.269  25.079  22.472  1.00  0.00     0.165 C 
ATOM     15  C   UNL A   1      30.821  23.057  25.944  1.00  0.00     0.261 A 
ATOM     16  N   UNL A   1      30.279  24.230  25.463  1.00  0.00    -0.325 N 
ATOM     17  C   UNL A   1      30.133  26.249  24.070  1.00  0.00     0.061 C 
ATOM     18  C   UNL A   1      31.545  26.309  21.990  1.00  0.00     0.088 C 
ATOM     19  O   UNL A   1      33.362  24.768  22.004  1.00  0.00    -0.294 OA
ATOM     20  O   UNL A   1      30.506  22.654  27.060  1.00  0.00    -0.269 OA
ATOM     21  H   UNL A   1      29.541  24.637  25.973  1.00  0.00     0.169 HD
ATOM     22  C   UNL A   1      31.022  27.139  23.171  1.00  0.00    -0.023 C 
ATOM     23  C   UNL A   1      32.192  27.720  23.994  1.00  0.00     0.012 C 
ATOM     24  C   UNL A   1      30.198  28.312  22.614  1.00  0.00     0.012 C 
ENDBRANCH   6   9
ENDBRANCH   4   5
ENDBRANCH   3   4
ENDBRANCH   2   3
ENDBRANCH   1   2
BRANCH   1  25
ATOM     25  C   UNL A   1      38.210  19.917  24.756  1.00  0.00     0.021 C 
BRANCH  25  26
ATOM     26  C   UNL A   1      39.033  19.819  26.034  1.00  0.00     0.116 C 
BRANCH  26  27
ATOM     27  N   UNL A   1      40.169  18.922  25.913  1.00  0.00    -0.352 N 
ATOM     28  C   UNL A   1      41.511  19.189  26.008  1.00  0.00     0.251 C 
ATOM     29  H   UNL A   1      39.941  17.980  25.737  1.00  0.00     0.163 HD
ATOM     30  O   UNL A   1      42.333  18.312  25.751  1.00  0.00    -0.269 OA
BRANCH  28  31
ATOM     31  C   UNL A   1      41.978  20.540  26.388  1.00  0.00     0.039 A 
ATOM     32  C   UNL A   1      42.275  21.455  25.376  1.00  0.00     0.014 A 
ATOM     33  C   UNL A   1      42.132  20.901  27.729  1.00  0.00     0.014 A 
ATOM     34  C   UNL A   1      42.672  22.751  25.708  1.00  0.00     0.010 A 
ATOM     35  C   UNL A   1      42.456  22.215  28.060  1.00  0.00     0.010 A 
ATOM     36  C   UNL A   1      42.736  23.151  27.054  1.00  0.00    -0.014 A 
BRANCH  36  37
ATOM     37  C   UNL A   1      43.112  24.538  27.420  1.00  0.00     0.031 A 
ATOM     38  C   UNL A   1      44.554  24.962  27.384  1.00  0.00     0.074 A 
ATOM     39  C   UNL A   1      42.161  25.406  27.818  1.00  0.00     0.049 A 
ATOM     40  N   UNL A   1      45.082  26.117  27.701  1.00  0.00    -0.248 NA
ATOM     41  C   UNL A   1      45.532  23.952  26.952  1.00  0.00     0.031 C 
ATOM     42  C   UNL A   1      40.732  25.104  27.921  1.00  0.00     0.029 A 
ATOM     43  N   UNL A   1      42.251  26.719  28.209  1.00  0.00    -0.354 N 
ATOM     44  C   UNL A   1      46.450  25.970  27.506  1.00  0.00     0.074 A 
ATOM     45  C   UNL A   1      46.677  24.599  27.106  1.00  0.00     0.031 C 
ATOM     46  C   UNL A   1      40.077  26.208  28.313  1.00  0.00     0.029 A 
ATOM     47  C   UNL A   1      41.041  27.283  28.530  1.00  0.00     0.049 A 
ATOM     48  H   UNL A   1      43.104  27.209  28.255  1.00  0.00     0.167 HD
ATOM     49  C   UNL A   1      47.424  26.903  27.620  1.00  0.00     0.037 A 
ATOM     50  C   UNL A   1      40.742  28.527  28.951  1.00  0.00     0.037 A 
ATOM     51  C   UNL A   1      47.192  28.270  28.005  1.00  0.00     0.049 A 
ATOM     52  C   UNL A   1      41.848  29.533  29.114  1.00  0.00     0.074 A 
ATOM     53  C   UNL A   1      48.109  29.300  28.114  1.00  0.00     0.029 A 
ATOM     54  N   UNL A   1      45.954  28.797  28.342  1.00  0.00    -0.354 N 
ATOM     55  N   UNL A   1      43.130  29.395  28.877  1.00  0.00    -0.248 NA
ATOM     56  C   UNL A   1      41.468  30.867  29.601  1.00  0.00     0.031 C 
ATOM     57  C   UNL A   1      47.435  30.437  28.568  1.00  0.00     0.029 A 
ATOM     58  C   UNL A   1      46.089  30.132  28.687  1.00  0.00     0.049 A 
ATOM     59  H   UNL A   1      45.106  28.297  28.338  1.00  0.00     0.167 HD
ATOM     60  C   UNL A   1      43.706  30.627  29.163  1.00  0.00     0.074 A 
ATOM     61  C   UNL A   1      42.629  31.505  29.573  1.00  0.00     0.031 C 
ATOM     62  C   UNL A   1      45.008  30.996  29.091  1.00  0.00     0.037 A 
BRANCH  49  63
ATOM     63  C   UNL A   1      48.832  26.482  27.310  1.00  0.00     0.057 A 
ATOM     64  C   UNL A   1      49.694  26.011  28.308  1.00  0.00     0.134 A 
ATOM     65  C   UNL A   1      49.312  26.493  25.994  1.00  0.00     0.134 A 
ATOM     66  F   UNL A   1      49.302  25.985  29.590  1.00  0.00    -0.206 F 
ATOM     67  C   UNL A   1      50.989  25.580  28.012  1.00  0.00     0.040 A 
ATOM     68  C   UNL A   1      50.594  26.038  25.681  1.00  0.00     0.040 A 
ATOM     69  F   UNL A   1      48.536  26.927  24.989  1.00  0.00    -0.206 F 
ATOM     70  C   UNL A   1      51.438  25.584  26.693  1.00  0.00     0.006 A 
ENDBRANCH  49  63
BRANCH  50  71
ATOM     71  C   UNL A   1      39.327  28.898  29.215  1.00  0.00     0.057 A 
ATOM     72  C   UNL A   1      38.756  28.699  30.477  1.00  0.00     0.134 A 
ATOM     73  C   UNL A   1      38.520  29.474  28.227  1.00  0.00     0.134 A 
ATOM     74  F   UNL A   1      39.472  28.133  31.460  1.00  0.00    -0.206 F 
ATOM     75  C   UNL A   1      37.432  29.051  30.746  1.00  0.00     0.040 A 
ATOM     76  C   UNL A   1      37.203  29.856  28.489  1.00  0.00     0.040 A 
ATOM     77  F   UNL A   1      39.009  29.696  26.997  1.00  0.00    -0.206 F 
ATOM     78  C   UNL A   1      36.654  29.639  29.751  1.00  0.00     0.006 A 
ENDBRANCH  50  71
BRANCH  62  79
ATOM     79  C   UNL A   1      45.351  32.413  29.448  1.00  0.00     0.057 A 
ATOM     80  C   UNL A   1      45.772  32.768  30.736  1.00  0.00     0.134 A 
ATOM     81  C   UNL A   1      45.339  33.419  28.472  1.00  0.00     0.134 A 
ATOM     82  F   UNL A   1      45.797  31.854  31.719  1.00  0.00    -0.206 F 
ATOM     83  C   UNL A   1      46.156  34.073  31.043  1.00  0.00     0.040 A 
ATOM     84  C   UNL A   1      45.749  34.721  28.759  1.00  0.00     0.040 A 
ATOM     85  F   UNL A   1      44.959  33.144  27.215  1.00  0.00    -0.206 F 
ATOM     86  C   UNL A   1      46.156  35.052  30.050  1.00  0.00     0.006 A 
ENDBRANCH  62  79
ENDBRANCH  36  37
ENDBRANCH  28  31
ENDBRANCH  26  27
ENDBRANCH  25  26
ENDBRANCH   1  25
TORSDOF 13
ENDMDL
MODEL 2
REMARK VINA RESULT:     -12.3      4.897     10.051
REMARK SMILES Cc1c2c([nH]c(=O)c1C(=O)NCCCCCCNC(=O)c1ccc(-c3c4nc(c(-c5c(F)cccc5F)c5ccc([nH]5)c(-c5c(F)cccc5F)c5nc(c(-c6c(F)cccc6F)c6ccc3[nH]6)C=C5)C=C4)cc1)CC(C)(C)CC2=O
REMARK SMILES IDX 15 1 14 2 13 3 12 4 11 5 9 6 10 7 8 9 1 10 2 11 3 12 4 13
REMARK SMILES IDX 80 14 6 15 5 16 75 17 79 18 81 19 7 20 76 22 77 23 78 24
REMARK SMILES IDX 16 25 17 26 18 27 19 28 20 30 21 31 22 32 74 33 23 34 73 35
REMARK SMILES IDX 24 36 25 37 26 38 67 39 27 40 72 41 66 42 68 43 28 44 71 45
REMARK SMILES IDX 65 46 64 47 29 49 55 50 38 51 54 52 39 53 42 54 53 55 69 56
REMARK SMILES IDX 40 57 41 58 52 60 70 61 43 62 30 63 31 64 36 65 32 66 33 67
REMARK SMILES IDX 35 68 37 69 34 70 56 71 57 72 62 73 58 74 59 75 61 76 63 77
REMARK SMILES IDX 60 78 44 79 45 80 50 81 46 82 47 83 49 84 51 85 48 86
REMARK H PARENT 11 8 5 21 18 29 68 48 42 59
REMARK Flexibility Score: inf
ROOT
ATOM      1  C   UNL A   1      31.775  30.537  26.785  1.00  0.00     0.002 C 
ENDROOT
BRANCH   1   2
ATOM      2  C   UNL A   1      31.799  29.912  25.386  1.00  0.00     0.002 C 
BRANCH   2   3
ATOM      3  C   UNL A   1      33.094  29.230  24.938  1.00  0.00     0.021 C 
BRANCH   3   4
ATOM      4  C   UNL A   1      33.203  28.894  23.457  1.00  0.00     0.116 C 
BRANCH   4   5
ATOM      5  N   UNL A   1      31.973  28.977  22.697  1.00  0.00    -0.352 N 
ATOM      6  C   UNL A   1      31.021  28.008  22.487  1.00  0.00     0.257 C 
ATOM      7  O   UNL A   1      29.944  28.342  21.996  1.00  0.00    -0.269 OA
ATOM      8  H   UNL A   1      31.795  29.848  22.272  1.00  0.00     0.163 HD
BRANCH   6   9
ATOM      9  C   UNL A   1      31.317  26.579  22.811  1.00  0.00     0.108 A 
ATOM     10  C   UNL A   1      29.515  26.363  24.579  1.00  0.00     0.046 C 
ATOM     11  C   UNL A   1      30.732  25.894  23.824  1.00  0.00    -0.020 A 
ATOM     12  C   UNL A   1      31.204  24.548  24.165  1.00  0.00     0.041 A 
ATOM     13  C   UNL A   1      31.897  23.827  23.266  1.00  0.00     0.030 A 
ATOM     14  C   UNL A   1      30.996  23.953  25.525  1.00  0.00     0.165 C 
ATOM     15  C   UNL A   1      32.178  25.796  21.858  1.00  0.00     0.261 A 
ATOM     16  N   UNL A   1      32.317  24.448  22.113  1.00  0.00    -0.325 N 
ATOM     17  C   UNL A   1      32.327  22.391  23.458  1.00  0.00     0.061 C 
ATOM     18  C   UNL A   1      31.118  22.458  25.661  1.00  0.00     0.088 C 
ATOM     19  O   UNL A   1      30.751  24.657  26.502  1.00  0.00    -0.294 OA
ATOM     20  O   UNL A   1      32.738  26.290  20.884  1.00  0.00    -0.269 OA
ATOM     21  H   UNL A   1      32.745  23.892  21.422  1.00  0.00     0.169 HD
ATOM     22  C   UNL A   1      32.365  21.937  24.935  1.00  0.00    -0.023 C 
ATOM     23  C   UNL A   1      33.651  22.457  25.613  1.00  0.00     0.012 C 
ATOM     24  C   UNL A   1      32.368  20.401  25.013  1.00  0.00     0.012 C 
ENDBRANCH   6   9
ENDBRANCH   4   5
ENDBRANCH   3   4
ENDBRANCH   2   3
ENDBRANCH   1   2
BRANCH   1  25
ATOM     25  C   UNL A   1      31.521  32.044  26.874  1.00  0.00     0.021 C 
BRANCH  25  26
ATOM     26  C   UNL A   1      32.757  32.930  26.954  1.00  0.00     0.116 C 
BRANCH  26  27
ATOM     27  N   UNL A   1      32.509  34.197  27.620  1.00  0.00    -0.352 N 
ATOM     28  C   UNL A   1      33.122  34.746  28.717  1.00  0.00     0.251 C 
ATOM     29  H   UNL A   1      31.792  34.744  27.224  1.00  0.00     0.163 HD
ATOM     30  O   UNL A   1      32.685  35.783  29.212  1.00  0.00    -0.269 OA
BRANCH  28  31
ATOM     31  C   UNL A   1      34.292  34.080  29.329  1.00  0.00     0.039 A 
ATOM     32  C   UNL A   1      34.071  33.084  30.284  1.00  0.00     0.014 A 
ATOM     33  C   UNL A   1      35.595  34.437  28.975  1.00  0.00     0.014 A 
ATOM     34  C   UNL A   1      35.156  32.407  30.842  1.00  0.00     0.010 A 
ATOM     35  C   UNL A   1      36.673  33.710  29.477  1.00  0.00     0.010 A 
ATOM     36  C   UNL A   1      36.465  32.694  30.420  1.00  0.00    -0.014 A 
BRANCH  36  37
ATOM     37  C   UNL A   1      37.625  31.950  30.971  1.00  0.00     0.031 A 
ATOM     38  C   UNL A   1      38.121  32.249  32.358  1.00  0.00     0.074 A 
ATOM     39  C   UNL A   1      38.252  31.031  30.211  1.00  0.00     0.049 A 
ATOM     40  N   UNL A   1      39.137  31.732  33.000  1.00  0.00    -0.248 NA
ATOM     41  C   UNL A   1      37.389  33.276  33.118  1.00  0.00     0.031 C 
ATOM     42  C   UNL A   1      37.882  30.673  28.841  1.00  0.00     0.029 A 
ATOM     43  N   UNL A   1      39.332  30.229  30.483  1.00  0.00    -0.354 N 
ATOM     44  C   UNL A   1      39.165  32.369  34.235  1.00  0.00     0.074 A 
ATOM     45  C   UNL A   1      38.106  33.354  34.228  1.00  0.00     0.031 C 
ATOM     46  C   UNL A   1      38.697  29.700  28.406  1.00  0.00     0.029 A 
ATOM     47  C   UNL A   1      39.674  29.394  29.447  1.00  0.00     0.049 A 
ATOM     48  H   UNL A   1      39.817  30.250  31.340  1.00  0.00     0.167 HD
ATOM     49  C   UNL A   1      39.981  32.132  35.289  1.00  0.00     0.037 A 
ATOM     50  C   UNL A   1      40.663  28.485  29.348  1.00  0.00     0.037 A 
ATOM     51  C   UNL A   1      41.023  31.141  35.296  1.00  0.00     0.049 A 
ATOM     52  C   UNL A   1      41.584  28.272  30.517  1.00  0.00     0.074 A 
ATOM     53  C   UNL A   1      41.880  30.800  36.329  1.00  0.00     0.029 A 
ATOM     54  N   UNL A   1      41.352  30.330  34.219  1.00  0.00    -0.354 N 
ATOM     55  N   UNL A   1      41.568  28.845  31.696  1.00  0.00    -0.248 NA
ATOM     56  C   UNL A   1      42.661  27.286  30.344  1.00  0.00     0.031 C 
ATOM     57  C   UNL A   1      42.760  29.822  35.860  1.00  0.00     0.029 A 
ATOM     58  C   UNL A   1      42.417  29.510  34.555  1.00  0.00     0.049 A 
ATOM     59  H   UNL A   1      40.897  30.337  33.346  1.00  0.00     0.167 HD
ATOM     60  C   UNL A   1      42.613  28.275  32.412  1.00  0.00     0.074 A 
ATOM     61  C   UNL A   1      43.231  27.298  31.541  1.00  0.00     0.031 C 
ATOM     62  C   UNL A   1      43.021  28.539  33.678  1.00  0.00     0.037 A 
BRANCH  49  63
ATOM     63  C   UNL A   1      39.768  32.947  36.531  1.00  0.00     0.057 A 
ATOM     64  C   UNL A   1      40.471  34.138  36.758  1.00  0.00     0.134 A 
ATOM     65  C   UNL A   1      38.811  32.572  37.483  1.00  0.00     0.134 A 
ATOM     66  F   UNL A   1      41.411  34.548  35.893  1.00  0.00    -0.206 F 
ATOM     67  C   UNL A   1      40.243  34.917  37.894  1.00  0.00     0.040 A 
ATOM     68  C   UNL A   1      38.553  33.358  38.608  1.00  0.00     0.040 A 
ATOM     69  F   UNL A   1      38.097  31.448  37.325  1.00  0.00    -0.206 F 
ATOM     70  C   UNL A   1      39.273  34.532  38.817  1.00  0.00     0.006 A 
ENDBRANCH  49  63
BRANCH  50  71
ATOM     71  C   UNL A   1      40.808  27.684  28.104  1.00  0.00     0.057 A 
ATOM     72  C   UNL A   1      41.589  28.147  27.039  1.00  0.00     0.134 A 
ATOM     73  C   UNL A   1      40.193  26.436  27.956  1.00  0.00     0.134 A 
ATOM     74  F   UNL A   1      42.189  29.345  27.113  1.00  0.00    -0.206 F 
ATOM     75  C   UNL A   1      41.746  27.404  25.868  1.00  0.00     0.040 A 
ATOM     76  C   UNL A   1      40.362  25.669  26.802  1.00  0.00     0.040 A 
ATOM     77  F   UNL A   1      39.435  25.932  28.943  1.00  0.00    -0.206 F 
ATOM     78  C   UNL A   1      41.137  26.156  25.751  1.00  0.00     0.006 A 
ENDBRANCH  50  71
BRANCH  62  79
ATOM     79  C   UNL A   1      44.183  27.753  34.212  1.00  0.00     0.057 A 
ATOM     80  C   UNL A   1      45.483  28.276  34.227  1.00  0.00     0.134 A 
ATOM     81  C   UNL A   1      43.987  26.492  34.793  1.00  0.00     0.134 A 
ATOM     82  F   UNL A   1      45.740  29.474  33.679  1.00  0.00    -0.206 F 
ATOM     83  C   UNL A   1      46.546  27.570  34.788  1.00  0.00     0.040 A 
ATOM     84  C   UNL A   1      45.038  25.789  35.383  1.00  0.00     0.040 A 
ATOM     85  F   UNL A   1      42.766  25.938  34.823  1.00  0.00    -0.206 F 
ATOM     86  C   UNL A   1      46.323  26.326  35.378  1.00  0.00     0.006 A 
ENDBRANCH  62  79
ENDBRANCH  36  37
ENDBRANCH  28  31
ENDBRANCH  26  27
ENDBRANCH  25  26
ENDBRANCH   1  25
TORSDOF 13
ENDMDL
MODEL 3
REMARK VINA RESULT:     -12.3      0.903      1.355
REMARK SMILES Cc1c2c([nH]c(=O)c1C(=O)NCCCCCCNC(=O)c1ccc(-c3c4nc(c(-c5c(F)cccc5F)c5ccc([nH]5)c(-c5c(F)cccc5F)c5nc(c(-c6c(F)cccc6F)c6ccc3[nH]6)C=C5)C=C4)cc1)CC(C)(C)CC2=O
REMARK SMILES IDX 15 1 14 2 13 3 12 4 11 5 9 6 10 7 8 9 1 10 2 11 3 12 4 13
REMARK SMILES IDX 80 14 6 15 5 16 75 17 79 18 81 19 7 20 76 22 77 23 78 24
REMARK SMILES IDX 16 25 17 26 18 27 19 28 20 30 21 31 22 32 74 33 23 34 73 35
REMARK SMILES IDX 24 36 25 37 26 38 67 39 27 40 72 41 66 42 68 43 28 44 71 45
REMARK SMILES IDX 65 46 64 47 29 49 55 50 38 51 54 52 39 53 42 54 53 55 69 56
REMARK SMILES IDX 40 57 41 58 52 60 70 61 43 62 30 63 31 64 36 65 32 66 33 67
REMARK SMILES IDX 35 68 37 69 34 70 56 71 57 72 62 73 58 74 59 75 61 76 63 77
REMARK SMILES IDX 60 78 44 79 45 80 50 81 46 82 47 83 49 84 51 85 48 86
REMARK H PARENT 11 8 5 21 18 29 68 48 42 59
REMARK Flexibility Score: inf
ROOT
ATOM      1  C   UNL A   1      36.428  19.837  25.001  1.00  0.00     0.002 C 
ENDROOT
BRANCH   1   2
ATOM      2  C   UNL A   1      35.697  21.180  24.882  1.00  0.00     0.002 C 
BRANCH   2   3
ATOM      3  C   UNL A   1      35.505  21.998  26.162  1.00  0.00     0.021 C 
BRANCH   3   4
ATOM      4  C   UNL A   1      34.139  21.902  26.826  1.00  0.00     0.116 C 
BRANCH   4   5
ATOM      5  N   UNL A   1      33.261  20.866  26.322  1.00  0.00    -0.352 N 
ATOM      6  C   UNL A   1      32.281  20.956  25.362  1.00  0.00     0.257 C 
ATOM      7  O   UNL A   1      31.797  19.916  24.919  1.00  0.00    -0.269 OA
ATOM      8  H   UNL A   1      33.384  19.974  26.722  1.00  0.00     0.163 HD
BRANCH   6   9
ATOM      9  C   UNL A   1      31.793  22.294  24.909  1.00  0.00     0.108 A 
ATOM     10  C   UNL A   1      32.616  22.048  22.525  1.00  0.00     0.046 C 
ATOM     11  C   UNL A   1      32.053  22.825  23.689  1.00  0.00    -0.020 A 
ATOM     12  C   UNL A   1      31.669  24.208  23.395  1.00  0.00     0.041 A 
ATOM     13  C   UNL A   1      30.723  24.818  24.130  1.00  0.00     0.030 A 
ATOM     14  C   UNL A   1      32.346  25.012  22.326  1.00  0.00     0.165 C 
ATOM     15  C   UNL A   1      30.809  23.027  25.781  1.00  0.00     0.261 A 
ATOM     16  N   UNL A   1      30.274  24.191  25.269  1.00  0.00    -0.325 N 
ATOM     17  C   UNL A   1      30.158  26.191  23.846  1.00  0.00     0.061 C 
ATOM     18  C   UNL A   1      31.630  26.232  21.807  1.00  0.00     0.088 C 
ATOM     19  O   UNL A   1      33.454  24.701  21.894  1.00  0.00    -0.294 OA
ATOM     20  O   UNL A   1      30.464  22.638  26.892  1.00  0.00    -0.269 OA
ATOM     21  H   UNL A   1      29.520  24.600  25.752  1.00  0.00     0.169 HD
ATOM     22  C   UNL A   1      31.068  27.074  22.961  1.00  0.00    -0.023 C 
ATOM     23  C   UNL A   1      32.210  27.672  23.810  1.00  0.00     0.012 C 
ATOM     24  C   UNL A   1      30.254  28.235  22.365  1.00  0.00     0.012 C 
ENDBRANCH   6   9
ENDBRANCH   4   5
ENDBRANCH   3   4
ENDBRANCH   2   3
ENDBRANCH   1   2
BRANCH   1  25
ATOM     25  C   UNL A   1      37.918  19.819  24.654  1.00  0.00     0.021 C 
BRANCH  25  26
ATOM     26  C   UNL A   1      38.880  20.085  25.805  1.00  0.00     0.116 C 
BRANCH  26  27
ATOM     27  N   UNL A   1      40.012  19.175  25.824  1.00  0.00    -0.352 N 
ATOM     28  C   UNL A   1      41.328  19.420  26.126  1.00  0.00     0.251 C 
ATOM     29  H   UNL A   1      39.804  18.244  25.583  1.00  0.00     0.163 HD
ATOM     30  O   UNL A   1      42.170  18.539  25.964  1.00  0.00    -0.269 OA
BRANCH  28  31
ATOM     31  C   UNL A   1      41.746  20.750  26.617  1.00  0.00     0.039 A 
ATOM     32  C   UNL A   1      42.124  21.720  25.686  1.00  0.00     0.014 A 
ATOM     33  C   UNL A   1      41.776  21.039  27.984  1.00  0.00     0.014 A 
ATOM     34  C   UNL A   1      42.477  22.998  26.121  1.00  0.00     0.010 A 
ATOM     35  C   UNL A   1      42.056  22.336  28.412  1.00  0.00     0.010 A 
ATOM     36  C   UNL A   1      42.416  23.325  27.486  1.00  0.00    -0.014 A 
BRANCH  36  37
ATOM     37  C   UNL A   1      42.745  24.692  27.958  1.00  0.00     0.031 A 
ATOM     38  C   UNL A   1      44.176  25.083  28.198  1.00  0.00     0.074 A 
ATOM     39  C   UNL A   1      41.754  25.572  28.203  1.00  0.00     0.049 A 
ATOM     40  N   UNL A   1      44.660  26.216  28.641  1.00  0.00    -0.248 NA
ATOM     41  C   UNL A   1      45.198  24.062  27.919  1.00  0.00     0.031 C 
ATOM     42  C   UNL A   1      40.324  25.301  28.035  1.00  0.00     0.029 A 
ATOM     43  N   UNL A   1      41.795  26.871  28.645  1.00  0.00    -0.354 N 
ATOM     44  C   UNL A   1      46.037  26.042  28.693  1.00  0.00     0.074 A 
ATOM     45  C   UNL A   1      46.308  24.677  28.298  1.00  0.00     0.031 C 
ATOM     46  C   UNL A   1      39.630  26.409  28.336  1.00  0.00     0.029 A 
ATOM     47  C   UNL A   1      40.557  27.455  28.758  1.00  0.00     0.049 A 
ATOM     48  H   UNL A   1      42.634  27.339  28.861  1.00  0.00     0.167 HD
ATOM     49  C   UNL A   1      46.991  26.948  29.012  1.00  0.00     0.037 A 
ATOM     50  C   UNL A   1      40.210  28.694  29.156  1.00  0.00     0.037 A 
ATOM     51  C   UNL A   1      46.718  28.308  29.390  1.00  0.00     0.049 A 
ATOM     52  C   UNL A   1      41.285  29.668  29.549  1.00  0.00     0.074 A 
ATOM     53  C   UNL A   1      47.619  29.313  29.697  1.00  0.00     0.029 A 
ATOM     54  N   UNL A   1      45.450  28.856  29.514  1.00  0.00    -0.354 N 
ATOM     55  N   UNL A   1      42.587  29.506  29.545  1.00  0.00    -0.248 NA
ATOM     56  C   UNL A   1      40.848  30.997  30.000  1.00  0.00     0.031 C 
ATOM     57  C   UNL A   1      46.895  30.453  30.056  1.00  0.00     0.029 A 
ATOM     58  C   UNL A   1      45.544  30.177  29.919  1.00  0.00     0.049 A 
ATOM     59  H   UNL A   1      44.607  28.377  29.340  1.00  0.00     0.167 HD
ATOM     60  C   UNL A   1      43.123  30.716  29.969  1.00  0.00     0.074 A 
ATOM     61  C   UNL A   1      42.007  31.607  30.204  1.00  0.00     0.031 C 
ATOM     62  C   UNL A   1      44.424  31.055  30.147  1.00  0.00     0.037 A 
BRANCH  49  63
ATOM     63  C   UNL A   1      48.424  26.502  28.950  1.00  0.00     0.057 A 
ATOM     64  C   UNL A   1      49.189  26.650  27.786  1.00  0.00     0.134 A 
ATOM     65  C   UNL A   1      49.062  25.975  30.080  1.00  0.00     0.134 A 
ATOM     66  F   UNL A   1      48.637  27.136  26.665  1.00  0.00    -0.206 F 
ATOM     67  C   UNL A   1      50.534  26.274  27.743  1.00  0.00     0.040 A 
ATOM     68  C   UNL A   1      50.413  25.623  30.058  1.00  0.00     0.040 A 
ATOM     69  F   UNL A   1      48.389  25.813  31.229  1.00  0.00    -0.206 F 
ATOM     70  C   UNL A   1      51.151  25.768  28.885  1.00  0.00     0.006 A 
ENDBRANCH  49  63
BRANCH  50  71
ATOM     71  C   UNL A   1      38.777  29.090  29.171  1.00  0.00     0.057 A 
ATOM     72  C   UNL A   1      38.014  28.986  30.339  1.00  0.00     0.134 A 
ATOM     73  C   UNL A   1      38.143  29.600  28.032  1.00  0.00     0.134 A 
ATOM     74  F   UNL A   1      38.560  28.487  31.459  1.00  0.00    -0.206 F 
ATOM     75  C   UNL A   1      36.671  29.364  30.374  1.00  0.00     0.040 A 
ATOM     76  C   UNL A   1      36.808  30.007  28.057  1.00  0.00     0.040 A 
ATOM     77  F   UNL A   1      38.820  29.731  26.880  1.00  0.00    -0.206 F 
ATOM     78  C   UNL A   1      36.066  29.884  29.231  1.00  0.00     0.006 A 
ENDBRANCH  50  71
BRANCH  62  79
ATOM     79  C   UNL A   1      44.722  32.453  30.604  1.00  0.00     0.057 A 
ATOM     80  C   UNL A   1      44.900  32.764  31.957  1.00  0.00     0.134 A 
ATOM     81  C   UNL A   1      44.914  33.484  29.673  1.00  0.00     0.134 A 
ATOM     82  F   UNL A   1      44.721  31.825  32.900  1.00  0.00    -0.206 F 
ATOM     83  C   UNL A   1      45.246  34.051  32.371  1.00  0.00     0.040 A 
ATOM     84  C   UNL A   1      45.288  34.767  30.072  1.00  0.00     0.040 A 
ATOM     85  F   UNL A   1      44.771  33.251  28.360  1.00  0.00    -0.206 F 
ATOM     86  C   UNL A   1      45.452  35.054  31.425  1.00  0.00     0.006 A 
ENDBRANCH  62  79
ENDBRANCH  36  37
ENDBRANCH  28  31
ENDBRANCH  26  27
ENDBRANCH  25  26
ENDBRANCH   1  25
TORSDOF 13
ENDMDL
