MODEL 1
REMARK VINA RESULT:     -11.1      0.000      0.000
REMARK SMILES CC(C)(C)OC(=O)N[C@@H](C(=O)NCCCCCCNC(=O)c1ccc(-c2c3nc(c(-c4c(F)cccc4F)c4ccc([nH]4)c(-c4c(F)cccc4F)c4nc(c(-c5c(F)cccc5F)c5ccc2[nH]5)C=C4)C=C3)cc1)[C@H](O)c1ccccc1F
REMARK SMILES IDX 15 1 14 2 13 3 12 4 10 5 11 6 9 8 8 9 6 10 7 11 5 13 2 14
REMARK SMILES IDX 1 15 3 16 4 17 76 18 78 19 79 20 83 21 80 22 82 23 84 24
REMARK SMILES IDX 81 25 77 26 16 28 17 29 18 30 19 31 20 32 21 34 22 35 23 36
REMARK SMILES IDX 75 37 24 38 74 39 25 40 26 41 27 42 68 43 28 44 73 45 67 46
REMARK SMILES IDX 69 47 29 48 72 49 66 50 65 51 30 53 56 54 39 55 55 56 40 57
REMARK SMILES IDX 43 58 54 59 70 60 41 61 42 62 53 64 71 65 44 66 31 67 32 68
REMARK SMILES IDX 37 69 33 70 34 71 36 72 38 73 35 74 57 75 58 76 63 77 59 78
REMARK SMILES IDX 60 79 62 80 64 81 61 82 45 83 46 84 51 85 47 86 48 87 50 88
REMARK SMILES IDX 52 89 49 90
REMARK H PARENT 12 7 8 12 77 27 19 33 69 52 43 63
REMARK Flexibility Score: inf
ROOT
ATOM      1  C   UNL A   1      32.151  29.910  26.666  1.00  0.00     0.002 C 
ENDROOT
BRANCH   1   2
ATOM      2  C   UNL A   1      31.741  28.447  26.451  1.00  0.00     0.021 C 
BRANCH   2   3
ATOM      3  C   UNL A   1      32.918  27.544  26.095  1.00  0.00     0.116 C 
BRANCH   3   4
ATOM      4  N   UNL A   1      33.727  28.142  25.063  1.00  0.00    -0.354 N 
ATOM      5  C   UNL A   1      33.641  28.043  23.710  1.00  0.00     0.245 C 
ATOM      6  O   UNL A   1      34.440  28.735  23.073  1.00  0.00    -0.273 OA
ATOM      7  H   UNL A   1      34.458  28.713  25.390  1.00  0.00     0.163 HD
BRANCH   5   8
ATOM      8  C   UNL A   1      32.490  27.268  23.021  1.00  0.00     0.208 C 
BRANCH   8   9
ATOM      9  N   UNL A   1      32.890  26.314  21.974  1.00  0.00    -0.307 N 
ATOM     10  C   UNL A   1      32.828  24.960  21.905  1.00  0.00     0.408 C 
ATOM     11  O   UNL A   1      33.236  24.389  20.907  1.00  0.00    -0.225 OA
ATOM     12  H   UNL A   1      33.276  26.738  21.173  1.00  0.00     0.168 HD
BRANCH  10  13
ATOM     13  O   UNL A   1      32.366  24.364  23.030  1.00  0.00    -0.444 OA
BRANCH  13  14
ATOM     14  C   UNL A   1      33.235  23.441  23.748  1.00  0.00     0.106 C 
ATOM     15  C   UNL A   1      32.912  23.650  25.235  1.00  0.00     0.056 C 
ATOM     16  C   UNL A   1      34.720  23.780  23.536  1.00  0.00     0.056 C 
ATOM     17  C   UNL A   1      32.928  21.985  23.381  1.00  0.00     0.056 C 
ENDBRANCH  13  14
ENDBRANCH  10  13
ENDBRANCH   8   9
BRANCH   8  18
ATOM     18  C   UNL A   1      31.460  28.310  22.483  1.00  0.00     0.179 C 
BRANCH  18  19
ATOM     19  C   UNL A   1      29.983  28.218  22.850  1.00  0.00     0.019 A 
ATOM     20  C   UNL A   1      29.551  27.071  23.543  1.00  0.00     0.009 A 
ATOM     21  C   UNL A   1      29.007  29.176  22.552  1.00  0.00     0.129 A 
ATOM     22  C   UNL A   1      28.204  26.879  23.873  1.00  0.00     0.001 A 
ATOM     23  C   UNL A   1      27.658  28.980  22.850  1.00  0.00     0.039 A 
ATOM     24  F   UNL A   1      29.321  30.333  21.957  1.00  0.00    -0.207 F 
ATOM     25  C   UNL A   1      27.253  27.825  23.507  1.00  0.00     0.003 A 
ENDBRANCH  18  19
BRANCH  18  26
ATOM     26  O   UNL A   1      31.915  29.625  22.861  1.00  0.00    -0.386 OA
ATOM     27  H   UNL A   1      31.368  29.959  23.589  1.00  0.00     0.211 HD
ENDBRANCH  18  26
ENDBRANCH   8  18
ENDBRANCH   5   8
ENDBRANCH   3   4
ENDBRANCH   2   3
ENDBRANCH   1   2
BRANCH   1  28
ATOM     28  C   UNL A   1      31.299  30.933  25.906  1.00  0.00     0.002 C 
BRANCH  28  29
ATOM     29  C   UNL A   1      31.151  32.285  26.607  1.00  0.00     0.021 C 
BRANCH  29  30
ATOM     30  C   UNL A   1      32.457  32.837  27.164  1.00  0.00     0.116 C 
BRANCH  30  31
ATOM     31  N   UNL A   1      32.334  34.238  27.534  1.00  0.00    -0.352 N 
ATOM     32  C   UNL A   1      33.024  34.948  28.482  1.00  0.00     0.251 C 
ATOM     33  H   UNL A   1      31.658  34.749  27.032  1.00  0.00     0.163 HD
ATOM     34  O   UNL A   1      32.638  36.061  28.823  1.00  0.00    -0.269 OA
BRANCH  32  35
ATOM     35  C   UNL A   1      34.226  34.357  29.105  1.00  0.00     0.039 A 
ATOM     36  C   UNL A   1      34.095  33.680  30.318  1.00  0.00     0.014 A 
ATOM     37  C   UNL A   1      35.479  34.479  28.495  1.00  0.00     0.014 A 
ATOM     38  C   UNL A   1      35.213  33.078  30.894  1.00  0.00     0.010 A 
ATOM     39  C   UNL A   1      36.575  33.810  29.029  1.00  0.00     0.010 A 
ATOM     40  C   UNL A   1      36.456  33.111  30.239  1.00  0.00    -0.014 A 
BRANCH  40  41
ATOM     41  C   UNL A   1      37.639  32.421  30.809  1.00  0.00     0.031 A 
ATOM     42  C   UNL A   1      38.248  32.900  32.097  1.00  0.00     0.074 A 
ATOM     43  C   UNL A   1      38.195  31.393  30.139  1.00  0.00     0.049 A 
ATOM     44  N   UNL A   1      39.304  32.453  32.730  1.00  0.00    -0.248 NA
ATOM     45  C   UNL A   1      37.599  34.048  32.751  1.00  0.00     0.031 C 
ATOM     46  C   UNL A   1      37.723  30.863  28.858  1.00  0.00     0.029 A 
ATOM     47  N   UNL A   1      39.281  30.610  30.443  1.00  0.00    -0.354 N 
ATOM     48  C   UNL A   1      39.448  33.267  33.846  1.00  0.00     0.074 A 
ATOM     49  C   UNL A   1      38.411  34.272  33.773  1.00  0.00     0.031 C 
ATOM     50  C   UNL A   1      38.495  29.824  28.501  1.00  0.00     0.029 A 
ATOM     51  C   UNL A   1      39.539  29.640  29.504  1.00  0.00     0.049 A 
ATOM     52  H   UNL A   1      39.822  30.731  31.255  1.00  0.00     0.167 HD
ATOM     53  C   UNL A   1      40.346  33.168  34.855  1.00  0.00     0.037 A 
ATOM     54  C   UNL A   1      40.513  28.711  29.454  1.00  0.00     0.037 A 
ATOM     55  C   UNL A   1      41.370  32.158  34.929  1.00  0.00     0.049 A 
ATOM     56  C   UNL A   1      41.516  28.642  30.574  1.00  0.00     0.074 A 
ATOM     57  C   UNL A   1      42.300  31.946  35.932  1.00  0.00     0.029 A 
ATOM     58  N   UNL A   1      41.601  31.194  33.959  1.00  0.00    -0.354 N 
ATOM     59  N   UNL A   1      41.600  29.376  31.656  1.00  0.00    -0.248 NA
ATOM     60  C   UNL A   1      42.555  27.609  30.466  1.00  0.00     0.031 C 
ATOM     61  C   UNL A   1      43.128  30.888  35.542  1.00  0.00     0.029 A 
ATOM     62  C   UNL A   1      42.675  30.401  34.327  1.00  0.00     0.049 A 
ATOM     63  H   UNL A   1      41.080  31.090  33.130  1.00  0.00     0.167 HD
ATOM     64  C   UNL A   1      42.679  28.874  32.374  1.00  0.00     0.074 A 
ATOM     65  C   UNL A   1      43.207  27.763  31.609  1.00  0.00     0.031 C 
ATOM     66  C   UNL A   1      43.187  29.294  33.559  1.00  0.00     0.037 A 
BRANCH  53  67
ATOM     67  C   UNL A   1      40.261  34.181  35.962  1.00  0.00     0.057 A 
ATOM     68  C   UNL A   1      40.984  35.381  35.922  1.00  0.00     0.134 A 
ATOM     69  C   UNL A   1      39.422  33.970  37.063  1.00  0.00     0.134 A 
ATOM     70  F   UNL A   1      41.815  35.642  34.902  1.00  0.00    -0.206 F 
ATOM     71  C   UNL A   1      40.895  36.321  36.950  1.00  0.00     0.040 A 
ATOM     72  C   UNL A   1      39.302  34.917  38.082  1.00  0.00     0.040 A 
ATOM     73  F   UNL A   1      38.696  32.846  37.163  1.00  0.00    -0.206 F 
ATOM     74  C   UNL A   1      40.046  36.094  38.031  1.00  0.00     0.006 A 
ENDBRANCH  53  67
BRANCH  54  75
ATOM     75  C   UNL A   1      40.578  27.758  28.318  1.00  0.00     0.057 A 
ATOM     76  C   UNL A   1      39.952  26.507  28.389  1.00  0.00     0.134 A 
ATOM     77  C   UNL A   1      41.273  28.064  27.142  1.00  0.00     0.134 A 
ATOM     78  F   UNL A   1      39.285  26.148  29.495  1.00  0.00    -0.206 F 
ATOM     79  C   UNL A   1      40.039  25.586  27.344  1.00  0.00     0.040 A 
ATOM     80  C   UNL A   1      41.344  27.163  26.078  1.00  0.00     0.040 A 
ATOM     81  F   UNL A   1      41.887  29.249  27.007  1.00  0.00    -0.206 F 
ATOM     82  C   UNL A   1      40.732  25.916  26.182  1.00  0.00     0.006 A 
ENDBRANCH  54  75
BRANCH  66  83
ATOM     83  C   UNL A   1      44.345  28.522  34.123  1.00  0.00     0.057 A 
ATOM     84  C   UNL A   1      45.672  28.820  33.788  1.00  0.00     0.134 A 
ATOM     85  C   UNL A   1      44.129  27.484  35.039  1.00  0.00     0.134 A 
ATOM     86  F   UNL A   1      45.949  29.793  32.906  1.00  0.00    -0.206 F 
ATOM     87  C   UNL A   1      46.740  28.097  34.322  1.00  0.00     0.040 A 
ATOM     88  C   UNL A   1      45.189  26.775  35.604  1.00  0.00     0.040 A 
ATOM     89  F   UNL A   1      42.883  27.153  35.412  1.00  0.00    -0.206 F 
ATOM     90  C   UNL A   1      46.499  27.076  35.239  1.00  0.00     0.006 A 
ENDBRANCH  66  83
ENDBRANCH  40  41
ENDBRANCH  32  35
ENDBRANCH  30  31
ENDBRANCH  29  30
ENDBRANCH  28  29
ENDBRANCH   1  28
TORSDOF 19
ENDMDL
MODEL 2
REMARK VINA RESULT:     -11.0      4.417      9.100
REMARK SMILES CC(C)(C)OC(=O)N[C@@H](C(=O)NCCCCCCNC(=O)c1ccc(-c2c3nc(c(-c4c(F)cccc4F)c4ccc([nH]4)c(-c4c(F)cccc4F)c4nc(c(-c5c(F)cccc5F)c5ccc2[nH]5)C=C4)C=C3)cc1)[C@H](O)c1ccccc1F
REMARK SMILES IDX 15 1 14 2 13 3 12 4 10 5 11 6 9 8 8 9 6 10 7 11 5 13 2 14
REMARK SMILES IDX 1 15 3 16 4 17 76 18 78 19 79 20 83 21 80 22 82 23 84 24
REMARK SMILES IDX 81 25 77 26 16 28 17 29 18 30 19 31 20 32 21 34 22 35 23 36
REMARK SMILES IDX 75 37 24 38 74 39 25 40 26 41 27 42 68 43 28 44 73 45 67 46
REMARK SMILES IDX 69 47 29 48 72 49 66 50 65 51 30 53 56 54 39 55 55 56 40 57
REMARK SMILES IDX 43 58 54 59 70 60 41 61 42 62 53 64 71 65 44 66 31 67 32 68
REMARK SMILES IDX 37 69 33 70 34 71 36 72 38 73 35 74 57 75 58 76 63 77 59 78
REMARK SMILES IDX 60 79 62 80 64 81 61 82 45 83 46 84 51 85 47 86 48 87 50 88
REMARK SMILES IDX 52 89 49 90
REMARK H PARENT 12 7 8 12 77 27 19 33 69 52 43 63
REMARK Flexibility Score: inf
ROOT
ATOM      1  C   UNL A   1      36.868  23.541  25.082  1.00  0.00     0.002 C 
ENDROOT
BRANCH   1   2
ATOM      2  C   UNL A   1      35.688  24.218  25.792  1.00  0.00     0.021 C 
BRANCH   2   3
ATOM      3  C   UNL A   1      34.794  23.231  26.536  1.00  0.00     0.116 C 
BRANCH   3   4
ATOM      4  N   UNL A   1      33.402  23.527  26.304  1.00  0.00    -0.354 N 
ATOM      5  C   UNL A   1      32.591  23.185  25.269  1.00  0.00     0.245 C 
ATOM      6  O   UNL A   1      31.410  23.527  25.382  1.00  0.00    -0.273 OA
ATOM      7  H   UNL A   1      32.971  24.063  27.009  1.00  0.00     0.163 HD
BRANCH   5   8
ATOM      8  C   UNL A   1      33.076  22.260  24.125  1.00  0.00     0.208 C 
BRANCH   8   9
ATOM      9  N   UNL A   1      32.970  22.809  22.762  1.00  0.00    -0.307 N 
ATOM     10  C   UNL A   1      33.264  24.030  22.249  1.00  0.00     0.408 C 
ATOM     11  O   UNL A   1      33.082  24.243  21.062  1.00  0.00    -0.225 OA
ATOM     12  H   UNL A   1      32.619  22.170  22.101  1.00  0.00     0.168 HD
BRANCH  10  13
ATOM     13  O   UNL A   1      33.681  24.936  23.165  1.00  0.00    -0.444 OA
BRANCH  13  14
ATOM     14  C   UNL A   1      33.014  26.230  23.230  1.00  0.00     0.106 C 
ATOM     15  C   UNL A   1      33.320  26.777  24.633  1.00  0.00     0.056 C 
ATOM     16  C   UNL A   1      31.488  26.089  23.102  1.00  0.00     0.056 C 
ATOM     17  C   UNL A   1      33.582  27.203  22.191  1.00  0.00     0.056 C 
ENDBRANCH  13  14
ENDBRANCH  10  13
ENDBRANCH   8   9
BRANCH   8  18
ATOM     18  C   UNL A   1      32.325  20.898  24.254  1.00  0.00     0.179 C 
BRANCH  18  19
ATOM     19  C   UNL A   1      33.047  19.576  24.016  1.00  0.00     0.019 A 
ATOM     20  C   UNL A   1      32.427  18.634  23.173  1.00  0.00     0.009 A 
ATOM     21  C   UNL A   1      34.279  19.207  24.571  1.00  0.00     0.129 A 
ATOM     22  C   UNL A   1      32.992  17.375  22.941  1.00  0.00     0.001 A 
ATOM     23  C   UNL A   1      34.834  17.944  24.371  1.00  0.00     0.039 A 
ATOM     24  F   UNL A   1      34.984  20.053  25.331  1.00  0.00    -0.207 F 
ATOM     25  C   UNL A   1      34.188  17.021  23.558  1.00  0.00     0.003 A 
ENDBRANCH  18  19
BRANCH  18  26
ATOM     26  O   UNL A   1      31.735  20.834  25.568  1.00  0.00    -0.386 OA
ATOM     27  H   UNL A   1      31.918  21.658  26.045  1.00  0.00     0.211 HD
ENDBRANCH  18  26
ENDBRANCH   8  18
ENDBRANCH   5   8
ENDBRANCH   3   4
ENDBRANCH   2   3
ENDBRANCH   1   2
BRANCH   1  28
ATOM     28  C   UNL A   1      37.972  23.033  26.017  1.00  0.00     0.002 C 
BRANCH  28  29
ATOM     29  C   UNL A   1      38.014  21.512  26.183  1.00  0.00     0.021 C 
BRANCH  29  30
ATOM     30  C   UNL A   1      38.592  20.775  24.982  1.00  0.00     0.116 C 
BRANCH  30  31
ATOM     31  N   UNL A   1      39.436  19.662  25.389  1.00  0.00    -0.352 N 
ATOM     32  C   UNL A   1      40.663  19.682  25.998  1.00  0.00     0.251 C 
ATOM     33  H   UNL A   1      39.073  18.767  25.199  1.00  0.00     0.163 HD
ATOM     34  O   UNL A   1      41.337  18.660  26.065  1.00  0.00    -0.269 OA
BRANCH  32  35
ATOM     35  C   UNL A   1      41.178  20.948  26.560  1.00  0.00     0.039 A 
ATOM     36  C   UNL A   1      41.746  21.887  25.697  1.00  0.00     0.014 A 
ATOM     37  C   UNL A   1      41.107  21.202  27.933  1.00  0.00     0.014 A 
ATOM     38  C   UNL A   1      42.195  23.106  26.207  1.00  0.00     0.010 A 
ATOM     39  C   UNL A   1      41.480  22.447  28.426  1.00  0.00     0.010 A 
ATOM     40  C   UNL A   1      42.036  23.409  27.570  1.00  0.00    -0.014 A 
BRANCH  40  41
ATOM     41  C   UNL A   1      42.452  24.725  28.114  1.00  0.00     0.031 A 
ATOM     42  C   UNL A   1      41.437  25.816  28.316  1.00  0.00     0.074 A 
ATOM     43  C   UNL A   1      43.753  24.953  28.380  1.00  0.00     0.049 A 
ATOM     44  N   UNL A   1      41.615  27.042  28.741  1.00  0.00    -0.248 NA
ATOM     45  C   UNL A   1      40.042  25.496  27.972  1.00  0.00     0.031 C 
ATOM     46  C   UNL A   1      44.838  23.990  28.185  1.00  0.00     0.029 A 
ATOM     47  N   UNL A   1      44.383  26.069  28.870  1.00  0.00    -0.354 N 
ATOM     48  C   UNL A   1      40.360  27.638  28.710  1.00  0.00     0.074 A 
ATOM     49  C   UNL A   1      39.442  26.662  28.166  1.00  0.00     0.031 C 
ATOM     50  C   UNL A   1      45.995  24.545  28.581  1.00  0.00     0.029 A 
ATOM     51  C   UNL A   1      45.741  25.914  29.016  1.00  0.00     0.049 A 
ATOM     52  H   UNL A   1      43.908  26.901  29.096  1.00  0.00     0.167 HD
ATOM     53  C   UNL A   1      40.001  28.876  29.123  1.00  0.00     0.037 A 
ATOM     54  C   UNL A   1      46.676  26.781  29.448  1.00  0.00     0.037 A 
ATOM     55  C   UNL A   1      40.916  29.841  29.674  1.00  0.00     0.049 A 
ATOM     56  C   UNL A   1      46.254  28.161  29.874  1.00  0.00     0.074 A 
ATOM     57  C   UNL A   1      40.644  31.106  30.163  1.00  0.00     0.029 A 
ATOM     58  N   UNL A   1      42.283  29.647  29.806  1.00  0.00    -0.354 N 
ATOM     59  N   UNL A   1      45.055  28.689  29.900  1.00  0.00    -0.248 NA
ATOM     60  C   UNL A   1      47.318  29.063  30.335  1.00  0.00     0.031 C 
ATOM     61  C   UNL A   1      41.853  31.699  30.540  1.00  0.00     0.029 A 
ATOM     62  C   UNL A   1      42.872  30.781  30.344  1.00  0.00     0.049 A 
ATOM     63  H   UNL A   1      42.766  28.827  29.552  1.00  0.00     0.167 HD
ATOM     64  C   UNL A   1      45.214  29.971  30.411  1.00  0.00     0.074 A 
ATOM     65  C   UNL A   1      46.625  30.134  30.695  1.00  0.00     0.031 C 
ATOM     66  C   UNL A   1      44.277  30.927  30.627  1.00  0.00     0.037 A 
BRANCH  53  67
ATOM     67  C   UNL A   1      38.553  29.259  28.992  1.00  0.00     0.057 A 
ATOM     68  C   UNL A   1      37.682  29.241  30.090  1.00  0.00     0.134 A 
ATOM     69  C   UNL A   1      38.032  29.681  27.763  1.00  0.00     0.134 A 
ATOM     70  F   UNL A   1      38.113  28.834  31.294  1.00  0.00    -0.206 F 
ATOM     71  C   UNL A   1      36.340  29.602  29.964  1.00  0.00     0.040 A 
ATOM     72  C   UNL A   1      36.699  30.076  27.632  1.00  0.00     0.040 A 
ATOM     73  F   UNL A   1      38.810  29.730  26.672  1.00  0.00    -0.206 F 
ATOM     74  C   UNL A   1      35.847  30.030  28.733  1.00  0.00     0.006 A 
ENDBRANCH  53  67
BRANCH  54  75
ATOM     75  C   UNL A   1      48.100  26.367  29.521  1.00  0.00     0.057 A 
ATOM     76  C   UNL A   1      48.959  26.542  28.429  1.00  0.00     0.134 A 
ATOM     77  C   UNL A   1      48.635  25.777  30.673  1.00  0.00     0.134 A 
ATOM     78  F   UNL A   1      48.503  27.086  27.292  1.00  0.00    -0.206 F 
ATOM     79  C   UNL A   1      50.289  26.121  28.470  1.00  0.00     0.040 A 
ATOM     80  C   UNL A   1      49.971  25.378  30.737  1.00  0.00     0.040 A 
ATOM     81  F   UNL A   1      47.867  25.590  31.757  1.00  0.00    -0.206 F 
ATOM     82  C   UNL A   1      50.800  25.542  29.630  1.00  0.00     0.006 A 
ENDBRANCH  54  75
BRANCH  66  83
ATOM     83  C   UNL A   1      44.741  32.219  31.238  1.00  0.00     0.057 A 
ATOM     84  C   UNL A   1      44.803  32.407  32.624  1.00  0.00     0.134 A 
ATOM     85  C   UNL A   1      45.162  33.279  30.424  1.00  0.00     0.134 A 
ATOM     86  F   UNL A   1      44.402  31.437  33.461  1.00  0.00    -0.206 F 
ATOM     87  C   UNL A   1      45.240  33.611  33.178  1.00  0.00     0.040 A 
ATOM     88  C   UNL A   1      45.631  34.476  30.966  1.00  0.00     0.040 A 
ATOM     89  F   UNL A   1      45.139  33.162  29.087  1.00  0.00    -0.206 F 
ATOM     90  C   UNL A   1      45.663  34.647  32.348  1.00  0.00     0.006 A 
ENDBRANCH  66  83
ENDBRANCH  40  41
ENDBRANCH  32  35
ENDBRANCH  30  31
ENDBRANCH  29  30
ENDBRANCH  28  29
ENDBRANCH   1  28
TORSDOF 19
ENDMDL
MODEL 3
REMARK VINA RESULT:     -11.0      0.791      6.119
REMARK SMILES CC(C)(C)OC(=O)N[C@@H](C(=O)NCCCCCCNC(=O)c1ccc(-c2c3nc(c(-c4c(F)cccc4F)c4ccc([nH]4)c(-c4c(F)cccc4F)c4nc(c(-c5c(F)cccc5F)c5ccc2[nH]5)C=C4)C=C3)cc1)[C@H](O)c1ccccc1F
REMARK SMILES IDX 15 1 14 2 13 3 12 4 10 5 11 6 9 8 8 9 6 10 7 11 5 13 2 14
REMARK SMILES IDX 1 15 3 16 4 17 76 18 78 19 79 20 83 21 80 22 82 23 84 24
REMARK SMILES IDX 81 25 77 26 16 28 17 29 18 30 19 31 20 32 21 34 22 35 23 36
REMARK SMILES IDX 75 37 24 38 74 39 25 40 26 41 27 42 68 43 28 44 73 45 67 46
REMARK SMILES IDX 69 47 29 48 72 49 66 50 65 51 30 53 56 54 39 55 55 56 40 57
REMARK SMILES IDX 43 58 54 59 70 60 41 61 42 62 53 64 71 65 44 66 31 67 32 68
REMARK SMILES IDX 37 69 33 70 34 71 36 72 38 73 35 74 57 75 58 76 63 77 59 78
REMARK SMILES IDX 60 79 62 80 64 81 61 82 45 83 46 84 51 85 47 86 48 87 50 88
REMARK SMILES IDX 52 89 49 90
REMARK H PARENT 12 7 8 12 77 27 19 33 69 52 43 63
REMARK Flexibility Score: inf
ROOT
ATOM      1  C   UNL A   1      32.102  29.760  26.684  1.00  0.00     0.002 C 
ENDROOT
BRANCH   1   2
ATOM      2  C   UNL A   1      31.623  28.333  26.387  1.00  0.00     0.021 C 
BRANCH   2   3
ATOM      3  C   UNL A   1      32.741  27.419  25.894  1.00  0.00     0.116 C 
BRANCH   3   4
ATOM      4  N   UNL A   1      33.572  28.100  24.934  1.00  0.00    -0.354 N 
ATOM      5  C   UNL A   1      33.523  28.104  23.576  1.00  0.00     0.245 C 
ATOM      6  O   UNL A   1      34.333  28.849  23.015  1.00  0.00    -0.273 OA
ATOM      7  H   UNL A   1      34.289  28.650  25.324  1.00  0.00     0.163 HD
BRANCH   5   8
ATOM      8  C   UNL A   1      32.399  27.376  22.798  1.00  0.00     0.208 C 
BRANCH   8   9
ATOM      9  N   UNL A   1      32.826  26.596  21.625  1.00  0.00    -0.307 N 
ATOM     10  C   UNL A   1      32.662  25.290  21.293  1.00  0.00     0.408 C 
ATOM     11  O   UNL A   1      33.121  24.874  20.242  1.00  0.00    -0.225 OA
ATOM     12  H   UNL A   1      33.324  27.119  20.956  1.00  0.00     0.168 HD
BRANCH  10  13
ATOM     13  O   UNL A   1      32.041  24.546  22.239  1.00  0.00    -0.444 OA
BRANCH  13  14
ATOM     14  C   UNL A   1      32.846  23.718  23.127  1.00  0.00     0.106 C 
ATOM     15  C   UNL A   1      32.736  22.292  22.566  1.00  0.00     0.056 C 
ATOM     16  C   UNL A   1      32.284  23.707  24.558  1.00  0.00     0.056 C 
ATOM     17  C   UNL A   1      34.319  24.141  23.101  1.00  0.00     0.056 C 
ENDBRANCH  13  14
ENDBRANCH  10  13
ENDBRANCH   8   9
BRANCH   8  18
ATOM     18  C   UNL A   1      31.312  28.431  22.420  1.00  0.00     0.179 C 
BRANCH  18  19
ATOM     19  C   UNL A   1      29.859  28.250  22.843  1.00  0.00     0.019 A 
ATOM     20  C   UNL A   1      29.516  27.059  23.512  1.00  0.00     0.009 A 
ATOM     21  C   UNL A   1      28.823  29.165  22.620  1.00  0.00     0.129 A 
ATOM     22  C   UNL A   1      28.196  26.786  23.890  1.00  0.00     0.001 A 
ATOM     23  C   UNL A   1      27.500  28.888  22.965  1.00  0.00     0.039 A 
ATOM     24  F   UNL A   1      29.052  30.355  22.053  1.00  0.00    -0.207 F 
ATOM     25  C   UNL A   1      27.183  27.693  23.597  1.00  0.00     0.003 A 
ENDBRANCH  18  19
BRANCH  18  26
ATOM     26  O   UNL A   1      31.745  29.715  22.911  1.00  0.00    -0.386 OA
ATOM     27  H   UNL A   1      31.002  30.337  22.888  1.00  0.00     0.211 HD
ENDBRANCH  18  26
ENDBRANCH   8  18
ENDBRANCH   5   8
ENDBRANCH   3   4
ENDBRANCH   2   3
ENDBRANCH   1   2
BRANCH   1  28
ATOM     28  C   UNL A   1      31.324  30.861  25.953  1.00  0.00     0.002 C 
BRANCH  28  29
ATOM     29  C   UNL A   1      31.233  32.187  26.713  1.00  0.00     0.021 C 
BRANCH  29  30
ATOM     30  C   UNL A   1      32.586  32.810  27.030  1.00  0.00     0.116 C 
BRANCH  30  31
ATOM     31  N   UNL A   1      32.443  34.105  27.679  1.00  0.00    -0.352 N 
ATOM     32  C   UNL A   1      33.153  34.634  28.724  1.00  0.00     0.251 C 
ATOM     33  H   UNL A   1      31.734  34.682  27.314  1.00  0.00     0.163 HD
ATOM     34  O   UNL A   1      32.753  35.643  29.296  1.00  0.00    -0.269 OA
BRANCH  32  35
ATOM     35  C   UNL A   1      34.395  33.972  29.172  1.00  0.00     0.039 A 
ATOM     36  C   UNL A   1      35.597  34.294  28.540  1.00  0.00     0.014 A 
ATOM     37  C   UNL A   1      34.371  33.031  30.206  1.00  0.00     0.014 A 
ATOM     38  C   UNL A   1      36.785  33.711  28.981  1.00  0.00     0.010 A 
ATOM     39  C   UNL A   1      35.565  32.514  30.698  1.00  0.00     0.010 A 
ATOM     40  C   UNL A   1      36.783  32.841  30.085  1.00  0.00    -0.014 A 
BRANCH  40  41
ATOM     41  C   UNL A   1      38.047  32.263  30.605  1.00  0.00     0.031 A 
ATOM     42  C   UNL A   1      38.599  30.995  30.017  1.00  0.00     0.074 A 
ATOM     43  C   UNL A   1      38.670  32.857  31.642  1.00  0.00     0.049 A 
ATOM     44  N   UNL A   1      39.665  30.318  30.364  1.00  0.00    -0.248 NA
ATOM     45  C   UNL A   1      37.841  30.393  28.908  1.00  0.00     0.031 C 
ATOM     46  C   UNL A   1      38.211  34.066  32.327  1.00  0.00     0.029 A 
ATOM     47  N   UNL A   1      39.826  32.520  32.302  1.00  0.00    -0.354 N 
ATOM     48  C   UNL A   1      39.701  29.213  29.523  1.00  0.00     0.074 A 
ATOM     49  C   UNL A   1      38.519  29.275  28.692  1.00  0.00     0.031 C 
ATOM     50  C   UNL A   1      39.091  34.388  33.289  1.00  0.00     0.029 A 
ATOM     51  C   UNL A   1      40.151  33.386  33.318  1.00  0.00     0.049 A 
ATOM     52  H   UNL A   1      40.369  31.732  32.070  1.00  0.00     0.167 HD
ATOM     53  C   UNL A   1      40.647  28.248  29.432  1.00  0.00     0.037 A 
ATOM     54  C   UNL A   1      41.186  33.371  34.178  1.00  0.00     0.037 A 
ATOM     55  C   UNL A   1      41.829  28.197  30.254  1.00  0.00     0.049 A 
ATOM     56  C   UNL A   1      42.209  32.272  34.075  1.00  0.00     0.074 A 
ATOM     57  C   UNL A   1      42.870  27.286  30.210  1.00  0.00     0.029 A 
ATOM     58  N   UNL A   1      42.123  29.092  31.272  1.00  0.00    -0.354 N 
ATOM     59  N   UNL A   1      42.264  31.270  33.232  1.00  0.00    -0.248 NA
ATOM     60  C   UNL A   1      43.315  32.307  35.041  1.00  0.00     0.031 C 
ATOM     61  C   UNL A   1      43.767  27.598  31.237  1.00  0.00     0.029 A 
ATOM     62  C   UNL A   1      43.317  28.739  31.881  1.00  0.00     0.049 A 
ATOM     63  H   UNL A   1      41.566  29.862  31.526  1.00  0.00     0.167 HD
ATOM     64  C   UNL A   1      43.427  30.575  33.544  1.00  0.00     0.074 A 
ATOM     65  C   UNL A   1      44.052  31.280  34.643  1.00  0.00     0.031 C 
ATOM     66  C   UNL A   1      43.931  29.454  32.970  1.00  0.00     0.037 A 
BRANCH  53  67
ATOM     67  C   UNL A   1      40.442  27.169  28.407  1.00  0.00     0.057 A 
ATOM     68  C   UNL A   1      39.621  26.061  28.656  1.00  0.00     0.134 A 
ATOM     69  C   UNL A   1      41.045  27.254  27.146  1.00  0.00     0.134 A 
ATOM     70  F   UNL A   1      39.023  25.910  29.847  1.00  0.00    -0.206 F 
ATOM     71  C   UNL A   1      39.430  25.064  27.697  1.00  0.00     0.040 A 
ATOM     72  C   UNL A   1      40.836  26.280  26.169  1.00  0.00     0.040 A 
ATOM     73  F   UNL A   1      41.839  28.291  26.838  1.00  0.00    -0.206 F 
ATOM     74  C   UNL A   1      40.031  25.176  26.446  1.00  0.00     0.006 A 
ENDBRANCH  53  67
BRANCH  54  75
ATOM     75  C   UNL A   1      41.323  34.440  35.200  1.00  0.00     0.057 A 
ATOM     76  C   UNL A   1      40.724  34.315  36.460  1.00  0.00     0.134 A 
ATOM     77  C   UNL A   1      42.040  35.615  34.941  1.00  0.00     0.134 A 
ATOM     78  F   UNL A   1      40.010  33.221  36.761  1.00  0.00    -0.206 F 
ATOM     79  C   UNL A   1      40.811  35.329  37.414  1.00  0.00     0.040 A 
ATOM     80  C   UNL A   1      42.158  36.624  35.898  1.00  0.00     0.040 A 
ATOM     81  F   UNL A   1      42.645  35.793  33.757  1.00  0.00    -0.206 F 
ATOM     82  C   UNL A   1      41.535  36.486  37.136  1.00  0.00     0.006 A 
ENDBRANCH  54  75
BRANCH  66  83
ATOM     83  C   UNL A   1      45.245  28.947  33.493  1.00  0.00     0.057 A 
ATOM     84  C   UNL A   1      46.471  29.393  32.984  1.00  0.00     0.134 A 
ATOM     85  C   UNL A   1      45.281  28.021  34.545  1.00  0.00     0.134 A 
ATOM     86  F   UNL A   1      46.508  30.269  31.969  1.00  0.00    -0.206 F 
ATOM     87  C   UNL A   1      47.685  28.916  33.482  1.00  0.00     0.040 A 
ATOM     88  C   UNL A   1      46.488  27.561  35.072  1.00  0.00     0.040 A 
ATOM     89  F   UNL A   1      44.143  27.560  35.086  1.00  0.00    -0.206 F 
ATOM     90  C   UNL A   1      47.695  28.003  34.535  1.00  0.00     0.006 A 
ENDBRANCH  66  83
ENDBRANCH  40  41
ENDBRANCH  32  35
ENDBRANCH  30  31
ENDBRANCH  29  30
ENDBRANCH  28  29
ENDBRANCH   1  28
TORSDOF 19
ENDMDL
