MODEL 1
REMARK VINA RESULT:     -10.2      0.000      0.000
REMARK SMILES CCOc1cccc(OCC)c1-c1ccc([C@@H](C)C(=O)NCCCCCCNC(=O)c2ccc(-c3c4nc(c(-c5c(F)cccc5F)c5ccc([nH]5)c(-c5c(F)cccc5F)c5nc(c(-c6c(F)cccc6F)c6ccc3[nH]6)C=C5)C=C4)cc2)cc1F
REMARK SMILES IDX 23 1 22 2 21 3 19 4 20 5 17 7 18 8 16 9 13 10 14 11 86 12
REMARK SMILES IDX 15 13 85 14 87 15 12 16 4 17 5 18 6 19 8 20 7 21 3 22 2 23
REMARK SMILES IDX 1 24 9 25 10 26 11 27 24 28 25 29 26 30 27 31 28 32 29 33
REMARK SMILES IDX 30 35 31 36 32 37 84 38 33 39 83 40 34 41 35 42 36 43 77 44
REMARK SMILES IDX 37 45 82 46 76 47 78 48 38 49 81 50 75 51 74 52 39 54 65 55
REMARK SMILES IDX 48 56 64 57 49 58 52 59 63 60 79 61 50 62 51 63 62 65 80 66
REMARK SMILES IDX 53 67 40 68 41 69 46 70 42 71 43 72 45 73 47 74 44 75 66 76
REMARK SMILES IDX 67 77 72 78 68 79 69 80 71 81 73 82 70 83 54 84 55 85 60 86
REMARK SMILES IDX 56 87 57 88 59 89 61 90 58 91
REMARK H PARENT 21 6 28 34 78 53 52 64
REMARK Flexibility Score: inf
ROOT
ATOM      1  C   UNL A   1      34.511  31.686  27.445  1.00  0.00     0.021 C 
ENDROOT
BRANCH   1   2
ATOM      2  C   UNL A   1      34.044  30.239  27.695  1.00  0.00     0.116 C 
BRANCH   2   3
ATOM      3  N   UNL A   1      32.848  29.926  26.926  1.00  0.00    -0.356 N 
ATOM      4  C   UNL A   1      32.608  29.317  25.731  1.00  0.00     0.227 C 
ATOM      5  O   UNL A   1      31.423  29.329  25.366  1.00  0.00    -0.274 OA
ATOM      6  H   UNL A   1      32.023  30.221  27.374  1.00  0.00     0.163 HD
BRANCH   4   7
ATOM      7  C   UNL A   1      33.665  28.640  24.829  1.00  0.00     0.105 C 
ATOM      8  C   UNL A   1      33.792  29.246  23.435  1.00  0.00     0.023 C 
BRANCH   7   9
ATOM      9  C   UNL A   1      33.594  27.123  24.823  1.00  0.00    -0.033 A 
ATOM     10  C   UNL A   1      33.673  24.283  24.933  1.00  0.00     0.025 A 
ATOM     11  C   UNL A   1      33.715  25.058  26.087  1.00  0.00     0.012 A 
ATOM     12  C   UNL A   1      33.597  24.958  23.707  1.00  0.00     0.131 A 
ATOM     13  C   UNL A   1      33.557  26.429  26.025  1.00  0.00     0.005 A 
ATOM     14  C   UNL A   1      33.593  26.362  23.646  1.00  0.00     0.044 A 
ATOM     15  F   UNL A   1      33.559  24.270  22.557  1.00  0.00    -0.206 F 
BRANCH  10  16
ATOM     16  C   UNL A   1      33.802  22.832  25.097  1.00  0.00     0.069 A 
ATOM     17  C   UNL A   1      32.632  22.052  24.886  1.00  0.00     0.130 A 
ATOM     18  C   UNL A   1      32.663  20.657  24.841  1.00  0.00     0.047 A 
ATOM     19  C   UNL A   1      33.875  20.000  24.988  1.00  0.00     0.008 A 
ATOM     20  C   UNL A   1      35.028  22.148  25.266  1.00  0.00     0.130 A 
ATOM     21  C   UNL A   1      35.035  20.740  25.211  1.00  0.00     0.047 A 
BRANCH  17  22
ATOM     22  O   UNL A   1      31.408  22.674  24.793  1.00  0.00    -0.493 OA
BRANCH  22  23
ATOM     23  C   UNL A   1      30.620  22.563  25.983  1.00  0.00     0.226 C 
ATOM     24  C   UNL A   1      30.263  23.960  26.471  1.00  0.00     0.049 C 
ENDBRANCH  22  23
ENDBRANCH  17  22
BRANCH  20  25
ATOM     25  O   UNL A   1      36.302  22.602  25.485  1.00  0.00    -0.493 OA
BRANCH  25  26
ATOM     26  C   UNL A   1      37.145  23.194  24.508  1.00  0.00     0.226 C 
ATOM     27  C   UNL A   1      36.624  22.885  23.109  1.00  0.00     0.049 C 
ENDBRANCH  25  26
ENDBRANCH  20  25
ENDBRANCH  10  16
ENDBRANCH   7   9
ENDBRANCH   4   7
ENDBRANCH   2   3
ENDBRANCH   1   2
BRANCH   1  28
ATOM     28  C   UNL A   1      34.433  32.614  28.655  1.00  0.00     0.002 C 
BRANCH  28  29
ATOM     29  C   UNL A   1      35.100  33.978  28.462  1.00  0.00     0.002 C 
BRANCH  29  30
ATOM     30  C   UNL A   1      34.213  35.197  28.741  1.00  0.00     0.021 C 
BRANCH  30  31
ATOM     31  C   UNL A   1      32.825  34.874  29.292  1.00  0.00     0.116 C 
BRANCH  31  32
ATOM     32  N   UNL A   1      32.499  35.689  30.452  1.00  0.00    -0.352 N 
ATOM     33  C   UNL A   1      32.975  35.619  31.732  1.00  0.00     0.251 C 
ATOM     34  H   UNL A   1      31.834  36.397  30.291  1.00  0.00     0.163 HD
ATOM     35  O   UNL A   1      32.397  36.228  32.640  1.00  0.00    -0.269 OA
BRANCH  33  36
ATOM     36  C   UNL A   1      34.176  34.819  32.045  1.00  0.00     0.039 A 
ATOM     37  C   UNL A   1      35.438  35.403  31.909  1.00  0.00     0.014 A 
ATOM     38  C   UNL A   1      34.060  33.481  32.434  1.00  0.00     0.014 A 
ATOM     39  C   UNL A   1      36.582  34.661  32.215  1.00  0.00     0.010 A 
ATOM     40  C   UNL A   1      35.195  32.766  32.806  1.00  0.00     0.010 A 
ATOM     41  C   UNL A   1      36.468  33.346  32.694  1.00  0.00    -0.014 A 
BRANCH  41  42
ATOM     42  C   UNL A   1      37.668  32.560  33.074  1.00  0.00     0.031 A 
ATOM     43  C   UNL A   1      38.396  32.859  34.356  1.00  0.00     0.074 A 
ATOM     44  C   UNL A   1      38.141  31.620  32.235  1.00  0.00     0.049 A 
ATOM     45  N   UNL A   1      39.498  32.331  34.825  1.00  0.00    -0.248 NA
ATOM     46  C   UNL A   1      37.824  33.912  35.209  1.00  0.00     0.031 C 
ATOM     47  C   UNL A   1      37.554  31.271  30.940  1.00  0.00     0.029 A 
ATOM     48  N   UNL A   1      39.232  30.794  32.339  1.00  0.00    -0.354 N 
ATOM     49  C   UNL A   1      39.754  32.991  36.020  1.00  0.00     0.074 A 
ATOM     50  C   UNL A   1      38.729  34.001  36.172  1.00  0.00     0.031 C 
ATOM     51  C   UNL A   1      38.283  30.294  30.377  1.00  0.00     0.029 A 
ATOM     52  C   UNL A   1      39.406  29.973  31.252  1.00  0.00     0.049 A 
ATOM     53  H   UNL A   1      39.833  30.792  33.118  1.00  0.00     0.167 HD
ATOM     54  C   UNL A   1      40.739  32.761  36.921  1.00  0.00     0.037 A 
ATOM     55  C   UNL A   1      40.369  29.069  30.986  1.00  0.00     0.037 A 
ATOM     56  C   UNL A   1      41.751  31.749  36.772  1.00  0.00     0.049 A 
ATOM     57  C   UNL A   1      41.456  28.834  31.996  1.00  0.00     0.074 A 
ATOM     58  C   UNL A   1      42.765  31.405  37.648  1.00  0.00     0.029 A 
ATOM     59  N   UNL A   1      41.880  30.919  35.666  1.00  0.00    -0.354 N 
ATOM     60  N   UNL A   1      41.650  29.422  33.152  1.00  0.00    -0.248 NA
ATOM     61  C   UNL A   1      42.451  27.805  31.670  1.00  0.00     0.031 C 
ATOM     62  C   UNL A   1      43.535  30.399  37.054  1.00  0.00     0.029 A 
ATOM     63  C   UNL A   1      42.969  30.078  35.830  1.00  0.00     0.049 A 
ATOM     64  H   UNL A   1      41.286  30.927  34.882  1.00  0.00     0.167 HD
ATOM     65  C   UNL A   1      42.774  28.819  33.702  1.00  0.00     0.074 A 
ATOM     66  C   UNL A   1      43.208  27.808  32.759  1.00  0.00     0.031 C 
ATOM     67  C   UNL A   1      43.390  29.078  34.881  1.00  0.00     0.037 A 
BRANCH  54  68
ATOM     68  C   UNL A   1      40.759  33.625  38.151  1.00  0.00     0.057 A 
ATOM     69  C   UNL A   1      39.968  33.333  39.271  1.00  0.00     0.134 A 
ATOM     70  C   UNL A   1      41.585  34.753  38.223  1.00  0.00     0.134 A 
ATOM     71  F   UNL A   1      39.146  32.273  39.266  1.00  0.00    -0.206 F 
ATOM     72  C   UNL A   1      39.971  34.151  40.402  1.00  0.00     0.040 A 
ATOM     73  C   UNL A   1      41.619  35.563  39.361  1.00  0.00     0.040 A 
ATOM     74  F   UNL A   1      42.375  35.087  37.191  1.00  0.00    -0.206 F 
ATOM     75  C   UNL A   1      40.803  35.268  40.451  1.00  0.00     0.006 A 
ENDBRANCH  54  68
BRANCH  55  76
ATOM     76  C   UNL A   1      40.329  28.306  29.713  1.00  0.00     0.057 A 
ATOM     77  C   UNL A   1      41.099  28.695  28.611  1.00  0.00     0.134 A 
ATOM     78  C   UNL A   1      39.535  27.162  29.573  1.00  0.00     0.134 A 
ATOM     79  F   UNL A   1      41.868  29.792  28.679  1.00  0.00    -0.206 F 
ATOM     80  C   UNL A   1      41.069  27.984  27.411  1.00  0.00     0.040 A 
ATOM     81  C   UNL A   1      39.515  26.426  28.388  1.00  0.00     0.040 A 
ATOM     82  F   UNL A   1      38.783  26.730  30.597  1.00  0.00    -0.206 F 
ATOM     83  C   UNL A   1      40.280  26.841  27.299  1.00  0.00     0.006 A 
ENDBRANCH  55  76
BRANCH  67  84
ATOM     84  C   UNL A   1      44.582  28.237  35.232  1.00  0.00     0.057 A 
ATOM     85  C   UNL A   1      45.885  28.618  34.889  1.00  0.00     0.134 A 
ATOM     86  C   UNL A   1      44.427  27.047  35.957  1.00  0.00     0.134 A 
ATOM     87  F   UNL A   1      46.102  29.739  34.184  1.00  0.00    -0.206 F 
ATOM     88  C   UNL A   1      46.989  27.835  35.234  1.00  0.00     0.040 A 
ATOM     89  C   UNL A   1      45.524  26.271  36.331  1.00  0.00     0.040 A 
ATOM     90  F   UNL A   1      43.207  26.628  36.324  1.00  0.00    -0.206 F 
ATOM     91  C   UNL A   1      46.809  26.661  35.963  1.00  0.00     0.006 A 
ENDBRANCH  67  84
ENDBRANCH  41  42
ENDBRANCH  33  36
ENDBRANCH  31  32
ENDBRANCH  30  31
ENDBRANCH  29  30
ENDBRANCH  28  29
ENDBRANCH   1  28
TORSDOF 19
ENDMDL
MODEL 2
REMARK VINA RESULT:     -10.1      7.365     13.157
REMARK SMILES CCOc1cccc(OCC)c1-c1ccc([C@@H](C)C(=O)NCCCCCCNC(=O)c2ccc(-c3c4nc(c(-c5c(F)cccc5F)c5ccc([nH]5)c(-c5c(F)cccc5F)c5nc(c(-c6c(F)cccc6F)c6ccc3[nH]6)C=C5)C=C4)cc2)cc1F
REMARK SMILES IDX 23 1 22 2 21 3 19 4 20 5 17 7 18 8 16 9 13 10 14 11 86 12
REMARK SMILES IDX 15 13 85 14 87 15 12 16 4 17 5 18 6 19 8 20 7 21 3 22 2 23
REMARK SMILES IDX 1 24 9 25 10 26 11 27 24 28 25 29 26 30 27 31 28 32 29 33
REMARK SMILES IDX 30 35 31 36 32 37 84 38 33 39 83 40 34 41 35 42 36 43 77 44
REMARK SMILES IDX 37 45 82 46 76 47 78 48 38 49 81 50 75 51 74 52 39 54 65 55
REMARK SMILES IDX 48 56 64 57 49 58 52 59 63 60 79 61 50 62 51 63 62 65 80 66
REMARK SMILES IDX 53 67 40 68 41 69 46 70 42 71 43 72 45 73 47 74 44 75 66 76
REMARK SMILES IDX 67 77 72 78 68 79 69 80 71 81 73 82 70 83 54 84 55 85 60 86
REMARK SMILES IDX 56 87 57 88 59 89 61 90 58 91
REMARK H PARENT 21 6 28 34 78 53 52 64
REMARK Flexibility Score: inf
ROOT
ATOM      1  C   UNL A   1      40.739  28.942  26.951  1.00  0.00     0.021 C 
ENDROOT
BRANCH   1   2
ATOM      2  C   UNL A   1      40.116  29.269  28.322  1.00  0.00     0.116 C 
BRANCH   2   3
ATOM      3  N   UNL A   1      38.662  29.262  28.259  1.00  0.00    -0.356 N 
ATOM      4  C   UNL A   1      37.662  29.479  29.159  1.00  0.00     0.227 C 
ATOM      5  O   UNL A   1      36.517  29.280  28.728  1.00  0.00    -0.274 OA
ATOM      6  H   UNL A   1      38.322  29.054  27.359  1.00  0.00     0.163 HD
BRANCH   4   7
ATOM      7  C   UNL A   1      37.844  29.935  30.626  1.00  0.00     0.105 C 
ATOM      8  C   UNL A   1      37.650  28.833  31.662  1.00  0.00     0.023 C 
BRANCH   7   9
ATOM      9  C   UNL A   1      37.113  31.222  30.968  1.00  0.00    -0.033 A 
ATOM     10  C   UNL A   1      35.566  33.555  31.464  1.00  0.00     0.025 A 
ATOM     11  C   UNL A   1      35.069  32.283  31.722  1.00  0.00     0.012 A 
ATOM     12  C   UNL A   1      36.863  33.645  30.941  1.00  0.00     0.131 A 
ATOM     13  C   UNL A   1      35.872  31.167  31.589  1.00  0.00     0.005 A 
ATOM     14  C   UNL A   1      37.618  32.493  30.662  1.00  0.00     0.044 A 
ATOM     15  F   UNL A   1      37.401  34.842  30.664  1.00  0.00    -0.206 F 
BRANCH  10  16
ATOM     16  C   UNL A   1      34.657  34.685  31.678  1.00  0.00     0.069 A 
ATOM     17  C   UNL A   1      34.958  35.562  32.756  1.00  0.00     0.130 A 
ATOM     18  C   UNL A   1      34.276  36.763  32.954  1.00  0.00     0.047 A 
ATOM     19  C   UNL A   1      33.278  37.132  32.065  1.00  0.00     0.008 A 
ATOM     20  C   UNL A   1      33.624  35.065  30.789  1.00  0.00     0.130 A 
ATOM     21  C   UNL A   1      32.952  36.284  31.008  1.00  0.00     0.047 A 
BRANCH  17  22
ATOM     22  O   UNL A   1      35.905  35.195  33.685  1.00  0.00    -0.493 OA
BRANCH  22  23
ATOM     23  C   UNL A   1      35.392  34.341  34.713  1.00  0.00     0.226 C 
ATOM     24  C   UNL A   1      36.558  33.662  35.417  1.00  0.00     0.049 C 
ENDBRANCH  22  23
ENDBRANCH  17  22
BRANCH  20  25
ATOM     25  O   UNL A   1      33.103  34.451  29.681  1.00  0.00    -0.493 OA
BRANCH  25  26
ATOM     26  C   UNL A   1      33.690  34.450  28.388  1.00  0.00     0.226 C 
ATOM     27  C   UNL A   1      34.273  33.076  28.077  1.00  0.00     0.049 C 
ENDBRANCH  25  26
ENDBRANCH  20  25
ENDBRANCH  10  16
ENDBRANCH   7   9
ENDBRANCH   4   7
ENDBRANCH   2   3
ENDBRANCH   1   2
BRANCH   1  28
ATOM     28  C   UNL A   1      40.983  27.459  26.684  1.00  0.00     0.002 C 
BRANCH  28  29
ATOM     29  C   UNL A   1      40.829  26.552  27.909  1.00  0.00     0.002 C 
BRANCH  29  30
ATOM     30  C   UNL A   1      40.013  25.273  27.691  1.00  0.00     0.021 C 
BRANCH  30  31
ATOM     31  C   UNL A   1      40.246  24.579  26.349  1.00  0.00     0.116 C 
BRANCH  31  32
ATOM     32  N   UNL A   1      41.041  23.369  26.496  1.00  0.00    -0.352 N 
ATOM     33  C   UNL A   1      42.393  23.191  26.385  1.00  0.00     0.251 C 
ATOM     34  H   UNL A   1      40.528  22.555  26.705  1.00  0.00     0.163 HD
ATOM     35  O   UNL A   1      42.859  22.050  26.292  1.00  0.00    -0.269 OA
BRANCH  33  36
ATOM     36  C   UNL A   1      43.305  24.352  26.373  1.00  0.00     0.039 A 
ATOM     37  C   UNL A   1      43.893  24.769  27.570  1.00  0.00     0.014 A 
ATOM     38  C   UNL A   1      43.551  25.053  25.189  1.00  0.00     0.014 A 
ATOM     39  C   UNL A   1      44.769  25.858  27.570  1.00  0.00     0.010 A 
ATOM     40  C   UNL A   1      44.478  26.092  25.177  1.00  0.00     0.010 A 
ATOM     41  C   UNL A   1      45.091  26.509  26.369  1.00  0.00    -0.014 A 
BRANCH  41  42
ATOM     42  C   UNL A   1      46.059  27.634  26.340  1.00  0.00     0.031 A 
ATOM     43  C   UNL A   1      47.534  27.361  26.225  1.00  0.00     0.074 A 
ATOM     44  C   UNL A   1      45.617  28.897  26.482  1.00  0.00     0.049 A 
ATOM     45  N   UNL A   1      48.536  28.203  26.253  1.00  0.00    -0.248 NA
ATOM     46  C   UNL A   1      47.937  25.953  26.091  1.00  0.00     0.031 C 
ATOM     47  C   UNL A   1      44.216  29.287  26.653  1.00  0.00     0.029 A 
ATOM     48  N   UNL A   1      46.301  30.086  26.521  1.00  0.00    -0.354 N 
ATOM     49  C   UNL A   1      49.684  27.428  26.148  1.00  0.00     0.074 A 
ATOM     50  C   UNL A   1      49.258  26.046  26.119  1.00  0.00     0.031 C 
ATOM     51  C   UNL A   1      44.144  30.623  26.762  1.00  0.00     0.029 A 
ATOM     52  C   UNL A   1      45.492  31.180  26.707  1.00  0.00     0.049 A 
ATOM     53  H   UNL A   1      47.278  30.148  26.425  1.00  0.00     0.167 HD
ATOM     54  C   UNL A   1      50.974  27.831  26.056  1.00  0.00     0.037 A 
ATOM     55  C   UNL A   1      45.802  32.485  26.829  1.00  0.00     0.037 A 
ATOM     56  C   UNL A   1      51.393  29.208  26.074  1.00  0.00     0.049 A 
ATOM     57  C   UNL A   1      47.240  32.910  26.732  1.00  0.00     0.074 A 
ATOM     58  C   UNL A   1      52.671  29.723  25.944  1.00  0.00     0.029 A 
ATOM     59  N   UNL A   1      50.541  30.290  26.240  1.00  0.00    -0.354 N 
ATOM     60  N   UNL A   1      48.311  32.171  26.568  1.00  0.00    -0.248 NA
ATOM     61  C   UNL A   1      47.513  34.350  26.827  1.00  0.00     0.031 C 
ATOM     62  C   UNL A   1      52.597  31.114  26.075  1.00  0.00     0.029 A 
ATOM     63  C   UNL A   1      51.267  31.470  26.235  1.00  0.00     0.049 A 
ATOM     64  H   UNL A   1      49.564  30.229  26.347  1.00  0.00     0.167 HD
ATOM     65  C   UNL A   1      49.381  33.056  26.517  1.00  0.00     0.074 A 
ATOM     66  C   UNL A   1      48.826  34.388  26.651  1.00  0.00     0.031 C 
ATOM     67  C   UNL A   1      50.702  32.789  26.371  1.00  0.00     0.037 A 
BRANCH  54  68
ATOM     68  C   UNL A   1      52.020  26.760  25.927  1.00  0.00     0.057 A 
ATOM     69  C   UNL A   1      52.356  26.204  24.684  1.00  0.00     0.134 A 
ATOM     70  C   UNL A   1      52.708  26.287  27.051  1.00  0.00     0.134 A 
ATOM     71  F   UNL A   1      51.729  26.603  23.568  1.00  0.00    -0.206 F 
ATOM     72  C   UNL A   1      53.311  25.191  24.571  1.00  0.00     0.040 A 
ATOM     73  C   UNL A   1      53.686  25.296  26.946  1.00  0.00     0.040 A 
ATOM     74  F   UNL A   1      52.443  26.780  28.270  1.00  0.00    -0.206 F 
ATOM     75  C   UNL A   1      53.983  24.738  25.704  1.00  0.00     0.006 A 
ENDBRANCH  54  68
BRANCH  55  76
ATOM     76  C   UNL A   1      44.722  33.482  27.034  1.00  0.00     0.057 A 
ATOM     77  C   UNL A   1      44.318  33.858  28.320  1.00  0.00     0.134 A 
ATOM     78  C   UNL A   1      44.079  34.094  25.951  1.00  0.00     0.134 A 
ATOM     79  F   UNL A   1      44.886  33.294  29.397  1.00  0.00    -0.206 F 
ATOM     80  C   UNL A   1      43.305  34.795  28.524  1.00  0.00     0.040 A 
ATOM     81  C   UNL A   1      43.082  35.051  26.140  1.00  0.00     0.040 A 
ATOM     82  F   UNL A   1      44.428  33.786  24.693  1.00  0.00    -0.206 F 
ATOM     83  C   UNL A   1      42.687  35.400  27.430  1.00  0.00     0.006 A 
ENDBRANCH  55  76
BRANCH  67  84
ATOM     84  C   UNL A   1      51.636  33.962  26.321  1.00  0.00     0.057 A 
ATOM     85  C   UNL A   1      51.969  34.594  25.116  1.00  0.00     0.134 A 
ATOM     86  C   UNL A   1      52.181  34.490  27.499  1.00  0.00     0.134 A 
ATOM     87  F   UNL A   1      51.491  34.130  23.951  1.00  0.00    -0.206 F 
ATOM     88  C   UNL A   1      52.827  35.695  25.082  1.00  0.00     0.040 A 
ATOM     89  C   UNL A   1      53.019  35.606  27.481  1.00  0.00     0.040 A 
ATOM     90  F   UNL A   1      51.898  33.937  28.688  1.00  0.00    -0.206 F 
ATOM     91  C   UNL A   1      53.349  36.207  26.269  1.00  0.00     0.006 A 
ENDBRANCH  67  84
ENDBRANCH  41  42
ENDBRANCH  33  36
ENDBRANCH  31  32
ENDBRANCH  30  31
ENDBRANCH  29  30
ENDBRANCH  28  29
ENDBRANCH   1  28
TORSDOF 19
ENDMDL
MODEL 3
REMARK VINA RESULT:     -10.0      0.335      6.088
REMARK SMILES CCOc1cccc(OCC)c1-c1ccc([C@@H](C)C(=O)NCCCCCCNC(=O)c2ccc(-c3c4nc(c(-c5c(F)cccc5F)c5ccc([nH]5)c(-c5c(F)cccc5F)c5nc(c(-c6c(F)cccc6F)c6ccc3[nH]6)C=C5)C=C4)cc2)cc1F
REMARK SMILES IDX 23 1 22 2 21 3 19 4 20 5 17 7 18 8 16 9 13 10 14 11 86 12
REMARK SMILES IDX 15 13 85 14 87 15 12 16 4 17 5 18 6 19 8 20 7 21 3 22 2 23
REMARK SMILES IDX 1 24 9 25 10 26 11 27 24 28 25 29 26 30 27 31 28 32 29 33
REMARK SMILES IDX 30 35 31 36 32 37 84 38 33 39 83 40 34 41 35 42 36 43 77 44
REMARK SMILES IDX 37 45 82 46 76 47 78 48 38 49 81 50 75 51 74 52 39 54 65 55
REMARK SMILES IDX 48 56 64 57 49 58 52 59 63 60 79 61 50 62 51 63 62 65 80 66
REMARK SMILES IDX 53 67 40 68 41 69 46 70 42 71 43 72 45 73 47 74 44 75 66 76
REMARK SMILES IDX 67 77 72 78 68 79 69 80 71 81 73 82 70 83 54 84 55 85 60 86
REMARK SMILES IDX 56 87 57 88 59 89 61 90 58 91
REMARK H PARENT 21 6 28 34 78 53 52 64
REMARK Flexibility Score: inf
ROOT
ATOM      1  C   UNL A   1      34.481  31.594  27.474  1.00  0.00     0.021 C 
ENDROOT
BRANCH   1   2
ATOM      2  C   UNL A   1      33.973  30.150  27.649  1.00  0.00     0.116 C 
BRANCH   2   3
ATOM      3  N   UNL A   1      32.782  29.906  26.849  1.00  0.00    -0.356 N 
ATOM      4  C   UNL A   1      32.544  29.344  25.630  1.00  0.00     0.227 C 
ATOM      5  O   UNL A   1      31.368  29.410  25.244  1.00  0.00    -0.274 OA
ATOM      6  H   UNL A   1      31.959  30.216  27.290  1.00  0.00     0.163 HD
BRANCH   4   7
ATOM      7  C   UNL A   1      33.595  28.657  24.726  1.00  0.00     0.105 C 
ATOM      8  C   UNL A   1      33.694  29.234  23.318  1.00  0.00     0.023 C 
BRANCH   7   9
ATOM      9  C   UNL A   1      33.539  27.139  24.755  1.00  0.00    -0.033 A 
ATOM     10  C   UNL A   1      33.641  24.304  24.937  1.00  0.00     0.025 A 
ATOM     11  C   UNL A   1      33.631  25.107  26.072  1.00  0.00     0.012 A 
ATOM     12  C   UNL A   1      33.605  24.949  23.693  1.00  0.00     0.131 A 
ATOM     13  C   UNL A   1      33.462  26.475  25.972  1.00  0.00     0.005 A 
ATOM     14  C   UNL A   1      33.590  26.351  23.598  1.00  0.00     0.044 A 
ATOM     15  F   UNL A   1      33.618  24.233  22.559  1.00  0.00    -0.206 F 
BRANCH  10  16
ATOM     16  C   UNL A   1      33.778  22.859  25.141  1.00  0.00     0.069 A 
ATOM     17  C   UNL A   1      32.612  22.067  24.954  1.00  0.00     0.130 A 
ATOM     18  C   UNL A   1      32.650  20.672  24.948  1.00  0.00     0.047 A 
ATOM     19  C   UNL A   1      33.866  20.025  25.111  1.00  0.00     0.008 A 
ATOM     20  C   UNL A   1      35.008  22.186  25.327  1.00  0.00     0.130 A 
ATOM     21  C   UNL A   1      35.022  20.777  25.312  1.00  0.00     0.047 A 
BRANCH  17  22
ATOM     22  O   UNL A   1      31.385  22.680  24.845  1.00  0.00    -0.493 OA
BRANCH  22  23
ATOM     23  C   UNL A   1      30.607  22.616  26.046  1.00  0.00     0.226 C 
ATOM     24  C   UNL A   1      30.203  24.027  26.448  1.00  0.00     0.049 C 
ENDBRANCH  22  23
ENDBRANCH  17  22
BRANCH  20  25
ATOM     25  O   UNL A   1      36.280  22.652  25.532  1.00  0.00    -0.493 OA
BRANCH  25  26
ATOM     26  C   UNL A   1      37.158  23.120  24.519  1.00  0.00     0.226 C 
ATOM     27  C   UNL A   1      36.581  22.813  23.141  1.00  0.00     0.049 C 
ENDBRANCH  25  26
ENDBRANCH  20  25
ENDBRANCH  10  16
ENDBRANCH   7   9
ENDBRANCH   4   7
ENDBRANCH   2   3
ENDBRANCH   1   2
BRANCH   1  28
ATOM     28  C   UNL A   1      34.669  32.380  28.770  1.00  0.00     0.002 C 
BRANCH  28  29
ATOM     29  C   UNL A   1      35.299  33.765  28.595  1.00  0.00     0.002 C 
BRANCH  29  30
ATOM     30  C   UNL A   1      34.347  34.954  28.763  1.00  0.00     0.021 C 
BRANCH  30  31
ATOM     31  C   UNL A   1      32.965  34.603  29.312  1.00  0.00     0.116 C 
BRANCH  31  32
ATOM     32  N   UNL A   1      32.590  35.461  30.427  1.00  0.00    -0.352 N 
ATOM     33  C   UNL A   1      33.060  35.483  31.711  1.00  0.00     0.251 C 
ATOM     34  H   UNL A   1      31.892  36.125  30.225  1.00  0.00     0.163 HD
ATOM     35  O   UNL A   1      32.446  36.110  32.581  1.00  0.00    -0.269 OA
BRANCH  33  36
ATOM     36  C   UNL A   1      34.297  34.763  32.070  1.00  0.00     0.039 A 
ATOM     37  C   UNL A   1      35.523  35.429  31.989  1.00  0.00     0.014 A 
ATOM     38  C   UNL A   1      34.254  33.418  32.452  1.00  0.00     0.014 A 
ATOM     39  C   UNL A   1      36.700  34.763  32.340  1.00  0.00     0.010 A 
ATOM     40  C   UNL A   1      35.418  32.778  32.870  1.00  0.00     0.010 A 
ATOM     41  C   UNL A   1      36.653  33.441  32.811  1.00  0.00    -0.014 A 
BRANCH  41  42
ATOM     42  C   UNL A   1      37.886  32.733  33.239  1.00  0.00     0.031 A 
ATOM     43  C   UNL A   1      38.461  31.633  32.390  1.00  0.00     0.074 A 
ATOM     44  C   UNL A   1      38.451  33.038  34.421  1.00  0.00     0.049 A 
ATOM     45  N   UNL A   1      39.486  30.855  32.627  1.00  0.00    -0.248 NA
ATOM     46  C   UNL A   1      37.774  31.350  31.120  1.00  0.00     0.031 C 
ATOM     47  C   UNL A   1      37.960  34.050  35.358  1.00  0.00     0.029 A 
ATOM     48  N   UNL A   1      39.556  32.515  35.046  1.00  0.00    -0.354 N 
ATOM     49  C   UNL A   1      39.562  29.989  31.544  1.00  0.00     0.074 A 
ATOM     50  C   UNL A   1      38.442  30.295  30.680  1.00  0.00     0.031 C 
ATOM     51  C   UNL A   1      38.768  34.085  36.429  1.00  0.00     0.029 A 
ATOM     52  C   UNL A   1      39.810  33.075  36.274  1.00  0.00     0.049 A 
ATOM     53  H   UNL A   1      40.113  31.806  34.652  1.00  0.00     0.167 HD
ATOM     54  C   UNL A   1      40.494  29.042  31.278  1.00  0.00     0.037 A 
ATOM     55  C   UNL A   1      40.770  32.800  37.177  1.00  0.00     0.037 A 
ATOM     56  C   UNL A   1      41.612  28.747  32.135  1.00  0.00     0.049 A 
ATOM     57  C   UNL A   1      41.789  31.741  36.867  1.00  0.00     0.074 A 
ATOM     58  C   UNL A   1      42.637  27.838  31.936  1.00  0.00     0.029 A 
ATOM     59  N   UNL A   1      41.849  29.353  33.360  1.00  0.00    -0.354 N 
ATOM     60  N   UNL A   1      41.887  30.973  35.809  1.00  0.00    -0.248 NA
ATOM     61  C   UNL A   1      42.838  31.517  37.871  1.00  0.00     0.031 C 
ATOM     62  C   UNL A   1      43.469  27.862  33.060  1.00  0.00     0.029 A 
ATOM     63  C   UNL A   1      42.993  28.824  33.937  1.00  0.00     0.049 A 
ATOM     64  H   UNL A   1      41.288  30.055  33.761  1.00  0.00     0.167 HD
ATOM     65  C   UNL A   1      43.017  30.191  36.007  1.00  0.00     0.074 A 
ATOM     66  C   UNL A   1      43.582  30.591  37.280  1.00  0.00     0.031 C 
ATOM     67  C   UNL A   1      43.541  29.231  35.207  1.00  0.00     0.037 A 
BRANCH  54  68
ATOM     68  C   UNL A   1      40.335  28.260  30.004  1.00  0.00     0.057 A 
ATOM     69  C   UNL A   1      41.039  28.599  28.840  1.00  0.00     0.134 A 
ATOM     70  C   UNL A   1      39.481  27.153  29.942  1.00  0.00     0.134 A 
ATOM     71  F   UNL A   1      41.865  29.655  28.826  1.00  0.00    -0.206 F 
ATOM     72  C   UNL A   1      40.870  27.886  27.651  1.00  0.00     0.040 A 
ATOM     73  C   UNL A   1      39.327  26.414  28.767  1.00  0.00     0.040 A 
ATOM     74  F   UNL A   1      38.783  26.768  31.021  1.00  0.00    -0.206 F 
ATOM     75  C   UNL A   1      40.016  26.787  27.614  1.00  0.00     0.006 A 
ENDBRANCH  54  68
BRANCH  55  76
ATOM     76  C   UNL A   1      40.819  33.559  38.452  1.00  0.00     0.057 A 
ATOM     77  C   UNL A   1      39.985  33.227  39.525  1.00  0.00     0.134 A 
ATOM     78  C   UNL A   1      41.712  34.623  38.634  1.00  0.00     0.134 A 
ATOM     79  F   UNL A   1      39.099  32.228  39.406  1.00  0.00    -0.206 F 
ATOM     80  C   UNL A   1      40.025  33.933  40.728  1.00  0.00     0.040 A 
ATOM     81  C   UNL A   1      41.780  35.322  39.839  1.00  0.00     0.040 A 
ATOM     82  F   UNL A   1      42.546  34.983  37.647  1.00  0.00    -0.206 F 
ATOM     83  C   UNL A   1      40.930  34.981  40.890  1.00  0.00     0.006 A 
ENDBRANCH  55  76
BRANCH  67  84
ATOM     84  C   UNL A   1      44.804  28.565  35.671  1.00  0.00     0.057 A 
ATOM     85  C   UNL A   1      44.785  27.403  36.452  1.00  0.00     0.134 A 
ATOM     86  C   UNL A   1      46.056  29.074  35.298  1.00  0.00     0.134 A 
ATOM     87  F   UNL A   1      43.620  26.872  36.853  1.00  0.00    -0.206 F 
ATOM     88  C   UNL A   1      45.966  26.783  36.864  1.00  0.00     0.040 A 
ATOM     89  C   UNL A   1      47.242  28.447  35.683  1.00  0.00     0.040 A 
ATOM     90  F   UNL A   1      46.145  30.180  34.545  1.00  0.00    -0.206 F 
ATOM     91  C   UNL A   1      47.199  27.302  36.474  1.00  0.00     0.006 A 
ENDBRANCH  67  84
ENDBRANCH  41  42
ENDBRANCH  33  36
ENDBRANCH  31  32
ENDBRANCH  30  31
ENDBRANCH  29  30
ENDBRANCH  28  29
ENDBRANCH   1  28
TORSDOF 19
ENDMDL
