MODEL 1
REMARK VINA RESULT:     -11.6      0.000      0.000
REMARK SMILES C[C@H](NC(=O)N1CC[C@@H](C(=O)NCCCCCCNC(=O)c2ccc(-c3c4nc(c(-c5c(F)cccc5F)c5ccc([nH]5)c(-c5c(F)cccc5F)c5nc(c(-c6c(F)cccc6F)c6ccc3[nH]6)C=C5)C=C4)cc2)[C@H]1C)c1ccc(Cl)cc1
REMARK SMILES IDX 15 1 14 2 13 3 12 4 10 5 11 6 9 8 6 9 7 10 76 11 8 12 77 13
REMARK SMILES IDX 4 14 3 15 5 17 2 18 1 19 78 20 79 21 84 22 80 23 83 24 81 25
REMARK SMILES IDX 82 26 16 27 17 28 18 29 19 30 20 31 21 33 22 34 23 35 75 36
REMARK SMILES IDX 24 37 74 38 25 39 26 40 27 41 68 42 28 43 73 44 67 45 69 46
REMARK SMILES IDX 29 47 72 48 66 49 65 50 30 52 56 53 39 54 55 55 40 56 43 57
REMARK SMILES IDX 54 58 70 59 41 60 42 61 53 63 71 64 44 65 31 66 32 67 37 68
REMARK SMILES IDX 33 69 34 70 36 71 38 72 35 73 57 74 58 75 63 76 59 77 60 78
REMARK SMILES IDX 62 79 64 80 61 81 45 82 46 83 51 84 47 85 48 86 50 87 52 88
REMARK SMILES IDX 49 89
REMARK H PARENT 12 7 3 16 19 32 69 51 43 62
REMARK Flexibility Score: inf
ROOT
ATOM      1  C   UNL A   1      34.392  23.428  23.069  1.00  0.00     0.002 C 
ENDROOT
BRANCH   1   2
ATOM      2  C   UNL A   1      33.568  24.410  22.238  1.00  0.00     0.021 C 
BRANCH   2   3
ATOM      3  C   UNL A   1      33.626  25.875  22.672  1.00  0.00     0.116 C 
BRANCH   3   4
ATOM      4  N   UNL A   1      32.452  26.607  22.243  1.00  0.00    -0.356 N 
ATOM      5  C   UNL A   1      31.285  26.896  22.871  1.00  0.00     0.225 C 
ATOM      6  O   UNL A   1      30.434  27.492  22.202  1.00  0.00    -0.275 OA
ATOM      7  H   UNL A   1      32.513  26.959  21.325  1.00  0.00     0.163 HD
BRANCH   5   8
ATOM      8  C   UNL A   1      30.976  26.530  24.316  1.00  0.00     0.102 C 
ATOM      9  N   UNL A   1      31.286  24.634  25.748  1.00  0.00    -0.321 N 
ATOM     10  C   UNL A   1      31.817  25.798  26.434  1.00  0.00     0.122 C 
ATOM     11  C   UNL A   1      30.465  25.108  24.624  1.00  0.00     0.096 C 
ATOM     12  C   UNL A   1      32.090  26.803  25.330  1.00  0.00     0.037 C 
ATOM     13  C   UNL A   1      30.363  24.137  23.466  1.00  0.00     0.032 C 
BRANCH   9  14
ATOM     14  C   UNL A   1      30.809  23.602  26.525  1.00  0.00     0.318 C 
ATOM     15  N   UNL A   1      31.535  22.452  26.539  1.00  0.00    -0.331 N 
ATOM     16  H   UNL A   1      31.044  21.631  26.774  1.00  0.00     0.165 HD
ATOM     17  O   UNL A   1      29.787  23.685  27.199  1.00  0.00    -0.249 OA
BRANCH  15  18
ATOM     18  C   UNL A   1      32.953  22.292  26.246  1.00  0.00     0.111 C 
ATOM     19  C   UNL A   1      33.741  22.303  27.558  1.00  0.00     0.036 C 
BRANCH  18  20
ATOM     20  C   UNL A   1      33.280  21.058  25.417  1.00  0.00    -0.026 A 
ATOM     21  C   UNL A   1      34.552  20.467  25.389  1.00  0.00     0.007 A 
ATOM     22  C   UNL A   1      32.241  20.427  24.707  1.00  0.00     0.007 A 
ATOM     23  C   UNL A   1      34.757  19.237  24.753  1.00  0.00     0.021 A 
ATOM     24  C   UNL A   1      32.444  19.200  24.070  1.00  0.00     0.021 A 
ATOM     25  C   UNL A   1      33.698  18.600  24.116  1.00  0.00     0.041 A 
ATOM     26  Cl  UNL A   1      33.925  17.051  23.404  1.00  0.00    -0.084 Cl
ENDBRANCH  18  20
ENDBRANCH  15  18
ENDBRANCH   9  14
ENDBRANCH   5   8
ENDBRANCH   3   4
ENDBRANCH   2   3
ENDBRANCH   1   2
BRANCH   1  27
ATOM     27  C   UNL A   1      35.204  24.050  24.207  1.00  0.00     0.002 C 
BRANCH  27  28
ATOM     28  C   UNL A   1      36.601  23.461  24.426  1.00  0.00     0.021 C 
BRANCH  28  29
ATOM     29  C   UNL A   1      37.009  23.272  25.884  1.00  0.00     0.116 C 
BRANCH  29  30
ATOM     30  N   UNL A   1      38.083  22.307  26.039  1.00  0.00    -0.352 N 
ATOM     31  C   UNL A   1      39.399  22.509  26.375  1.00  0.00     0.251 C 
ATOM     32  H   UNL A   1      37.830  21.370  25.881  1.00  0.00     0.163 HD
ATOM     33  O   UNL A   1      40.208  21.594  26.269  1.00  0.00    -0.269 OA
BRANCH  31  34
ATOM     34  C   UNL A   1      39.850  23.835  26.851  1.00  0.00     0.039 A 
ATOM     35  C   UNL A   1      40.075  24.846  25.913  1.00  0.00     0.014 A 
ATOM     36  C   UNL A   1      40.081  24.073  28.209  1.00  0.00     0.014 A 
ATOM     37  C   UNL A   1      40.486  26.110  26.343  1.00  0.00     0.010 A 
ATOM     38  C   UNL A   1      40.423  25.353  28.641  1.00  0.00     0.010 A 
ATOM     39  C   UNL A   1      40.639  26.382  27.712  1.00  0.00    -0.014 A 
BRANCH  39  40
ATOM     40  C   UNL A   1      41.046  27.731  28.184  1.00  0.00     0.031 A 
ATOM     41  C   UNL A   1      42.502  28.116  28.204  1.00  0.00     0.074 A 
ATOM     42  C   UNL A   1      40.115  28.594  28.636  1.00  0.00     0.049 A 
ATOM     43  N   UNL A   1      43.060  29.219  28.633  1.00  0.00    -0.248 NA
ATOM     44  C   UNL A   1      43.457  27.119  27.694  1.00  0.00     0.031 C 
ATOM     45  C   UNL A   1      38.677  28.330  28.702  1.00  0.00     0.029 A 
ATOM     46  N   UNL A   1      40.242  29.868  29.134  1.00  0.00    -0.354 N 
ATOM     47  C   UNL A   1      44.427  29.045  28.454  1.00  0.00     0.074 A 
ATOM     48  C   UNL A   1      44.619  27.710  27.933  1.00  0.00     0.031 C 
ATOM     49  C   UNL A   1      38.052  29.416  29.188  1.00  0.00     0.029 A 
ATOM     50  C   UNL A   1      39.047  30.435  29.505  1.00  0.00     0.049 A 
ATOM     51  H   UNL A   1      41.107  30.329  29.217  1.00  0.00     0.167 HD
ATOM     52  C   UNL A   1      45.431  29.928  28.680  1.00  0.00     0.037 A 
ATOM     53  C   UNL A   1      38.783  31.640  30.046  1.00  0.00     0.037 A 
ATOM     54  C   UNL A   1      45.237  31.263  29.179  1.00  0.00     0.049 A 
ATOM     55  C   UNL A   1      39.920  32.593  30.307  1.00  0.00     0.074 A 
ATOM     56  C   UNL A   1      46.186  32.247  29.401  1.00  0.00     0.029 A 
ATOM     57  N   UNL A   1      44.010  31.805  29.532  1.00  0.00    -0.354 N 
ATOM     58  N   UNL A   1      41.201  32.435  30.080  1.00  0.00    -0.248 NA
ATOM     59  C   UNL A   1      39.571  33.895  30.893  1.00  0.00     0.031 C 
ATOM     60  C   UNL A   1      45.539  33.366  29.933  1.00  0.00     0.029 A 
ATOM     61  C   UNL A   1      44.181  33.102  29.987  1.00  0.00     0.049 A 
ATOM     62  H   UNL A   1      43.146  31.337  29.468  1.00  0.00     0.167 HD
ATOM     63  C   UNL A   1      41.805  33.628  30.458  1.00  0.00     0.074 A 
ATOM     64  C   UNL A   1      40.748  34.504  30.918  1.00  0.00     0.031 C 
ATOM     65  C   UNL A   1      43.116  33.969  30.425  1.00  0.00     0.037 A 
BRANCH  52  66
ATOM     66  C   UNL A   1      46.832  29.476  28.381  1.00  0.00     0.057 A 
ATOM     67  C   UNL A   1      47.647  28.898  29.363  1.00  0.00     0.134 A 
ATOM     68  C   UNL A   1      47.356  29.578  27.086  1.00  0.00     0.134 A 
ATOM     69  F   UNL A   1      47.210  28.781  30.627  1.00  0.00    -0.206 F 
ATOM     70  C   UNL A   1      48.941  28.461  29.075  1.00  0.00     0.040 A 
ATOM     71  C   UNL A   1      48.638  29.118  26.779  1.00  0.00     0.040 A 
ATOM     72  F   UNL A   1      46.627  30.115  26.095  1.00  0.00    -0.206 F 
ATOM     73  C   UNL A   1      49.436  28.563  27.777  1.00  0.00     0.006 A 
ENDBRANCH  52  66
BRANCH  53  74
ATOM     74  C   UNL A   1      37.386  32.031  30.366  1.00  0.00     0.057 A 
ATOM     75  C   UNL A   1      36.601  32.729  29.441  1.00  0.00     0.134 A 
ATOM     76  C   UNL A   1      36.813  31.746  31.612  1.00  0.00     0.134 A 
ATOM     77  F   UNL A   1      37.099  33.049  28.238  1.00  0.00    -0.206 F 
ATOM     78  C   UNL A   1      35.309  33.157  29.752  1.00  0.00     0.040 A 
ATOM     79  C   UNL A   1      35.511  32.143  31.926  1.00  0.00     0.040 A 
ATOM     80  F   UNL A   1      37.508  31.071  32.540  1.00  0.00    -0.206 F 
ATOM     81  C   UNL A   1      34.760  32.860  30.997  1.00  0.00     0.006 A 
ENDBRANCH  53  74
BRANCH  65  82
ATOM     82  C   UNL A   1      43.477  35.363  30.847  1.00  0.00     0.057 A 
ATOM     83  C   UNL A   1      43.547  36.423  29.935  1.00  0.00     0.134 A 
ATOM     84  C   UNL A   1      43.723  35.655  32.196  1.00  0.00     0.134 A 
ATOM     85  F   UNL A   1      43.335  36.209  28.627  1.00  0.00    -0.206 F 
ATOM     86  C   UNL A   1      43.873  37.718  30.343  1.00  0.00     0.040 A 
ATOM     87  C   UNL A   1      44.019  36.950  32.621  1.00  0.00     0.040 A 
ATOM     88  F   UNL A   1      43.663  34.687  33.124  1.00  0.00    -0.206 F 
ATOM     89  C   UNL A   1      44.102  37.985  31.693  1.00  0.00     0.006 A 
ENDBRANCH  65  82
ENDBRANCH  39  40
ENDBRANCH  31  34
ENDBRANCH  29  30
ENDBRANCH  28  29
ENDBRANCH  27  28
ENDBRANCH   1  27
TORSDOF 16
ENDMDL
MODEL 2
REMARK VINA RESULT:     -11.4      2.909      4.788
REMARK SMILES C[C@H](NC(=O)N1CC[C@@H](C(=O)NCCCCCCNC(=O)c2ccc(-c3c4nc(c(-c5c(F)cccc5F)c5ccc([nH]5)c(-c5c(F)cccc5F)c5nc(c(-c6c(F)cccc6F)c6ccc3[nH]6)C=C5)C=C4)cc2)[C@H]1C)c1ccc(Cl)cc1
REMARK SMILES IDX 15 1 14 2 13 3 12 4 10 5 11 6 9 8 6 9 7 10 76 11 8 12 77 13
REMARK SMILES IDX 4 14 3 15 5 17 2 18 1 19 78 20 79 21 84 22 80 23 83 24 81 25
REMARK SMILES IDX 82 26 16 27 17 28 18 29 19 30 20 31 21 33 22 34 23 35 75 36
REMARK SMILES IDX 24 37 74 38 25 39 26 40 27 41 68 42 28 43 73 44 67 45 69 46
REMARK SMILES IDX 29 47 72 48 66 49 65 50 30 52 56 53 39 54 55 55 40 56 43 57
REMARK SMILES IDX 54 58 70 59 41 60 42 61 53 63 71 64 44 65 31 66 32 67 37 68
REMARK SMILES IDX 33 69 34 70 36 71 38 72 35 73 57 74 58 75 63 76 59 77 60 78
REMARK SMILES IDX 62 79 64 80 61 81 45 82 46 83 51 84 47 85 48 86 50 87 52 88
REMARK SMILES IDX 49 89
REMARK H PARENT 12 7 3 16 19 32 69 51 43 62
REMARK Flexibility Score: inf
ROOT
ATOM      1  C   UNL A   1      37.871  22.113  25.655  1.00  0.00     0.002 C 
ENDROOT
BRANCH   1   2
ATOM      2  C   UNL A   1      37.353  23.505  25.294  1.00  0.00     0.021 C 
BRANCH   2   3
ATOM      3  C   UNL A   1      35.983  23.881  25.859  1.00  0.00     0.116 C 
BRANCH   3   4
ATOM      4  N   UNL A   1      35.469  22.854  26.742  1.00  0.00    -0.356 N 
ATOM      5  C   UNL A   1      34.371  22.062  26.667  1.00  0.00     0.225 C 
ATOM      6  O   UNL A   1      34.164  21.316  27.632  1.00  0.00    -0.275 OA
ATOM      7  H   UNL A   1      36.019  22.705  27.546  1.00  0.00     0.163 HD
BRANCH   5   8
ATOM      8  C   UNL A   1      33.403  22.047  25.493  1.00  0.00     0.102 C 
ATOM      9  N   UNL A   1      32.382  23.658  24.044  1.00  0.00    -0.321 N 
ATOM     10  C   UNL A   1      32.995  22.640  23.210  1.00  0.00     0.122 C 
ATOM     11  C   UNL A   1      32.317  23.139  25.418  1.00  0.00     0.096 C 
ATOM     12  C   UNL A   1      34.038  21.991  24.101  1.00  0.00     0.037 C 
ATOM     13  C   UNL A   1      32.323  24.205  26.494  1.00  0.00     0.032 C 
BRANCH   9  14
ATOM     14  C   UNL A   1      31.286  24.320  23.536  1.00  0.00     0.318 C 
ATOM     15  N   UNL A   1      31.355  25.677  23.478  1.00  0.00    -0.331 N 
ATOM     16  H   UNL A   1      30.494  26.156  23.469  1.00  0.00     0.165 HD
ATOM     17  O   UNL A   1      30.282  23.743  23.129  1.00  0.00    -0.249 OA
BRANCH  15  18
ATOM     18  C   UNL A   1      32.552  26.505  23.429  1.00  0.00     0.111 C 
ATOM     19  C   UNL A   1      32.666  27.141  22.042  1.00  0.00     0.036 C 
BRANCH  18  20
ATOM     20  C   UNL A   1      32.623  27.559  24.526  1.00  0.00    -0.026 A 
ATOM     21  C   UNL A   1      33.594  27.548  25.538  1.00  0.00     0.007 A 
ATOM     22  C   UNL A   1      31.726  28.643  24.480  1.00  0.00     0.007 A 
ATOM     23  C   UNL A   1      33.725  28.631  26.416  1.00  0.00     0.021 A 
ATOM     24  C   UNL A   1      31.854  29.722  25.357  1.00  0.00     0.021 A 
ATOM     25  C   UNL A   1      32.869  29.721  26.307  1.00  0.00     0.041 A 
ATOM     26  Cl  UNL A   1      33.078  31.088  27.331  1.00  0.00    -0.084 Cl
ENDBRANCH  18  20
ENDBRANCH  15  18
ENDBRANCH   9  14
ENDBRANCH   5   8
ENDBRANCH   3   4
ENDBRANCH   2   3
ENDBRANCH   1   2
BRANCH   1  27
ATOM     27  C   UNL A   1      37.582  21.018  24.627  1.00  0.00     0.002 C 
BRANCH  27  28
ATOM     28  C   UNL A   1      38.336  19.700  24.830  1.00  0.00     0.021 C 
BRANCH  28  29
ATOM     29  C   UNL A   1      39.174  19.617  26.103  1.00  0.00     0.116 C 
BRANCH  29  30
ATOM     30  N   UNL A   1      40.447  18.953  25.886  1.00  0.00    -0.352 N 
ATOM     31  C   UNL A   1      41.720  19.466  25.928  1.00  0.00     0.251 C 
ATOM     32  H   UNL A   1      40.390  17.993  25.678  1.00  0.00     0.163 HD
ATOM     33  O   UNL A   1      42.666  18.798  25.527  1.00  0.00    -0.269 OA
BRANCH  31  34
ATOM     34  C   UNL A   1      41.954  20.833  26.443  1.00  0.00     0.039 A 
ATOM     35  C   UNL A   1      41.874  21.057  27.820  1.00  0.00     0.014 A 
ATOM     36  C   UNL A   1      42.218  21.895  25.573  1.00  0.00     0.014 A 
ATOM     37  C   UNL A   1      42.108  22.338  28.328  1.00  0.00     0.010 A 
ATOM     38  C   UNL A   1      42.519  23.155  26.087  1.00  0.00     0.010 A 
ATOM     39  C   UNL A   1      42.458  23.392  27.469  1.00  0.00    -0.014 A 
BRANCH  39  40
ATOM     40  C   UNL A   1      42.738  24.751  27.999  1.00  0.00     0.031 A 
ATOM     41  C   UNL A   1      44.142  25.137  28.381  1.00  0.00     0.074 A 
ATOM     42  C   UNL A   1      41.727  25.623  28.181  1.00  0.00     0.049 A 
ATOM     43  N   UNL A   1      44.578  26.251  28.914  1.00  0.00    -0.248 NA
ATOM     44  C   UNL A   1      45.192  24.131  28.152  1.00  0.00     0.031 C 
ATOM     45  C   UNL A   1      40.318  25.360  27.884  1.00  0.00     0.029 A 
ATOM     46  N   UNL A   1      41.729  26.907  28.667  1.00  0.00    -0.354 N 
ATOM     47  C   UNL A   1      45.945  26.074  29.093  1.00  0.00     0.074 A 
ATOM     48  C   UNL A   1      46.257  24.728  28.666  1.00  0.00     0.031 C 
ATOM     49  C   UNL A   1      39.595  26.455  28.171  1.00  0.00     0.029 A 
ATOM     50  C   UNL A   1      40.481  27.482  28.709  1.00  0.00     0.049 A 
ATOM     51  H   UNL A   1      42.546  27.372  28.957  1.00  0.00     0.167 HD
ATOM     52  C   UNL A   1      46.862  26.962  29.547  1.00  0.00     0.037 A 
ATOM     53  C   UNL A   1      40.095  28.699  29.140  1.00  0.00     0.037 A 
ATOM     54  C   UNL A   1      46.555  28.308  29.951  1.00  0.00     0.049 A 
ATOM     55  C   UNL A   1      41.132  29.658  29.660  1.00  0.00     0.074 A 
ATOM     56  C   UNL A   1      47.421  29.297  30.387  1.00  0.00     0.029 A 
ATOM     57  N   UNL A   1      45.281  28.856  29.969  1.00  0.00    -0.354 N 
ATOM     58  N   UNL A   1      42.428  29.496  29.771  1.00  0.00    -0.248 NA
ATOM     59  C   UNL A   1      40.651  30.972  30.110  1.00  0.00     0.031 C 
ATOM     60  C   UNL A   1      46.665  30.428  30.711  1.00  0.00     0.029 A 
ATOM     61  C   UNL A   1      45.336  30.164  30.424  1.00  0.00     0.049 A 
ATOM     62  H   UNL A   1      44.459  28.386  29.697  1.00  0.00     0.167 HD
ATOM     63  C   UNL A   1      42.921  30.698  30.263  1.00  0.00     0.074 A 
ATOM     64  C   UNL A   1      41.786  31.582  30.421  1.00  0.00     0.031 C 
ATOM     65  C   UNL A   1      44.200  31.039  30.558  1.00  0.00     0.037 A 
BRANCH  52  66
ATOM     66  C   UNL A   1      48.292  26.505  29.624  1.00  0.00     0.057 A 
ATOM     67  C   UNL A   1      48.799  25.856  30.757  1.00  0.00     0.134 A 
ATOM     68  C   UNL A   1      49.157  26.674  28.536  1.00  0.00     0.134 A 
ATOM     69  F   UNL A   1      48.026  25.672  31.839  1.00  0.00    -0.206 F 
ATOM     70  C   UNL A   1      50.122  25.415  30.815  1.00  0.00     0.040 A 
ATOM     71  C   UNL A   1      50.474  26.211  28.571  1.00  0.00     0.040 A 
ATOM     72  F   UNL A   1      48.735  27.281  27.416  1.00  0.00    -0.206 F 
ATOM     73  C   UNL A   1      50.961  25.585  29.717  1.00  0.00     0.006 A 
ENDBRANCH  52  66
BRANCH  53  74
ATOM     74  C   UNL A   1      38.664  29.095  29.085  1.00  0.00     0.057 A 
ATOM     75  C   UNL A   1      38.105  29.627  27.917  1.00  0.00     0.134 A 
ATOM     76  C   UNL A   1      37.829  28.983  30.204  1.00  0.00     0.134 A 
ATOM     77  F   UNL A   1      38.857  29.778  26.817  1.00  0.00    -0.206 F 
ATOM     78  C   UNL A   1      36.780  30.063  27.871  1.00  0.00     0.040 A 
ATOM     79  C   UNL A   1      36.493  29.387  30.164  1.00  0.00     0.040 A 
ATOM     80  F   UNL A   1      38.299  28.472  31.352  1.00  0.00    -0.206 F 
ATOM     81  C   UNL A   1      35.969  29.939  28.997  1.00  0.00     0.006 A 
ENDBRANCH  53  74
BRANCH  65  82
ATOM     82  C   UNL A   1      44.448  32.442  31.028  1.00  0.00     0.057 A 
ATOM     83  C   UNL A   1      44.698  33.493  30.136  1.00  0.00     0.134 A 
ATOM     84  C   UNL A   1      44.399  32.753  32.394  1.00  0.00     0.134 A 
ATOM     85  F   UNL A   1      44.771  33.262  28.817  1.00  0.00    -0.206 F 
ATOM     86  C   UNL A   1      44.916  34.796  30.587  1.00  0.00     0.040 A 
ATOM     87  C   UNL A   1      44.585  34.055  32.855  1.00  0.00     0.040 A 
ATOM     88  F   UNL A   1      44.154  31.795  33.301  1.00  0.00    -0.206 F 
ATOM     89  C   UNL A   1      44.852  35.081  31.951  1.00  0.00     0.006 A 
ENDBRANCH  65  82
ENDBRANCH  39  40
ENDBRANCH  31  34
ENDBRANCH  29  30
ENDBRANCH  28  29
ENDBRANCH  27  28
ENDBRANCH   1  27
TORSDOF 16
ENDMDL
MODEL 3
REMARK VINA RESULT:     -11.3      4.239      6.083
REMARK SMILES C[C@H](NC(=O)N1CC[C@@H](C(=O)NCCCCCCNC(=O)c2ccc(-c3c4nc(c(-c5c(F)cccc5F)c5ccc([nH]5)c(-c5c(F)cccc5F)c5nc(c(-c6c(F)cccc6F)c6ccc3[nH]6)C=C5)C=C4)cc2)[C@H]1C)c1ccc(Cl)cc1
REMARK SMILES IDX 15 1 14 2 13 3 12 4 10 5 11 6 9 8 6 9 7 10 76 11 8 12 77 13
REMARK SMILES IDX 4 14 3 15 5 17 2 18 1 19 78 20 79 21 84 22 80 23 83 24 81 25
REMARK SMILES IDX 82 26 16 27 17 28 18 29 19 30 20 31 21 33 22 34 23 35 75 36
REMARK SMILES IDX 24 37 74 38 25 39 26 40 27 41 68 42 28 43 73 44 67 45 69 46
REMARK SMILES IDX 29 47 72 48 66 49 65 50 30 52 56 53 39 54 55 55 40 56 43 57
REMARK SMILES IDX 54 58 70 59 41 60 42 61 53 63 71 64 44 65 31 66 32 67 37 68
REMARK SMILES IDX 33 69 34 70 36 71 38 72 35 73 57 74 58 75 63 76 59 77 60 78
REMARK SMILES IDX 62 79 64 80 61 81 45 82 46 83 51 84 47 85 48 86 50 87 52 88
REMARK SMILES IDX 49 89
REMARK H PARENT 12 7 3 16 19 32 69 51 43 62
REMARK Flexibility Score: inf
ROOT
ATOM      1  C   UNL A   1      39.398  22.958  26.382  1.00  0.00     0.002 C 
ENDROOT
BRANCH   1   2
ATOM      2  C   UNL A   1      37.895  22.855  26.127  1.00  0.00     0.021 C 
BRANCH   2   3
ATOM      3  C   UNL A   1      37.461  21.868  25.043  1.00  0.00     0.116 C 
BRANCH   3   4
ATOM      4  N   UNL A   1      36.799  22.540  23.943  1.00  0.00    -0.356 N 
ATOM      5  C   UNL A   1      35.489  22.781  23.686  1.00  0.00     0.225 C 
ATOM      6  O   UNL A   1      35.233  23.329  22.607  1.00  0.00    -0.275 OA
ATOM      7  H   UNL A   1      37.414  22.883  23.255  1.00  0.00     0.163 HD
BRANCH   5   8
ATOM      8  C   UNL A   1      34.349  22.418  24.627  1.00  0.00     0.102 C 
ATOM      9  N   UNL A   1      32.447  23.519  25.581  1.00  0.00    -0.321 N 
ATOM     10  C   UNL A   1      31.984  22.288  24.970  1.00  0.00     0.122 C 
ATOM     11  C   UNL A   1      33.912  23.448  25.688  1.00  0.00     0.096 C 
ATOM     12  C   UNL A   1      33.060  21.931  23.960  1.00  0.00     0.037 C 
ATOM     13  C   UNL A   1      34.610  24.792  25.686  1.00  0.00     0.032 C 
BRANCH   9  14
ATOM     14  C   UNL A   1      31.730  24.007  26.652  1.00  0.00     0.318 C 
ATOM     15  N   UNL A   1      31.357  25.313  26.603  1.00  0.00    -0.331 N 
ATOM     16  H   UNL A   1      31.182  25.748  27.469  1.00  0.00     0.165 HD
ATOM     17  O   UNL A   1      31.411  23.317  27.616  1.00  0.00    -0.249 OA
BRANCH  15  18
ATOM     18  C   UNL A   1      31.187  26.146  25.419  1.00  0.00     0.111 C 
ATOM     19  C   UNL A   1      29.780  25.937  24.857  1.00  0.00     0.036 C 
BRANCH  18  20
ATOM     20  C   UNL A   1      31.474  27.622  25.654  1.00  0.00    -0.026 A 
ATOM     21  C   UNL A   1      31.255  28.610  24.681  1.00  0.00     0.007 A 
ATOM     22  C   UNL A   1      31.901  28.033  26.931  1.00  0.00     0.007 A 
ATOM     23  C   UNL A   1      31.367  29.968  25.002  1.00  0.00     0.021 A 
ATOM     24  C   UNL A   1      32.015  29.388  27.251  1.00  0.00     0.021 A 
ATOM     25  C   UNL A   1      31.725  30.350  26.291  1.00  0.00     0.041 A 
ATOM     26  Cl  UNL A   1      31.784  32.017  26.711  1.00  0.00    -0.084 Cl
ENDBRANCH  18  20
ENDBRANCH  15  18
ENDBRANCH   9  14
ENDBRANCH   5   8
ENDBRANCH   3   4
ENDBRANCH   2   3
ENDBRANCH   1   2
BRANCH   1  27
ATOM     27  C   UNL A   1      40.088  21.651  26.779  1.00  0.00     0.002 C 
BRANCH  27  28
ATOM     28  C   UNL A   1      41.388  21.333  26.035  1.00  0.00     0.021 C 
BRANCH  28  29
ATOM     29  C   UNL A   1      42.658  21.896  26.667  1.00  0.00     0.116 C 
BRANCH  29  30
ATOM     30  N   UNL A   1      43.484  22.611  25.710  1.00  0.00    -0.352 N 
ATOM     31  C   UNL A   1      43.702  23.960  25.579  1.00  0.00     0.251 C 
ATOM     32  H   UNL A   1      43.958  22.045  25.060  1.00  0.00     0.163 HD
ATOM     33  O   UNL A   1      44.279  24.396  24.589  1.00  0.00    -0.269 OA
BRANCH  31  34
ATOM     34  C   UNL A   1      43.228  24.895  26.622  1.00  0.00     0.039 A 
ATOM     35  C   UNL A   1      42.188  24.494  27.465  1.00  0.00     0.014 A 
ATOM     36  C   UNL A   1      43.783  26.172  26.751  1.00  0.00     0.014 A 
ATOM     37  C   UNL A   1      41.737  25.356  28.468  1.00  0.00     0.010 A 
ATOM     38  C   UNL A   1      43.379  27.003  27.795  1.00  0.00     0.010 A 
ATOM     39  C   UNL A   1      42.345  26.607  28.658  1.00  0.00    -0.014 A 
BRANCH  39  40
ATOM     40  C   UNL A   1      41.895  27.520  29.740  1.00  0.00     0.031 A 
ATOM     41  C   UNL A   1      42.578  27.497  31.081  1.00  0.00     0.074 A 
ATOM     42  C   UNL A   1      40.844  28.339  29.534  1.00  0.00     0.049 A 
ATOM     43  N   UNL A   1      42.295  28.172  32.166  1.00  0.00    -0.248 NA
ATOM     44  C   UNL A   1      43.717  26.576  31.228  1.00  0.00     0.031 C 
ATOM     45  C   UNL A   1      40.074  28.433  28.292  1.00  0.00     0.029 A 
ATOM     46  N   UNL A   1      40.238  29.245  30.369  1.00  0.00    -0.354 N 
ATOM     47  C   UNL A   1      43.211  27.752  33.123  1.00  0.00     0.074 A 
ATOM     48  C   UNL A   1      44.021  26.722  32.509  1.00  0.00     0.031 C 
ATOM     49  C   UNL A   1      39.114  29.360  28.439  1.00  0.00     0.029 A 
ATOM     50  C   UNL A   1      39.174  29.898  29.794  1.00  0.00     0.049 A 
ATOM     51  H   UNL A   1      40.537  29.410  31.292  1.00  0.00     0.167 HD
ATOM     52  C   UNL A   1      43.380  28.201  34.390  1.00  0.00     0.037 A 
ATOM     53  C   UNL A   1      38.337  30.821  30.305  1.00  0.00     0.037 A 
ATOM     54  C   UNL A   1      42.588  29.240  34.993  1.00  0.00     0.049 A 
ATOM     55  C   UNL A   1      38.533  31.286  31.724  1.00  0.00     0.074 A 
ATOM     56  C   UNL A   1      42.708  29.793  36.257  1.00  0.00     0.029 A 
ATOM     57  N   UNL A   1      41.527  29.884  34.374  1.00  0.00    -0.354 N 
ATOM     58  N   UNL A   1      39.439  30.919  32.598  1.00  0.00    -0.248 NA
ATOM     59  C   UNL A   1      37.593  32.299  32.224  1.00  0.00     0.031 C 
ATOM     60  C   UNL A   1      41.691  30.738  36.419  1.00  0.00     0.029 A 
ATOM     61  C   UNL A   1      40.973  30.816  35.237  1.00  0.00     0.049 A 
ATOM     62  H   UNL A   1      41.214  29.706  33.457  1.00  0.00     0.167 HD
ATOM     63  C   UNL A   1      39.204  31.684  33.734  1.00  0.00     0.074 A 
ATOM     64  C   UNL A   1      38.076  32.541  33.435  1.00  0.00     0.031 C 
ATOM     65  C   UNL A   1      39.862  31.677  34.918  1.00  0.00     0.037 A 
BRANCH  52  66
ATOM     66  C   UNL A   1      44.471  27.573  35.210  1.00  0.00     0.057 A 
ATOM     67  C   UNL A   1      44.228  26.476  36.047  1.00  0.00     0.134 A 
ATOM     68  C   UNL A   1      45.789  28.039  35.126  1.00  0.00     0.134 A 
ATOM     69  F   UNL A   1      42.985  25.986  36.182  1.00  0.00    -0.206 F 
ATOM     70  C   UNL A   1      45.249  25.882  36.790  1.00  0.00     0.040 A 
ATOM     71  C   UNL A   1      46.824  27.436  35.841  1.00  0.00     0.040 A 
ATOM     72  F   UNL A   1      46.094  29.081  34.337  1.00  0.00    -0.206 F 
ATOM     73  C   UNL A   1      46.554  26.357  36.681  1.00  0.00     0.006 A 
ENDBRANCH  52  66
BRANCH  53  74
ATOM     74  C   UNL A   1      37.244  31.386  29.473  1.00  0.00     0.057 A 
ATOM     75  C   UNL A   1      37.344  32.669  28.921  1.00  0.00     0.134 A 
ATOM     76  C   UNL A   1      36.061  30.674  29.235  1.00  0.00     0.134 A 
ATOM     77  F   UNL A   1      38.443  33.408  29.128  1.00  0.00    -0.206 F 
ATOM     78  C   UNL A   1      36.299  33.236  28.190  1.00  0.00     0.040 A 
ATOM     79  C   UNL A   1      35.019  31.218  28.482  1.00  0.00     0.040 A 
ATOM     80  F   UNL A   1      35.904  29.437  29.728  1.00  0.00    -0.206 F 
ATOM     81  C   UNL A   1      35.133  32.508  27.966  1.00  0.00     0.006 A 
ENDBRANCH  53  74
BRANCH  65  82
ATOM     82  C   UNL A   1      39.418  32.661  35.960  1.00  0.00     0.057 A 
ATOM     83  C   UNL A   1      38.434  32.351  36.907  1.00  0.00     0.134 A 
ATOM     84  C   UNL A   1      40.014  33.927  36.039  1.00  0.00     0.134 A 
ATOM     85  F   UNL A   1      37.815  31.160  36.879  1.00  0.00    -0.206 F 
ATOM     86  C   UNL A   1      38.039  33.273  37.878  1.00  0.00     0.040 A 
ATOM     87  C   UNL A   1      39.650  34.846  37.023  1.00  0.00     0.040 A 
ATOM     88  F   UNL A   1      40.970  34.286  35.169  1.00  0.00    -0.206 F 
ATOM     89  C   UNL A   1      38.654  34.522  37.942  1.00  0.00     0.006 A 
ENDBRANCH  65  82
ENDBRANCH  39  40
ENDBRANCH  31  34
ENDBRANCH  29  30
ENDBRANCH  28  29
ENDBRANCH  27  28
ENDBRANCH   1  27
TORSDOF 16
ENDMDL
