MODEL 1
REMARK VINA RESULT:     -12.5      0.000      0.000
REMARK SMILES Cc1ccc(C(=O)NCCCCCCNC(=O)c2ccc(-c3c4nc(c(-c5c(F)cccc5F)c5ccc([nH]5)c(-c5c(F)cccc5F)c5nc(c(-c6c(F)cccc6F)c6ccc3[nH]6)C=C5)C=C4)cc2)c(Oc2cccc(F)c2C(N)=O)c1
REMARK SMILES IDX 11 1 10 2 9 3 8 4 6 5 7 6 5 8 1 9 2 10 3 11 84 12 4 13 72 14
REMARK SMILES IDX 73 15 74 16 75 17 80 18 76 19 78 20 77 21 79 22 81 23 82 24
REMARK SMILES IDX 83 25 12 28 13 29 14 30 15 31 16 32 17 34 18 35 19 36 71 37
REMARK SMILES IDX 20 38 70 39 21 40 22 41 23 42 64 43 24 44 69 45 63 46 65 47
REMARK SMILES IDX 25 48 68 49 62 50 61 51 26 53 52 54 35 55 51 56 36 57 39 58
REMARK SMILES IDX 50 59 66 60 37 61 38 62 49 64 67 65 40 66 27 67 28 68 33 69
REMARK SMILES IDX 29 70 30 71 32 72 34 73 31 74 53 75 54 76 59 77 55 78 56 79
REMARK SMILES IDX 58 80 60 81 57 82 41 83 42 84 47 85 43 86 44 87 46 88 48 89
REMARK SMILES IDX 45 90
REMARK H PARENT 8 7 82 26 82 27 15 33 65 52 39 63
REMARK Flexibility Score: inf
ROOT
ATOM      1  C   UNL A   1      32.902  27.086  26.518  1.00  0.00     0.002 C 
ENDROOT
BRANCH   1   2
ATOM      2  C   UNL A   1      33.868  26.556  25.458  1.00  0.00     0.021 C 
BRANCH   2   3
ATOM      3  C   UNL A   1      34.143  25.056  25.419  1.00  0.00     0.116 C 
BRANCH   3   4
ATOM      4  N   UNL A   1      35.035  24.588  24.395  1.00  0.00    -0.352 N 
ATOM      5  C   UNL A   1      35.029  23.432  23.646  1.00  0.00     0.255 C 
ATOM      6  O   UNL A   1      35.832  23.400  22.707  1.00  0.00    -0.269 OA
ATOM      7  H   UNL A   1      35.780  25.199  24.194  1.00  0.00     0.163 HD
BRANCH   5   8
ATOM      8  C   UNL A   1      34.209  22.196  23.906  1.00  0.00     0.082 A 
ATOM      9  C   UNL A   1      32.389  18.344  24.778  1.00  0.00     0.044 C 
ATOM     10  C   UNL A   1      33.026  19.668  24.476  1.00  0.00    -0.047 A 
ATOM     11  C   UNL A   1      34.292  19.978  24.965  1.00  0.00     0.004 A 
ATOM     12  C   UNL A   1      32.377  20.599  23.662  1.00  0.00     0.051 A 
ATOM     13  C   UNL A   1      34.875  21.217  24.674  1.00  0.00     0.018 A 
ATOM     14  C   UNL A   1      32.931  21.872  23.418  1.00  0.00     0.140 A 
BRANCH  14  15
ATOM     15  O   UNL A   1      32.271  22.742  22.597  1.00  0.00    -0.456 OA
BRANCH  15  16
ATOM     16  C   UNL A   1      31.736  23.930  23.059  1.00  0.00     0.143 A 
ATOM     17  C   UNL A   1      30.920  23.706  24.187  1.00  0.00     0.048 A 
ATOM     18  C   UNL A   1      31.816  25.227  22.518  1.00  0.00     0.117 A 
ATOM     19  C   UNL A   1      30.209  24.742  24.790  1.00  0.00     0.007 A 
ATOM     20  C   UNL A   1      31.080  26.252  23.134  1.00  0.00     0.139 A 
ATOM     21  C   UNL A   1      30.285  26.019  24.255  1.00  0.00     0.040 A 
ATOM     22  F   UNL A   1      31.088  27.498  22.637  1.00  0.00    -0.206 F 
BRANCH  18  23
ATOM     23  C   UNL A   1      32.678  25.682  21.404  1.00  0.00     0.255 C 
ATOM     24  N   UNL A   1      32.188  25.693  20.133  1.00  0.00    -0.365 N 
ATOM     25  O   UNL A   1      33.821  26.065  21.628  1.00  0.00    -0.269 OA
ATOM     26  H   UNL A   1      31.269  25.385  19.957  1.00  0.00     0.159 HD
ATOM     27  H   UNL A   1      32.751  26.009  19.390  1.00  0.00     0.159 HD
ENDBRANCH  18  23
ENDBRANCH  15  16
ENDBRANCH  14  15
ENDBRANCH   5   8
ENDBRANCH   3   4
ENDBRANCH   2   3
ENDBRANCH   1   2
BRANCH   1  28
ATOM     28  C   UNL A   1      33.060  28.538  26.990  1.00  0.00     0.002 C 
BRANCH  28  29
ATOM     29  C   UNL A   1      34.337  29.285  26.603  1.00  0.00     0.021 C 
BRANCH  29  30
ATOM     30  C   UNL A   1      34.882  30.257  27.637  1.00  0.00     0.116 C 
BRANCH  30  31
ATOM     31  N   UNL A   1      34.044  31.428  27.866  1.00  0.00    -0.352 N 
ATOM     32  C   UNL A   1      34.296  32.525  28.675  1.00  0.00     0.251 C 
ATOM     33  H   UNL A   1      33.187  31.441  27.382  1.00  0.00     0.163 HD
ATOM     34  O   UNL A   1      33.501  33.449  28.738  1.00  0.00    -0.269 OA
BRANCH  32  35
ATOM     35  C   UNL A   1      35.607  32.618  29.365  1.00  0.00     0.039 A 
ATOM     36  C   UNL A   1      36.634  33.314  28.721  1.00  0.00     0.014 A 
ATOM     37  C   UNL A   1      35.877  31.849  30.495  1.00  0.00     0.014 A 
ATOM     38  C   UNL A   1      37.957  33.026  29.048  1.00  0.00     0.010 A 
ATOM     39  C   UNL A   1      37.186  31.492  30.759  1.00  0.00     0.010 A 
ATOM     40  C   UNL A   1      38.220  32.023  29.983  1.00  0.00    -0.014 A 
BRANCH  40  41
ATOM     41  C   UNL A   1      39.515  31.362  30.072  1.00  0.00     0.031 A 
ATOM     42  C   UNL A   1      39.775  30.076  29.402  1.00  0.00     0.074 A 
ATOM     43  C   UNL A   1      40.516  31.938  30.776  1.00  0.00     0.049 A 
ATOM     44  N   UNL A   1      40.577  29.181  29.875  1.00  0.00    -0.248 NA
ATOM     45  C   UNL A   1      39.136  29.687  28.149  1.00  0.00     0.031 C 
ATOM     46  C   UNL A   1      41.920  31.536  30.804  1.00  0.00     0.029 A 
ATOM     47  N   UNL A   1      40.402  32.885  31.800  1.00  0.00    -0.354 N 
ATOM     48  C   UNL A   1      40.781  28.259  28.882  1.00  0.00     0.074 A 
ATOM     49  C   UNL A   1      39.802  28.564  27.862  1.00  0.00     0.031 C 
ATOM     50  C   UNL A   1      42.473  31.983  31.942  1.00  0.00     0.029 A 
ATOM     51  C   UNL A   1      41.412  32.575  32.735  1.00  0.00     0.049 A 
ATOM     52  H   UNL A   1      39.750  33.621  31.857  1.00  0.00     0.167 HD
ATOM     53  C   UNL A   1      41.855  27.423  28.926  1.00  0.00     0.037 A 
ATOM     54  C   UNL A   1      41.126  32.260  34.030  1.00  0.00     0.037 A 
ATOM     55  C   UNL A   1      42.699  27.654  30.089  1.00  0.00     0.049 A 
ATOM     56  C   UNL A   1      41.658  30.920  34.476  1.00  0.00     0.074 A 
ATOM     57  C   UNL A   1      43.880  28.358  30.266  1.00  0.00     0.029 A 
ATOM     58  N   UNL A   1      42.212  27.388  31.364  1.00  0.00    -0.354 N 
ATOM     59  N   UNL A   1      42.030  29.972  33.660  1.00  0.00    -0.248 NA
ATOM     60  C   UNL A   1      41.786  30.529  35.875  1.00  0.00     0.031 C 
ATOM     61  C   UNL A   1      44.107  28.512  31.653  1.00  0.00     0.029 A 
ATOM     62  C   UNL A   1      43.065  27.899  32.324  1.00  0.00     0.049 A 
ATOM     63  H   UNL A   1      41.377  26.904  31.556  1.00  0.00     0.167 HD
ATOM     64  C   UNL A   1      42.412  28.864  34.379  1.00  0.00     0.074 A 
ATOM     65  C   UNL A   1      42.268  29.279  35.761  1.00  0.00     0.031 C 
ATOM     66  C   UNL A   1      42.800  27.713  33.745  1.00  0.00     0.037 A 
BRANCH  53  67
ATOM     67  C   UNL A   1      42.255  26.634  27.712  1.00  0.00     0.057 A 
ATOM     68  C   UNL A   1      42.798  27.247  26.569  1.00  0.00     0.134 A 
ATOM     69  C   UNL A   1      42.051  25.248  27.607  1.00  0.00     0.134 A 
ATOM     70  F   UNL A   1      43.107  28.548  26.544  1.00  0.00    -0.206 F 
ATOM     71  C   UNL A   1      43.021  26.552  25.376  1.00  0.00     0.040 A 
ATOM     72  C   UNL A   1      42.228  24.548  26.407  1.00  0.00     0.040 A 
ATOM     73  F   UNL A   1      41.649  24.531  28.669  1.00  0.00    -0.206 F 
ATOM     74  C   UNL A   1      42.702  25.205  25.279  1.00  0.00     0.006 A 
ENDBRANCH  53  67
BRANCH  54  75
ATOM     75  C   UNL A   1      39.883  32.893  34.536  1.00  0.00     0.057 A 
ATOM     76  C   UNL A   1      38.685  32.157  34.501  1.00  0.00     0.134 A 
ATOM     77  C   UNL A   1      39.915  34.020  35.362  1.00  0.00     0.134 A 
ATOM     78  F   UNL A   1      38.591  31.060  33.733  1.00  0.00    -0.206 F 
ATOM     79  C   UNL A   1      37.603  32.465  35.330  1.00  0.00     0.040 A 
ATOM     80  C   UNL A   1      38.833  34.345  36.188  1.00  0.00     0.040 A 
ATOM     81  F   UNL A   1      41.029  34.757  35.467  1.00  0.00    -0.206 F 
ATOM     82  C   UNL A   1      37.690  33.547  36.201  1.00  0.00     0.006 A 
ENDBRANCH  54  75
BRANCH  66  83
ATOM     83  C   UNL A   1      43.074  26.341  34.346  1.00  0.00     0.057 A 
ATOM     84  C   UNL A   1      42.130  25.520  34.976  1.00  0.00     0.134 A 
ATOM     85  C   UNL A   1      44.352  25.739  34.194  1.00  0.00     0.134 A 
ATOM     86  F   UNL A   1      40.850  25.883  35.110  1.00  0.00    -0.206 F 
ATOM     87  C   UNL A   1      42.437  24.235  35.459  1.00  0.00     0.040 A 
ATOM     88  C   UNL A   1      44.654  24.441  34.622  1.00  0.00     0.040 A 
ATOM     89  F   UNL A   1      45.374  26.369  33.598  1.00  0.00    -0.206 F 
ATOM     90  C   UNL A   1      43.697  23.686  35.272  1.00  0.00     0.006 A 
ENDBRANCH  66  83
ENDBRANCH  40  41
ENDBRANCH  32  35
ENDBRANCH  30  31
ENDBRANCH  29  30
ENDBRANCH  28  29
ENDBRANCH   1  28
TORSDOF 16
ENDMDL
MODEL 2
REMARK VINA RESULT:     -12.4      1.757      2.709
REMARK SMILES Cc1ccc(C(=O)NCCCCCCNC(=O)c2ccc(-c3c4nc(c(-c5c(F)cccc5F)c5ccc([nH]5)c(-c5c(F)cccc5F)c5nc(c(-c6c(F)cccc6F)c6ccc3[nH]6)C=C5)C=C4)cc2)c(Oc2cccc(F)c2C(N)=O)c1
REMARK SMILES IDX 11 1 10 2 9 3 8 4 6 5 7 6 5 8 1 9 2 10 3 11 84 12 4 13 72 14
REMARK SMILES IDX 73 15 74 16 75 17 80 18 76 19 78 20 77 21 79 22 81 23 82 24
REMARK SMILES IDX 83 25 12 28 13 29 14 30 15 31 16 32 17 34 18 35 19 36 71 37
REMARK SMILES IDX 20 38 70 39 21 40 22 41 23 42 64 43 24 44 69 45 63 46 65 47
REMARK SMILES IDX 25 48 68 49 62 50 61 51 26 53 52 54 35 55 51 56 36 57 39 58
REMARK SMILES IDX 50 59 66 60 37 61 38 62 49 64 67 65 40 66 27 67 28 68 33 69
REMARK SMILES IDX 29 70 30 71 32 72 34 73 31 74 53 75 54 76 59 77 55 78 56 79
REMARK SMILES IDX 58 80 60 81 57 82 41 83 42 84 47 85 43 86 44 87 46 88 48 89
REMARK SMILES IDX 45 90
REMARK H PARENT 8 7 82 26 82 27 15 33 65 52 39 63
REMARK Flexibility Score: inf
ROOT
ATOM      1  C   UNL A   1      34.029  27.871  25.987  1.00  0.00     0.002 C 
ENDROOT
BRANCH   1   2
ATOM      2  C   UNL A   1      33.579  26.651  25.181  1.00  0.00     0.021 C 
BRANCH   2   3
ATOM      3  C   UNL A   1      34.185  25.296  25.526  1.00  0.00     0.116 C 
BRANCH   3   4
ATOM      4  N   UNL A   1      35.189  24.789  24.632  1.00  0.00    -0.352 N 
ATOM      5  C   UNL A   1      35.256  23.613  23.917  1.00  0.00     0.255 C 
ATOM      6  O   UNL A   1      36.168  23.546  23.086  1.00  0.00    -0.269 OA
ATOM      7  H   UNL A   1      35.962  25.385  24.509  1.00  0.00     0.163 HD
BRANCH   5   8
ATOM      8  C   UNL A   1      34.390  22.396  24.104  1.00  0.00     0.082 A 
ATOM      9  C   UNL A   1      32.414  18.592  24.840  1.00  0.00     0.044 C 
ATOM     10  C   UNL A   1      33.105  19.899  24.586  1.00  0.00    -0.047 A 
ATOM     11  C   UNL A   1      34.307  20.205  25.219  1.00  0.00     0.004 A 
ATOM     12  C   UNL A   1      32.576  20.818  23.677  1.00  0.00     0.051 A 
ATOM     13  C   UNL A   1      34.942  21.427  24.972  1.00  0.00     0.018 A 
ATOM     14  C   UNL A   1      33.176  22.076  23.472  1.00  0.00     0.140 A 
BRANCH  14  15
ATOM     15  O   UNL A   1      32.635  22.933  22.556  1.00  0.00    -0.456 OA
BRANCH  15  16
ATOM     16  C   UNL A   1      31.927  24.060  22.929  1.00  0.00     0.143 A 
ATOM     17  C   UNL A   1      31.174  23.815  24.095  1.00  0.00     0.048 A 
ATOM     18  C   UNL A   1      31.794  25.300  22.276  1.00  0.00     0.117 A 
ATOM     19  C   UNL A   1      30.318  24.777  24.627  1.00  0.00     0.007 A 
ATOM     20  C   UNL A   1      30.915  26.249  22.822  1.00  0.00     0.139 A 
ATOM     21  C   UNL A   1      30.184  25.998  23.982  1.00  0.00     0.040 A 
ATOM     22  F   UNL A   1      30.719  27.432  22.219  1.00  0.00    -0.206 F 
BRANCH  18  23
ATOM     23  C   UNL A   1      32.556  25.781  21.102  1.00  0.00     0.255 C 
ATOM     24  N   UNL A   1      32.027  25.649  19.854  1.00  0.00    -0.365 N 
ATOM     25  O   UNL A   1      33.650  26.314  21.256  1.00  0.00    -0.269 OA
ATOM     26  H   UNL A   1      31.148  25.221  19.734  1.00  0.00     0.159 HD
ATOM     27  H   UNL A   1      32.522  25.982  19.071  1.00  0.00     0.159 HD
ENDBRANCH  18  23
ENDBRANCH  15  16
ENDBRANCH  14  15
ENDBRANCH   5   8
ENDBRANCH   3   4
ENDBRANCH   2   3
ENDBRANCH   1   2
BRANCH   1  28
ATOM     28  C   UNL A   1      33.263  28.222  27.270  1.00  0.00     0.002 C 
BRANCH  28  29
ATOM     29  C   UNL A   1      32.817  29.671  27.467  1.00  0.00     0.021 C 
BRANCH  29  30
ATOM     30  C   UNL A   1      33.849  30.738  27.136  1.00  0.00     0.116 C 
BRANCH  30  31
ATOM     31  N   UNL A   1      34.291  31.526  28.280  1.00  0.00    -0.352 N 
ATOM     32  C   UNL A   1      35.366  31.295  29.124  1.00  0.00     0.251 C 
ATOM     33  H   UNL A   1      33.756  32.329  28.478  1.00  0.00     0.163 HD
ATOM     34  O   UNL A   1      35.628  32.073  30.028  1.00  0.00    -0.269 OA
BRANCH  32  35
ATOM     35  C   UNL A   1      36.271  30.156  28.832  1.00  0.00     0.039 A 
ATOM     36  C   UNL A   1      36.626  29.316  29.892  1.00  0.00     0.014 A 
ATOM     37  C   UNL A   1      36.928  30.060  27.607  1.00  0.00     0.014 A 
ATOM     38  C   UNL A   1      37.803  28.577  29.808  1.00  0.00     0.010 A 
ATOM     39  C   UNL A   1      38.142  29.402  27.554  1.00  0.00     0.010 A 
ATOM     40  C   UNL A   1      38.615  28.724  28.681  1.00  0.00    -0.014 A 
BRANCH  40  41
ATOM     41  C   UNL A   1      40.024  28.353  28.683  1.00  0.00     0.031 A 
ATOM     42  C   UNL A   1      40.477  27.040  28.190  1.00  0.00     0.074 A 
ATOM     43  C   UNL A   1      40.949  29.229  29.134  1.00  0.00     0.049 A 
ATOM     44  N   UNL A   1      41.500  26.417  28.675  1.00  0.00    -0.248 NA
ATOM     45  C   UNL A   1      39.802  26.314  27.121  1.00  0.00     0.031 C 
ATOM     46  C   UNL A   1      42.401  29.117  29.019  1.00  0.00     0.029 A 
ATOM     47  N   UNL A   1      40.748  30.308  30.003  1.00  0.00    -0.354 N 
ATOM     48  C   UNL A   1      41.786  25.386  27.819  1.00  0.00     0.074 A 
ATOM     49  C   UNL A   1      40.657  25.306  26.918  1.00  0.00     0.031 C 
ATOM     50  C   UNL A   1      42.968  29.862  29.981  1.00  0.00     0.029 A 
ATOM     51  C   UNL A   1      41.898  30.373  30.817  1.00  0.00     0.049 A 
ATOM     52  H   UNL A   1      39.964  30.901  30.039  1.00  0.00     0.167 HD
ATOM     53  C   UNL A   1      43.012  24.796  27.835  1.00  0.00     0.037 A 
ATOM     54  C   UNL A   1      41.832  30.251  32.173  1.00  0.00     0.037 A 
ATOM     55  C   UNL A   1      43.911  25.393  28.812  1.00  0.00     0.049 A 
ATOM     56  C   UNL A   1      42.686  29.143  32.740  1.00  0.00     0.074 A 
ATOM     57  C   UNL A   1      44.925  26.332  28.703  1.00  0.00     0.029 A 
ATOM     58  N   UNL A   1      43.637  25.276  30.171  1.00  0.00    -0.354 N 
ATOM     59  N   UNL A   1      43.159  28.152  32.037  1.00  0.00    -0.248 NA
ATOM     60  C   UNL A   1      43.049  29.047  34.149  1.00  0.00     0.031 C 
ATOM     61  C   UNL A   1      45.266  26.778  30.001  1.00  0.00     0.029 A 
ATOM     62  C   UNL A   1      44.461  26.108  30.904  1.00  0.00     0.049 A 
ATOM     63  H   UNL A   1      42.952  24.684  30.555  1.00  0.00     0.167 HD
ATOM     64  C   UNL A   1      43.848  27.288  32.856  1.00  0.00     0.074 A 
ATOM     65  C   UNL A   1      43.772  27.913  34.163  1.00  0.00     0.031 C 
ATOM     66  C   UNL A   1      44.402  26.138  32.360  1.00  0.00     0.037 A 
BRANCH  53  67
ATOM     67  C   UNL A   1      43.436  23.890  26.714  1.00  0.00     0.057 A 
ATOM     68  C   UNL A   1      43.348  22.490  26.812  1.00  0.00     0.134 A 
ATOM     69  C   UNL A   1      44.011  24.371  25.527  1.00  0.00     0.134 A 
ATOM     70  F   UNL A   1      42.765  21.890  27.856  1.00  0.00    -0.206 F 
ATOM     71  C   UNL A   1      43.888  21.633  25.848  1.00  0.00     0.040 A 
ATOM     72  C   UNL A   1      44.595  23.526  24.574  1.00  0.00     0.040 A 
ATOM     73  F   UNL A   1      44.043  25.688  25.263  1.00  0.00    -0.206 F 
ATOM     74  C   UNL A   1      44.546  22.148  24.741  1.00  0.00     0.006 A 
ENDBRANCH  53  67
BRANCH  54  75
ATOM     75  C   UNL A   1      40.547  30.715  32.751  1.00  0.00     0.057 A 
ATOM     76  C   UNL A   1      39.556  29.763  33.051  1.00  0.00     0.134 A 
ATOM     77  C   UNL A   1      40.416  31.977  33.337  1.00  0.00     0.134 A 
ATOM     78  F   UNL A   1      39.627  28.529  32.526  1.00  0.00    -0.206 F 
ATOM     79  C   UNL A   1      38.539  30.019  33.974  1.00  0.00     0.040 A 
ATOM     80  C   UNL A   1      39.395  32.249  34.255  1.00  0.00     0.040 A 
ATOM     81  F   UNL A   1      41.334  32.929  33.119  1.00  0.00    -0.206 F 
ATOM     82  C   UNL A   1      38.477  31.259  34.603  1.00  0.00     0.006 A 
ENDBRANCH  54  75
BRANCH  66  83
ATOM     83  C   UNL A   1      45.029  24.977  33.121  1.00  0.00     0.057 A 
ATOM     84  C   UNL A   1      44.552  23.660  33.142  1.00  0.00     0.134 A 
ATOM     85  C   UNL A   1      46.263  25.155  33.800  1.00  0.00     0.134 A 
ATOM     86  F   UNL A   1      43.459  23.289  32.467  1.00  0.00    -0.206 F 
ATOM     87  C   UNL A   1      45.213  22.621  33.821  1.00  0.00     0.040 A 
ATOM     88  C   UNL A   1      46.958  24.117  34.432  1.00  0.00     0.040 A 
ATOM     89  F   UNL A   1      46.879  26.344  33.868  1.00  0.00    -0.206 F 
ATOM     90  C   UNL A   1      46.425  22.842  34.457  1.00  0.00     0.006 A 
ENDBRANCH  66  83
ENDBRANCH  40  41
ENDBRANCH  32  35
ENDBRANCH  30  31
ENDBRANCH  29  30
ENDBRANCH  28  29
ENDBRANCH   1  28
TORSDOF 16
ENDMDL
MODEL 3
REMARK VINA RESULT:     -12.3      2.141      3.577
REMARK SMILES Cc1ccc(C(=O)NCCCCCCNC(=O)c2ccc(-c3c4nc(c(-c5c(F)cccc5F)c5ccc([nH]5)c(-c5c(F)cccc5F)c5nc(c(-c6c(F)cccc6F)c6ccc3[nH]6)C=C5)C=C4)cc2)c(Oc2cccc(F)c2C(N)=O)c1
REMARK SMILES IDX 11 1 10 2 9 3 8 4 6 5 7 6 5 8 1 9 2 10 3 11 84 12 4 13 72 14
REMARK SMILES IDX 73 15 74 16 75 17 80 18 76 19 78 20 77 21 79 22 81 23 82 24
REMARK SMILES IDX 83 25 12 28 13 29 14 30 15 31 16 32 17 34 18 35 19 36 71 37
REMARK SMILES IDX 20 38 70 39 21 40 22 41 23 42 64 43 24 44 69 45 63 46 65 47
REMARK SMILES IDX 25 48 68 49 62 50 61 51 26 53 52 54 35 55 51 56 36 57 39 58
REMARK SMILES IDX 50 59 66 60 37 61 38 62 49 64 67 65 40 66 27 67 28 68 33 69
REMARK SMILES IDX 29 70 30 71 32 72 34 73 31 74 53 75 54 76 59 77 55 78 56 79
REMARK SMILES IDX 58 80 60 81 57 82 41 83 42 84 47 85 43 86 44 87 46 88 48 89
REMARK SMILES IDX 45 90
REMARK H PARENT 8 7 82 26 82 27 15 33 65 52 39 63
REMARK Flexibility Score: inf
ROOT
ATOM      1  C   UNL A   1      33.137  28.265  25.361  1.00  0.00     0.002 C 
ENDROOT
BRANCH   1   2
ATOM      2  C   UNL A   1      33.799  27.386  24.299  1.00  0.00     0.021 C 
BRANCH   2   3
ATOM      3  C   UNL A   1      33.185  26.020  24.010  1.00  0.00     0.116 C 
BRANCH   3   4
ATOM      4  N   UNL A   1      32.495  25.378  25.093  1.00  0.00    -0.352 N 
ATOM      5  C   UNL A   1      32.905  24.410  25.984  1.00  0.00     0.255 C 
ATOM      6  O   UNL A   1      32.136  24.191  26.926  1.00  0.00    -0.269 OA
ATOM      7  H   UNL A   1      31.567  25.681  25.221  1.00  0.00     0.163 HD
BRANCH   5   8
ATOM      8  C   UNL A   1      34.141  23.556  25.877  1.00  0.00     0.082 A 
ATOM      9  C   UNL A   1      37.988  21.603  25.331  1.00  0.00     0.044 C 
ATOM     10  C   UNL A   1      36.664  22.284  25.512  1.00  0.00    -0.047 A 
ATOM     11  C   UNL A   1      36.582  23.671  25.601  1.00  0.00     0.004 A 
ATOM     12  C   UNL A   1      35.482  21.541  25.556  1.00  0.00     0.051 A 
ATOM     13  C   UNL A   1      35.340  24.294  25.768  1.00  0.00     0.018 A 
ATOM     14  C   UNL A   1      34.236  22.157  25.788  1.00  0.00     0.140 A 
BRANCH  14  15
ATOM     15  O   UNL A   1      33.104  21.392  25.799  1.00  0.00    -0.456 OA
BRANCH  15  16
ATOM     16  C   UNL A   1      32.729  20.616  24.718  1.00  0.00     0.143 A 
ATOM     17  C   UNL A   1      32.744  19.247  25.055  1.00  0.00     0.048 A 
ATOM     18  C   UNL A   1      32.453  20.990  23.389  1.00  0.00     0.117 A 
ATOM     19  C   UNL A   1      32.474  18.259  24.111  1.00  0.00     0.007 A 
ATOM     20  C   UNL A   1      32.197  19.977  22.451  1.00  0.00     0.139 A 
ATOM     21  C   UNL A   1      32.206  18.628  22.801  1.00  0.00     0.040 A 
ATOM     22  F   UNL A   1      31.968  20.275  21.163  1.00  0.00    -0.206 F 
BRANCH  18  23
ATOM     23  C   UNL A   1      32.301  22.363  22.859  1.00  0.00     0.255 C 
ATOM     24  N   UNL A   1      31.093  22.988  22.940  1.00  0.00    -0.365 N 
ATOM     25  O   UNL A   1      33.264  22.943  22.367  1.00  0.00    -0.269 OA
ATOM     26  H   UNL A   1      30.322  22.521  23.336  1.00  0.00     0.159 HD
ATOM     27  H   UNL A   1      30.990  23.908  22.603  1.00  0.00     0.159 HD
ENDBRANCH  18  23
ENDBRANCH  15  16
ENDBRANCH  14  15
ENDBRANCH   5   8
ENDBRANCH   3   4
ENDBRANCH   2   3
ENDBRANCH   1   2
BRANCH   1  28
ATOM     28  C   UNL A   1      33.894  28.523  26.672  1.00  0.00     0.002 C 
BRANCH  28  29
ATOM     29  C   UNL A   1      33.376  29.626  27.596  1.00  0.00     0.021 C 
BRANCH  29  30
ATOM     30  C   UNL A   1      33.981  31.006  27.391  1.00  0.00     0.116 C 
BRANCH  30  31
ATOM     31  N   UNL A   1      34.370  31.684  28.621  1.00  0.00    -0.352 N 
ATOM     32  C   UNL A   1      35.428  31.396  29.469  1.00  0.00     0.251 C 
ATOM     33  H   UNL A   1      33.806  32.448  28.885  1.00  0.00     0.163 HD
ATOM     34  O   UNL A   1      35.642  32.084  30.455  1.00  0.00    -0.269 OA
BRANCH  32  35
ATOM     35  C   UNL A   1      36.374  30.318  29.089  1.00  0.00     0.039 A 
ATOM     36  C   UNL A   1      36.603  29.295  30.015  1.00  0.00     0.014 A 
ATOM     37  C   UNL A   1      37.178  30.437  27.958  1.00  0.00     0.014 A 
ATOM     38  C   UNL A   1      37.789  28.569  29.943  1.00  0.00     0.010 A 
ATOM     39  C   UNL A   1      38.396  29.785  27.936  1.00  0.00     0.010 A 
ATOM     40  C   UNL A   1      38.732  28.908  28.972  1.00  0.00    -0.014 A 
BRANCH  40  41
ATOM     41  C   UNL A   1      40.134  28.525  29.080  1.00  0.00     0.031 A 
ATOM     42  C   UNL A   1      40.635  27.259  28.516  1.00  0.00     0.074 A 
ATOM     43  C   UNL A   1      41.009  29.347  29.701  1.00  0.00     0.049 A 
ATOM     44  N   UNL A   1      41.603  26.585  29.041  1.00  0.00    -0.248 NA
ATOM     45  C   UNL A   1      40.070  26.641  27.321  1.00  0.00     0.031 C 
ATOM     46  C   UNL A   1      42.465  29.232  29.722  1.00  0.00     0.029 A 
ATOM     47  N   UNL A   1      40.722  30.343  30.642  1.00  0.00    -0.354 N 
ATOM     48  C   UNL A   1      41.974  25.634  28.126  1.00  0.00     0.074 A 
ATOM     49  C   UNL A   1      40.942  25.648  27.112  1.00  0.00     0.031 C 
ATOM     50  C   UNL A   1      42.933  29.880  30.801  1.00  0.00     0.029 A 
ATOM     51  C   UNL A   1      41.784  30.322  31.570  1.00  0.00     0.049 A 
ATOM     52  H   UNL A   1      39.938  30.938  30.654  1.00  0.00     0.167 HD
ATOM     53  C   UNL A   1      43.192  25.033  28.210  1.00  0.00     0.037 A 
ATOM     54  C   UNL A   1      41.582  30.076  32.895  1.00  0.00     0.037 A 
ATOM     55  C   UNL A   1      43.988  25.530  29.323  1.00  0.00     0.049 A 
ATOM     56  C   UNL A   1      42.374  28.913  33.440  1.00  0.00     0.074 A 
ATOM     57  C   UNL A   1      45.008  26.465  29.404  1.00  0.00     0.029 A 
ATOM     58  N   UNL A   1      43.579  25.290  30.631  1.00  0.00    -0.354 N 
ATOM     59  N   UNL A   1      42.916  27.986  32.699  1.00  0.00    -0.248 NA
ATOM     60  C   UNL A   1      42.593  28.683  34.863  1.00  0.00     0.031 C 
ATOM     61  C   UNL A   1      45.217  26.786  30.765  1.00  0.00     0.029 A 
ATOM     62  C   UNL A   1      44.325  26.043  31.517  1.00  0.00     0.049 A 
ATOM     63  H   UNL A   1      42.858  24.671  30.888  1.00  0.00     0.167 HD
ATOM     64  C   UNL A   1      43.519  27.044  33.499  1.00  0.00     0.074 A 
ATOM     65  C   UNL A   1      43.312  27.546  34.843  1.00  0.00     0.031 C 
ATOM     66  C   UNL A   1      44.119  25.939  32.956  1.00  0.00     0.037 A 
BRANCH  53  67
ATOM     67  C   UNL A   1      43.727  24.231  27.058  1.00  0.00     0.057 A 
ATOM     68  C   UNL A   1      44.472  24.819  26.021  1.00  0.00     0.134 A 
ATOM     69  C   UNL A   1      43.460  22.861  26.900  1.00  0.00     0.134 A 
ATOM     70  F   UNL A   1      44.855  26.100  26.065  1.00  0.00    -0.206 F 
ATOM     71  C   UNL A   1      44.833  24.121  24.864  1.00  0.00     0.040 A 
ATOM     72  C   UNL A   1      43.777  22.160  25.729  1.00  0.00     0.040 A 
ATOM     73  F   UNL A   1      42.860  22.161  27.877  1.00  0.00    -0.206 F 
ATOM     74  C   UNL A   1      44.455  22.796  24.697  1.00  0.00     0.006 A 
ENDBRANCH  53  67
BRANCH  54  75
ATOM     75  C   UNL A   1      40.245  30.497  33.382  1.00  0.00     0.057 A 
ATOM     76  C   UNL A   1      40.024  31.857  33.663  1.00  0.00     0.134 A 
ATOM     77  C   UNL A   1      39.117  29.687  33.228  1.00  0.00     0.134 A 
ATOM     78  F   UNL A   1      41.065  32.691  33.815  1.00  0.00    -0.206 F 
ATOM     79  C   UNL A   1      38.741  32.409  33.685  1.00  0.00     0.040 A 
ATOM     80  C   UNL A   1      37.826  30.227  33.259  1.00  0.00     0.040 A 
ATOM     81  F   UNL A   1      39.247  28.386  32.934  1.00  0.00    -0.206 F 
ATOM     82  C   UNL A   1      37.637  31.595  33.451  1.00  0.00     0.006 A 
ENDBRANCH  54  75
BRANCH  66  83
ATOM     83  C   UNL A   1      44.667  24.707  33.665  1.00  0.00     0.057 A 
ATOM     84  C   UNL A   1      46.007  24.300  33.681  1.00  0.00     0.134 A 
ATOM     85  C   UNL A   1      43.815  23.920  34.485  1.00  0.00     0.134 A 
ATOM     86  F   UNL A   1      46.966  24.987  33.050  1.00  0.00    -0.206 F 
ATOM     87  C   UNL A   1      46.456  23.181  34.405  1.00  0.00     0.040 A 
ATOM     88  C   UNL A   1      44.260  22.837  35.252  1.00  0.00     0.040 A 
ATOM     89  F   UNL A   1      42.504  24.173  34.606  1.00  0.00    -0.206 F 
ATOM     90  C   UNL A   1      45.587  22.453  35.204  1.00  0.00     0.006 A 
ENDBRANCH  66  83
ENDBRANCH  40  41
ENDBRANCH  32  35
ENDBRANCH  30  31
ENDBRANCH  29  30
ENDBRANCH  28  29
ENDBRANCH   1  28
TORSDOF 16
ENDMDL
