MODEL 1
REMARK VINA RESULT:     -12.2      0.000      0.000
REMARK SMILES CC(C)[C@H](NC(=O)c1cc2cc(Cl)ccc2n1C)C(=O)N[C@@H](C(=O)NCCCCCCNC(=O)c1ccc(-c2c3nc(c(-c4c(F)cccc4F)c4ccc([nH]4)c(-c4c(F)cccc4F)c4nc(c(-c5c(F)cccc5F)c5ccc2[nH]5)C=C4)C=C3)cc1)c1ccccc1
REMARK SMILES IDX 27 1 26 2 25 3 23 4 24 5 22 7 21 8 19 9 20 10 4 12 2 13 1 14
REMARK SMILES IDX 3 15 5 16 6 17 7 19 8 20 9 21 17 22 10 23 16 24 18 25 11 26
REMARK SMILES IDX 15 27 12 28 14 29 13 30 89 31 90 32 94 33 91 34 93 35 92 36
REMARK SMILES IDX 28 37 29 38 30 39 31 40 32 41 33 42 34 44 35 45 36 46 88 47
REMARK SMILES IDX 37 48 87 49 38 50 39 51 40 52 81 53 41 54 86 55 80 56 82 57
REMARK SMILES IDX 42 58 85 59 79 60 78 61 43 63 69 64 52 65 68 66 53 67 56 68
REMARK SMILES IDX 67 69 83 70 54 71 55 72 66 74 84 75 57 76 44 77 45 78 50 79
REMARK SMILES IDX 46 80 47 81 49 82 51 83 48 84 70 85 71 86 76 87 72 88 73 89
REMARK SMILES IDX 75 90 77 91 74 92 58 93 59 94 64 95 60 96 61 97 63 98 65 99
REMARK SMILES IDX 62 100
REMARK H PARENT 25 6 21 11 5 18 32 43 82 62 56 73
REMARK Flexibility Score: inf
ROOT
ATOM      1  C   UNL A   1      38.816  22.940  26.519  1.00  0.00     0.021 C 
ENDROOT
BRANCH   1   2
ATOM      2  C   UNL A   1      37.437  23.114  25.901  1.00  0.00     0.116 C 
BRANCH   2   3
ATOM      3  N   UNL A   1      37.388  22.782  24.499  1.00  0.00    -0.354 N 
ATOM      4  C   UNL A   1      36.342  22.789  23.626  1.00  0.00     0.247 C 
ATOM      5  O   UNL A   1      36.669  22.952  22.443  1.00  0.00    -0.272 OA
ATOM      6  H   UNL A   1      38.249  22.508  24.109  1.00  0.00     0.163 HD
BRANCH   4   7
ATOM      7  C   UNL A   1      34.821  22.745  24.058  1.00  0.00     0.202 C 
BRANCH   7   8
ATOM      8  N   UNL A   1      34.459  23.415  25.308  1.00  0.00    -0.339 N 
ATOM      9  C   UNL A   1      33.434  24.213  25.702  1.00  0.00     0.243 C 
ATOM     10  O   UNL A   1      33.389  24.457  26.916  1.00  0.00    -0.273 OA
ATOM     11  H   UNL A   1      35.108  23.250  26.029  1.00  0.00     0.164 HD
BRANCH   9  12
ATOM     12  C   UNL A   1      32.339  24.825  24.777  1.00  0.00     0.174 C 
BRANCH  12  13
ATOM     13  C   UNL A   1      30.994  24.079  24.619  1.00  0.00     0.015 C 
ATOM     14  C   UNL A   1      30.629  23.664  23.194  1.00  0.00     0.010 C 
ATOM     15  C   UNL A   1      30.858  22.916  25.601  1.00  0.00     0.010 C 
ENDBRANCH  12  13
BRANCH  12  16
ATOM     16  N   UNL A   1      32.878  25.306  23.514  1.00  0.00    -0.339 N 
ATOM     17  C   UNL A   1      33.222  26.582  23.124  1.00  0.00     0.268 C 
ATOM     18  H   UNL A   1      33.019  24.610  22.831  1.00  0.00     0.164 HD
ATOM     19  O   UNL A   1      33.645  26.721  21.979  1.00  0.00    -0.268 OA
BRANCH  17  20
ATOM     20  C   UNL A   1      33.028  27.696  24.021  1.00  0.00     0.107 A 
ATOM     21  C   UNL A   1      33.949  28.127  24.961  1.00  0.00     0.042 A 
ATOM     22  N   UNL A   1      31.890  28.445  24.228  1.00  0.00    -0.340 N 
ATOM     23  C   UNL A   1      33.412  29.241  25.655  1.00  0.00     0.002 A 
ATOM     24  C   UNL A   1      32.130  29.452  25.152  1.00  0.00     0.048 A 
ATOM     25  C   UNL A   1      30.576  28.198  23.666  1.00  0.00     0.150 C 
ATOM     26  C   UNL A   1      33.902  30.085  26.670  1.00  0.00     0.030 A 
ATOM     27  C   UNL A   1      31.317  30.505  25.605  1.00  0.00     0.028 A 
ATOM     28  C   UNL A   1      33.100  31.134  27.124  1.00  0.00     0.041 A 
ATOM     29  C   UNL A   1      31.830  31.349  26.595  1.00  0.00     0.023 A 
ATOM     30  Cl  UNL A   1      33.693  32.181  28.357  1.00  0.00    -0.084 Cl
ENDBRANCH  17  20
ENDBRANCH  12  16
ENDBRANCH   9  12
ENDBRANCH   7   8
BRANCH   7  31
ATOM     31  C   UNL A   1      34.301  21.295  24.168  1.00  0.00    -0.016 A 
ATOM     32  C   UNL A   1      35.048  20.264  24.769  1.00  0.00     0.006 A 
ATOM     33  C   UNL A   1      33.012  20.969  23.714  1.00  0.00     0.006 A 
ATOM     34  C   UNL A   1      34.559  18.954  24.832  1.00  0.00     0.000 A 
ATOM     35  C   UNL A   1      32.516  19.664  23.789  1.00  0.00     0.000 A 
ATOM     36  C   UNL A   1      33.296  18.653  24.334  1.00  0.00     0.000 A 
ENDBRANCH   7  31
ENDBRANCH   4   7
ENDBRANCH   2   3
ENDBRANCH   1   2
BRANCH   1  37
ATOM     37  C   UNL A   1      39.728  21.945  25.803  1.00  0.00     0.002 C 
BRANCH  37  38
ATOM     38  C   UNL A   1      40.542  21.007  26.700  1.00  0.00     0.002 C 
BRANCH  38  39
ATOM     39  C   UNL A   1      40.916  19.638  26.117  1.00  0.00     0.021 C 
BRANCH  39  40
ATOM     40  C   UNL A   1      42.357  19.172  26.343  1.00  0.00     0.116 C 
BRANCH  40  41
ATOM     41  N   UNL A   1      43.256  19.428  25.239  1.00  0.00    -0.352 N 
ATOM     42  C   UNL A   1      44.003  20.493  24.822  1.00  0.00     0.251 C 
ATOM     43  H   UNL A   1      43.352  18.648  24.647  1.00  0.00     0.163 HD
ATOM     44  O   UNL A   1      44.718  20.292  23.836  1.00  0.00    -0.269 OA
BRANCH  42  45
ATOM     45  C   UNL A   1      43.993  21.851  25.436  1.00  0.00     0.039 A 
ATOM     46  C   UNL A   1      44.629  22.217  26.621  1.00  0.00     0.014 A 
ATOM     47  C   UNL A   1      43.247  22.834  24.757  1.00  0.00     0.014 A 
ATOM     48  C   UNL A   1      44.467  23.497  27.155  1.00  0.00     0.010 A 
ATOM     49  C   UNL A   1      43.104  24.123  25.272  1.00  0.00     0.010 A 
ATOM     50  C   UNL A   1      43.681  24.446  26.499  1.00  0.00    -0.014 A 
BRANCH  50  51
ATOM     51  C   UNL A   1      43.485  25.740  27.161  1.00  0.00     0.031 A 
ATOM     52  C   UNL A   1      44.481  26.827  26.928  1.00  0.00     0.074 A 
ATOM     53  C   UNL A   1      42.395  26.048  27.893  1.00  0.00     0.049 A 
ATOM     54  N   UNL A   1      45.163  27.497  27.806  1.00  0.00    -0.248 NA
ATOM     55  C   UNL A   1      44.712  27.249  25.539  1.00  0.00     0.031 C 
ATOM     56  C   UNL A   1      41.145  25.297  28.007  1.00  0.00     0.029 A 
ATOM     57  N   UNL A   1      42.159  27.180  28.626  1.00  0.00    -0.354 N 
ATOM     58  C   UNL A   1      45.791  28.525  27.108  1.00  0.00     0.074 A 
ATOM     59  C   UNL A   1      45.520  28.297  25.708  1.00  0.00     0.031 C 
ATOM     60  C   UNL A   1      40.215  26.082  28.593  1.00  0.00     0.029 A 
ATOM     61  C   UNL A   1      40.842  27.326  29.014  1.00  0.00     0.049 A 
ATOM     62  H   UNL A   1      42.863  27.828  28.856  1.00  0.00     0.167 HD
ATOM     63  C   UNL A   1      46.383  29.590  27.716  1.00  0.00     0.037 A 
ATOM     64  C   UNL A   1      40.273  28.400  29.603  1.00  0.00     0.037 A 
ATOM     65  C   UNL A   1      46.653  29.373  29.107  1.00  0.00     0.049 A 
ATOM     66  C   UNL A   1      41.324  29.238  30.220  1.00  0.00     0.074 A 
ATOM     67  C   UNL A   1      47.419  28.488  29.839  1.00  0.00     0.029 A 
ATOM     68  N   UNL A   1      45.906  30.061  30.028  1.00  0.00    -0.354 N 
ATOM     69  N   UNL A   1      41.993  28.926  31.294  1.00  0.00    -0.248 NA
ATOM     70  C   UNL A   1      41.832  30.385  29.481  1.00  0.00     0.031 C 
ATOM     71  C   UNL A   1      46.783  28.390  31.111  1.00  0.00     0.029 A 
ATOM     72  C   UNL A   1      45.644  29.192  31.055  1.00  0.00     0.049 A 
ATOM     73  H   UNL A   1      45.614  30.998  29.963  1.00  0.00     0.167 HD
ATOM     74  C   UNL A   1      43.205  29.582  31.158  1.00  0.00     0.074 A 
ATOM     75  C   UNL A   1      42.983  30.581  30.125  1.00  0.00     0.031 C 
ATOM     76  C   UNL A   1      44.350  29.061  31.683  1.00  0.00     0.037 A 
BRANCH  63  77
ATOM     77  C   UNL A   1      46.507  30.954  27.095  1.00  0.00     0.057 A 
ATOM     78  C   UNL A   1      45.395  31.774  26.829  1.00  0.00     0.134 A 
ATOM     79  C   UNL A   1      47.761  31.583  27.003  1.00  0.00     0.134 A 
ATOM     80  F   UNL A   1      44.141  31.328  26.997  1.00  0.00    -0.206 F 
ATOM     81  C   UNL A   1      45.520  33.118  26.462  1.00  0.00     0.040 A 
ATOM     82  C   UNL A   1      47.897  32.939  26.679  1.00  0.00     0.040 A 
ATOM     83  F   UNL A   1      48.888  30.914  27.289  1.00  0.00    -0.206 F 
ATOM     84  C   UNL A   1      46.774  33.710  26.402  1.00  0.00     0.006 A 
ENDBRANCH  63  77
BRANCH  64  85
ATOM     85  C   UNL A   1      38.861  28.820  29.536  1.00  0.00     0.057 A 
ATOM     86  C   UNL A   1      38.331  29.399  28.369  1.00  0.00     0.134 A 
ATOM     87  C   UNL A   1      38.048  28.856  30.673  1.00  0.00     0.134 A 
ATOM     88  F   UNL A   1      39.068  29.505  27.254  1.00  0.00    -0.206 F 
ATOM     89  C   UNL A   1      37.052  29.958  28.326  1.00  0.00     0.040 A 
ATOM     90  C   UNL A   1      36.768  29.424  30.648  1.00  0.00     0.040 A 
ATOM     91  F   UNL A   1      38.491  28.380  31.845  1.00  0.00    -0.206 F 
ATOM     92  C   UNL A   1      36.267  29.976  29.472  1.00  0.00     0.006 A 
ENDBRANCH  64  85
BRANCH  76  93
ATOM     93  C   UNL A   1      44.208  28.003  32.733  1.00  0.00     0.057 A 
ATOM     94  C   UNL A   1      44.366  28.346  34.080  1.00  0.00     0.134 A 
ATOM     95  C   UNL A   1      44.047  26.644  32.430  1.00  0.00     0.134 A 
ATOM     96  F   UNL A   1      44.588  29.623  34.433  1.00  0.00    -0.206 F 
ATOM     97  C   UNL A   1      44.343  27.380  35.089  1.00  0.00     0.040 A 
ATOM     98  C   UNL A   1      43.995  25.672  33.432  1.00  0.00     0.040 A 
ATOM     99  F   UNL A   1      43.987  26.223  31.158  1.00  0.00    -0.206 F 
ATOM    100  C   UNL A   1      44.146  26.039  34.767  1.00  0.00     0.006 A 
ENDBRANCH  76  93
ENDBRANCH  50  51
ENDBRANCH  42  45
ENDBRANCH  40  41
ENDBRANCH  39  40
ENDBRANCH  38  39
ENDBRANCH  37  38
ENDBRANCH   1  37
TORSDOF 19
ENDMDL
MODEL 2
REMARK VINA RESULT:     -11.5      2.161      2.859
REMARK SMILES CC(C)[C@H](NC(=O)c1cc2cc(Cl)ccc2n1C)C(=O)N[C@@H](C(=O)NCCCCCCNC(=O)c1ccc(-c2c3nc(c(-c4c(F)cccc4F)c4ccc([nH]4)c(-c4c(F)cccc4F)c4nc(c(-c5c(F)cccc5F)c5ccc2[nH]5)C=C4)C=C3)cc1)c1ccccc1
REMARK SMILES IDX 27 1 26 2 25 3 23 4 24 5 22 7 21 8 19 9 20 10 4 12 2 13 1 14
REMARK SMILES IDX 3 15 5 16 6 17 7 19 8 20 9 21 17 22 10 23 16 24 18 25 11 26
REMARK SMILES IDX 15 27 12 28 14 29 13 30 89 31 90 32 94 33 91 34 93 35 92 36
REMARK SMILES IDX 28 37 29 38 30 39 31 40 32 41 33 42 34 44 35 45 36 46 88 47
REMARK SMILES IDX 37 48 87 49 38 50 39 51 40 52 81 53 41 54 86 55 80 56 82 57
REMARK SMILES IDX 42 58 85 59 79 60 78 61 43 63 69 64 52 65 68 66 53 67 56 68
REMARK SMILES IDX 67 69 83 70 54 71 55 72 66 74 84 75 57 76 44 77 45 78 50 79
REMARK SMILES IDX 46 80 47 81 49 82 51 83 48 84 70 85 71 86 76 87 72 88 73 89
REMARK SMILES IDX 75 90 77 91 74 92 58 93 59 94 64 95 60 96 61 97 63 98 65 99
REMARK SMILES IDX 62 100
REMARK H PARENT 25 6 21 11 5 18 32 43 82 62 56 73
REMARK Flexibility Score: inf
ROOT
ATOM      1  C   UNL A   1      38.404  24.387  26.330  1.00  0.00     0.021 C 
ENDROOT
BRANCH   1   2
ATOM      2  C   UNL A   1      37.435  23.253  26.035  1.00  0.00     0.116 C 
BRANCH   2   3
ATOM      3  N   UNL A   1      37.419  22.855  24.650  1.00  0.00    -0.354 N 
ATOM      4  C   UNL A   1      36.387  22.786  23.762  1.00  0.00     0.247 C 
ATOM      5  O   UNL A   1      36.726  22.906  22.578  1.00  0.00    -0.272 OA
ATOM      6  H   UNL A   1      38.294  22.593  24.284  1.00  0.00     0.163 HD
BRANCH   4   7
ATOM      7  C   UNL A   1      34.862  22.710  24.175  1.00  0.00     0.202 C 
BRANCH   7   8
ATOM      8  N   UNL A   1      34.451  23.457  25.365  1.00  0.00    -0.339 N 
ATOM      9  C   UNL A   1      33.443  24.320  25.651  1.00  0.00     0.243 C 
ATOM     10  O   UNL A   1      33.329  24.625  26.846  1.00  0.00    -0.273 OA
ATOM     11  H   UNL A   1      35.041  23.296  26.137  1.00  0.00     0.164 HD
BRANCH   9  12
ATOM     12  C   UNL A   1      32.445  24.937  24.625  1.00  0.00     0.174 C 
BRANCH  12  13
ATOM     13  C   UNL A   1      31.025  24.336  24.512  1.00  0.00     0.015 C 
ATOM     14  C   UNL A   1      30.713  23.612  23.202  1.00  0.00     0.010 C 
ATOM     15  C   UNL A   1      30.656  23.488  25.730  1.00  0.00     0.010 C 
ENDBRANCH  12  13
BRANCH  12  16
ATOM     16  N   UNL A   1      33.060  25.198  23.333  1.00  0.00    -0.339 N 
ATOM     17  C   UNL A   1      32.963  26.299  22.510  1.00  0.00     0.268 C 
ATOM     18  H   UNL A   1      33.635  24.474  22.993  1.00  0.00     0.164 HD
ATOM     19  O   UNL A   1      33.579  26.258  21.448  1.00  0.00    -0.268 OA
BRANCH  17  20
ATOM     20  C   UNL A   1      32.121  27.412  22.877  1.00  0.00     0.107 A 
ATOM     21  C   UNL A   1      30.970  27.790  22.208  1.00  0.00     0.042 A 
ATOM     22  N   UNL A   1      32.342  28.378  23.836  1.00  0.00    -0.340 N 
ATOM     23  C   UNL A   1      30.411  28.923  22.854  1.00  0.00     0.002 A 
ATOM     24  C   UNL A   1      31.268  29.254  23.902  1.00  0.00     0.048 A 
ATOM     25  C   UNL A   1      33.549  28.561  24.619  1.00  0.00     0.150 C 
ATOM     26  C   UNL A   1      29.256  29.697  22.637  1.00  0.00     0.030 A 
ATOM     27  C   UNL A   1      30.999  30.323  24.773  1.00  0.00     0.028 A 
ATOM     28  C   UNL A   1      28.981  30.760  23.500  1.00  0.00     0.041 A 
ATOM     29  C   UNL A   1      29.833  31.065  24.558  1.00  0.00     0.023 A 
ATOM     30  Cl  UNL A   1      27.564  31.707  23.253  1.00  0.00    -0.084 Cl
ENDBRANCH  17  20
ENDBRANCH  12  16
ENDBRANCH   9  12
ENDBRANCH   7   8
BRANCH   7  31
ATOM     31  C   UNL A   1      34.400  21.252  24.388  1.00  0.00    -0.016 A 
ATOM     32  C   UNL A   1      35.295  20.211  24.702  1.00  0.00     0.006 A 
ATOM     33  C   UNL A   1      33.035  20.927  24.330  1.00  0.00     0.006 A 
ATOM     34  C   UNL A   1      34.848  18.895  24.865  1.00  0.00     0.000 A 
ATOM     35  C   UNL A   1      32.586  19.614  24.507  1.00  0.00     0.000 A 
ATOM     36  C   UNL A   1      33.494  18.595  24.760  1.00  0.00     0.000 A 
ENDBRANCH   7  31
ENDBRANCH   4   7
ENDBRANCH   2   3
ENDBRANCH   1   2
BRANCH   1  37
ATOM     37  C   UNL A   1      39.467  24.078  27.384  1.00  0.00     0.002 C 
BRANCH  37  38
ATOM     38  C   UNL A   1      39.979  22.636  27.426  1.00  0.00     0.002 C 
BRANCH  38  39
ATOM     39  C   UNL A   1      40.514  22.048  26.114  1.00  0.00     0.021 C 
BRANCH  39  40
ATOM     40  C   UNL A   1      41.938  21.487  26.150  1.00  0.00     0.116 C 
BRANCH  40  41
ATOM     41  N   UNL A   1      42.866  22.133  25.247  1.00  0.00    -0.352 N 
ATOM     42  C   UNL A   1      43.343  23.402  25.090  1.00  0.00     0.251 C 
ATOM     43  H   UNL A   1      43.243  21.506  24.589  1.00  0.00     0.163 HD
ATOM     44  O   UNL A   1      44.205  23.547  24.218  1.00  0.00    -0.269 OA
BRANCH  42  45
ATOM     45  C   UNL A   1      42.888  24.599  25.854  1.00  0.00     0.039 A 
ATOM     46  C   UNL A   1      42.090  25.630  25.359  1.00  0.00     0.014 A 
ATOM     47  C   UNL A   1      43.336  24.693  27.186  1.00  0.00     0.014 A 
ATOM     48  C   UNL A   1      41.810  26.754  26.138  1.00  0.00     0.010 A 
ATOM     49  C   UNL A   1      43.037  25.803  27.977  1.00  0.00     0.010 A 
ATOM     50  C   UNL A   1      42.304  26.860  27.439  1.00  0.00    -0.014 A 
BRANCH  50  51
ATOM     51  C   UNL A   1      42.044  28.106  28.165  1.00  0.00     0.031 A 
ATOM     52  C   UNL A   1      43.070  29.190  28.126  1.00  0.00     0.074 A 
ATOM     53  C   UNL A   1      40.880  28.381  28.788  1.00  0.00     0.049 A 
ATOM     54  N   UNL A   1      43.651  29.786  29.122  1.00  0.00    -0.248 NA
ATOM     55  C   UNL A   1      43.462  29.705  26.806  1.00  0.00     0.031 C 
ATOM     56  C   UNL A   1      39.618  27.645  28.704  1.00  0.00     0.029 A 
ATOM     57  N   UNL A   1      40.570  29.462  29.568  1.00  0.00    -0.354 N 
ATOM     58  C   UNL A   1      44.365  30.850  28.575  1.00  0.00     0.074 A 
ATOM     59  C   UNL A   1      44.255  30.725  27.141  1.00  0.00     0.031 C 
ATOM     60  C   UNL A   1      38.633  28.403  29.234  1.00  0.00     0.029 A 
ATOM     61  C   UNL A   1      39.219  29.603  29.812  1.00  0.00     0.049 A 
ATOM     62  H   UNL A   1      41.248  30.082  29.922  1.00  0.00     0.167 HD
ATOM     63  C   UNL A   1      44.891  31.859  29.321  1.00  0.00     0.037 A 
ATOM     64  C   UNL A   1      38.595  30.643  30.407  1.00  0.00     0.037 A 
ATOM     65  C   UNL A   1      44.998  31.541  30.715  1.00  0.00     0.049 A 
ATOM     66  C   UNL A   1      39.574  31.418  31.198  1.00  0.00     0.074 A 
ATOM     67  C   UNL A   1      45.666  30.595  31.465  1.00  0.00     0.029 A 
ATOM     68  N   UNL A   1      44.155  32.176  31.591  1.00  0.00    -0.354 N 
ATOM     69  N   UNL A   1      40.112  31.021  32.317  1.00  0.00    -0.248 NA
ATOM     70  C   UNL A   1      40.174  32.606  30.606  1.00  0.00     0.031 C 
ATOM     71  C   UNL A   1      44.887  30.418  32.646  1.00  0.00     0.029 A 
ATOM     72  C   UNL A   1      43.769  31.242  32.517  1.00  0.00     0.049 A 
ATOM     73  H   UNL A   1      43.880  33.120  31.561  1.00  0.00     0.167 HD
ATOM     74  C   UNL A   1      41.338  31.664  32.368  1.00  0.00     0.074 A 
ATOM     75  C   UNL A   1      41.245  32.736  31.390  1.00  0.00     0.031 C 
ATOM     76  C   UNL A   1      42.410  31.088  32.982  1.00  0.00     0.037 A 
BRANCH  63  77
ATOM     77  C   UNL A   1      45.098  33.262  28.818  1.00  0.00     0.057 A 
ATOM     78  C   UNL A   1      44.038  34.168  28.633  1.00  0.00     0.134 A 
ATOM     79  C   UNL A   1      46.388  33.818  28.768  1.00  0.00     0.134 A 
ATOM     80  F   UNL A   1      42.760  33.788  28.773  1.00  0.00    -0.206 F 
ATOM     81  C   UNL A   1      44.245  35.528  28.380  1.00  0.00     0.040 A 
ATOM     82  C   UNL A   1      46.608  35.185  28.559  1.00  0.00     0.040 A 
ATOM     83  F   UNL A   1      47.473  33.058  28.986  1.00  0.00    -0.206 F 
ATOM     84  C   UNL A   1      45.533  36.045  28.359  1.00  0.00     0.006 A 
ENDBRANCH  63  77
BRANCH  64  85
ATOM     85  C   UNL A   1      37.203  31.090  30.209  1.00  0.00     0.057 A 
ATOM     86  C   UNL A   1      36.711  31.380  28.924  1.00  0.00     0.134 A 
ATOM     87  C   UNL A   1      36.382  31.443  31.284  1.00  0.00     0.134 A 
ATOM     88  F   UNL A   1      37.463  31.173  27.833  1.00  0.00    -0.206 F 
ATOM     89  C   UNL A   1      35.459  31.962  28.717  1.00  0.00     0.040 A 
ATOM     90  C   UNL A   1      35.129  32.039  31.093  1.00  0.00     0.040 A 
ATOM     91  F   UNL A   1      36.792  31.258  32.547  1.00  0.00    -0.206 F 
ATOM     92  C   UNL A   1      34.664  32.298  29.806  1.00  0.00     0.006 A 
ENDBRANCH  64  85
BRANCH  76  93
ATOM     93  C   UNL A   1      42.138  29.962  33.930  1.00  0.00     0.057 A 
ATOM     94  C   UNL A   1      42.200  30.195  35.309  1.00  0.00     0.134 A 
ATOM     95  C   UNL A   1      41.947  28.640  33.510  1.00  0.00     0.134 A 
ATOM     96  F   UNL A   1      42.444  31.429  35.778  1.00  0.00    -0.206 F 
ATOM     97  C   UNL A   1      42.055  29.158  36.233  1.00  0.00     0.040 A 
ATOM     98  C   UNL A   1      41.773  27.598  34.424  1.00  0.00     0.040 A 
ATOM     99  F   UNL A   1      41.975  28.319  32.208  1.00  0.00    -0.206 F 
ATOM    100  C   UNL A   1      41.829  27.856  35.792  1.00  0.00     0.006 A 
ENDBRANCH  76  93
ENDBRANCH  50  51
ENDBRANCH  42  45
ENDBRANCH  40  41
ENDBRANCH  39  40
ENDBRANCH  38  39
ENDBRANCH  37  38
ENDBRANCH   1  37
TORSDOF 19
ENDMDL
MODEL 3
REMARK VINA RESULT:     -11.0      5.236     12.242
REMARK SMILES CC(C)[C@H](NC(=O)c1cc2cc(Cl)ccc2n1C)C(=O)N[C@@H](C(=O)NCCCCCCNC(=O)c1ccc(-c2c3nc(c(-c4c(F)cccc4F)c4ccc([nH]4)c(-c4c(F)cccc4F)c4nc(c(-c5c(F)cccc5F)c5ccc2[nH]5)C=C4)C=C3)cc1)c1ccccc1
REMARK SMILES IDX 27 1 26 2 25 3 23 4 24 5 22 7 21 8 19 9 20 10 4 12 2 13 1 14
REMARK SMILES IDX 3 15 5 16 6 17 7 19 8 20 9 21 17 22 10 23 16 24 18 25 11 26
REMARK SMILES IDX 15 27 12 28 14 29 13 30 89 31 90 32 94 33 91 34 93 35 92 36
REMARK SMILES IDX 28 37 29 38 30 39 31 40 32 41 33 42 34 44 35 45 36 46 88 47
REMARK SMILES IDX 37 48 87 49 38 50 39 51 40 52 81 53 41 54 86 55 80 56 82 57
REMARK SMILES IDX 42 58 85 59 79 60 78 61 43 63 69 64 52 65 68 66 53 67 56 68
REMARK SMILES IDX 67 69 83 70 54 71 55 72 66 74 84 75 57 76 44 77 45 78 50 79
REMARK SMILES IDX 46 80 47 81 49 82 51 83 48 84 70 85 71 86 76 87 72 88 73 89
REMARK SMILES IDX 75 90 77 91 74 92 58 93 59 94 64 95 60 96 61 97 63 98 65 99
REMARK SMILES IDX 62 100
REMARK H PARENT 25 6 21 11 5 18 32 43 82 62 56 73
REMARK Flexibility Score: inf
ROOT
ATOM      1  C   UNL A   1      37.553  31.479  32.865  1.00  0.00     0.021 C 
ENDROOT
BRANCH   1   2
ATOM      2  C   UNL A   1      38.061  31.989  34.204  1.00  0.00     0.116 C 
BRANCH   2   3
ATOM      3  N   UNL A   1      39.349  31.455  34.572  1.00  0.00    -0.354 N 
ATOM      4  C   UNL A   1      40.537  32.086  34.786  1.00  0.00     0.247 C 
ATOM      5  O   UNL A   1      41.303  31.482  35.550  1.00  0.00    -0.272 OA
ATOM      6  H   UNL A   1      39.373  30.479  34.690  1.00  0.00     0.163 HD
BRANCH   4   7
ATOM      7  C   UNL A   1      40.889  33.530  34.246  1.00  0.00     0.202 C 
BRANCH   7   8
ATOM      8  N   UNL A   1      40.173  34.661  34.838  1.00  0.00    -0.339 N 
ATOM      9  C   UNL A   1      40.382  35.471  35.907  1.00  0.00     0.243 C 
ATOM     10  O   UNL A   1      39.620  36.443  35.993  1.00  0.00    -0.273 OA
ATOM     11  H   UNL A   1      39.349  34.886  34.349  1.00  0.00     0.164 HD
BRANCH   9  12
ATOM     12  C   UNL A   1      41.478  35.283  37.000  1.00  0.00     0.174 C 
BRANCH  12  13
ATOM     13  C   UNL A   1      41.099  34.571  38.320  1.00  0.00     0.015 C 
ATOM     14  C   UNL A   1      39.818  33.738  38.281  1.00  0.00     0.010 C 
ATOM     15  C   UNL A   1      42.269  33.783  38.910  1.00  0.00     0.010 C 
ENDBRANCH  12  13
BRANCH  12  16
ATOM     16  N   UNL A   1      42.275  36.482  37.206  1.00  0.00    -0.339 N 
ATOM     17  C   UNL A   1      43.185  37.096  36.373  1.00  0.00     0.268 C 
ATOM     18  H   UNL A   1      42.144  36.923  38.076  1.00  0.00     0.164 HD
ATOM     19  O   UNL A   1      43.743  38.103  36.801  1.00  0.00    -0.268 OA
BRANCH  17  20
ATOM     20  C   UNL A   1      43.493  36.526  35.083  1.00  0.00     0.107 A 
ATOM     21  C   UNL A   1      42.917  36.915  33.886  1.00  0.00     0.042 A 
ATOM     22  N   UNL A   1      44.281  35.432  34.792  1.00  0.00    -0.340 N 
ATOM     23  C   UNL A   1      43.464  36.134  32.836  1.00  0.00     0.002 A 
ATOM     24  C   UNL A   1      44.352  35.234  33.421  1.00  0.00     0.048 A 
ATOM     25  C   UNL A   1      44.887  34.523  35.746  1.00  0.00     0.150 C 
ATOM     26  C   UNL A   1      43.280  36.113  31.440  1.00  0.00     0.030 A 
ATOM     27  C   UNL A   1      45.095  34.319  32.656  1.00  0.00     0.028 A 
ATOM     28  C   UNL A   1      44.017  35.207  30.674  1.00  0.00     0.041 A 
ATOM     29  C   UNL A   1      44.918  34.329  31.269  1.00  0.00     0.023 A 
ATOM     30  Cl  UNL A   1      43.809  35.179  28.964  1.00  0.00    -0.084 Cl
ENDBRANCH  17  20
ENDBRANCH  12  16
ENDBRANCH   9  12
ENDBRANCH   7   8
BRANCH   7  31
ATOM     31  C   UNL A   1      40.689  33.632  32.718  1.00  0.00    -0.016 A 
ATOM     32  C   UNL A   1      41.419  32.850  31.803  1.00  0.00     0.006 A 
ATOM     33  C   UNL A   1      39.706  34.485  32.189  1.00  0.00     0.006 A 
ATOM     34  C   UNL A   1      41.231  32.983  30.422  1.00  0.00     0.000 A 
ATOM     35  C   UNL A   1      39.507  34.609  30.810  1.00  0.00     0.000 A 
ATOM     36  C   UNL A   1      40.281  33.869  29.926  1.00  0.00     0.000 A 
ENDBRANCH   7  31
ENDBRANCH   4   7
ENDBRANCH   2   3
ENDBRANCH   1   2
BRANCH   1  37
ATOM     37  C   UNL A   1      36.128  31.901  32.506  1.00  0.00     0.002 C 
BRANCH  37  38
ATOM     38  C   UNL A   1      35.932  33.370  32.122  1.00  0.00     0.002 C 
BRANCH  38  39
ATOM     39  C   UNL A   1      34.633  33.731  31.391  1.00  0.00     0.021 C 
BRANCH  39  40
ATOM     40  C   UNL A   1      34.776  34.207  29.943  1.00  0.00     0.116 C 
BRANCH  40  41
ATOM     41  N   UNL A   1      34.326  33.258  28.948  1.00  0.00    -0.352 N 
ATOM     42  C   UNL A   1      34.768  32.051  28.487  1.00  0.00     0.251 C 
ATOM     43  H   UNL A   1      33.503  33.554  28.496  1.00  0.00     0.163 HD
ATOM     44  O   UNL A   1      34.047  31.501  27.649  1.00  0.00    -0.269 OA
BRANCH  42  45
ATOM     45  C   UNL A   1      36.039  31.384  28.888  1.00  0.00     0.039 A 
ATOM     46  C   UNL A   1      37.307  31.963  28.869  1.00  0.00     0.014 A 
ATOM     47  C   UNL A   1      35.934  30.040  29.295  1.00  0.00     0.014 A 
ATOM     48  C   UNL A   1      38.443  31.209  29.172  1.00  0.00     0.010 A 
ATOM     49  C   UNL A   1      37.063  29.289  29.624  1.00  0.00     0.010 A 
ATOM     50  C   UNL A   1      38.329  29.862  29.523  1.00  0.00    -0.014 A 
BRANCH  50  51
ATOM     51  C   UNL A   1      39.569  29.111  29.741  1.00  0.00     0.031 A 
ATOM     52  C   UNL A   1      40.030  28.873  31.141  1.00  0.00     0.074 A 
ATOM     53  C   UNL A   1      40.274  28.525  28.752  1.00  0.00     0.049 A 
ATOM     54  N   UNL A   1      41.176  29.169  31.674  1.00  0.00    -0.248 NA
ATOM     55  C   UNL A   1      39.109  28.174  32.048  1.00  0.00     0.031 C 
ATOM     56  C   UNL A   1      39.877  28.329  27.357  1.00  0.00     0.029 A 
ATOM     57  N   UNL A   1      41.483  27.889  28.834  1.00  0.00    -0.354 N 
ATOM     58  C   UNL A   1      41.189  28.565  32.929  1.00  0.00     0.074 A 
ATOM     59  C   UNL A   1      39.872  28.008  33.130  1.00  0.00     0.031 C 
ATOM     60  C   UNL A   1      40.728  27.454  26.779  1.00  0.00     0.029 A 
ATOM     61  C   UNL A   1      41.795  27.142  27.716  1.00  0.00     0.049 A 
ATOM     62  H   UNL A   1      42.075  27.958  29.618  1.00  0.00     0.167 HD
ATOM     63  C   UNL A   1      42.314  28.429  33.682  1.00  0.00     0.037 A 
ATOM     64  C   UNL A   1      42.830  26.286  27.562  1.00  0.00     0.037 A 
ATOM     65  C   UNL A   1      43.383  29.290  33.269  1.00  0.00     0.049 A 
ATOM     66  C   UNL A   1      43.872  26.588  28.565  1.00  0.00     0.074 A 
ATOM     67  C   UNL A   1      43.573  30.654  33.174  1.00  0.00     0.029 A 
ATOM     68  N   UNL A   1      44.475  28.724  32.663  1.00  0.00    -0.354 N 
ATOM     69  N   UNL A   1      44.652  27.632  28.542  1.00  0.00    -0.248 NA
ATOM     70  C   UNL A   1      43.907  25.813  29.798  1.00  0.00     0.031 C 
ATOM     71  C   UNL A   1      44.543  30.837  32.146  1.00  0.00     0.029 A 
ATOM     72  C   UNL A   1      44.850  29.569  31.651  1.00  0.00     0.049 A 
ATOM     73  H   UNL A   1      44.906  27.874  32.907  1.00  0.00     0.167 HD
ATOM     74  C   UNL A   1      44.977  27.861  29.869  1.00  0.00     0.074 A 
ATOM     75  C   UNL A   1      44.633  26.630  30.562  1.00  0.00     0.031 C 
ATOM     76  C   UNL A   1      45.216  29.123  30.327  1.00  0.00     0.037 A 
BRANCH  63  77
ATOM     77  C   UNL A   1      42.539  27.318  34.670  1.00  0.00     0.057 A 
ATOM     78  C   UNL A   1      42.060  27.367  35.993  1.00  0.00     0.134 A 
ATOM     79  C   UNL A   1      43.003  26.063  34.239  1.00  0.00     0.134 A 
ATOM     80  F   UNL A   1      41.483  28.472  36.487  1.00  0.00    -0.206 F 
ATOM     81  C   UNL A   1      42.073  26.255  36.841  1.00  0.00     0.040 A 
ATOM     82  C   UNL A   1      42.981  24.932  35.065  1.00  0.00     0.040 A 
ATOM     83  F   UNL A   1      43.431  25.884  32.981  1.00  0.00    -0.206 F 
ATOM     84  C   UNL A   1      42.519  25.028  36.373  1.00  0.00     0.006 A 
ENDBRANCH  63  77
BRANCH  64  85
ATOM     85  C   UNL A   1      42.901  25.113  26.671  1.00  0.00     0.057 A 
ATOM     86  C   UNL A   1      42.388  23.866  27.071  1.00  0.00     0.134 A 
ATOM     87  C   UNL A   1      43.654  25.127  25.493  1.00  0.00     0.134 A 
ATOM     88  F   UNL A   1      41.739  23.727  28.236  1.00  0.00    -0.206 F 
ATOM     89  C   UNL A   1      42.587  22.702  26.326  1.00  0.00     0.040 A 
ATOM     90  C   UNL A   1      43.873  23.966  24.741  1.00  0.00     0.040 A 
ATOM     91  F   UNL A   1      44.231  26.258  25.064  1.00  0.00    -0.206 F 
ATOM     92  C   UNL A   1      43.338  22.749  25.157  1.00  0.00     0.006 A 
ENDBRANCH  64  85
BRANCH  76  93
ATOM     93  C   UNL A   1      45.516  30.180  29.310  1.00  0.00     0.057 A 
ATOM     94  C   UNL A   1      46.844  30.556  29.082  1.00  0.00     0.134 A 
ATOM     95  C   UNL A   1      44.518  30.914  28.656  1.00  0.00     0.134 A 
ATOM     96  F   UNL A   1      47.845  29.934  29.726  1.00  0.00    -0.206 F 
ATOM     97  C   UNL A   1      47.169  31.605  28.219  1.00  0.00     0.040 A 
ATOM     98  C   UNL A   1      44.832  31.949  27.770  1.00  0.00     0.040 A 
ATOM     99  F   UNL A   1      43.220  30.682  28.898  1.00  0.00    -0.206 F 
ATOM    100  C   UNL A   1      46.162  32.298  27.552  1.00  0.00     0.006 A 
ENDBRANCH  76  93
ENDBRANCH  50  51
ENDBRANCH  42  45
ENDBRANCH  40  41
ENDBRANCH  39  40
ENDBRANCH  38  39
ENDBRANCH  37  38
ENDBRANCH   1  37
TORSDOF 19
ENDMDL
