MODEL 1
REMARK VINA RESULT:     -11.8      0.000      0.000
REMARK SMILES O=C(NCCCCCCNC(=O)c1nnn(-c2cccc(OC(F)(F)F)c2)c1-c1ccncc1)c1ccc(-c2c3nc(c(-c4c(F)cccc4F)c4ccc([nH]4)c(-c4c(F)cccc4F)c4nc(c(-c5c(F)cccc5F)c5ccc2[nH]5)C=C4)C=C3)cc1
REMARK SMILES IDX 7 1 6 2 5 3 4 4 3 5 1 6 2 7 35 9 36 10 88 11 37 12 87 13
REMARK SMILES IDX 38 14 39 15 40 16 81 17 41 18 86 19 80 20 82 21 42 22 85 23
REMARK SMILES IDX 79 24 78 25 43 27 69 28 52 29 68 30 53 31 56 32 67 33 83 34
REMARK SMILES IDX 54 35 55 36 66 38 84 39 57 40 44 41 45 42 50 43 46 44 47 45
REMARK SMILES IDX 49 46 51 47 48 48 70 49 71 50 76 51 72 52 73 53 75 54 77 55
REMARK SMILES IDX 74 56 58 57 59 58 64 59 60 60 61 61 63 62 65 63 62 64 8 65
REMARK SMILES IDX 9 66 10 67 11 68 12 70 13 71 14 72 28 73 15 74 16 75 29 76
REMARK SMILES IDX 30 77 34 78 31 79 33 80 32 81 17 82 18 83 27 84 19 85 21 86
REMARK SMILES IDX 20 87 22 88 23 89 24 90 25 91 26 92
REMARK H PARENT 3 8 82 26 56 37 10 69
REMARK Flexibility Score: inf
ROOT
ATOM      1  C   UNL A   1      40.003  22.006  26.935  1.00  0.00     0.002 C 
ENDROOT
BRANCH   1   2
ATOM      2  C   UNL A   1      40.906  20.814  27.275  1.00  0.00     0.002 C 
BRANCH   2   3
ATOM      3  C   UNL A   1      41.154  19.803  26.148  1.00  0.00     0.021 C 
BRANCH   3   4
ATOM      4  C   UNL A   1      42.516  19.108  26.183  1.00  0.00     0.116 C 
BRANCH   4   5
ATOM      5  N   UNL A   1      43.417  19.529  25.133  1.00  0.00    -0.352 N 
ATOM      6  O   UNL A   1      44.861  20.620  23.876  1.00  0.00    -0.269 OA
ATOM      7  C   UNL A   1      44.091  20.679  24.839  1.00  0.00     0.251 C 
ATOM      8  H   UNL A   1      43.584  18.818  24.474  1.00  0.00     0.163 HD
BRANCH   7   9
ATOM      9  C   UNL A   1      43.946  21.978  25.555  1.00  0.00     0.039 A 
ATOM     10  C   UNL A   1      44.600  22.347  26.731  1.00  0.00     0.014 A 
ATOM     11  C   UNL A   1      43.047  22.896  24.978  1.00  0.00     0.014 A 
ATOM     12  C   UNL A   1      44.331  23.573  27.340  1.00  0.00     0.010 A 
ATOM     13  C   UNL A   1      42.784  24.127  25.573  1.00  0.00     0.010 A 
ATOM     14  C   UNL A   1      43.409  24.455  26.773  1.00  0.00    -0.014 A 
BRANCH  14  15
ATOM     15  C   UNL A   1      43.201  25.749  27.423  1.00  0.00     0.031 A 
ATOM     16  C   UNL A   1      44.213  26.811  27.133  1.00  0.00     0.074 A 
ATOM     17  C   UNL A   1      42.087  26.059  28.115  1.00  0.00     0.049 A 
ATOM     18  N   UNL A   1      44.917  27.515  27.963  1.00  0.00    -0.248 NA
ATOM     19  C   UNL A   1      44.497  27.102  25.718  1.00  0.00     0.031 C 
ATOM     20  C   UNL A   1      40.851  25.283  28.231  1.00  0.00     0.029 A 
ATOM     21  N   UNL A   1      41.795  27.214  28.782  1.00  0.00    -0.354 N 
ATOM     22  C   UNL A   1      45.618  28.444  27.191  1.00  0.00     0.074 A 
ATOM     23  C   UNL A   1      45.391  28.085  25.815  1.00  0.00     0.031 C 
ATOM     24  C   UNL A   1      39.878  26.072  28.739  1.00  0.00     0.029 A 
ATOM     25  C   UNL A   1      40.455  27.356  29.105  1.00  0.00     0.049 A 
ATOM     26  H   UNL A   1      42.476  27.885  29.013  1.00  0.00     0.167 HD
ATOM     27  C   UNL A   1      46.213  29.545  27.728  1.00  0.00     0.037 A 
ATOM     28  C   UNL A   1      39.848  28.471  29.574  1.00  0.00     0.037 A 
ATOM     29  C   UNL A   1      46.432  29.408  29.140  1.00  0.00     0.049 A 
ATOM     30  C   UNL A   1      40.889  29.371  30.123  1.00  0.00     0.074 A 
ATOM     31  C   UNL A   1      47.156  28.544  29.938  1.00  0.00     0.029 A 
ATOM     32  N   UNL A   1      45.623  30.104  29.999  1.00  0.00    -0.354 N 
ATOM     33  N   UNL A   1      41.569  29.140  31.210  1.00  0.00    -0.248 NA
ATOM     34  C   UNL A   1      41.446  30.385  29.241  1.00  0.00     0.031 C 
ATOM     35  C   UNL A   1      46.391  28.418  31.134  1.00  0.00     0.029 A 
ATOM     36  C   UNL A   1      45.265  29.230  30.989  1.00  0.00     0.049 A 
ATOM     37  H   UNL A   1      45.351  31.048  29.919  1.00  0.00     0.167 HD
ATOM     38  C   UNL A   1      42.826  29.667  30.959  1.00  0.00     0.074 A 
ATOM     39  C   UNL A   1      42.657  30.516  29.785  1.00  0.00     0.031 C 
ATOM     40  C   UNL A   1      43.941  29.154  31.557  1.00  0.00     0.037 A 
BRANCH  27  41
ATOM     41  C   UNL A   1      46.334  30.881  27.032  1.00  0.00     0.057 A 
ATOM     42  C   UNL A   1      47.582  31.535  26.988  1.00  0.00     0.134 A 
ATOM     43  C   UNL A   1      45.229  31.676  26.670  1.00  0.00     0.134 A 
ATOM     44  F   UNL A   1      48.710  30.893  27.324  1.00  0.00    -0.206 F 
ATOM     45  C   UNL A   1      47.707  32.896  26.678  1.00  0.00     0.040 A 
ATOM     46  C   UNL A   1      45.350  33.022  26.310  1.00  0.00     0.040 A 
ATOM     47  F   UNL A   1      43.972  31.221  26.741  1.00  0.00    -0.206 F 
ATOM     48  C   UNL A   1      46.587  33.646  26.345  1.00  0.00     0.006 A 
ENDBRANCH  27  41
BRANCH  28  49
ATOM     49  C   UNL A   1      38.462  28.928  29.332  1.00  0.00     0.057 A 
ATOM     50  C   UNL A   1      37.545  29.069  30.380  1.00  0.00     0.134 A 
ATOM     51  C   UNL A   1      38.083  29.486  28.097  1.00  0.00     0.134 A 
ATOM     52  F   UNL A   1      37.838  28.612  31.607  1.00  0.00    -0.206 F 
ATOM     53  C   UNL A   1      36.325  29.738  30.216  1.00  0.00     0.040 A 
ATOM     54  C   UNL A   1      36.865  30.146  27.916  1.00  0.00     0.040 A 
ATOM     55  F   UNL A   1      38.921  29.485  27.050  1.00  0.00    -0.206 F 
ATOM     56  C   UNL A   1      35.985  30.286  28.982  1.00  0.00     0.006 A 
ENDBRANCH  28  49
BRANCH  40  57
ATOM     57  C   UNL A   1      43.755  28.197  32.698  1.00  0.00     0.057 A 
ATOM     58  C   UNL A   1      43.708  26.804  32.538  1.00  0.00     0.134 A 
ATOM     59  C   UNL A   1      43.803  28.686  34.007  1.00  0.00     0.134 A 
ATOM     60  F   UNL A   1      43.766  26.243  31.323  1.00  0.00    -0.206 F 
ATOM     61  C   UNL A   1      43.669  25.940  33.636  1.00  0.00     0.040 A 
ATOM     62  C   UNL A   1      43.797  27.831  35.111  1.00  0.00     0.040 A 
ATOM     63  F   UNL A   1      43.912  30.005  34.234  1.00  0.00    -0.206 F 
ATOM     64  C   UNL A   1      43.722  26.453  34.928  1.00  0.00     0.006 A 
ENDBRANCH  40  57
ENDBRANCH  14  15
ENDBRANCH   7   9
ENDBRANCH   4   5
ENDBRANCH   3   4
ENDBRANCH   2   3
ENDBRANCH   1   2
BRANCH   1  65
ATOM     65  C   UNL A   1      39.039  21.805  25.764  1.00  0.00     0.021 C 
BRANCH  65  66
ATOM     66  C   UNL A   1      37.631  22.334  25.994  1.00  0.00     0.116 C 
BRANCH  66  67
ATOM     67  N   UNL A   1      36.620  21.292  25.958  1.00  0.00    -0.351 N 
ATOM     68  C   UNL A   1      35.438  21.280  25.256  1.00  0.00     0.274 C 
ATOM     69  H   UNL A   1      36.804  20.494  26.504  1.00  0.00     0.163 HD
ATOM     70  O   UNL A   1      34.674  20.324  25.388  1.00  0.00    -0.267 OA
BRANCH  68  71
ATOM     71  C   UNL A   1      35.133  22.395  24.372  1.00  0.00     0.178 A 
ATOM     72  N   UNL A   1      35.853  22.640  23.229  1.00  0.00    -0.124 NA
ATOM     73  C   UNL A   1      34.078  23.298  24.454  1.00  0.00     0.108 A 
ATOM     74  N   UNL A   1      35.251  23.611  22.558  1.00  0.00    -0.061 NA
ATOM     75  N   UNL A   1      34.268  24.106  23.339  1.00  0.00    -0.212 N 
BRANCH  73  76
ATOM     76  C   UNL A   1      32.899  23.325  25.321  1.00  0.00     0.006 A 
ATOM     77  C   UNL A   1      31.805  22.496  25.087  1.00  0.00     0.030 A 
ATOM     78  C   UNL A   1      32.843  24.235  26.386  1.00  0.00     0.030 A 
ATOM     79  C   UNL A   1      30.711  22.609  25.930  1.00  0.00     0.111 A 
ATOM     80  C   UNL A   1      31.705  24.274  27.170  1.00  0.00     0.111 A 
ATOM     81  N   UNL A   1      30.635  23.483  26.959  1.00  0.00    -0.265 NA
ENDBRANCH  73  76
BRANCH  75  82
ATOM     82  C   UNL A   1      33.500  25.231  22.961  1.00  0.00     0.071 A 
ATOM     83  C   UNL A   1      32.409  25.068  22.105  1.00  0.00     0.029 A 
ATOM     84  C   UNL A   1      33.781  26.478  23.542  1.00  0.00     0.075 A 
ATOM     85  C   UNL A   1      31.540  26.142  21.918  1.00  0.00     0.006 A 
ATOM     86  C   UNL A   1      32.930  27.557  23.330  1.00  0.00     0.131 A 
ATOM     87  C   UNL A   1      31.795  27.373  22.535  1.00  0.00     0.047 A 
BRANCH  86  88
ATOM     88  O   UNL A   1      33.079  28.811  23.850  1.00  0.00    -0.406 OA
BRANCH  88  89
ATOM     89  C   UNL A   1      32.743  29.002  25.217  1.00  0.00     0.573 C 
ATOM     90  F   UNL A   1      33.640  28.401  26.028  1.00  0.00    -0.132 F 
ATOM     91  F   UNL A   1      32.678  30.316  25.522  1.00  0.00    -0.132 F 
ATOM     92  F   UNL A   1      31.531  28.455  25.450  1.00  0.00    -0.132 F 
ENDBRANCH  88  89
ENDBRANCH  86  88
ENDBRANCH  75  82
ENDBRANCH  68  71
ENDBRANCH  66  67
ENDBRANCH  65  66
ENDBRANCH   1  65
TORSDOF 17
ENDMDL
MODEL 2
REMARK VINA RESULT:     -11.4      2.387      3.500
REMARK SMILES O=C(NCCCCCCNC(=O)c1nnn(-c2cccc(OC(F)(F)F)c2)c1-c1ccncc1)c1ccc(-c2c3nc(c(-c4c(F)cccc4F)c4ccc([nH]4)c(-c4c(F)cccc4F)c4nc(c(-c5c(F)cccc5F)c5ccc2[nH]5)C=C4)C=C3)cc1
REMARK SMILES IDX 7 1 6 2 5 3 4 4 3 5 1 6 2 7 35 9 36 10 88 11 37 12 87 13
REMARK SMILES IDX 38 14 39 15 40 16 81 17 41 18 86 19 80 20 82 21 42 22 85 23
REMARK SMILES IDX 79 24 78 25 43 27 69 28 52 29 68 30 53 31 56 32 67 33 83 34
REMARK SMILES IDX 54 35 55 36 66 38 84 39 57 40 44 41 45 42 50 43 46 44 47 45
REMARK SMILES IDX 49 46 51 47 48 48 70 49 71 50 76 51 72 52 73 53 75 54 77 55
REMARK SMILES IDX 74 56 58 57 59 58 64 59 60 60 61 61 63 62 65 63 62 64 8 65
REMARK SMILES IDX 9 66 10 67 11 68 12 70 13 71 14 72 28 73 15 74 16 75 29 76
REMARK SMILES IDX 30 77 34 78 31 79 33 80 32 81 17 82 18 83 27 84 19 85 21 86
REMARK SMILES IDX 20 87 22 88 23 89 24 90 25 91 26 92
REMARK H PARENT 3 8 82 26 56 37 10 69
REMARK Flexibility Score: inf
ROOT
ATOM      1  C   UNL A   1      36.547  21.280  25.018  1.00  0.00     0.002 C 
ENDROOT
BRANCH   1   2
ATOM      2  C   UNL A   1      38.042  21.123  25.322  1.00  0.00     0.002 C 
BRANCH   2   3
ATOM      3  C   UNL A   1      38.744  22.342  25.935  1.00  0.00     0.021 C 
BRANCH   3   4
ATOM      4  C   UNL A   1      40.065  22.045  26.646  1.00  0.00     0.116 C 
BRANCH   4   5
ATOM      5  N   UNL A   1      41.238  22.368  25.864  1.00  0.00    -0.352 N 
ATOM      6  O   UNL A   1      43.045  23.306  25.023  1.00  0.00    -0.269 OA
ATOM      7  C   UNL A   1      42.064  23.449  25.758  1.00  0.00     0.251 C 
ATOM      8  H   UNL A   1      41.504  21.633  25.266  1.00  0.00     0.163 HD
BRANCH   7   9
ATOM      9  C   UNL A   1      41.857  24.769  26.419  1.00  0.00     0.039 A 
ATOM     10  C   UNL A   1      41.164  25.856  25.887  1.00  0.00     0.014 A 
ATOM     11  C   UNL A   1      42.439  24.910  27.694  1.00  0.00     0.014 A 
ATOM     12  C   UNL A   1      41.093  27.064  26.582  1.00  0.00     0.010 A 
ATOM     13  C   UNL A   1      42.361  26.108  28.399  1.00  0.00     0.010 A 
ATOM     14  C   UNL A   1      41.707  27.197  27.829  1.00  0.00    -0.014 A 
BRANCH  14  15
ATOM     15  C   UNL A   1      41.560  28.467  28.539  1.00  0.00     0.031 A 
ATOM     16  C   UNL A   1      42.616  29.497  28.288  1.00  0.00     0.074 A 
ATOM     17  C   UNL A   1      40.466  28.793  29.255  1.00  0.00     0.049 A 
ATOM     18  N   UNL A   1      43.355  30.131  29.142  1.00  0.00    -0.248 NA
ATOM     19  C   UNL A   1      42.901  29.840  26.885  1.00  0.00     0.031 C 
ATOM     20  C   UNL A   1      39.198  28.067  29.346  1.00  0.00     0.029 A 
ATOM     21  N   UNL A   1      40.229  29.928  29.976  1.00  0.00    -0.354 N 
ATOM     22  C   UNL A   1      44.091  31.063  28.408  1.00  0.00     0.074 A 
ATOM     23  C   UNL A   1      43.838  30.778  27.019  1.00  0.00     0.031 C 
ATOM     24  C   UNL A   1      38.264  28.873  29.899  1.00  0.00     0.029 A 
ATOM     25  C   UNL A   1      38.899  30.113  30.317  1.00  0.00     0.049 A 
ATOM     26  H   UNL A   1      40.941  30.558  30.231  1.00  0.00     0.167 HD
ATOM     27  C   UNL A   1      44.738  32.112  28.988  1.00  0.00     0.037 A 
ATOM     28  C   UNL A   1      38.344  31.231  30.843  1.00  0.00     0.037 A 
ATOM     29  C   UNL A   1      44.961  31.901  30.391  1.00  0.00     0.049 A 
ATOM     30  C   UNL A   1      39.428  32.058  31.422  1.00  0.00     0.074 A 
ATOM     31  C   UNL A   1      45.651  30.970  31.142  1.00  0.00     0.029 A 
ATOM     32  N   UNL A   1      44.188  32.591  31.288  1.00  0.00    -0.354 N 
ATOM     33  N   UNL A   1      40.105  31.749  32.492  1.00  0.00    -0.248 NA
ATOM     34  C   UNL A   1      40.022  33.087  30.582  1.00  0.00     0.031 C 
ATOM     35  C   UNL A   1      44.891  30.823  32.338  1.00  0.00     0.029 A 
ATOM     36  C   UNL A   1      43.800  31.688  32.241  1.00  0.00     0.049 A 
ATOM     37  H   UNL A   1      43.957  33.549  31.254  1.00  0.00     0.167 HD
ATOM     38  C   UNL A   1      41.382  32.232  32.253  1.00  0.00     0.074 A 
ATOM     39  C   UNL A   1      41.242  33.140  31.120  1.00  0.00     0.031 C 
ATOM     40  C   UNL A   1      42.478  31.644  32.816  1.00  0.00     0.037 A 
BRANCH  27  41
ATOM     41  C   UNL A   1      44.912  33.472  28.353  1.00  0.00     0.057 A 
ATOM     42  C   UNL A   1      46.207  33.987  28.150  1.00  0.00     0.134 A 
ATOM     43  C   UNL A   1      43.867  34.406  28.208  1.00  0.00     0.134 A 
ATOM     44  F   UNL A   1      47.289  33.204  28.274  1.00  0.00    -0.206 F 
ATOM     45  C   UNL A   1      46.446  35.344  27.896  1.00  0.00     0.040 A 
ATOM     46  C   UNL A   1      44.092  35.752  27.905  1.00  0.00     0.040 A 
ATOM     47  F   UNL A   1      42.590  34.087  28.449  1.00  0.00    -0.206 F 
ATOM     48  C   UNL A   1      45.386  36.234  27.780  1.00  0.00     0.006 A 
ENDBRANCH  27  41
BRANCH  28  49
ATOM     49  C   UNL A   1      36.979  31.758  30.634  1.00  0.00     0.057 A 
ATOM     50  C   UNL A   1      36.041  31.789  31.673  1.00  0.00     0.134 A 
ATOM     51  C   UNL A   1      36.645  32.483  29.476  1.00  0.00     0.134 A 
ATOM     52  F   UNL A   1      36.291  31.169  32.835  1.00  0.00    -0.206 F 
ATOM     53  C   UNL A   1      34.844  32.512  31.573  1.00  0.00     0.040 A 
ATOM     54  C   UNL A   1      35.450  33.198  29.358  1.00  0.00     0.040 A 
ATOM     55  F   UNL A   1      37.507  32.592  28.454  1.00  0.00    -0.206 F 
ATOM     56  C   UNL A   1      34.550  33.225  30.414  1.00  0.00     0.006 A 
ENDBRANCH  28  49
BRANCH  40  57
ATOM     57  C   UNL A   1      42.259  30.645  33.914  1.00  0.00     0.057 A 
ATOM     58  C   UNL A   1      42.152  30.994  35.269  1.00  0.00     0.134 A 
ATOM     59  C   UNL A   1      41.971  29.318  33.575  1.00  0.00     0.134 A 
ATOM     60  F   UNL A   1      42.307  32.263  35.671  1.00  0.00    -0.206 F 
ATOM     61  C   UNL A   1      41.815  30.054  36.246  1.00  0.00     0.040 A 
ATOM     62  C   UNL A   1      41.601  28.378  34.539  1.00  0.00     0.040 A 
ATOM     63  F   UNL A   1      41.991  28.928  32.291  1.00  0.00    -0.206 F 
ATOM     64  C   UNL A   1      41.529  28.742  35.881  1.00  0.00     0.006 A 
ENDBRANCH  40  57
ENDBRANCH  14  15
ENDBRANCH   7   9
ENDBRANCH   4   5
ENDBRANCH   3   4
ENDBRANCH   2   3
ENDBRANCH   1   2
BRANCH   1  65
ATOM     65  C   UNL A   1      35.984  22.697  25.129  1.00  0.00     0.021 C 
BRANCH  65  66
ATOM     66  C   UNL A   1      35.737  23.397  23.801  1.00  0.00     0.116 C 
BRANCH  66  67
ATOM     67  N   UNL A   1      34.681  22.778  23.020  1.00  0.00    -0.351 N 
ATOM     68  C   UNL A   1      33.581  23.377  22.453  1.00  0.00     0.274 C 
ATOM     69  H   UNL A   1      34.763  21.807  22.878  1.00  0.00     0.163 HD
ATOM     70  O   UNL A   1      32.757  22.678  21.863  1.00  0.00    -0.267 OA
BRANCH  68  71
ATOM     71  C   UNL A   1      33.432  24.820  22.562  1.00  0.00     0.178 A 
ATOM     72  N   UNL A   1      33.740  25.667  21.526  1.00  0.00    -0.124 NA
ATOM     73  C   UNL A   1      32.899  25.556  23.615  1.00  0.00     0.108 A 
ATOM     74  N   UNL A   1      33.357  26.890  21.861  1.00  0.00    -0.061 NA
ATOM     75  N   UNL A   1      32.976  26.866  23.156  1.00  0.00    -0.212 N 
BRANCH  73  76
ATOM     76  C   UNL A   1      32.204  25.131  24.831  1.00  0.00     0.006 A 
ATOM     77  C   UNL A   1      32.901  24.671  25.944  1.00  0.00     0.030 A 
ATOM     78  C   UNL A   1      30.802  25.141  24.868  1.00  0.00     0.030 A 
ATOM     79  C   UNL A   1      32.169  24.250  27.043  1.00  0.00     0.111 A 
ATOM     80  C   UNL A   1      30.162  24.698  26.010  1.00  0.00     0.111 A 
ATOM     81  N   UNL A   1      30.818  24.247  27.096  1.00  0.00    -0.265 NA
ENDBRANCH  73  76
BRANCH  75  82
ATOM     82  C   UNL A   1      32.611  28.038  23.856  1.00  0.00     0.071 A 
ATOM     83  C   UNL A   1      31.312  28.537  23.741  1.00  0.00     0.029 A 
ATOM     84  C   UNL A   1      33.531  28.617  24.745  1.00  0.00     0.075 A 
ATOM     85  C   UNL A   1      30.910  29.559  24.599  1.00  0.00     0.006 A 
ATOM     86  C   UNL A   1      33.137  29.657  25.581  1.00  0.00     0.131 A 
ATOM     87  C   UNL A   1      31.813  30.105  25.519  1.00  0.00     0.047 A 
BRANCH  86  88
ATOM     88  O   UNL A   1      33.924  30.291  26.499  1.00  0.00    -0.406 OA
BRANCH  88  89
ATOM     89  C   UNL A   1      34.561  29.491  27.485  1.00  0.00     0.573 C 
ATOM     90  F   UNL A   1      34.636  30.141  28.666  1.00  0.00    -0.132 F 
ATOM     91  F   UNL A   1      33.904  28.324  27.661  1.00  0.00    -0.132 F 
ATOM     92  F   UNL A   1      35.817  29.210  27.078  1.00  0.00    -0.132 F 
ENDBRANCH  88  89
ENDBRANCH  86  88
ENDBRANCH  75  82
ENDBRANCH  68  71
ENDBRANCH  66  67
ENDBRANCH  65  66
ENDBRANCH   1  65
TORSDOF 17
ENDMDL
MODEL 3
REMARK VINA RESULT:     -11.0      2.349      3.790
REMARK SMILES O=C(NCCCCCCNC(=O)c1nnn(-c2cccc(OC(F)(F)F)c2)c1-c1ccncc1)c1ccc(-c2c3nc(c(-c4c(F)cccc4F)c4ccc([nH]4)c(-c4c(F)cccc4F)c4nc(c(-c5c(F)cccc5F)c5ccc2[nH]5)C=C4)C=C3)cc1
REMARK SMILES IDX 7 1 6 2 5 3 4 4 3 5 1 6 2 7 35 9 36 10 88 11 37 12 87 13
REMARK SMILES IDX 38 14 39 15 40 16 81 17 41 18 86 19 80 20 82 21 42 22 85 23
REMARK SMILES IDX 79 24 78 25 43 27 69 28 52 29 68 30 53 31 56 32 67 33 83 34
REMARK SMILES IDX 54 35 55 36 66 38 84 39 57 40 44 41 45 42 50 43 46 44 47 45
REMARK SMILES IDX 49 46 51 47 48 48 70 49 71 50 76 51 72 52 73 53 75 54 77 55
REMARK SMILES IDX 74 56 58 57 59 58 64 59 60 60 61 61 63 62 65 63 62 64 8 65
REMARK SMILES IDX 9 66 10 67 11 68 12 70 13 71 14 72 28 73 15 74 16 75 29 76
REMARK SMILES IDX 30 77 34 78 31 79 33 80 32 81 17 82 18 83 27 84 19 85 21 86
REMARK SMILES IDX 20 87 22 88 23 89 24 90 25 91 26 92
REMARK H PARENT 3 8 82 26 56 37 10 69
REMARK Flexibility Score: inf
ROOT
ATOM      1  C   UNL A   1      36.183  23.212  26.132  1.00  0.00     0.002 C 
ENDROOT
BRANCH   1   2
ATOM      2  C   UNL A   1      37.672  23.364  25.804  1.00  0.00     0.002 C 
BRANCH   2   3
ATOM      3  C   UNL A   1      38.478  22.065  25.670  1.00  0.00     0.021 C 
BRANCH   3   4
ATOM      4  C   UNL A   1      39.703  21.959  26.579  1.00  0.00     0.116 C 
BRANCH   4   5
ATOM      5  N   UNL A   1      40.961  22.149  25.892  1.00  0.00    -0.352 N 
ATOM      6  O   UNL A   1      42.943  22.849  25.234  1.00  0.00    -0.269 OA
ATOM      7  C   UNL A   1      41.948  23.092  25.922  1.00  0.00     0.251 C 
ATOM      8  H   UNL A   1      41.151  21.427  25.251  1.00  0.00     0.163 HD
BRANCH   7   9
ATOM      9  C   UNL A   1      41.901  24.375  26.678  1.00  0.00     0.039 A 
ATOM     10  C   UNL A   1      42.560  24.647  27.878  1.00  0.00     0.014 A 
ATOM     11  C   UNL A   1      41.098  25.386  26.117  1.00  0.00     0.014 A 
ATOM     12  C   UNL A   1      42.385  25.872  28.523  1.00  0.00     0.010 A 
ATOM     13  C   UNL A   1      40.930  26.615  26.748  1.00  0.00     0.010 A 
ATOM     14  C   UNL A   1      41.556  26.849  27.969  1.00  0.00    -0.014 A 
BRANCH  14  15
ATOM     15  C   UNL A   1      41.446  28.134  28.659  1.00  0.00     0.031 A 
ATOM     16  C   UNL A   1      42.502  29.148  28.349  1.00  0.00     0.074 A 
ATOM     17  C   UNL A   1      40.382  28.485  29.407  1.00  0.00     0.049 A 
ATOM     18  N   UNL A   1      43.277  29.791  29.163  1.00  0.00    -0.248 NA
ATOM     19  C   UNL A   1      42.739  29.460  26.930  1.00  0.00     0.031 C 
ATOM     20  C   UNL A   1      39.111  27.773  29.559  1.00  0.00     0.029 A 
ATOM     21  N   UNL A   1      40.182  29.636  30.114  1.00  0.00    -0.354 N 
ATOM     22  C   UNL A   1      43.994  30.702  28.384  1.00  0.00     0.074 A 
ATOM     23  C   UNL A   1      43.688  30.392  27.011  1.00  0.00     0.031 C 
ATOM     24  C   UNL A   1      38.206  28.600  30.129  1.00  0.00     0.029 A 
ATOM     25  C   UNL A   1      38.867  29.841  30.499  1.00  0.00     0.049 A 
ATOM     26  H   UNL A   1      40.908  30.264  30.330  1.00  0.00     0.167 HD
ATOM     27  C   UNL A   1      44.672  31.755  28.919  1.00  0.00     0.037 A 
ATOM     28  C   UNL A   1      38.343  30.975  31.022  1.00  0.00     0.037 A 
ATOM     29  C   UNL A   1      44.944  31.570  30.316  1.00  0.00     0.049 A 
ATOM     30  C   UNL A   1      39.454  31.803  31.544  1.00  0.00     0.074 A 
ATOM     31  C   UNL A   1      45.653  30.647  31.060  1.00  0.00     0.029 A 
ATOM     32  N   UNL A   1      44.211  32.285  31.227  1.00  0.00    -0.354 N 
ATOM     33  N   UNL A   1      40.167  31.508  32.595  1.00  0.00    -0.248 NA
ATOM     34  C   UNL A   1      40.027  32.809  30.663  1.00  0.00     0.031 C 
ATOM     35  C   UNL A   1      44.935  30.531  32.287  1.00  0.00     0.029 A 
ATOM     36  C   UNL A   1      43.849  31.405  32.211  1.00  0.00     0.049 A 
ATOM     37  H   UNL A   1      43.988  33.244  31.182  1.00  0.00     0.167 HD
ATOM     38  C   UNL A   1      41.439  31.973  32.300  1.00  0.00     0.074 A 
ATOM     39  C   UNL A   1      41.265  32.860  31.155  1.00  0.00     0.031 C 
ATOM     40  C   UNL A   1      42.549  31.386  32.835  1.00  0.00     0.037 A 
BRANCH  27  41
ATOM     41  C   UNL A   1      44.835  33.100  28.250  1.00  0.00     0.057 A 
ATOM     42  C   UNL A   1      43.718  33.945  28.098  1.00  0.00     0.134 A 
ATOM     43  C   UNL A   1      45.968  33.465  27.496  1.00  0.00     0.134 A 
ATOM     44  F   UNL A   1      42.572  33.699  28.750  1.00  0.00    -0.206 F 
ATOM     45  C   UNL A   1      43.708  35.026  27.207  1.00  0.00     0.040 A 
ATOM     46  C   UNL A   1      45.984  34.572  26.641  1.00  0.00     0.040 A 
ATOM     47  F   UNL A   1      47.077  32.716  27.472  1.00  0.00    -0.206 F 
ATOM     48  C   UNL A   1      44.842  35.338  26.469  1.00  0.00     0.006 A 
ENDBRANCH  27  41
BRANCH  28  49
ATOM     49  C   UNL A   1      36.975  31.511  30.852  1.00  0.00     0.057 A 
ATOM     50  C   UNL A   1      36.128  31.712  31.949  1.00  0.00     0.134 A 
ATOM     51  C   UNL A   1      36.561  32.083  29.636  1.00  0.00     0.134 A 
ATOM     52  F   UNL A   1      36.461  31.246  33.161  1.00  0.00    -0.206 F 
ATOM     53  C   UNL A   1      34.941  32.451  31.846  1.00  0.00     0.040 A 
ATOM     54  C   UNL A   1      35.375  32.813  29.516  1.00  0.00     0.040 A 
ATOM     55  F   UNL A   1      37.337  32.027  28.544  1.00  0.00    -0.206 F 
ATOM     56  C   UNL A   1      34.566  33.011  30.628  1.00  0.00     0.006 A 
ENDBRANCH  28  49
BRANCH  40  57
ATOM     57  C   UNL A   1      42.361  30.410  33.960  1.00  0.00     0.057 A 
ATOM     58  C   UNL A   1      42.325  30.786  35.312  1.00  0.00     0.134 A 
ATOM     59  C   UNL A   1      42.031  29.085  33.659  1.00  0.00     0.134 A 
ATOM     60  F   UNL A   1      42.523  32.058  35.683  1.00  0.00    -0.206 F 
ATOM     61  C   UNL A   1      42.014  29.870  36.320  1.00  0.00     0.040 A 
ATOM     62  C   UNL A   1      41.687  28.169  34.656  1.00  0.00     0.040 A 
ATOM     63  F   UNL A   1      41.983  28.672  32.383  1.00  0.00    -0.206 F 
ATOM     64  C   UNL A   1      41.685  28.558  35.993  1.00  0.00     0.006 A 
ENDBRANCH  40  57
ENDBRANCH  14  15
ENDBRANCH   7   9
ENDBRANCH   4   5
ENDBRANCH   3   4
ENDBRANCH   2   3
ENDBRANCH   1   2
BRANCH   1  65
ATOM     65  C   UNL A   1      35.617  21.794  26.043  1.00  0.00     0.021 C 
BRANCH  65  66
ATOM     66  C   UNL A   1      34.184  21.642  26.532  1.00  0.00     0.116 C 
BRANCH  66  67
ATOM     67  N   UNL A   1      33.254  21.297  25.471  1.00  0.00    -0.351 N 
ATOM     68  C   UNL A   1      32.150  21.998  25.048  1.00  0.00     0.274 C 
ATOM     69  H   UNL A   1      33.439  20.456  24.994  1.00  0.00     0.163 HD
ATOM     70  O   UNL A   1      31.444  21.522  24.160  1.00  0.00    -0.267 OA
BRANCH  68  71
ATOM     71  C   UNL A   1      31.857  23.286  25.661  1.00  0.00     0.178 A 
ATOM     72  N   UNL A   1      31.509  23.402  26.984  1.00  0.00    -0.124 NA
ATOM     73  C   UNL A   1      31.959  24.553  25.099  1.00  0.00     0.108 A 
ATOM     74  N   UNL A   1      31.459  24.691  27.289  1.00  0.00    -0.061 NA
ATOM     75  N   UNL A   1      31.593  25.393  26.144  1.00  0.00    -0.212 N 
BRANCH  73  76
ATOM     76  C   UNL A   1      32.518  24.997  23.820  1.00  0.00     0.006 A 
ATOM     77  C   UNL A   1      33.787  25.563  23.739  1.00  0.00     0.030 A 
ATOM     78  C   UNL A   1      31.747  24.894  22.654  1.00  0.00     0.030 A 
ATOM     79  C   UNL A   1      34.229  25.994  22.498  1.00  0.00     0.111 A 
ATOM     80  C   UNL A   1      32.275  25.355  21.462  1.00  0.00     0.111 A 
ATOM     81  N   UNL A   1      33.499  25.909  21.363  1.00  0.00    -0.265 NA
ENDBRANCH  73  76
BRANCH  75  82
ATOM     82  C   UNL A   1      31.475  26.801  26.105  1.00  0.00     0.071 A 
ATOM     83  C   UNL A   1      32.053  27.572  27.116  1.00  0.00     0.029 A 
ATOM     84  C   UNL A   1      30.872  27.406  24.991  1.00  0.00     0.075 A 
ATOM     85  C   UNL A   1      32.114  28.954  26.949  1.00  0.00     0.006 A 
ATOM     86  C   UNL A   1      30.907  28.788  24.841  1.00  0.00     0.131 A 
ATOM     87  C   UNL A   1      31.555  29.555  25.815  1.00  0.00     0.047 A 
BRANCH  86  88
ATOM     88  O   UNL A   1      30.378  29.496  23.800  1.00  0.00    -0.406 OA
BRANCH  88  89
ATOM     89  C   UNL A   1      30.743  29.104  22.484  1.00  0.00     0.573 C 
ATOM     90  F   UNL A   1      30.133  27.951  22.132  1.00  0.00    -0.132 F 
ATOM     91  F   UNL A   1      30.431  30.064  21.587  1.00  0.00    -0.132 F 
ATOM     92  F   UNL A   1      32.077  28.904  22.440  1.00  0.00    -0.132 F 
ENDBRANCH  88  89
ENDBRANCH  86  88
ENDBRANCH  75  82
ENDBRANCH  68  71
ENDBRANCH  66  67
ENDBRANCH  65  66
ENDBRANCH   1  65
TORSDOF 17
ENDMDL
