MODEL 1
REMARK VINA RESULT:     -11.8      0.000      0.000
REMARK SMILES Cc1ccc(Nc2c(Cl)cccc2Cl)c(CC(=O)NCCCCCCNC(=O)c2ccc(-c3c4nc(c(-c5c(F)cccc5F)c5ccc([nH]5)c(-c5c(F)cccc5F)c5nc(c(-c6c(F)cccc6F)c6ccc3[nH]6)C=C5)C=C4)cc2)c1
REMARK SMILES IDX 22 1 21 2 20 3 19 4 17 5 18 6 16 8 15 9 1 10 2 11 3 12 83 13
REMARK SMILES IDX 4 14 5 15 6 16 7 18 8 19 13 20 9 21 10 22 12 23 14 24 11 25
REMARK SMILES IDX 23 26 24 27 25 28 26 29 27 30 28 32 29 33 30 34 82 35 31 36
REMARK SMILES IDX 81 37 32 38 33 39 34 40 75 41 35 42 80 43 74 44 76 45 36 46
REMARK SMILES IDX 79 47 73 48 72 49 37 51 63 52 46 53 62 54 47 55 50 56 61 57
REMARK SMILES IDX 77 58 48 59 49 60 60 62 78 63 51 64 38 65 39 66 44 67 40 68
REMARK SMILES IDX 41 69 43 70 45 71 42 72 64 73 65 74 70 75 66 76 67 77 69 78
REMARK SMILES IDX 71 79 68 80 52 81 53 82 58 83 54 84 55 85 57 86 59 87 56 88
REMARK H PARENT 19 7 6 17 26 31 76 50 50 61
REMARK Flexibility Score: inf
ROOT
ATOM      1  C   UNL A   1      35.654  22.364  25.277  1.00  0.00     0.002 C 
ENDROOT
BRANCH   1   2
ATOM      2  C   UNL A   1      34.839  21.808  26.456  1.00  0.00     0.021 C 
BRANCH   2   3
ATOM      3  C   UNL A   1      34.244  22.865  27.391  1.00  0.00     0.116 C 
BRANCH   3   4
ATOM      4  N   UNL A   1      32.805  22.748  27.495  1.00  0.00    -0.356 N 
ATOM      5  C   UNL A   1      31.842  23.577  27.005  1.00  0.00     0.224 C 
ATOM      6  O   UNL A   1      30.669  23.374  27.329  1.00  0.00    -0.275 OA
ATOM      7  H   UNL A   1      32.477  21.960  27.987  1.00  0.00     0.163 HD
BRANCH   5   8
ATOM      8  C   UNL A   1      32.201  24.738  26.095  1.00  0.00     0.137 C 
BRANCH   8   9
ATOM      9  C   UNL A   1      32.530  24.323  24.676  1.00  0.00    -0.015 A 
ATOM     10  C   UNL A   1      32.090  21.146  22.588  1.00  0.00     0.044 C 
ATOM     11  C   UNL A   1      32.469  22.535  23.000  1.00  0.00    -0.051 A 
ATOM     12  C   UNL A   1      33.168  23.360  22.124  1.00  0.00     0.005 A 
ATOM     13  C   UNL A   1      32.134  23.032  24.261  1.00  0.00     0.009 A 
ATOM     14  C   UNL A   1      33.524  24.657  22.506  1.00  0.00     0.026 A 
ATOM     15  C   UNL A   1      33.221  25.165  23.779  1.00  0.00     0.042 A 
BRANCH  15  16
ATOM     16  N   UNL A   1      33.540  26.497  24.128  1.00  0.00    -0.353 N 
ATOM     17  H   UNL A   1      34.500  26.698  24.200  1.00  0.00     0.167 HD
BRANCH  16  18
ATOM     18  C   UNL A   1      32.667  27.582  24.387  1.00  0.00     0.076 A 
ATOM     19  C   UNL A   1      31.624  27.951  23.515  1.00  0.00     0.066 A 
ATOM     20  C   UNL A   1      32.882  28.390  25.524  1.00  0.00     0.066 A 
ATOM     21  Cl  UNL A   1      31.188  26.987  22.143  1.00  0.00    -0.082 Cl
ATOM     22  C   UNL A   1      30.850  29.093  23.759  1.00  0.00     0.023 A 
ATOM     23  C   UNL A   1      32.105  29.528  25.767  1.00  0.00     0.023 A 
ATOM     24  Cl  UNL A   1      34.143  28.021  26.654  1.00  0.00    -0.082 Cl
ATOM     25  C   UNL A   1      31.095  29.884  24.878  1.00  0.00     0.003 A 
ENDBRANCH  16  18
ENDBRANCH  15  16
ENDBRANCH   8   9
ENDBRANCH   5   8
ENDBRANCH   3   4
ENDBRANCH   2   3
ENDBRANCH   1   2
BRANCH   1  26
ATOM     26  C   UNL A   1      36.776  23.355  25.624  1.00  0.00     0.002 C 
BRANCH  26  27
ATOM     27  C   UNL A   1      38.200  22.888  25.315  1.00  0.00     0.021 C 
BRANCH  27  28
ATOM     28  C   UNL A   1      38.965  22.357  26.520  1.00  0.00     0.116 C 
BRANCH  28  29
ATOM     29  N   UNL A   1      40.393  22.634  26.475  1.00  0.00    -0.352 N 
ATOM     30  C   UNL A   1      41.076  23.839  26.513  1.00  0.00     0.251 C 
ATOM     31  H   UNL A   1      40.967  21.838  26.405  1.00  0.00     0.163 HD
ATOM     32  O   UNL A   1      42.290  23.845  26.388  1.00  0.00    -0.269 OA
BRANCH  30  33
ATOM     33  C   UNL A   1      40.363  25.095  26.872  1.00  0.00     0.039 A 
ATOM     34  C   UNL A   1      40.644  26.229  26.095  1.00  0.00     0.014 A 
ATOM     35  C   UNL A   1      39.642  25.230  28.052  1.00  0.00     0.014 A 
ATOM     36  C   UNL A   1      40.474  27.495  26.646  1.00  0.00     0.010 A 
ATOM     37  C   UNL A   1      39.560  26.476  28.641  1.00  0.00     0.010 A 
ATOM     38  C   UNL A   1      40.069  27.592  27.972  1.00  0.00    -0.014 A 
BRANCH  38  39
ATOM     39  C   UNL A   1      40.328  28.758  28.806  1.00  0.00     0.031 A 
ATOM     40  C   UNL A   1      39.325  29.827  28.951  1.00  0.00     0.074 A 
ATOM     41  C   UNL A   1      41.441  28.755  29.576  1.00  0.00     0.049 A 
ATOM     42  N   UNL A   1      39.553  30.945  29.551  1.00  0.00    -0.248 NA
ATOM     43  C   UNL A   1      37.989  29.756  28.365  1.00  0.00     0.031 C 
ATOM     44  C   UNL A   1      41.733  29.588  30.738  1.00  0.00     0.029 A 
ATOM     45  N   UNL A   1      42.661  28.121  29.293  1.00  0.00    -0.354 N 
ATOM     46  C   UNL A   1      38.354  31.592  29.696  1.00  0.00     0.074 A 
ATOM     47  C   UNL A   1      37.446  30.889  28.826  1.00  0.00     0.031 C 
ATOM     48  C   UNL A   1      43.063  29.662  30.893  1.00  0.00     0.029 A 
ATOM     49  C   UNL A   1      43.664  29.015  29.742  1.00  0.00     0.049 A 
ATOM     50  H   UNL A   1      42.793  27.242  28.872  1.00  0.00     0.167 HD
ATOM     51  C   UNL A   1      38.253  32.568  30.641  1.00  0.00     0.037 A 
ATOM     52  C   UNL A   1      44.493  29.628  28.846  1.00  0.00     0.037 A 
ATOM     53  C   UNL A   1      39.579  33.024  31.063  1.00  0.00     0.049 A 
ATOM     54  C   UNL A   1      44.375  31.140  28.800  1.00  0.00     0.074 A 
ATOM     55  C   UNL A   1      40.367  32.877  32.191  1.00  0.00     0.029 A 
ATOM     56  N   UNL A   1      40.401  33.581  30.096  1.00  0.00    -0.354 N 
ATOM     57  N   UNL A   1      43.526  31.839  29.502  1.00  0.00    -0.248 NA
ATOM     58  C   UNL A   1      45.151  31.975  27.879  1.00  0.00     0.031 C 
ATOM     59  C   UNL A   1      41.700  33.266  31.847  1.00  0.00     0.029 A 
ATOM     60  C   UNL A   1      41.707  33.682  30.526  1.00  0.00     0.049 A 
ATOM     61  H   UNL A   1      40.090  33.871  29.208  1.00  0.00     0.167 HD
ATOM     62  C   UNL A   1      43.572  33.145  29.099  1.00  0.00     0.074 A 
ATOM     63  C   UNL A   1      44.616  33.189  28.093  1.00  0.00     0.031 C 
ATOM     64  C   UNL A   1      42.722  34.100  29.572  1.00  0.00     0.037 A 
BRANCH  51  65
ATOM     65  C   UNL A   1      36.963  33.035  31.281  1.00  0.00     0.057 A 
ATOM     66  C   UNL A   1      36.588  32.549  32.549  1.00  0.00     0.134 A 
ATOM     67  C   UNL A   1      35.987  33.846  30.665  1.00  0.00     0.134 A 
ATOM     68  F   UNL A   1      37.395  31.745  33.257  1.00  0.00    -0.206 F 
ATOM     69  C   UNL A   1      35.351  32.840  33.144  1.00  0.00     0.040 A 
ATOM     70  C   UNL A   1      34.771  34.187  31.271  1.00  0.00     0.040 A 
ATOM     71  F   UNL A   1      36.115  34.309  29.417  1.00  0.00    -0.206 F 
ATOM     72  C   UNL A   1      34.439  33.671  32.511  1.00  0.00     0.006 A 
ENDBRANCH  51  65
BRANCH  52  73
ATOM     73  C   UNL A   1      44.821  28.763  27.681  1.00  0.00     0.057 A 
ATOM     74  C   UNL A   1      45.779  27.746  27.847  1.00  0.00     0.134 A 
ATOM     75  C   UNL A   1      43.980  28.672  26.571  1.00  0.00     0.134 A 
ATOM     76  F   UNL A   1      46.620  27.775  28.893  1.00  0.00    -0.206 F 
ATOM     77  C   UNL A   1      45.817  26.627  27.012  1.00  0.00     0.040 A 
ATOM     78  C   UNL A   1      44.021  27.563  25.717  1.00  0.00     0.040 A 
ATOM     79  F   UNL A   1      43.025  29.589  26.358  1.00  0.00    -0.206 F 
ATOM     80  C   UNL A   1      44.913  26.519  25.961  1.00  0.00     0.006 A 
ENDBRANCH  52  73
BRANCH  64  81
ATOM     81  C   UNL A   1      42.792  35.525  29.122  1.00  0.00     0.057 A 
ATOM     82  C   UNL A   1      43.398  36.517  29.905  1.00  0.00     0.134 A 
ATOM     83  C   UNL A   1      42.151  35.964  27.950  1.00  0.00     0.134 A 
ATOM     84  F   UNL A   1      44.016  36.203  31.054  1.00  0.00    -0.206 F 
ATOM     85  C   UNL A   1      43.377  37.867  29.538  1.00  0.00     0.040 A 
ATOM     86  C   UNL A   1      42.087  37.313  27.595  1.00  0.00     0.040 A 
ATOM     87  F   UNL A   1      41.584  35.097  27.098  1.00  0.00    -0.206 F 
ATOM     88  C   UNL A   1      42.705  38.271  28.389  1.00  0.00     0.006 A 
ENDBRANCH  64  81
ENDBRANCH  38  39
ENDBRANCH  30  33
ENDBRANCH  28  29
ENDBRANCH  27  28
ENDBRANCH  26  27
ENDBRANCH   1  26
TORSDOF 16
ENDMDL
MODEL 2
REMARK VINA RESULT:     -11.8      3.577      8.705
REMARK SMILES Cc1ccc(Nc2c(Cl)cccc2Cl)c(CC(=O)NCCCCCCNC(=O)c2ccc(-c3c4nc(c(-c5c(F)cccc5F)c5ccc([nH]5)c(-c5c(F)cccc5F)c5nc(c(-c6c(F)cccc6F)c6ccc3[nH]6)C=C5)C=C4)cc2)c1
REMARK SMILES IDX 22 1 21 2 20 3 19 4 17 5 18 6 16 8 15 9 1 10 2 11 3 12 83 13
REMARK SMILES IDX 4 14 5 15 6 16 7 18 8 19 13 20 9 21 10 22 12 23 14 24 11 25
REMARK SMILES IDX 23 26 24 27 25 28 26 29 27 30 28 32 29 33 30 34 82 35 31 36
REMARK SMILES IDX 81 37 32 38 33 39 34 40 75 41 35 42 80 43 74 44 76 45 36 46
REMARK SMILES IDX 79 47 73 48 72 49 37 51 63 52 46 53 62 54 47 55 50 56 61 57
REMARK SMILES IDX 77 58 48 59 49 60 60 62 78 63 51 64 38 65 39 66 44 67 40 68
REMARK SMILES IDX 41 69 43 70 45 71 42 72 64 73 65 74 70 75 66 76 67 77 69 78
REMARK SMILES IDX 71 79 68 80 52 81 53 82 58 83 54 84 55 85 57 86 59 87 56 88
REMARK H PARENT 19 7 6 17 26 31 76 50 50 61
REMARK Flexibility Score: inf
ROOT
ATOM      1  C   UNL A   1      32.580  27.302  26.408  1.00  0.00     0.002 C 
ENDROOT
BRANCH   1   2
ATOM      2  C   UNL A   1      31.275  27.186  25.605  1.00  0.00     0.021 C 
BRANCH   2   3
ATOM      3  C   UNL A   1      30.350  26.041  26.029  1.00  0.00     0.116 C 
BRANCH   3   4
ATOM      4  N   UNL A   1      31.022  25.092  26.890  1.00  0.00    -0.356 N 
ATOM      5  C   UNL A   1      31.401  23.812  26.621  1.00  0.00     0.224 C 
ATOM      6  O   UNL A   1      31.834  23.118  27.544  1.00  0.00    -0.275 OA
ATOM      7  H   UNL A   1      31.235  25.416  27.795  1.00  0.00     0.163 HD
BRANCH   5   8
ATOM      8  C   UNL A   1      31.277  23.240  25.219  1.00  0.00     0.137 C 
BRANCH   8   9
ATOM      9  C   UNL A   1      32.231  23.860  24.219  1.00  0.00    -0.015 A 
ATOM     10  C   UNL A   1      31.874  26.034  21.090  1.00  0.00     0.044 C 
ATOM     11  C   UNL A   1      32.474  25.216  22.192  1.00  0.00    -0.051 A 
ATOM     12  C   UNL A   1      33.846  24.982  22.224  1.00  0.00     0.005 A 
ATOM     13  C   UNL A   1      31.680  24.673  23.204  1.00  0.00     0.009 A 
ATOM     14  C   UNL A   1      34.408  24.218  23.252  1.00  0.00     0.026 A 
ATOM     15  C   UNL A   1      33.624  23.641  24.263  1.00  0.00     0.042 A 
BRANCH  15  16
ATOM     16  N   UNL A   1      34.217  22.918  25.323  1.00  0.00    -0.353 N 
ATOM     17  H   UNL A   1      33.814  23.059  26.209  1.00  0.00     0.167 HD
BRANCH  16  18
ATOM     18  C   UNL A   1      35.311  22.020  25.283  1.00  0.00     0.076 A 
ATOM     19  C   UNL A   1      36.647  22.431  25.467  1.00  0.00     0.066 A 
ATOM     20  C   UNL A   1      35.085  20.662  24.972  1.00  0.00     0.066 A 
ATOM     21  Cl  UNL A   1      37.053  24.043  25.956  1.00  0.00    -0.082 Cl
ATOM     22  C   UNL A   1      37.707  21.528  25.318  1.00  0.00     0.023 A 
ATOM     23  C   UNL A   1      36.145  19.762  24.826  1.00  0.00     0.023 A 
ATOM     24  Cl  UNL A   1      33.479  20.061  24.724  1.00  0.00    -0.082 Cl
ATOM     25  C   UNL A   1      37.457  20.197  24.990  1.00  0.00     0.003 A 
ENDBRANCH  16  18
ENDBRANCH  15  16
ENDBRANCH   8   9
ENDBRANCH   5   8
ENDBRANCH   3   4
ENDBRANCH   2   3
ENDBRANCH   1   2
BRANCH   1  26
ATOM     26  C   UNL A   1      33.645  28.260  25.851  1.00  0.00     0.002 C 
BRANCH  26  27
ATOM     27  C   UNL A   1      33.452  29.741  26.182  1.00  0.00     0.021 C 
BRANCH  27  28
ATOM     28  C   UNL A   1      33.309  30.042  27.668  1.00  0.00     0.116 C 
BRANCH  28  29
ATOM     29  N   UNL A   1      34.140  31.146  28.125  1.00  0.00    -0.352 N 
ATOM     30  C   UNL A   1      35.413  31.147  28.670  1.00  0.00     0.251 C 
ATOM     31  H   UNL A   1      33.732  32.037  28.032  1.00  0.00     0.163 HD
ATOM     32  O   UNL A   1      35.901  32.197  29.055  1.00  0.00    -0.269 OA
BRANCH  30  33
ATOM     33  C   UNL A   1      36.246  29.913  28.634  1.00  0.00     0.039 A 
ATOM     34  C   UNL A   1      36.498  29.281  29.860  1.00  0.00     0.014 A 
ATOM     35  C   UNL A   1      36.950  29.524  27.500  1.00  0.00     0.014 A 
ATOM     36  C   UNL A   1      37.640  28.499  30.005  1.00  0.00     0.010 A 
ATOM     37  C   UNL A   1      38.132  28.830  27.659  1.00  0.00     0.010 A 
ATOM     38  C   UNL A   1      38.520  28.406  28.934  1.00  0.00    -0.014 A 
BRANCH  38  39
ATOM     39  C   UNL A   1      39.930  28.074  29.081  1.00  0.00     0.031 A 
ATOM     40  C   UNL A   1      40.457  26.775  28.627  1.00  0.00     0.074 A 
ATOM     41  C   UNL A   1      40.774  29.048  29.491  1.00  0.00     0.049 A 
ATOM     42  N   UNL A   1      41.657  26.367  28.864  1.00  0.00    -0.248 NA
ATOM     43  C   UNL A   1      39.646  25.785  27.921  1.00  0.00     0.031 C 
ATOM     44  C   UNL A   1      42.228  29.092  29.363  1.00  0.00     0.029 A 
ATOM     45  N   UNL A   1      40.472  30.125  30.341  1.00  0.00    -0.354 N 
ATOM     46  C   UNL A   1      41.871  25.242  28.111  1.00  0.00     0.074 A 
ATOM     47  C   UNL A   1      40.561  24.845  27.661  1.00  0.00     0.031 C 
ATOM     48  C   UNL A   1      42.719  29.912  30.304  1.00  0.00     0.029 A 
ATOM     49  C   UNL A   1      41.612  30.288  31.164  1.00  0.00     0.049 A 
ATOM     50  H   UNL A   1      39.643  30.655  30.360  1.00  0.00     0.167 HD
ATOM     51  C   UNL A   1      43.155  24.864  27.859  1.00  0.00     0.037 A 
ATOM     52  C   UNL A   1      41.540  30.025  32.503  1.00  0.00     0.037 A 
ATOM     53  C   UNL A   1      44.082  25.519  28.785  1.00  0.00     0.049 A 
ATOM     54  C   UNL A   1      42.422  28.886  32.978  1.00  0.00     0.074 A 
ATOM     55  C   UNL A   1      45.020  26.531  28.701  1.00  0.00     0.029 A 
ATOM     56  N   UNL A   1      43.920  25.263  30.138  1.00  0.00    -0.354 N 
ATOM     57  N   UNL A   1      43.167  28.151  32.198  1.00  0.00    -0.248 NA
ATOM     58  C   UNL A   1      42.457  28.428  34.370  1.00  0.00     0.031 C 
ATOM     59  C   UNL A   1      45.341  26.943  30.033  1.00  0.00     0.029 A 
ATOM     60  C   UNL A   1      44.626  26.155  30.918  1.00  0.00     0.049 A 
ATOM     61  H   UNL A   1      43.368  24.533  30.499  1.00  0.00     0.167 HD
ATOM     62  C   UNL A   1      43.698  27.118  32.922  1.00  0.00     0.074 A 
ATOM     63  C   UNL A   1      43.241  27.341  34.280  1.00  0.00     0.031 C 
ATOM     64  C   UNL A   1      44.434  26.118  32.360  1.00  0.00     0.037 A 
BRANCH  51  65
ATOM     65  C   UNL A   1      43.599  23.999  26.700  1.00  0.00     0.057 A 
ATOM     66  C   UNL A   1      43.531  22.595  26.801  1.00  0.00     0.134 A 
ATOM     67  C   UNL A   1      44.220  24.461  25.521  1.00  0.00     0.134 A 
ATOM     68  F   UNL A   1      42.991  21.996  27.872  1.00  0.00    -0.206 F 
ATOM     69  C   UNL A   1      44.042  21.733  25.819  1.00  0.00     0.040 A 
ATOM     70  C   UNL A   1      44.686  23.610  24.509  1.00  0.00     0.040 A 
ATOM     71  F   UNL A   1      44.474  25.754  25.297  1.00  0.00    -0.206 F 
ATOM     72  C   UNL A   1      44.613  22.238  24.661  1.00  0.00     0.006 A 
ENDBRANCH  51  65
BRANCH  52  73
ATOM     73  C   UNL A   1      40.219  30.381  33.087  1.00  0.00     0.057 A 
ATOM     74  C   UNL A   1      39.912  31.740  33.281  1.00  0.00     0.134 A 
ATOM     75  C   UNL A   1      39.154  29.478  33.105  1.00  0.00     0.134 A 
ATOM     76  F   UNL A   1      40.890  32.660  33.277  1.00  0.00    -0.206 F 
ATOM     77  C   UNL A   1      38.594  32.192  33.367  1.00  0.00     0.040 A 
ATOM     78  C   UNL A   1      37.829  29.919  33.210  1.00  0.00     0.040 A 
ATOM     79  F   UNL A   1      39.362  28.169  32.903  1.00  0.00    -0.206 F 
ATOM     80  C   UNL A   1      37.546  31.281  33.299  1.00  0.00     0.006 A 
ENDBRANCH  52  73
BRANCH  64  81
ATOM     81  C   UNL A   1      45.010  25.000  33.169  1.00  0.00     0.057 A 
ATOM     82  C   UNL A   1      46.184  25.160  33.918  1.00  0.00     0.134 A 
ATOM     83  C   UNL A   1      44.473  23.702  33.126  1.00  0.00     0.134 A 
ATOM     84  F   UNL A   1      46.788  26.355  34.003  1.00  0.00    -0.206 F 
ATOM     85  C   UNL A   1      46.784  24.091  34.594  1.00  0.00     0.040 A 
ATOM     86  C   UNL A   1      45.085  22.618  33.761  1.00  0.00     0.040 A 
ATOM     87  F   UNL A   1      43.324  23.443  32.484  1.00  0.00    -0.206 F 
ATOM     88  C   UNL A   1      46.244  22.812  34.503  1.00  0.00     0.006 A 
ENDBRANCH  64  81
ENDBRANCH  38  39
ENDBRANCH  30  33
ENDBRANCH  28  29
ENDBRANCH  27  28
ENDBRANCH  26  27
ENDBRANCH   1  26
TORSDOF 16
ENDMDL
MODEL 3
REMARK VINA RESULT:     -11.7      3.934      9.277
REMARK SMILES Cc1ccc(Nc2c(Cl)cccc2Cl)c(CC(=O)NCCCCCCNC(=O)c2ccc(-c3c4nc(c(-c5c(F)cccc5F)c5ccc([nH]5)c(-c5c(F)cccc5F)c5nc(c(-c6c(F)cccc6F)c6ccc3[nH]6)C=C5)C=C4)cc2)c1
REMARK SMILES IDX 22 1 21 2 20 3 19 4 17 5 18 6 16 8 15 9 1 10 2 11 3 12 83 13
REMARK SMILES IDX 4 14 5 15 6 16 7 18 8 19 13 20 9 21 10 22 12 23 14 24 11 25
REMARK SMILES IDX 23 26 24 27 25 28 26 29 27 30 28 32 29 33 30 34 82 35 31 36
REMARK SMILES IDX 81 37 32 38 33 39 34 40 75 41 35 42 80 43 74 44 76 45 36 46
REMARK SMILES IDX 79 47 73 48 72 49 37 51 63 52 46 53 62 54 47 55 50 56 61 57
REMARK SMILES IDX 77 58 48 59 49 60 60 62 78 63 51 64 38 65 39 66 44 67 40 68
REMARK SMILES IDX 41 69 43 70 45 71 42 72 64 73 65 74 70 75 66 76 67 77 69 78
REMARK SMILES IDX 71 79 68 80 52 81 53 82 58 83 54 84 55 85 57 86 59 87 56 88
REMARK H PARENT 19 7 6 17 26 31 76 50 50 61
REMARK Flexibility Score: inf
ROOT
ATOM      1  C   UNL A   1      31.656  28.747  27.504  1.00  0.00     0.002 C 
ENDROOT
BRANCH   1   2
ATOM      2  C   UNL A   1      31.484  27.378  26.828  1.00  0.00     0.021 C 
BRANCH   2   3
ATOM      3  C   UNL A   1      32.741  26.824  26.151  1.00  0.00     0.116 C 
BRANCH   3   4
ATOM      4  N   UNL A   1      32.441  26.199  24.880  1.00  0.00    -0.356 N 
ATOM      5  C   UNL A   1      32.404  24.875  24.567  1.00  0.00     0.224 C 
ATOM      6  O   UNL A   1      32.269  24.552  23.384  1.00  0.00    -0.275 OA
ATOM      7  H   UNL A   1      32.236  26.817  24.141  1.00  0.00     0.163 HD
BRANCH   5   8
ATOM      8  C   UNL A   1      32.544  23.814  25.644  1.00  0.00     0.137 C 
BRANCH   8   9
ATOM      9  C   UNL A   1      33.840  23.033  25.569  1.00  0.00    -0.015 A 
ATOM     10  C   UNL A   1      37.541  23.827  26.133  1.00  0.00     0.044 C 
ATOM     11  C   UNL A   1      36.279  23.090  25.804  1.00  0.00    -0.051 A 
ATOM     12  C   UNL A   1      36.331  21.768  25.370  1.00  0.00     0.005 A 
ATOM     13  C   UNL A   1      35.031  23.705  25.924  1.00  0.00     0.009 A 
ATOM     14  C   UNL A   1      35.155  21.079  25.062  1.00  0.00     0.026 A 
ATOM     15  C   UNL A   1      33.893  21.688  25.149  1.00  0.00     0.042 A 
BRANCH  15  16
ATOM     16  N   UNL A   1      32.711  20.958  24.886  1.00  0.00    -0.353 N 
ATOM     17  H   UNL A   1      31.909  21.261  25.368  1.00  0.00     0.167 HD
BRANCH  16  18
ATOM     18  C   UNL A   1      32.524  19.850  24.024  1.00  0.00     0.076 A 
ATOM     19  C   UNL A   1      32.679  18.515  24.449  1.00  0.00     0.066 A 
ATOM     20  C   UNL A   1      32.247  20.071  22.658  1.00  0.00     0.066 A 
ATOM     21  Cl  UNL A   1      32.917  18.101  26.115  1.00  0.00    -0.082 Cl
ATOM     22  C   UNL A   1      32.586  17.453  23.539  1.00  0.00     0.023 A 
ATOM     23  C   UNL A   1      32.151  19.008  21.753  1.00  0.00     0.023 A 
ATOM     24  Cl  UNL A   1      32.044  21.676  22.039  1.00  0.00    -0.082 Cl
ATOM     25  C   UNL A   1      32.330  17.700  22.193  1.00  0.00     0.003 A 
ENDBRANCH  16  18
ENDBRANCH  15  16
ENDBRANCH   8   9
ENDBRANCH   5   8
ENDBRANCH   3   4
ENDBRANCH   2   3
ENDBRANCH   1   2
BRANCH   1  26
ATOM     26  C   UNL A   1      32.727  29.676  26.911  1.00  0.00     0.002 C 
BRANCH  26  27
ATOM     27  C   UNL A   1      33.972  29.898  27.771  1.00  0.00     0.021 C 
BRANCH  27  28
ATOM     28  C   UNL A   1      34.709  31.201  27.490  1.00  0.00     0.116 C 
BRANCH  28  29
ATOM     29  N   UNL A   1      35.332  31.787  28.668  1.00  0.00    -0.352 N 
ATOM     30  C   UNL A   1      36.321  31.291  29.502  1.00  0.00     0.251 C 
ATOM     31  H   UNL A   1      34.997  32.679  28.913  1.00  0.00     0.163 HD
ATOM     32  O   UNL A   1      36.649  31.928  30.489  1.00  0.00    -0.269 OA
BRANCH  30  33
ATOM     33  C   UNL A   1      37.094  30.079  29.111  1.00  0.00     0.039 A 
ATOM     34  C   UNL A   1      37.137  29.028  30.038  1.00  0.00     0.014 A 
ATOM     35  C   UNL A   1      37.937  30.060  28.007  1.00  0.00     0.014 A 
ATOM     36  C   UNL A   1      38.209  28.142  30.018  1.00  0.00     0.010 A 
ATOM     37  C   UNL A   1      39.052  29.247  28.037  1.00  0.00     0.010 A 
ATOM     38  C   UNL A   1      39.231  28.357  29.101  1.00  0.00    -0.014 A 
BRANCH  38  39
ATOM     39  C   UNL A   1      40.589  27.862  29.282  1.00  0.00     0.031 A 
ATOM     40  C   UNL A   1      40.989  26.537  28.776  1.00  0.00     0.074 A 
ATOM     41  C   UNL A   1      41.516  28.715  29.776  1.00  0.00     0.049 A 
ATOM     42  N   UNL A   1      42.125  25.987  29.034  1.00  0.00    -0.248 NA
ATOM     43  C   UNL A   1      40.105  25.682  27.987  1.00  0.00     0.031 C 
ATOM     44  C   UNL A   1      42.970  28.602  29.704  1.00  0.00     0.029 A 
ATOM     45  N   UNL A   1      41.298  29.773  30.672  1.00  0.00    -0.354 N 
ATOM     46  C   UNL A   1      42.246  24.884  28.229  1.00  0.00     0.074 A 
ATOM     47  C   UNL A   1      40.922  24.659  27.709  1.00  0.00     0.031 C 
ATOM     48  C   UNL A   1      43.508  29.313  30.707  1.00  0.00     0.029 A 
ATOM     49  C   UNL A   1      42.413  29.765  31.545  1.00  0.00     0.049 A 
ATOM     50  H   UNL A   1      40.532  30.391  30.690  1.00  0.00     0.167 HD
ATOM     51  C   UNL A   1      43.491  24.379  28.004  1.00  0.00     0.037 A 
ATOM     52  C   UNL A   1      42.255  29.445  32.863  1.00  0.00     0.037 A 
ATOM     53  C   UNL A   1      44.444  24.877  28.999  1.00  0.00     0.049 A 
ATOM     54  C   UNL A   1      42.986  28.192  33.307  1.00  0.00     0.074 A 
ATOM     55  C   UNL A   1      45.490  25.782  29.005  1.00  0.00     0.029 A 
ATOM     56  N   UNL A   1      44.196  24.573  30.328  1.00  0.00    -0.354 N 
ATOM     57  N   UNL A   1      43.678  27.419  32.516  1.00  0.00    -0.248 NA
ATOM     58  C   UNL A   1      42.910  27.662  34.671  1.00  0.00     0.031 C 
ATOM     59  C   UNL A   1      45.797  26.087  30.369  1.00  0.00     0.029 A 
ATOM     60  C   UNL A   1      44.962  25.339  31.182  1.00  0.00     0.049 A 
ATOM     61  H   UNL A   1      43.553  23.892  30.628  1.00  0.00     0.167 HD
ATOM     62  C   UNL A   1      44.061  26.298  33.200  1.00  0.00     0.074 A 
ATOM     63  C   UNL A   1      43.574  26.500  34.551  1.00  0.00     0.031 C 
ATOM     64  C   UNL A   1      44.706  25.251  32.611  1.00  0.00     0.037 A 
BRANCH  51  65
ATOM     65  C   UNL A   1      43.887  23.529  26.816  1.00  0.00     0.057 A 
ATOM     66  C   UNL A   1      44.597  24.101  25.743  1.00  0.00     0.134 A 
ATOM     67  C   UNL A   1      43.496  22.191  26.598  1.00  0.00     0.134 A 
ATOM     68  F   UNL A   1      45.021  25.374  25.784  1.00  0.00    -0.206 F 
ATOM     69  C   UNL A   1      44.885  23.406  24.559  1.00  0.00     0.040 A 
ATOM     70  C   UNL A   1      43.824  21.470  25.441  1.00  0.00     0.040 A 
ATOM     71  F   UNL A   1      42.722  21.515  27.452  1.00  0.00    -0.206 F 
ATOM     72  C   UNL A   1      44.509  22.081  24.407  1.00  0.00     0.006 A 
ENDBRANCH  51  65
BRANCH  52  73
ATOM     73  C   UNL A   1      40.957  29.916  33.417  1.00  0.00     0.057 A 
ATOM     74  C   UNL A   1      40.829  31.271  33.771  1.00  0.00     0.134 A 
ATOM     75  C   UNL A   1      39.779  29.184  33.259  1.00  0.00     0.134 A 
ATOM     76  F   UNL A   1      41.922  32.032  33.940  1.00  0.00    -0.206 F 
ATOM     77  C   UNL A   1      39.583  31.898  33.844  1.00  0.00     0.040 A 
ATOM     78  C   UNL A   1      38.524  29.797  33.349  1.00  0.00     0.040 A 
ATOM     79  F   UNL A   1      39.818  27.892  32.899  1.00  0.00    -0.206 F 
ATOM     80  C   UNL A   1      38.426  31.166  33.601  1.00  0.00     0.006 A 
ENDBRANCH  52  73
BRANCH  64  81
ATOM     81  C   UNL A   1      45.121  24.036  33.378  1.00  0.00     0.057 A 
ATOM     82  C   UNL A   1      44.249  22.958  33.581  1.00  0.00     0.134 A 
ATOM     83  C   UNL A   1      46.363  23.962  34.033  1.00  0.00     0.134 A 
ATOM     84  F   UNL A   1      43.031  22.944  33.017  1.00  0.00    -0.206 F 
ATOM     85  C   UNL A   1      44.595  21.864  34.382  1.00  0.00     0.040 A 
ATOM     86  C   UNL A   1      46.704  22.896  34.870  1.00  0.00     0.040 A 
ATOM     87  F   UNL A   1      47.296  24.911  33.869  1.00  0.00    -0.206 F 
ATOM     88  C   UNL A   1      45.819  21.839  35.043  1.00  0.00     0.006 A 
ENDBRANCH  64  81
ENDBRANCH  38  39
ENDBRANCH  30  33
ENDBRANCH  28  29
ENDBRANCH  27  28
ENDBRANCH  26  27
ENDBRANCH   1  26
TORSDOF 16
ENDMDL
