MODEL 1
REMARK VINA RESULT:     -12.4      0.000      0.000
REMARK SMILES Cc1cc(C[N@H+]2CC[C@@H](C(=O)NCCCCCCNC(=O)c3ccc(-c4c5nc(c(-c6c(F)cccc6F)c6ccc([nH]6)c(-c6c(F)cccc6F)c6nc(c(-c7c(F)cccc7F)c7ccc4[nH]7)C=C6)C=C5)cc3)[C@@H]2C)ccc1Br
REMARK SMILES IDX 15 1 14 2 13 3 12 4 10 5 11 6 9 8 6 9 7 10 76 11 8 13 77 14
REMARK SMILES IDX 5 15 4 16 1 17 2 18 3 19 80 20 79 21 81 22 78 23 16 24 17 25
REMARK SMILES IDX 18 26 19 27 20 28 21 30 22 31 23 32 75 33 24 34 74 35 25 36
REMARK SMILES IDX 26 37 27 38 68 39 28 40 73 41 67 42 69 43 29 44 72 45 66 46
REMARK SMILES IDX 65 47 30 49 56 50 39 51 55 52 40 53 43 54 54 55 70 56 41 57
REMARK SMILES IDX 42 58 53 60 71 61 44 62 31 63 32 64 37 65 33 66 34 67 36 68
REMARK SMILES IDX 38 69 35 70 57 71 58 72 63 73 59 74 60 75 62 76 64 77 61 78
REMARK SMILES IDX 45 79 46 80 51 81 47 82 48 83 50 84 52 85 49 86
REMARK H PARENT 12 7 6 12 19 29 69 48 43 59
REMARK Flexibility Score: inf
ROOT
ATOM      1  C   UNL A   1      38.729  22.189  26.065  1.00  0.00     0.002 C 
ENDROOT
BRANCH   1   2
ATOM      2  C   UNL A   1      37.901  23.725  26.122  1.00  0.00     0.021 C 
BRANCH   2   3
ATOM      3  C   UNL A   1      35.966  24.456  25.400  1.00  0.00     0.116 C 
BRANCH   3   4
ATOM      4  N   UNL A   1      35.075  24.047  24.136  1.00  0.00    -0.356 N 
ATOM      5  C   UNL A   1      34.311  22.979  23.800  1.00  0.00     0.229 C 
ATOM      6  O   UNL A   1      33.827  22.997  22.661  1.00  0.00    -0.275 OA
ATOM      7  H   UNL A   1      35.083  24.737  23.433  1.00  0.00     0.163 HD
BRANCH   5   8
ATOM      8  C   UNL A   1      34.030  21.791  24.708  1.00  0.00     0.142 C 
ATOM      9  N   UNL A   1      31.984  21.433  25.935  1.00  0.00    -0.328 N 
ATOM     10  C   UNL A   1      32.040  20.410  24.891  1.00  0.00     0.263 C 
ATOM     11  C   UNL A   1      33.282  22.116  25.999  1.00  0.00     0.193 C 
ATOM     12  H   UNL A   1      31.822  20.954  26.821  1.00  0.00     0.348 HD
ATOM     13  C   UNL A   1      33.286  20.645  24.047  1.00  0.00     0.081 C 
ATOM     14  C   UNL A   1      34.031  21.613  27.235  1.00  0.00     0.076 C 
BRANCH   9  15
ATOM     15  C   UNL A   1      30.817  22.322  25.908  1.00  0.00     0.299 C 
BRANCH  15  16
ATOM     16  C   UNL A   1      31.095  23.723  25.413  1.00  0.00     0.007 A 
ATOM     17  C   UNL A   1      31.751  27.801  27.136  1.00  0.00     0.045 C 
ATOM     18  C   UNL A   1      31.429  26.750  26.121  1.00  0.00    -0.036 A 
ATOM     19  C   UNL A   1      31.436  25.019  26.624  1.00  0.00     0.014 A 
ATOM     20  C   UNL A   1      31.037  27.190  24.411  1.00  0.00     0.020 A 
ATOM     21  C   UNL A   1      30.737  25.896  23.184  1.00  0.00     0.016 A 
ATOM     22  Br  UNL A   1      30.716  28.993  23.924  1.00  0.00    -0.051 Br
ATOM     23  C   UNL A   1      30.774  24.161  23.683  1.00  0.00     0.011 A 
ENDBRANCH  15  16
ENDBRANCH   9  15
ENDBRANCH   5   8
ENDBRANCH   3   4
ENDBRANCH   2   3
ENDBRANCH   1   2
BRANCH   1  24
ATOM     24  C   UNL A   1      38.132  21.112  25.141  1.00  0.00     0.002 C 
BRANCH  24  25
ATOM     25  C   UNL A   1      38.863  19.777  25.142  1.00  0.00     0.021 C 
BRANCH  25  26
ATOM     26  C   UNL A   1      39.718  19.597  26.383  1.00  0.00     0.116 C 
BRANCH  26  27
ATOM     27  N   UNL A   1      41.016  19.045  26.012  1.00  0.00    -0.352 N 
ATOM     28  C   UNL A   1      42.153  19.764  25.731  1.00  0.00     0.251 C 
ATOM     29  H   UNL A   1      41.085  18.064  25.956  1.00  0.00     0.163 HD
ATOM     30  O   UNL A   1      43.022  19.329  24.985  1.00  0.00    -0.269 OA
BRANCH  28  31
ATOM     31  C   UNL A   1      42.294  21.082  26.374  1.00  0.00     0.039 A 
ATOM     32  C   UNL A   1      42.292  21.197  27.763  1.00  0.00     0.014 A 
ATOM     33  C   UNL A   1      42.478  22.202  25.559  1.00  0.00     0.014 A 
ATOM     34  C   UNL A   1      42.506  22.451  28.333  1.00  0.00     0.010 A 
ATOM     35  C   UNL A   1      42.828  23.412  26.127  1.00  0.00     0.010 A 
ATOM     36  C   UNL A   1      42.794  23.561  27.518  1.00  0.00    -0.014 A 
BRANCH  36  37
ATOM     37  C   UNL A   1      43.009  24.906  28.090  1.00  0.00     0.031 A 
ATOM     38  C   UNL A   1      44.394  25.322  28.508  1.00  0.00     0.074 A 
ATOM     39  C   UNL A   1      41.956  25.717  28.291  1.00  0.00     0.049 A 
ATOM     40  N   UNL A   1      44.793  26.449  29.040  1.00  0.00    -0.248 NA
ATOM     41  C   UNL A   1      45.465  24.324  28.353  1.00  0.00     0.031 C 
ATOM     42  C   UNL A   1      40.560  25.376  28.010  1.00  0.00     0.029 A 
ATOM     43  N   UNL A   1      41.897  26.995  28.780  1.00  0.00    -0.354 N 
ATOM     44  C   UNL A   1      46.149  26.282  29.296  1.00  0.00     0.074 A 
ATOM     45  C   UNL A   1      46.484  24.922  28.947  1.00  0.00     0.031 C 
ATOM     46  C   UNL A   1      39.786  26.437  28.288  1.00  0.00     0.029 A 
ATOM     47  C   UNL A   1      40.628  27.515  28.797  1.00  0.00     0.049 A 
ATOM     48  H   UNL A   1      42.689  27.493  29.088  1.00  0.00     0.167 HD
ATOM     49  C   UNL A   1      47.043  27.192  29.745  1.00  0.00     0.037 A 
ATOM     50  C   UNL A   1      40.195  28.731  29.176  1.00  0.00     0.037 A 
ATOM     51  C   UNL A   1      46.696  28.551  30.064  1.00  0.00     0.049 A 
ATOM     52  C   UNL A   1      41.206  29.744  29.636  1.00  0.00     0.074 A 
ATOM     53  C   UNL A   1      47.524  29.589  30.447  1.00  0.00     0.029 A 
ATOM     54  N   UNL A   1      45.401  29.055  30.042  1.00  0.00    -0.354 N 
ATOM     55  N   UNL A   1      42.503  29.610  29.776  1.00  0.00    -0.248 NA
ATOM     56  C   UNL A   1      40.695  31.076  29.976  1.00  0.00     0.031 C 
ATOM     57  C   UNL A   1      46.723  30.705  30.715  1.00  0.00     0.029 A 
ATOM     58  C   UNL A   1      45.404  30.381  30.440  1.00  0.00     0.049 A 
ATOM     59  H   UNL A   1      44.601  28.545  29.782  1.00  0.00     0.167 HD
ATOM     60  C   UNL A   1      42.969  30.843  30.210  1.00  0.00     0.074 A 
ATOM     61  C   UNL A   1      41.814  31.718  30.281  1.00  0.00     0.031 C 
ATOM     62  C   UNL A   1      44.234  31.221  30.526  1.00  0.00     0.037 A 
BRANCH  49  63
ATOM     63  C   UNL A   1      48.465  26.733  29.918  1.00  0.00     0.057 A 
ATOM     64  C   UNL A   1      49.405  26.804  28.878  1.00  0.00     0.134 A 
ATOM     65  C   UNL A   1      48.896  26.189  31.133  1.00  0.00     0.134 A 
ATOM     66  F   UNL A   1      49.057  27.299  27.679  1.00  0.00    -0.206 F 
ATOM     67  C   UNL A   1      50.701  26.306  29.024  1.00  0.00     0.040 A 
ATOM     68  C   UNL A   1      50.201  25.721  31.304  1.00  0.00     0.040 A 
ATOM     69  F   UNL A   1      48.055  26.092  32.174  1.00  0.00    -0.206 F 
ATOM     70  C   UNL A   1      51.103  25.766  30.243  1.00  0.00     0.006 A 
ENDBRANCH  49  63
BRANCH  50  71
ATOM     71  C   UNL A   1      38.750  29.054  29.084  1.00  0.00     0.057 A 
ATOM     72  C   UNL A   1      37.917  28.979  30.205  1.00  0.00     0.134 A 
ATOM     73  C   UNL A   1      38.180  29.501  27.886  1.00  0.00     0.134 A 
ATOM     74  F   UNL A   1      38.403  28.549  31.379  1.00  0.00    -0.206 F 
ATOM     75  C   UNL A   1      36.567  29.328  30.138  1.00  0.00     0.040 A 
ATOM     76  C   UNL A   1      36.837  29.876  27.810  1.00  0.00     0.040 A 
ATOM     77  F   UNL A   1      38.928  29.610  26.778  1.00  0.00    -0.206 F 
ATOM     78  C   UNL A   1      36.026  29.788  28.939  1.00  0.00     0.006 A 
ENDBRANCH  50  71
BRANCH  62  79
ATOM     79  C   UNL A   1      44.423  32.641  30.975  1.00  0.00     0.057 A 
ATOM     80  C   UNL A   1      44.372  33.000  32.328  1.00  0.00     0.134 A 
ATOM     81  C   UNL A   1      44.679  33.657  30.046  1.00  0.00     0.134 A 
ATOM     82  F   UNL A   1      44.121  32.075  33.268  1.00  0.00    -0.206 F 
ATOM     83  C   UNL A   1      44.535  34.324  32.737  1.00  0.00     0.040 A 
ATOM     84  C   UNL A   1      44.876  34.979  30.446  1.00  0.00     0.040 A 
ATOM     85  F   UNL A   1      44.753  33.380  28.735  1.00  0.00    -0.206 F 
ATOM     86  C   UNL A   1      44.792  35.317  31.795  1.00  0.00     0.006 A 
ENDBRANCH  62  79
ENDBRANCH  36  37
ENDBRANCH  28  31
ENDBRANCH  26  27
ENDBRANCH  25  26
ENDBRANCH  24  25
ENDBRANCH   1  24
TORSDOF 15
ENDMDL
MODEL 2
REMARK VINA RESULT:     -12.3      5.380     10.204
REMARK SMILES Cc1cc(C[N@H+]2CC[C@@H](C(=O)NCCCCCCNC(=O)c3ccc(-c4c5nc(c(-c6c(F)cccc6F)c6ccc([nH]6)c(-c6c(F)cccc6F)c6nc(c(-c7c(F)cccc7F)c7ccc4[nH]7)C=C6)C=C5)cc3)[C@@H]2C)ccc1Br
REMARK SMILES IDX 15 1 14 2 13 3 12 4 10 5 11 6 9 8 6 9 7 10 76 11 8 13 77 14
REMARK SMILES IDX 5 15 4 16 1 17 2 18 3 19 80 20 79 21 81 22 78 23 16 24 17 25
REMARK SMILES IDX 18 26 19 27 20 28 21 30 22 31 23 32 75 33 24 34 74 35 25 36
REMARK SMILES IDX 26 37 27 38 68 39 28 40 73 41 67 42 69 43 29 44 72 45 66 46
REMARK SMILES IDX 65 47 30 49 56 50 39 51 55 52 40 53 43 54 54 55 70 56 41 57
REMARK SMILES IDX 42 58 53 60 71 61 44 62 31 63 32 64 37 65 33 66 34 67 36 68
REMARK SMILES IDX 38 69 35 70 57 71 58 72 63 73 59 74 60 75 62 76 64 77 61 78
REMARK SMILES IDX 45 79 46 80 51 81 47 82 48 83 50 84 52 85 49 86
REMARK H PARENT 12 7 6 12 19 29 69 48 43 59
REMARK Flexibility Score: inf
ROOT
ATOM      1  C   UNL A   1      34.881  33.113  29.064  1.00  0.00     0.002 C 
ENDROOT
BRANCH   1   2
ATOM      2  C   UNL A   1      35.398  31.891  27.930  1.00  0.00     0.021 C 
BRANCH   2   3
ATOM      3  C   UNL A   1      34.869  29.793  27.584  1.00  0.00     0.116 C 
BRANCH   3   4
ATOM      4  N   UNL A   1      33.533  28.966  27.885  1.00  0.00    -0.356 N 
ATOM      5  C   UNL A   1      32.527  28.455  27.134  1.00  0.00     0.229 C 
ATOM      6  O   UNL A   1      31.596  27.930  27.760  1.00  0.00    -0.275 OA
ATOM      7  H   UNL A   1      33.413  28.784  28.845  1.00  0.00     0.163 HD
BRANCH   5   8
ATOM      8  C   UNL A   1      32.469  28.495  25.614  1.00  0.00     0.142 C 
ATOM      9  N   UNL A   1      31.088  27.073  24.238  1.00  0.00    -0.328 N 
ATOM     10  C   UNL A   1      30.548  28.428  24.129  1.00  0.00     0.263 C 
ATOM     11  C   UNL A   1      32.383  27.134  24.927  1.00  0.00     0.193 C 
ATOM     12  H   UNL A   1      31.238  26.728  23.290  1.00  0.00     0.348 HD
ATOM     13  C   UNL A   1      31.351  29.347  25.041  1.00  0.00     0.081 C 
ATOM     14  C   UNL A   1      33.492  26.950  23.886  1.00  0.00     0.076 C 
BRANCH   9  15
ATOM     15  C   UNL A   1      30.167  26.047  24.742  1.00  0.00     0.299 C 
BRANCH  15  16
ATOM     16  C   UNL A   1      30.764  24.665  24.878  1.00  0.00     0.007 A 
ATOM     17  C   UNL A   1      33.128  22.334  27.878  1.00  0.00     0.045 C 
ATOM     18  C   UNL A   1      32.543  22.717  26.556  1.00  0.00    -0.036 A 
ATOM     19  C   UNL A   1      31.522  24.199  26.450  1.00  0.00     0.014 A 
ATOM     20  C   UNL A   1      32.842  21.721  25.077  1.00  0.00     0.020 A 
ATOM     21  C   UNL A   1      32.053  22.158  23.510  1.00  0.00     0.016 A 
ATOM     22  Br  UNL A   1      34.149  20.348  25.081  1.00  0.00    -0.051 Br
ATOM     23  C   UNL A   1      31.005  23.626  23.412  1.00  0.00     0.011 A 
ENDBRANCH  15  16
ENDBRANCH   9  15
ENDBRANCH   5   8
ENDBRANCH   3   4
ENDBRANCH   2   3
ENDBRANCH   1   2
BRANCH   1  24
ATOM     24  C   UNL A   1      35.194  34.575  28.699  1.00  0.00     0.002 C 
BRANCH  24  25
ATOM     25  C   UNL A   1      34.035  35.549  28.866  1.00  0.00     0.021 C 
BRANCH  25  26
ATOM     26  C   UNL A   1      32.926  34.972  29.726  1.00  0.00     0.116 C 
BRANCH  26  27
ATOM     27  N   UNL A   1      32.552  35.932  30.758  1.00  0.00    -0.352 N 
ATOM     28  C   UNL A   1      32.811  35.820  32.103  1.00  0.00     0.251 C 
ATOM     29  H   UNL A   1      32.066  36.737  30.464  1.00  0.00     0.163 HD
ATOM     30  O   UNL A   1      32.095  36.350  32.943  1.00  0.00    -0.269 OA
BRANCH  28  31
ATOM     31  C   UNL A   1      33.998  35.042  32.498  1.00  0.00     0.039 A 
ATOM     32  C   UNL A   1      33.869  33.728  32.946  1.00  0.00     0.014 A 
ATOM     33  C   UNL A   1      35.256  35.637  32.366  1.00  0.00     0.014 A 
ATOM     34  C   UNL A   1      35.022  33.002  33.235  1.00  0.00     0.010 A 
ATOM     35  C   UNL A   1      36.395  34.871  32.519  1.00  0.00     0.010 A 
ATOM     36  C   UNL A   1      36.291  33.563  33.005  1.00  0.00    -0.014 A 
BRANCH  36  37
ATOM     37  C   UNL A   1      37.532  32.823  33.317  1.00  0.00     0.031 A 
ATOM     38  C   UNL A   1      38.281  33.131  34.585  1.00  0.00     0.074 A 
ATOM     39  C   UNL A   1      38.011  31.930  32.433  1.00  0.00     0.049 A 
ATOM     40  N   UNL A   1      39.390  32.607  35.038  1.00  0.00    -0.248 NA
ATOM     41  C   UNL A   1      37.738  34.203  35.436  1.00  0.00     0.031 C 
ATOM     42  C   UNL A   1      37.416  31.625  31.130  1.00  0.00     0.029 A 
ATOM     43  N   UNL A   1      39.111  31.117  32.497  1.00  0.00    -0.354 N 
ATOM     44  C   UNL A   1      39.680  33.298  36.208  1.00  0.00     0.074 A 
ATOM     45  C   UNL A   1      38.686  34.335  36.349  1.00  0.00     0.031 C 
ATOM     46  C   UNL A   1      38.132  30.657  30.538  1.00  0.00     0.029 A 
ATOM     47  C   UNL A   1      39.253  30.302  31.403  1.00  0.00     0.049 A 
ATOM     48  H   UNL A   1      39.740  31.117  33.255  1.00  0.00     0.167 HD
ATOM     49  C   UNL A   1      40.665  33.065  37.105  1.00  0.00     0.037 A 
ATOM     50  C   UNL A   1      40.180  29.365  31.134  1.00  0.00     0.037 A 
ATOM     51  C   UNL A   1      41.633  32.012  36.962  1.00  0.00     0.049 A 
ATOM     52  C   UNL A   1      41.245  29.092  32.159  1.00  0.00     0.074 A 
ATOM     53  C   UNL A   1      42.626  31.622  37.842  1.00  0.00     0.029 A 
ATOM     54  N   UNL A   1      41.729  31.181  35.852  1.00  0.00    -0.354 N 
ATOM     55  N   UNL A   1      41.450  29.681  33.313  1.00  0.00    -0.248 NA
ATOM     56  C   UNL A   1      42.195  28.018  31.850  1.00  0.00     0.031 C 
ATOM     57  C   UNL A   1      43.361  30.596  37.237  1.00  0.00     0.029 A 
ATOM     58  C   UNL A   1      42.789  30.304  36.009  1.00  0.00     0.049 A 
ATOM     59  H   UNL A   1      41.133  31.213  35.070  1.00  0.00     0.167 HD
ATOM     60  C   UNL A   1      42.547  29.044  33.876  1.00  0.00     0.074 A 
ATOM     61  C   UNL A   1      42.942  28.004  32.945  1.00  0.00     0.031 C 
ATOM     62  C   UNL A   1      43.175  29.295  35.054  1.00  0.00     0.037 A 
BRANCH  49  63
ATOM     63  C   UNL A   1      40.734  33.974  38.302  1.00  0.00     0.057 A 
ATOM     64  C   UNL A   1      41.542  35.122  38.324  1.00  0.00     0.134 A 
ATOM     65  C   UNL A   1      40.003  33.685  39.460  1.00  0.00     0.134 A 
ATOM     66  F   UNL A   1      42.284  35.452  37.256  1.00  0.00    -0.206 F 
ATOM     67  C   UNL A   1      41.657  35.917  39.466  1.00  0.00     0.040 A 
ATOM     68  C   UNL A   1      40.081  34.494  40.597  1.00  0.00     0.040 A 
ATOM     69  F   UNL A   1      39.206  32.607  39.513  1.00  0.00    -0.206 F 
ATOM     70  C   UNL A   1      40.921  35.605  40.606  1.00  0.00     0.006 A 
ENDBRANCH  49  63
BRANCH  50  71
ATOM     71  C   UNL A   1      40.100  28.600  29.866  1.00  0.00     0.057 A 
ATOM     72  C   UNL A   1      40.793  29.014  28.724  1.00  0.00     0.134 A 
ATOM     73  C   UNL A   1      39.374  27.406  29.782  1.00  0.00     0.134 A 
ATOM     74  F   UNL A   1      41.499  30.155  28.739  1.00  0.00    -0.206 F 
ATOM     75  C   UNL A   1      40.763  28.273  27.541  1.00  0.00     0.040 A 
ATOM     76  C   UNL A   1      39.354  26.642  28.613  1.00  0.00     0.040 A 
ATOM     77  F   UNL A   1      38.700  26.946  30.847  1.00  0.00    -0.206 F 
ATOM     78  C   UNL A   1      40.049  27.077  27.487  1.00  0.00     0.006 A 
ENDBRANCH  50  71
BRANCH  62  79
ATOM     79  C   UNL A   1      44.352  28.425  35.390  1.00  0.00     0.057 A 
ATOM     80  C   UNL A   1      44.206  27.233  36.111  1.00  0.00     0.134 A 
ATOM     81  C   UNL A   1      45.642  28.774  34.971  1.00  0.00     0.134 A 
ATOM     82  F   UNL A   1      42.998  26.847  36.550  1.00  0.00    -0.206 F 
ATOM     83  C   UNL A   1      45.306  26.437  36.433  1.00  0.00     0.040 A 
ATOM     84  C   UNL A   1      46.745  27.970  35.259  1.00  0.00     0.040 A 
ATOM     85  F   UNL A   1      45.850  29.897  34.267  1.00  0.00    -0.206 F 
ATOM     86  C   UNL A   1      46.580  26.803  36.002  1.00  0.00     0.006 A 
ENDBRANCH  62  79
ENDBRANCH  36  37
ENDBRANCH  28  31
ENDBRANCH  26  27
ENDBRANCH  25  26
ENDBRANCH  24  25
ENDBRANCH   1  24
TORSDOF 15
ENDMDL
MODEL 3
REMARK VINA RESULT:     -12.2      5.577     10.315
REMARK SMILES Cc1cc(C[N@H+]2CC[C@@H](C(=O)NCCCCCCNC(=O)c3ccc(-c4c5nc(c(-c6c(F)cccc6F)c6ccc([nH]6)c(-c6c(F)cccc6F)c6nc(c(-c7c(F)cccc7F)c7ccc4[nH]7)C=C6)C=C5)cc3)[C@@H]2C)ccc1Br
REMARK SMILES IDX 15 1 14 2 13 3 12 4 10 5 11 6 9 8 6 9 7 10 76 11 8 13 77 14
REMARK SMILES IDX 5 15 4 16 1 17 2 18 3 19 80 20 79 21 81 22 78 23 16 24 17 25
REMARK SMILES IDX 18 26 19 27 20 28 21 30 22 31 23 32 75 33 24 34 74 35 25 36
REMARK SMILES IDX 26 37 27 38 68 39 28 40 73 41 67 42 69 43 29 44 72 45 66 46
REMARK SMILES IDX 65 47 30 49 56 50 39 51 55 52 40 53 43 54 54 55 70 56 41 57
REMARK SMILES IDX 42 58 53 60 71 61 44 62 31 63 32 64 37 65 33 66 34 67 36 68
REMARK SMILES IDX 38 69 35 70 57 71 58 72 63 73 59 74 60 75 62 76 64 77 61 78
REMARK SMILES IDX 45 79 46 80 51 81 47 82 48 83 50 84 52 85 49 86
REMARK H PARENT 12 7 6 12 19 29 69 48 43 59
REMARK Flexibility Score: inf
ROOT
ATOM      1  C   UNL A   1      34.983  33.033  29.102  1.00  0.00     0.002 C 
ENDROOT
BRANCH   1   2
ATOM      2  C   UNL A   1      35.351  31.818  27.905  1.00  0.00     0.021 C 
BRANCH   2   3
ATOM      3  C   UNL A   1      34.885  29.688  27.683  1.00  0.00     0.116 C 
BRANCH   3   4
ATOM      4  N   UNL A   1      33.543  28.857  27.939  1.00  0.00    -0.356 N 
ATOM      5  C   UNL A   1      32.553  28.361  27.158  1.00  0.00     0.229 C 
ATOM      6  O   UNL A   1      31.609  27.826  27.755  1.00  0.00    -0.275 OA
ATOM      7  H   UNL A   1      33.402  28.658  28.893  1.00  0.00     0.163 HD
BRANCH   5   8
ATOM      8  C   UNL A   1      32.527  28.429  25.638  1.00  0.00     0.142 C 
ATOM      9  N   UNL A   1      31.206  27.006  24.205  1.00  0.00    -0.328 N 
ATOM     10  C   UNL A   1      30.640  28.352  24.110  1.00  0.00     0.263 C 
ATOM     11  C   UNL A   1      32.485  27.081  24.924  1.00  0.00     0.193 C 
ATOM     12  H   UNL A   1      31.383  26.683  23.255  1.00  0.00     0.348 HD
ATOM     13  C   UNL A   1      31.404  29.269  25.057  1.00  0.00     0.081 C 
ATOM     14  C   UNL A   1      33.619  26.939  23.905  1.00  0.00     0.076 C 
BRANCH   9  15
ATOM     15  C   UNL A   1      30.296  25.953  24.670  1.00  0.00     0.299 C 
BRANCH  15  16
ATOM     16  C   UNL A   1      30.920  24.582  24.796  1.00  0.00     0.007 A 
ATOM     17  C   UNL A   1      33.277  22.253  27.804  1.00  0.00     0.045 C 
ATOM     18  C   UNL A   1      32.708  22.645  26.477  1.00  0.00    -0.036 A 
ATOM     19  C   UNL A   1      31.658  24.107  26.374  1.00  0.00     0.014 A 
ATOM     20  C   UNL A   1      33.055  21.678  24.989  1.00  0.00     0.020 A 
ATOM     21  C   UNL A   1      32.285  22.123  23.414  1.00  0.00     0.016 A 
ATOM     22  Br  UNL A   1      34.390  20.333  24.997  1.00  0.00    -0.051 Br
ATOM     23  C   UNL A   1      31.209  23.571  23.319  1.00  0.00     0.011 A 
ENDBRANCH  15  16
ENDBRANCH   9  15
ENDBRANCH   5   8
ENDBRANCH   3   4
ENDBRANCH   2   3
ENDBRANCH   1   2
BRANCH   1  24
ATOM     24  C   UNL A   1      35.347  34.487  28.750  1.00  0.00     0.002 C 
BRANCH  24  25
ATOM     25  C   UNL A   1      34.185  35.471  28.770  1.00  0.00     0.021 C 
BRANCH  25  26
ATOM     26  C   UNL A   1      32.992  34.927  29.533  1.00  0.00     0.116 C 
BRANCH  26  27
ATOM     27  N   UNL A   1      32.526  35.921  30.495  1.00  0.00    -0.352 N 
ATOM     28  C   UNL A   1      32.669  35.859  31.860  1.00  0.00     0.251 C 
ATOM     29  H   UNL A   1      32.064  36.711  30.131  1.00  0.00     0.163 HD
ATOM     30  O   UNL A   1      31.882  36.413  32.616  1.00  0.00    -0.269 OA
BRANCH  28  31
ATOM     31  C   UNL A   1      33.821  35.104  32.383  1.00  0.00     0.039 A 
ATOM     32  C   UNL A   1      33.661  33.803  32.858  1.00  0.00     0.014 A 
ATOM     33  C   UNL A   1      35.083  35.706  32.345  1.00  0.00     0.014 A 
ATOM     34  C   UNL A   1      34.789  33.097  33.272  1.00  0.00     0.010 A 
ATOM     35  C   UNL A   1      36.208  34.955  32.622  1.00  0.00     0.010 A 
ATOM     36  C   UNL A   1      36.070  33.662  33.137  1.00  0.00    -0.014 A 
BRANCH  36  37
ATOM     37  C   UNL A   1      37.282  32.944  33.581  1.00  0.00     0.031 A 
ATOM     38  C   UNL A   1      37.880  31.879  32.701  1.00  0.00     0.074 A 
ATOM     39  C   UNL A   1      37.801  33.205  34.794  1.00  0.00     0.049 A 
ATOM     40  N   UNL A   1      38.929  31.127  32.910  1.00  0.00    -0.248 NA
ATOM     41  C   UNL A   1      37.177  31.585  31.441  1.00  0.00     0.031 C 
ATOM     42  C   UNL A   1      37.245  34.150  35.766  1.00  0.00     0.029 A 
ATOM     43  N   UNL A   1      38.910  32.698  35.417  1.00  0.00    -0.354 N 
ATOM     44  C   UNL A   1      38.996  30.267  31.820  1.00  0.00     0.074 A 
ATOM     45  C   UNL A   1      37.836  30.527  31.001  1.00  0.00     0.031 C 
ATOM     46  C   UNL A   1      38.043  34.188  36.844  1.00  0.00     0.029 A 
ATOM     47  C   UNL A   1      39.143  33.248  36.652  1.00  0.00     0.049 A 
ATOM     48  H   UNL A   1      39.485  32.006  35.016  1.00  0.00     0.167 HD
ATOM     49  C   UNL A   1      39.958  29.369  31.510  1.00  0.00     0.037 A 
ATOM     50  C   UNL A   1      40.139  33.021  37.527  1.00  0.00     0.037 A 
ATOM     51  C   UNL A   1      41.120  29.141  32.325  1.00  0.00     0.049 A 
ATOM     52  C   UNL A   1      41.220  32.049  37.150  1.00  0.00     0.074 A 
ATOM     53  C   UNL A   1      42.205  28.320  32.077  1.00  0.00     0.029 A 
ATOM     54  N   UNL A   1      41.341  29.739  33.560  1.00  0.00    -0.354 N 
ATOM     55  N   UNL A   1      41.331  31.315  36.069  1.00  0.00    -0.248 NA
ATOM     56  C   UNL A   1      42.319  31.883  38.108  1.00  0.00     0.031 C 
ATOM     57  C   UNL A   1      43.052  28.376  33.190  1.00  0.00     0.029 A 
ATOM     58  C   UNL A   1      42.528  29.277  34.103  1.00  0.00     0.049 A 
ATOM     59  H   UNL A   1      40.742  30.393  33.985  1.00  0.00     0.167 HD
ATOM     60  C   UNL A   1      42.517  30.607  36.207  1.00  0.00     0.074 A 
ATOM     61  C   UNL A   1      43.101  31.025  37.467  1.00  0.00     0.031 C 
ATOM     62  C   UNL A   1      43.073  29.692  35.372  1.00  0.00     0.037 A 
BRANCH  49  63
ATOM     63  C   UNL A   1      39.775  28.574  30.246  1.00  0.00     0.057 A 
ATOM     64  C   UNL A   1      39.073  27.359  30.221  1.00  0.00     0.134 A 
ATOM     65  C   UNL A   1      40.330  29.016  29.039  1.00  0.00     0.134 A 
ATOM     66  F   UNL A   1      38.528  26.865  31.344  1.00  0.00    -0.206 F 
ATOM     67  C   UNL A   1      38.974  26.592  29.059  1.00  0.00     0.040 A 
ATOM     68  C   UNL A   1      40.206  28.275  27.861  1.00  0.00     0.040 A 
ATOM     69  F   UNL A   1      41.012  30.170  28.983  1.00  0.00    -0.206 F 
ATOM     70  C   UNL A   1      39.538  27.053  27.872  1.00  0.00     0.006 A 
ENDBRANCH  49  63
BRANCH  50  71
ATOM     71  C   UNL A   1      40.169  33.768  38.809  1.00  0.00     0.057 A 
ATOM     72  C   UNL A   1      39.417  33.349  39.910  1.00  0.00     0.134 A 
ATOM     73  C   UNL A   1      40.996  34.885  38.980  1.00  0.00     0.134 A 
ATOM     74  F   UNL A   1      38.599  32.290  39.806  1.00  0.00    -0.206 F 
ATOM     75  C   UNL A   1      39.477  34.016  41.135  1.00  0.00     0.040 A 
ATOM     76  C   UNL A   1      41.085  35.548  40.206  1.00  0.00     0.040 A 
ATOM     77  F   UNL A   1      41.755  35.328  37.967  1.00  0.00    -0.206 F 
ATOM     78  C   UNL A   1      40.322  35.115  41.287  1.00  0.00     0.006 A 
ENDBRANCH  50  71
BRANCH  62  79
ATOM     79  C   UNL A   1      44.377  29.088  35.805  1.00  0.00     0.057 A 
ATOM     80  C   UNL A   1      44.430  27.918  36.575  1.00  0.00     0.134 A 
ATOM     81  C   UNL A   1      45.594  29.671  35.432  1.00  0.00     0.134 A 
ATOM     82  F   UNL A   1      43.299  27.316  36.974  1.00  0.00    -0.206 F 
ATOM     83  C   UNL A   1      45.645  27.370  36.985  1.00  0.00     0.040 A 
ATOM     84  C   UNL A   1      46.816  29.114  35.809  1.00  0.00     0.040 A 
ATOM     85  F   UNL A   1      45.616  30.786  34.685  1.00  0.00    -0.206 F 
ATOM     86  C   UNL A   1      46.844  27.967  36.598  1.00  0.00     0.006 A 
ENDBRANCH  62  79
ENDBRANCH  36  37
ENDBRANCH  28  31
ENDBRANCH  26  27
ENDBRANCH  25  26
ENDBRANCH  24  25
ENDBRANCH   1  24
TORSDOF 15
ENDMDL
