MODEL 1
REMARK VINA RESULT:     -12.1      0.000      0.000
REMARK SMILES Cc1nsc(NC(=O)[C@H]2Cc3[nH]cnc3C[NH2+]2)c1C(=O)NCCCCCCNC(=O)c1ccc(-c2c3nc(c(-c4c(F)cccc4F)c4ccc([nH]4)c(-c4c(F)cccc4F)c4nc(c(-c5c(F)cccc5F)c5ccc2[nH]5)C=C4)C=C3)cc1
REMARK SMILES IDX 24 1 23 2 22 3 21 4 19 5 20 6 18 8 1 9 2 10 3 11 4 12 5 13
REMARK SMILES IDX 6 14 7 15 8 17 9 18 10 19 17 20 11 21 16 22 12 25 15 26
REMARK SMILES IDX 13 27 14 29 25 30 26 31 27 32 28 33 29 34 30 36 31 37 32 38
REMARK SMILES IDX 84 39 33 40 83 41 34 42 35 43 36 44 77 45 37 46 82 47 76 48
REMARK SMILES IDX 78 49 38 50 81 51 75 52 74 53 39 55 65 56 48 57 64 58 49 59
REMARK SMILES IDX 52 60 63 61 79 62 50 63 51 64 62 66 80 67 53 68 40 69 41 70
REMARK SMILES IDX 46 71 42 72 43 73 45 74 47 75 44 76 66 77 67 78 72 79 68 80
REMARK SMILES IDX 69 81 71 82 73 83 70 84 54 85 55 86 60 87 56 88 57 89 59 90
REMARK SMILES IDX 61 91 58 92
REMARK H PARENT 21 7 6 16 17 23 17 24 12 28 28 35 78 54 52 65
REMARK Flexibility Score: inf
ROOT
ATOM      1  C   UNL A   1      39.348  21.374  25.851  1.00  0.00     0.002 C 
ENDROOT
BRANCH   1   2
ATOM      2  C   UNL A   1      38.920  22.799  26.214  1.00  0.00     0.021 C 
BRANCH   2   3
ATOM      3  C   UNL A   1      37.482  23.107  25.803  1.00  0.00     0.116 C 
BRANCH   3   4
ATOM      4  N   UNL A   1      37.337  23.075  24.380  1.00  0.00    -0.352 N 
ATOM      5  C   UNL A   1      36.300  22.823  23.537  1.00  0.00     0.256 C 
ATOM      6  O   UNL A   1      36.602  22.970  22.345  1.00  0.00    -0.269 OA
ATOM      7  H   UNL A   1      38.174  23.282  23.905  1.00  0.00     0.163 HD
BRANCH   5   8
ATOM      8  C   UNL A   1      34.918  22.472  23.913  1.00  0.00     0.097 A 
ATOM      9  C   UNL A   1      34.754  20.025  25.099  1.00  0.00     0.069 C 
ATOM     10  C   UNL A   1      34.267  21.339  24.592  1.00  0.00     0.066 A 
ATOM     11  N   UNL A   1      32.960  21.475  24.811  1.00  0.00    -0.195 NA
ATOM     12  S   UNL A   1      32.454  22.889  24.219  1.00  0.00    -0.017 S 
ATOM     13  C   UNL A   1      33.899  23.365  23.514  1.00  0.00     0.129 A 
BRANCH  13  14
ATOM     14  N   UNL A   1      34.031  24.507  22.735  1.00  0.00    -0.311 N 
ATOM     15  C   UNL A   1      33.646  25.815  22.825  1.00  0.00     0.283 C 
ATOM     16  H   UNL A   1      34.529  24.329  21.905  1.00  0.00     0.171 HD
ATOM     17  O   UNL A   1      33.961  26.537  21.866  1.00  0.00    -0.268 OA
BRANCH  15  18
ATOM     18  C   UNL A   1      32.790  26.425  23.953  1.00  0.00     0.279 C 
ATOM     19  C   UNL A   1      33.693  26.711  25.198  1.00  0.00     0.131 C 
ATOM     20  N   UNL A   1      31.884  27.478  23.393  1.00  0.00    -0.331 N 
ATOM     21  C   UNL A   1      33.364  28.037  25.760  1.00  0.00     0.050 A 
ATOM     22  C   UNL A   1      31.250  28.339  24.420  1.00  0.00     0.320 C 
ATOM     23  H   UNL A   1      31.144  27.015  22.862  1.00  0.00     0.347 HD
ATOM     24  H   UNL A   1      32.462  28.086  22.815  1.00  0.00     0.347 HD
ATOM     25  N   UNL A   1      34.124  28.829  26.569  1.00  0.00    -0.348 N 
ATOM     26  C   UNL A   1      32.274  28.794  25.402  1.00  0.00     0.116 A 
ATOM     27  C   UNL A   1      33.491  30.045  26.626  1.00  0.00     0.197 A 
ATOM     28  H   UNL A   1      34.960  28.579  27.022  1.00  0.00     0.167 HD
ATOM     29  N   UNL A   1      32.364  30.047  25.945  1.00  0.00    -0.236 NA
ENDBRANCH  15  18
ENDBRANCH  13  14
ENDBRANCH   5   8
ENDBRANCH   3   4
ENDBRANCH   2   3
ENDBRANCH   1   2
BRANCH   1  30
ATOM     30  C   UNL A   1      40.459  20.777  26.729  1.00  0.00     0.002 C 
BRANCH  30  31
ATOM     31  C   UNL A   1      41.274  19.629  26.112  1.00  0.00     0.021 C 
BRANCH  31  32
ATOM     32  C   UNL A   1      42.650  19.461  26.734  1.00  0.00     0.116 C 
BRANCH  32  33
ATOM     33  N   UNL A   1      43.696  19.372  25.718  1.00  0.00    -0.352 N 
ATOM     34  C   UNL A   1      44.275  20.373  24.964  1.00  0.00     0.251 C 
ATOM     35  H   UNL A   1      44.037  18.465  25.544  1.00  0.00     0.163 HD
ATOM     36  O   UNL A   1      44.893  20.116  23.947  1.00  0.00    -0.269 OA
BRANCH  34  37
ATOM     37  C   UNL A   1      44.125  21.767  25.413  1.00  0.00     0.039 A 
ATOM     38  C   UNL A   1      43.151  22.600  24.859  1.00  0.00     0.014 A 
ATOM     39  C   UNL A   1      44.961  22.224  26.428  1.00  0.00     0.014 A 
ATOM     40  C   UNL A   1      42.979  23.871  25.395  1.00  0.00     0.010 A 
ATOM     41  C   UNL A   1      44.668  23.395  27.072  1.00  0.00     0.010 A 
ATOM     42  C   UNL A   1      43.729  24.255  26.519  1.00  0.00    -0.014 A 
BRANCH  42  43
ATOM     43  C   UNL A   1      43.496  25.536  27.166  1.00  0.00     0.031 A 
ATOM     44  C   UNL A   1      44.464  26.607  26.817  1.00  0.00     0.074 A 
ATOM     45  C   UNL A   1      42.393  25.812  27.895  1.00  0.00     0.049 A 
ATOM     46  N   UNL A   1      45.371  27.118  27.579  1.00  0.00    -0.248 NA
ATOM     47  C   UNL A   1      44.516  27.079  25.425  1.00  0.00     0.031 C 
ATOM     48  C   UNL A   1      41.184  25.006  28.096  1.00  0.00     0.029 A 
ATOM     49  N   UNL A   1      42.100  26.957  28.564  1.00  0.00    -0.354 N 
ATOM     50  C   UNL A   1      45.986  28.118  26.832  1.00  0.00     0.074 A 
ATOM     51  C   UNL A   1      45.538  27.938  25.475  1.00  0.00     0.031 C 
ATOM     52  C   UNL A   1      40.211  25.774  28.636  1.00  0.00     0.029 A 
ATOM     53  C   UNL A   1      40.785  27.057  28.990  1.00  0.00     0.049 A 
ATOM     54  H   UNL A   1      42.768  27.661  28.731  1.00  0.00     0.167 HD
ATOM     55  C   UNL A   1      46.640  29.147  27.442  1.00  0.00     0.037 A 
ATOM     56  C   UNL A   1      40.210  28.129  29.585  1.00  0.00     0.037 A 
ATOM     57  C   UNL A   1      46.920  28.840  28.824  1.00  0.00     0.049 A 
ATOM     58  C   UNL A   1      41.305  28.958  30.149  1.00  0.00     0.074 A 
ATOM     59  C   UNL A   1      47.610  27.831  29.470  1.00  0.00     0.029 A 
ATOM     60  N   UNL A   1      46.121  29.409  29.786  1.00  0.00    -0.354 N 
ATOM     61  N   UNL A   1      42.050  28.585  31.153  1.00  0.00    -0.248 NA
ATOM     62  C   UNL A   1      41.877  29.991  29.298  1.00  0.00     0.031 C 
ATOM     63  C   UNL A   1      46.813  27.516  30.611  1.00  0.00     0.029 A 
ATOM     64  C   UNL A   1      45.733  28.400  30.632  1.00  0.00     0.049 A 
ATOM     65  H   UNL A   1      45.874  30.359  29.856  1.00  0.00     0.167 HD
ATOM     66  C   UNL A   1      43.331  29.000  30.816  1.00  0.00     0.074 A 
ATOM     67  C   UNL A   1      43.147  29.938  29.709  1.00  0.00     0.031 C 
ATOM     68  C   UNL A   1      44.436  28.335  31.266  1.00  0.00     0.037 A 
BRANCH  55  69
ATOM     69  C   UNL A   1      46.707  30.557  26.907  1.00  0.00     0.057 A 
ATOM     70  C   UNL A   1      47.939  31.237  26.916  1.00  0.00     0.134 A 
ATOM     71  C   UNL A   1      45.580  31.367  26.661  1.00  0.00     0.134 A 
ATOM     72  F   UNL A   1      49.086  30.581  27.146  1.00  0.00    -0.206 F 
ATOM     73  C   UNL A   1      48.031  32.628  26.778  1.00  0.00     0.040 A 
ATOM     74  C   UNL A   1      45.666  32.749  26.469  1.00  0.00     0.040 A 
ATOM     75  F   UNL A   1      44.330  30.891  26.696  1.00  0.00    -0.206 F 
ATOM     76  C   UNL A   1      46.891  33.390  26.563  1.00  0.00     0.006 A 
ENDBRANCH  55  69
BRANCH  56  77
ATOM     77  C   UNL A   1      38.821  28.615  29.457  1.00  0.00     0.057 A 
ATOM     78  C   UNL A   1      37.968  28.671  30.567  1.00  0.00     0.134 A 
ATOM     79  C   UNL A   1      38.386  29.297  28.307  1.00  0.00     0.134 A 
ATOM     80  F   UNL A   1      38.313  28.082  31.721  1.00  0.00    -0.206 F 
ATOM     81  C   UNL A   1      36.766  29.390  30.546  1.00  0.00     0.040 A 
ATOM     82  C   UNL A   1      37.185  30.013  28.270  1.00  0.00     0.040 A 
ATOM     83  F   UNL A   1      39.154  29.365  27.209  1.00  0.00    -0.206 F 
ATOM     84  C   UNL A   1      36.378  30.075  29.398  1.00  0.00     0.006 A 
ENDBRANCH  56  77
BRANCH  68  85
ATOM     85  C   UNL A   1      44.250  27.279  32.323  1.00  0.00     0.057 A 
ATOM     86  C   UNL A   1      44.059  25.915  32.055  1.00  0.00     0.134 A 
ATOM     87  C   UNL A   1      44.427  27.634  33.666  1.00  0.00     0.134 A 
ATOM     88  F   UNL A   1      43.981  25.458  30.800  1.00  0.00    -0.206 F 
ATOM     89  C   UNL A   1      44.002  24.958  33.074  1.00  0.00     0.040 A 
ATOM     90  C   UNL A   1      44.407  26.684  34.692  1.00  0.00     0.040 A 
ATOM     91  F   UNL A   1      44.673  28.911  34.000  1.00  0.00    -0.206 F 
ATOM     92  C   UNL A   1      44.182  25.343  34.398  1.00  0.00     0.006 A 
ENDBRANCH  68  85
ENDBRANCH  42  43
ENDBRANCH  34  37
ENDBRANCH  32  33
ENDBRANCH  31  32
ENDBRANCH  30  31
ENDBRANCH   1  30
TORSDOF 15
ENDMDL
MODEL 2
REMARK VINA RESULT:     -11.4      2.630      7.736
REMARK SMILES Cc1nsc(NC(=O)[C@H]2Cc3[nH]cnc3C[NH2+]2)c1C(=O)NCCCCCCNC(=O)c1ccc(-c2c3nc(c(-c4c(F)cccc4F)c4ccc([nH]4)c(-c4c(F)cccc4F)c4nc(c(-c5c(F)cccc5F)c5ccc2[nH]5)C=C4)C=C3)cc1
REMARK SMILES IDX 24 1 23 2 22 3 21 4 19 5 20 6 18 8 1 9 2 10 3 11 4 12 5 13
REMARK SMILES IDX 6 14 7 15 8 17 9 18 10 19 17 20 11 21 16 22 12 25 15 26
REMARK SMILES IDX 13 27 14 29 25 30 26 31 27 32 28 33 29 34 30 36 31 37 32 38
REMARK SMILES IDX 84 39 33 40 83 41 34 42 35 43 36 44 77 45 37 46 82 47 76 48
REMARK SMILES IDX 78 49 38 50 81 51 75 52 74 53 39 55 65 56 48 57 64 58 49 59
REMARK SMILES IDX 52 60 63 61 79 62 50 63 51 64 62 66 80 67 53 68 40 69 41 70
REMARK SMILES IDX 46 71 42 72 43 73 45 74 47 75 44 76 66 77 67 78 72 79 68 80
REMARK SMILES IDX 69 81 71 82 73 83 70 84 54 85 55 86 60 87 56 88 57 89 59 90
REMARK SMILES IDX 61 91 58 92
REMARK H PARENT 21 7 6 16 17 23 17 24 12 28 28 35 78 54 52 65
REMARK Flexibility Score: inf
ROOT
ATOM      1  C   UNL A   1      33.654  28.472  27.218  1.00  0.00     0.002 C 
ENDROOT
BRANCH   1   2
ATOM      2  C   UNL A   1      32.259  27.842  27.180  1.00  0.00     0.021 C 
BRANCH   2   3
ATOM      3  C   UNL A   1      32.239  26.491  26.470  1.00  0.00     0.116 C 
BRANCH   3   4
ATOM      4  N   UNL A   1      33.562  26.081  26.108  1.00  0.00    -0.352 N 
ATOM      5  C   UNL A   1      34.084  24.977  25.511  1.00  0.00     0.256 C 
ATOM      6  O   UNL A   1      35.306  25.063  25.325  1.00  0.00    -0.269 OA
ATOM      7  H   UNL A   1      34.247  26.747  26.345  1.00  0.00     0.163 HD
BRANCH   5   8
ATOM      8  C   UNL A   1      33.345  23.791  25.040  1.00  0.00     0.097 A 
ATOM      9  C   UNL A   1      32.998  21.938  27.006  1.00  0.00     0.069 C 
ATOM     10  C   UNL A   1      32.855  22.545  25.653  1.00  0.00     0.066 A 
ATOM     11  N   UNL A   1      32.131  21.760  24.856  1.00  0.00    -0.195 NA
ATOM     12  S   UNL A   1      32.024  22.425  23.389  1.00  0.00    -0.017 S 
ATOM     13  C   UNL A   1      33.036  23.732  23.663  1.00  0.00     0.129 A 
BRANCH  13  14
ATOM     14  N   UNL A   1      33.416  24.627  22.672  1.00  0.00    -0.311 N 
ATOM     15  C   UNL A   1      33.134  25.925  22.350  1.00  0.00     0.283 C 
ATOM     16  H   UNL A   1      34.052  24.223  22.037  1.00  0.00     0.171 HD
ATOM     17  O   UNL A   1      33.693  26.361  21.331  1.00  0.00    -0.268 OA
BRANCH  15  18
ATOM     18  C   UNL A   1      32.126  26.834  23.081  1.00  0.00     0.279 C 
ATOM     19  C   UNL A   1      32.370  28.323  22.668  1.00  0.00     0.131 C 
ATOM     20  N   UNL A   1      30.758  26.227  23.025  1.00  0.00    -0.331 N 
ATOM     21  C   UNL A   1      31.076  28.989  22.413  1.00  0.00     0.050 A 
ATOM     22  C   UNL A   1      29.669  27.154  23.416  1.00  0.00     0.320 C 
ATOM     23  H   UNL A   1      30.737  25.424  23.656  1.00  0.00     0.347 HD
ATOM     24  H   UNL A   1      30.590  25.969  22.053  1.00  0.00     0.347 HD
ATOM     25  N   UNL A   1      30.830  30.118  21.689  1.00  0.00    -0.348 N 
ATOM     26  C   UNL A   1      29.847  28.463  22.727  1.00  0.00     0.116 A 
ATOM     27  C   UNL A   1      29.468  30.201  21.552  1.00  0.00     0.197 A 
ATOM     28  H   UNL A   1      31.498  30.749  21.336  1.00  0.00     0.167 HD
ATOM     29  N   UNL A   1      28.848  29.225  22.183  1.00  0.00    -0.236 NA
ENDBRANCH  15  18
ENDBRANCH  13  14
ENDBRANCH   5   8
ENDBRANCH   3   4
ENDBRANCH   2   3
ENDBRANCH   1   2
BRANCH   1  30
ATOM     30  C   UNL A   1      33.778  29.838  26.523  1.00  0.00     0.002 C 
BRANCH  30  31
ATOM     31  C   UNL A   1      33.356  31.064  27.347  1.00  0.00     0.021 C 
BRANCH  31  32
ATOM     32  C   UNL A   1      34.512  31.986  27.698  1.00  0.00     0.116 C 
BRANCH  32  33
ATOM     33  N   UNL A   1      34.429  32.457  29.078  1.00  0.00    -0.352 N 
ATOM     34  C   UNL A   1      35.141  32.052  30.189  1.00  0.00     0.251 C 
ATOM     35  H   UNL A   1      33.768  33.168  29.240  1.00  0.00     0.163 HD
ATOM     36  O   UNL A   1      34.746  32.302  31.313  1.00  0.00    -0.269 OA
BRANCH  34  37
ATOM     37  C   UNL A   1      36.391  31.301  29.987  1.00  0.00     0.039 A 
ATOM     38  C   UNL A   1      37.591  31.962  29.721  1.00  0.00     0.014 A 
ATOM     39  C   UNL A   1      36.350  29.915  30.100  1.00  0.00     0.014 A 
ATOM     40  C   UNL A   1      38.761  31.214  29.649  1.00  0.00     0.010 A 
ATOM     41  C   UNL A   1      37.517  29.208  30.213  1.00  0.00     0.010 A 
ATOM     42  C   UNL A   1      38.719  29.836  29.918  1.00  0.00    -0.014 A 
BRANCH  42  43
ATOM     43  C   UNL A   1      39.940  29.047  29.954  1.00  0.00     0.031 A 
ATOM     44  C   UNL A   1      40.543  28.874  31.301  1.00  0.00     0.074 A 
ATOM     45  C   UNL A   1      40.418  28.367  28.890  1.00  0.00     0.049 A 
ATOM     46  N   UNL A   1      41.635  29.400  31.742  1.00  0.00    -0.248 NA
ATOM     47  C   UNL A   1      39.783  28.133  32.319  1.00  0.00     0.031 C 
ATOM     48  C   UNL A   1      39.811  28.154  27.572  1.00  0.00     0.029 A 
ATOM     49  N   UNL A   1      41.560  27.637  28.812  1.00  0.00    -0.354 N 
ATOM     50  C   UNL A   1      41.813  28.903  33.029  1.00  0.00     0.074 A 
ATOM     51  C   UNL A   1      40.571  28.269  33.388  1.00  0.00     0.031 C 
ATOM     52  C   UNL A   1      40.475  27.173  26.920  1.00  0.00     0.029 A 
ATOM     53  C   UNL A   1      41.654  26.828  27.690  1.00  0.00     0.049 A 
ATOM     54  H   UNL A   1      42.266  27.676  29.499  1.00  0.00     0.167 HD
ATOM     55  C   UNL A   1      43.050  28.866  33.602  1.00  0.00     0.037 A 
ATOM     56  C   UNL A   1      42.633  25.932  27.422  1.00  0.00     0.037 A 
ATOM     57  C   UNL A   1      43.976  29.719  32.895  1.00  0.00     0.049 A 
ATOM     58  C   UNL A   1      43.810  26.308  28.244  1.00  0.00     0.074 A 
ATOM     59  C   UNL A   1      44.006  31.065  32.582  1.00  0.00     0.029 A 
ATOM     60  N   UNL A   1      44.879  29.126  32.045  1.00  0.00    -0.354 N 
ATOM     61  N   UNL A   1      44.512  27.390  28.048  1.00  0.00    -0.248 NA
ATOM     62  C   UNL A   1      43.920  25.726  29.573  1.00  0.00     0.031 C 
ATOM     63  C   UNL A   1      44.505  31.118  31.246  1.00  0.00     0.029 A 
ATOM     64  C   UNL A   1      44.821  29.815  30.858  1.00  0.00     0.049 A 
ATOM     65  H   UNL A   1      45.456  28.356  32.247  1.00  0.00     0.167 HD
ATOM     66  C   UNL A   1      44.793  27.865  29.322  1.00  0.00     0.074 A 
ATOM     67  C   UNL A   1      44.481  26.752  30.218  1.00  0.00     0.031 C 
ATOM     68  C   UNL A   1      44.975  29.197  29.561  1.00  0.00     0.037 A 
BRANCH  55  69
ATOM     69  C   UNL A   1      43.517  27.801  34.563  1.00  0.00     0.057 A 
ATOM     70  C   UNL A   1      43.948  28.178  35.849  1.00  0.00     0.134 A 
ATOM     71  C   UNL A   1      43.837  26.480  34.190  1.00  0.00     0.134 A 
ATOM     72  F   UNL A   1      43.712  29.412  36.320  1.00  0.00    -0.206 F 
ATOM     73  C   UNL A   1      44.712  27.333  36.664  1.00  0.00     0.040 A 
ATOM     74  C   UNL A   1      44.554  25.611  35.017  1.00  0.00     0.040 A 
ATOM     75  F   UNL A   1      43.569  25.991  32.974  1.00  0.00    -0.206 F 
ATOM     76  C   UNL A   1      45.026  26.047  36.244  1.00  0.00     0.006 A 
ENDBRANCH  55  69
BRANCH  56  77
ATOM     77  C   UNL A   1      42.524  24.634  26.724  1.00  0.00     0.057 A 
ATOM     78  C   UNL A   1      43.085  24.445  25.455  1.00  0.00     0.134 A 
ATOM     79  C   UNL A   1      42.113  23.472  27.400  1.00  0.00     0.134 A 
ATOM     80  F   UNL A   1      43.538  25.490  24.748  1.00  0.00    -0.206 F 
ATOM     81  C   UNL A   1      43.257  23.169  24.901  1.00  0.00     0.040 A 
ATOM     82  C   UNL A   1      42.274  22.193  26.856  1.00  0.00     0.040 A 
ATOM     83  F   UNL A   1      41.625  23.530  28.648  1.00  0.00    -0.206 F 
ATOM     84  C   UNL A   1      42.863  22.038  25.608  1.00  0.00     0.006 A 
ENDBRANCH  56  77
BRANCH  68  85
ATOM     85  C   UNL A   1      45.095  30.123  28.379  1.00  0.00     0.057 A 
ATOM     86  C   UNL A   1      44.010  30.764  27.763  1.00  0.00     0.134 A 
ATOM     87  C   UNL A   1      46.372  30.501  27.949  1.00  0.00     0.134 A 
ATOM     88  F   UNL A   1      42.753  30.549  28.170  1.00  0.00    -0.206 F 
ATOM     89  C   UNL A   1      44.184  31.700  26.738  1.00  0.00     0.040 A 
ATOM     90  C   UNL A   1      46.562  31.461  26.950  1.00  0.00     0.040 A 
ATOM     91  F   UNL A   1      47.463  29.977  28.528  1.00  0.00    -0.206 F 
ATOM     92  C   UNL A   1      45.466  32.055  26.333  1.00  0.00     0.006 A 
ENDBRANCH  68  85
ENDBRANCH  42  43
ENDBRANCH  34  37
ENDBRANCH  32  33
ENDBRANCH  31  32
ENDBRANCH  30  31
ENDBRANCH   1  30
TORSDOF 15
ENDMDL
MODEL 3
REMARK VINA RESULT:     -11.2      3.266      8.235
REMARK SMILES Cc1nsc(NC(=O)[C@H]2Cc3[nH]cnc3C[NH2+]2)c1C(=O)NCCCCCCNC(=O)c1ccc(-c2c3nc(c(-c4c(F)cccc4F)c4ccc([nH]4)c(-c4c(F)cccc4F)c4nc(c(-c5c(F)cccc5F)c5ccc2[nH]5)C=C4)C=C3)cc1
REMARK SMILES IDX 24 1 23 2 22 3 21 4 19 5 20 6 18 8 1 9 2 10 3 11 4 12 5 13
REMARK SMILES IDX 6 14 7 15 8 17 9 18 10 19 17 20 11 21 16 22 12 25 15 26
REMARK SMILES IDX 13 27 14 29 25 30 26 31 27 32 28 33 29 34 30 36 31 37 32 38
REMARK SMILES IDX 84 39 33 40 83 41 34 42 35 43 36 44 77 45 37 46 82 47 76 48
REMARK SMILES IDX 78 49 38 50 81 51 75 52 74 53 39 55 65 56 48 57 64 58 49 59
REMARK SMILES IDX 52 60 63 61 79 62 50 63 51 64 62 66 80 67 53 68 40 69 41 70
REMARK SMILES IDX 46 71 42 72 43 73 45 74 47 75 44 76 66 77 67 78 72 79 68 80
REMARK SMILES IDX 69 81 71 82 73 83 70 84 54 85 55 86 60 87 56 88 57 89 59 90
REMARK SMILES IDX 61 91 58 92
REMARK H PARENT 21 7 6 16 17 23 17 24 12 28 28 35 78 54 52 65
REMARK Flexibility Score: inf
ROOT
ATOM      1  C   UNL A   1      33.878  28.707  26.695  1.00  0.00     0.002 C 
ENDROOT
BRANCH   1   2
ATOM      2  C   UNL A   1      32.733  28.326  27.637  1.00  0.00     0.021 C 
BRANCH   2   3
ATOM      3  C   UNL A   1      31.367  28.375  26.957  1.00  0.00     0.116 C 
BRANCH   3   4
ATOM      4  N   UNL A   1      30.810  27.063  26.829  1.00  0.00    -0.352 N 
ATOM      5  C   UNL A   1      30.808  26.124  25.846  1.00  0.00     0.256 C 
ATOM      6  O   UNL A   1      30.247  25.073  26.184  1.00  0.00    -0.269 OA
ATOM      7  H   UNL A   1      30.317  26.777  27.631  1.00  0.00     0.163 HD
BRANCH   5   8
ATOM      8  C   UNL A   1      31.441  26.231  24.518  1.00  0.00     0.097 A 
ATOM      9  C   UNL A   1      34.131  25.812  24.613  1.00  0.00     0.069 C 
ATOM     10  C   UNL A   1      32.804  26.068  23.985  1.00  0.00     0.066 A 
ATOM     11  N   UNL A   1      32.919  26.175  22.662  1.00  0.00    -0.195 NA
ATOM     12  S   UNL A   1      31.475  26.488  22.014  1.00  0.00    -0.017 S 
ATOM     13  C   UNL A   1      30.616  26.637  23.446  1.00  0.00     0.129 A 
BRANCH  13  14
ATOM     14  N   UNL A   1      29.285  27.027  23.503  1.00  0.00    -0.311 N 
ATOM     15  C   UNL A   1      28.583  28.181  23.294  1.00  0.00     0.283 C 
ATOM     16  H   UNL A   1      28.695  26.282  23.759  1.00  0.00     0.171 HD
ATOM     17  O   UNL A   1      27.357  28.107  23.476  1.00  0.00    -0.268 OA
BRANCH  15  18
ATOM     18  C   UNL A   1      29.193  29.555  22.952  1.00  0.00     0.279 C 
ATOM     19  C   UNL A   1      29.033  29.831  21.420  1.00  0.00     0.131 C 
ATOM     20  N   UNL A   1      28.770  30.569  23.971  1.00  0.00    -0.331 N 
ATOM     21  C   UNL A   1      28.596  31.226  21.206  1.00  0.00     0.050 A 
ATOM     22  C   UNL A   1      29.035  31.972  23.574  1.00  0.00     0.320 C 
ATOM     23  H   UNL A   1      29.274  30.380  24.838  1.00  0.00     0.347 HD
ATOM     24  H   UNL A   1      27.760  30.477  24.075  1.00  0.00     0.347 HD
ATOM     25  N   UNL A   1      27.986  31.767  20.113  1.00  0.00    -0.348 N 
ATOM     26  C   UNL A   1      28.572  32.199  22.176  1.00  0.00     0.116 A 
ATOM     27  C   UNL A   1      27.574  33.022  20.481  1.00  0.00     0.197 A 
ATOM     28  H   UNL A   1      27.866  31.341  19.235  1.00  0.00     0.167 HD
ATOM     29  N   UNL A   1      27.929  33.316  21.715  1.00  0.00    -0.236 NA
ENDBRANCH  15  18
ENDBRANCH  13  14
ENDBRANCH   5   8
ENDBRANCH   3   4
ENDBRANCH   2   3
ENDBRANCH   1   2
BRANCH   1  30
ATOM     30  C   UNL A   1      34.677  29.956  27.102  1.00  0.00     0.002 C 
BRANCH  30  31
ATOM     31  C   UNL A   1      33.864  31.131  27.670  1.00  0.00     0.021 C 
BRANCH  31  32
ATOM     32  C   UNL A   1      34.714  32.339  28.027  1.00  0.00     0.116 C 
BRANCH  32  33
ATOM     33  N   UNL A   1      34.620  32.665  29.448  1.00  0.00    -0.352 N 
ATOM     34  C   UNL A   1      35.311  32.133  30.518  1.00  0.00     0.251 C 
ATOM     35  H   UNL A   1      33.969  33.367  29.676  1.00  0.00     0.163 HD
ATOM     36  O   UNL A   1      34.906  32.271  31.658  1.00  0.00    -0.269 OA
BRANCH  34  37
ATOM     37  C   UNL A   1      36.551  31.386  30.253  1.00  0.00     0.039 A 
ATOM     38  C   UNL A   1      37.765  32.051  30.071  1.00  0.00     0.014 A 
ATOM     39  C   UNL A   1      36.487  29.997  30.220  1.00  0.00     0.014 A 
ATOM     40  C   UNL A   1      38.924  31.294  29.934  1.00  0.00     0.010 A 
ATOM     41  C   UNL A   1      37.640  29.262  30.271  1.00  0.00     0.010 A 
ATOM     42  C   UNL A   1      38.856  29.896  30.057  1.00  0.00    -0.014 A 
BRANCH  42  43
ATOM     43  C   UNL A   1      40.064  29.087  30.024  1.00  0.00     0.031 A 
ATOM     44  C   UNL A   1      40.707  28.855  31.343  1.00  0.00     0.074 A 
ATOM     45  C   UNL A   1      40.496  28.439  28.921  1.00  0.00     0.049 A 
ATOM     46  N   UNL A   1      41.822  29.347  31.766  1.00  0.00    -0.248 NA
ATOM     47  C   UNL A   1      39.968  28.089  32.358  1.00  0.00     0.031 C 
ATOM     48  C   UNL A   1      39.842  28.285  27.617  1.00  0.00     0.029 A 
ATOM     49  N   UNL A   1      41.622  27.694  28.779  1.00  0.00    -0.354 N 
ATOM     50  C   UNL A   1      42.033  28.800  33.028  1.00  0.00     0.074 A 
ATOM     51  C   UNL A   1      40.793  28.173  33.405  1.00  0.00     0.031 C 
ATOM     52  C   UNL A   1      40.467  27.317  26.908  1.00  0.00     0.029 A 
ATOM     53  C   UNL A   1      41.665  26.926  27.625  1.00  0.00     0.049 A 
ATOM     54  H   UNL A   1      42.349  27.697  29.443  1.00  0.00     0.167 HD
ATOM     55  C   UNL A   1      43.287  28.722  33.558  1.00  0.00     0.037 A 
ATOM     56  C   UNL A   1      42.618  26.024  27.293  1.00  0.00     0.037 A 
ATOM     57  C   UNL A   1      44.204  29.585  32.852  1.00  0.00     0.049 A 
ATOM     58  C   UNL A   1      43.828  26.350  28.089  1.00  0.00     0.074 A 
ATOM     59  C   UNL A   1      44.248  30.941  32.587  1.00  0.00     0.029 A 
ATOM     60  N   UNL A   1      45.068  29.010  31.951  1.00  0.00    -0.354 N 
ATOM     61  N   UNL A   1      44.542  27.428  27.909  1.00  0.00    -0.248 NA
ATOM     62  C   UNL A   1      43.971  25.718  29.391  1.00  0.00     0.031 C 
ATOM     63  C   UNL A   1      44.704  31.035  31.238  1.00  0.00     0.029 A 
ATOM     64  C   UNL A   1      44.984  29.742  30.793  1.00  0.00     0.049 A 
ATOM     65  H   UNL A   1      45.639  28.223  32.106  1.00  0.00     0.167 HD
ATOM     66  C   UNL A   1      44.873  27.851  29.189  1.00  0.00     0.074 A 
ATOM     67  C   UNL A   1      44.571  26.711  30.055  1.00  0.00     0.031 C 
ATOM     68  C   UNL A   1      45.085  29.170  29.470  1.00  0.00     0.037 A 
BRANCH  55  69
ATOM     69  C   UNL A   1      43.766  27.615  34.464  1.00  0.00     0.057 A 
ATOM     70  C   UNL A   1      43.781  26.292  33.984  1.00  0.00     0.134 A 
ATOM     71  C   UNL A   1      43.932  27.746  35.858  1.00  0.00     0.134 A 
ATOM     72  F   UNL A   1      43.626  26.032  32.677  1.00  0.00    -0.206 F 
ATOM     73  C   UNL A   1      43.867  25.184  34.836  1.00  0.00     0.040 A 
ATOM     74  C   UNL A   1      44.071  26.647  36.711  1.00  0.00     0.040 A 
ATOM     75  F   UNL A   1      43.864  28.926  36.483  1.00  0.00    -0.206 F 
ATOM     76  C   UNL A   1      44.003  25.359  36.206  1.00  0.00     0.006 A 
ENDBRANCH  55  69
BRANCH  56  77
ATOM     77  C   UNL A   1      42.464  24.755  26.553  1.00  0.00     0.057 A 
ATOM     78  C   UNL A   1      43.219  24.490  25.403  1.00  0.00     0.134 A 
ATOM     79  C   UNL A   1      41.781  23.660  27.111  1.00  0.00     0.134 A 
ATOM     80  F   UNL A   1      43.934  25.463  24.819  1.00  0.00    -0.206 F 
ATOM     81  C   UNL A   1      43.315  23.204  24.856  1.00  0.00     0.040 A 
ATOM     82  C   UNL A   1      41.864  22.372  26.571  1.00  0.00     0.040 A 
ATOM     83  F   UNL A   1      41.083  23.784  28.249  1.00  0.00    -0.206 F 
ATOM     84  C   UNL A   1      42.646  22.137  25.449  1.00  0.00     0.006 A 
ENDBRANCH  56  77
BRANCH  68  85
ATOM     85  C   UNL A   1      45.183  30.136  28.319  1.00  0.00     0.057 A 
ATOM     86  C   UNL A   1      44.090  30.819  27.764  1.00  0.00     0.134 A 
ATOM     87  C   UNL A   1      46.452  30.508  27.859  1.00  0.00     0.134 A 
ATOM     88  F   UNL A   1      42.844  30.612  28.206  1.00  0.00    -0.206 F 
ATOM     89  C   UNL A   1      44.247  31.789  26.769  1.00  0.00     0.040 A 
ATOM     90  C   UNL A   1      46.626  31.500  26.890  1.00  0.00     0.040 A 
ATOM     91  F   UNL A   1      47.552  29.944  28.382  1.00  0.00    -0.206 F 
ATOM     92  C   UNL A   1      45.521  32.137  26.333  1.00  0.00     0.006 A 
ENDBRANCH  68  85
ENDBRANCH  42  43
ENDBRANCH  34  37
ENDBRANCH  32  33
ENDBRANCH  31  32
ENDBRANCH  30  31
ENDBRANCH   1  30
TORSDOF 15
ENDMDL
