MODEL 1
REMARK VINA RESULT:     -12.6      0.000      0.000
REMARK SMILES Cc1cccc(C(=O)NCCCCCCNC(=O)c2ccc(-c3c4nc(c(-c5c(F)cccc5F)c5ccc([nH]5)c(-c5c(F)cccc5F)c5nc(c(-c6c(F)cccc6F)c6ccc3[nH]6)C=C5)C=C4)cc2)c1NC(=O)N[C@@H]1CCCC1(C)C
REMARK SMILES IDX 12 1 11 2 10 3 9 4 7 5 8 6 6 8 1 9 2 10 3 11 73 12 4 13 5 14
REMARK SMILES IDX 74 15 75 16 76 18 77 19 78 21 79 22 82 23 80 24 81 25 83 26
REMARK SMILES IDX 84 27 13 28 14 29 15 30 16 31 17 32 18 34 19 35 20 36 72 37
REMARK SMILES IDX 21 38 71 39 22 40 23 41 24 42 65 43 25 44 70 45 64 46 66 47
REMARK SMILES IDX 26 48 69 49 63 50 62 51 27 53 53 54 36 55 52 56 37 57 40 58
REMARK SMILES IDX 51 59 67 60 38 61 39 62 50 64 68 65 41 66 28 67 29 68 34 69
REMARK SMILES IDX 30 70 31 71 33 72 35 73 32 74 54 75 55 76 60 77 56 78 57 79
REMARK SMILES IDX 59 80 61 81 58 82 42 83 43 84 48 85 44 86 45 87 47 88 49 89
REMARK SMILES IDX 46 90
REMARK H PARENT 9 7 74 17 77 20 16 33 66 52 40 63
REMARK Flexibility Score: inf
ROOT
ATOM      1  C   UNL A   1      36.176  20.686  25.418  1.00  0.00     0.002 C 
ENDROOT
BRANCH   1   2
ATOM      2  C   UNL A   1      35.376  19.669  24.596  1.00  0.00     0.021 C 
BRANCH   2   3
ATOM      3  C   UNL A   1      33.961  19.285  25.032  1.00  0.00     0.116 C 
BRANCH   3   4
ATOM      4  N   UNL A   1      32.891  19.753  24.174  1.00  0.00    -0.352 N 
ATOM      5  C   UNL A   1      32.659  20.994  23.631  1.00  0.00     0.253 C 
ATOM      6  O   UNL A   1      32.057  21.037  22.560  1.00  0.00    -0.269 OA
ATOM      7  H   UNL A   1      32.221  19.071  23.942  1.00  0.00     0.163 HD
BRANCH   5   8
ATOM      8  C   UNL A   1      33.192  22.243  24.232  1.00  0.00     0.063 A 
ATOM      9  C   UNL A   1      34.573  22.941  27.491  1.00  0.00     0.046 C 
ATOM     10  C   UNL A   1      33.976  23.366  26.174  1.00  0.00    -0.027 A 
ATOM     11  C   UNL A   1      34.701  24.272  25.391  1.00  0.00     0.005 A 
ATOM     12  C   UNL A   1      32.980  22.603  25.556  1.00  0.00     0.058 A 
ATOM     13  C   UNL A   1      34.626  24.189  24.006  1.00  0.00     0.001 A 
ATOM     14  C   UNL A   1      33.977  23.094  23.436  1.00  0.00     0.016 A 
BRANCH  12  15
ATOM     15  N   UNL A   1      31.782  22.376  26.265  1.00  0.00    -0.307 N 
ATOM     16  C   UNL A   1      30.510  22.794  26.036  1.00  0.00     0.319 C 
ATOM     17  H   UNL A   1      31.886  21.815  27.067  1.00  0.00     0.171 HD
ATOM     18  O   UNL A   1      29.581  22.171  26.555  1.00  0.00    -0.248 OA
ATOM     19  N   UNL A   1      30.210  23.921  25.343  1.00  0.00    -0.335 N 
ATOM     20  H   UNL A   1      29.390  23.880  24.800  1.00  0.00     0.165 HD
BRANCH  19  21
ATOM     21  C   UNL A   1      30.934  25.185  25.293  1.00  0.00     0.089 C 
ATOM     22  C   UNL A   1      30.662  26.066  26.515  1.00  0.00     0.025 C 
ATOM     23  C   UNL A   1      30.611  26.149  24.114  1.00  0.00    -0.015 C 
ATOM     24  C   UNL A   1      31.261  27.416  26.122  1.00  0.00     0.003 C 
ATOM     25  C   UNL A   1      31.328  27.431  24.590  1.00  0.00     0.008 C 
ATOM     26  C   UNL A   1      31.181  25.701  22.769  1.00  0.00     0.013 C 
ATOM     27  C   UNL A   1      29.111  26.432  23.909  1.00  0.00     0.013 C 
ENDBRANCH  19  21
ENDBRANCH  12  15
ENDBRANCH   5   8
ENDBRANCH   3   4
ENDBRANCH   2   3
ENDBRANCH   1   2
BRANCH   1  28
ATOM     28  C   UNL A   1      37.422  21.366  24.834  1.00  0.00     0.002 C 
BRANCH  28  29
ATOM     29  C   UNL A   1      38.677  21.478  25.696  1.00  0.00     0.021 C 
BRANCH  29  30
ATOM     30  C   UNL A   1      39.023  22.899  26.119  1.00  0.00     0.116 C 
BRANCH  30  31
ATOM     31  N   UNL A   1      40.446  23.129  26.347  1.00  0.00    -0.352 N 
ATOM     32  C   UNL A   1      41.077  24.288  26.760  1.00  0.00     0.251 C 
ATOM     33  H   UNL A   1      41.035  22.357  26.187  1.00  0.00     0.163 HD
ATOM     34  O   UNL A   1      42.293  24.296  26.955  1.00  0.00    -0.269 OA
BRANCH  32  35
ATOM     35  C   UNL A   1      40.262  25.475  27.110  1.00  0.00     0.039 A 
ATOM     36  C   UNL A   1      40.588  26.691  26.501  1.00  0.00     0.014 A 
ATOM     37  C   UNL A   1      39.376  25.447  28.185  1.00  0.00     0.014 A 
ATOM     38  C   UNL A   1      40.263  27.881  27.144  1.00  0.00     0.010 A 
ATOM     39  C   UNL A   1      39.131  26.618  28.875  1.00  0.00     0.010 A 
ATOM     40  C   UNL A   1      39.644  27.824  28.394  1.00  0.00    -0.014 A 
BRANCH  40  41
ATOM     41  C   UNL A   1      39.612  28.963  29.302  1.00  0.00     0.031 A 
ATOM     42  C   UNL A   1      38.581  30.005  29.165  1.00  0.00     0.074 A 
ATOM     43  C   UNL A   1      40.548  29.084  30.272  1.00  0.00     0.049 A 
ATOM     44  N   UNL A   1      38.776  31.243  29.470  1.00  0.00    -0.248 NA
ATOM     45  C   UNL A   1      37.246  29.733  28.643  1.00  0.00     0.031 C 
ATOM     46  C   UNL A   1      40.589  30.077  31.342  1.00  0.00     0.029 A 
ATOM     47  N   UNL A   1      41.798  28.454  30.332  1.00  0.00    -0.354 N 
ATOM     48  C   UNL A   1      37.562  31.876  29.422  1.00  0.00     0.074 A 
ATOM     49  C   UNL A   1      36.648  30.912  28.849  1.00  0.00     0.031 C 
ATOM     50  C   UNL A   1      41.861  30.221  31.743  1.00  0.00     0.029 A 
ATOM     51  C   UNL A   1      42.691  29.410  30.872  1.00  0.00     0.049 A 
ATOM     52  H   UNL A   1      42.012  27.535  30.055  1.00  0.00     0.167 HD
ATOM     53  C   UNL A   1      37.417  33.112  29.973  1.00  0.00     0.037 A 
ATOM     54  C   UNL A   1      43.758  29.853  30.149  1.00  0.00     0.037 A 
ATOM     55  C   UNL A   1      38.657  33.614  30.552  1.00  0.00     0.049 A 
ATOM     56  C   UNL A   1      43.732  31.333  29.824  1.00  0.00     0.074 A 
ATOM     57  C   UNL A   1      39.181  33.652  31.834  1.00  0.00     0.029 A 
ATOM     58  N   UNL A   1      39.709  33.905  29.706  1.00  0.00    -0.354 N 
ATOM     59  N   UNL A   1      42.784  32.156  30.180  1.00  0.00    -0.248 NA
ATOM     60  C   UNL A   1      44.735  31.977  28.974  1.00  0.00     0.031 C 
ATOM     61  C   UNL A   1      40.566  33.972  31.741  1.00  0.00     0.029 A 
ATOM     62  C   UNL A   1      40.877  34.135  30.403  1.00  0.00     0.049 A 
ATOM     63  H   UNL A   1      39.634  33.944  28.724  1.00  0.00     0.167 HD
ATOM     64  C   UNL A   1      42.984  33.367  29.569  1.00  0.00     0.074 A 
ATOM     65  C   UNL A   1      44.225  33.212  28.835  1.00  0.00     0.031 C 
ATOM     66  C   UNL A   1      42.094  34.397  29.657  1.00  0.00     0.037 A 
BRANCH  53  67
ATOM     67  C   UNL A   1      36.069  33.742  30.164  1.00  0.00     0.057 A 
ATOM     68  C   UNL A   1      35.304  34.174  29.067  1.00  0.00     0.134 A 
ATOM     69  C   UNL A   1      35.496  33.980  31.425  1.00  0.00     0.134 A 
ATOM     70  F   UNL A   1      35.696  33.953  27.806  1.00  0.00    -0.206 F 
ATOM     71  C   UNL A   1      34.105  34.880  29.217  1.00  0.00     0.040 A 
ATOM     72  C   UNL A   1      34.325  34.729  31.592  1.00  0.00     0.040 A 
ATOM     73  F   UNL A   1      36.050  33.483  32.542  1.00  0.00    -0.206 F 
ATOM     74  C   UNL A   1      33.630  35.194  30.483  1.00  0.00     0.006 A 
ENDBRANCH  53  67
BRANCH  54  75
ATOM     75  C   UNL A   1      44.344  28.796  29.282  1.00  0.00     0.057 A 
ATOM     76  C   UNL A   1      45.146  27.806  29.877  1.00  0.00     0.134 A 
ATOM     77  C   UNL A   1      43.853  28.535  28.002  1.00  0.00     0.134 A 
ATOM     78  F   UNL A   1      45.655  27.998  31.104  1.00  0.00    -0.206 F 
ATOM     79  C   UNL A   1      45.354  26.564  29.274  1.00  0.00     0.040 A 
ATOM     80  C   UNL A   1      44.068  27.300  27.381  1.00  0.00     0.040 A 
ATOM     81  F   UNL A   1      43.066  29.423  27.376  1.00  0.00    -0.206 F 
ATOM     82  C   UNL A   1      44.783  26.297  28.034  1.00  0.00     0.006 A 
ENDBRANCH  54  75
BRANCH  66  83
ATOM     83  C   UNL A   1      42.303  35.741  29.015  1.00  0.00     0.057 A 
ATOM     84  C   UNL A   1      41.679  36.108  27.815  1.00  0.00     0.134 A 
ATOM     85  C   UNL A   1      43.242  36.665  29.519  1.00  0.00     0.134 A 
ATOM     86  F   UNL A   1      40.818  35.281  27.204  1.00  0.00    -0.206 F 
ATOM     87  C   UNL A   1      41.936  37.331  27.183  1.00  0.00     0.040 A 
ATOM     88  C   UNL A   1      43.545  37.865  28.872  1.00  0.00     0.040 A 
ATOM     89  F   UNL A   1      43.891  36.452  30.672  1.00  0.00    -0.206 F 
ATOM     90  C   UNL A   1      42.881  38.209  27.704  1.00  0.00     0.006 A 
ENDBRANCH  66  83
ENDBRANCH  40  41
ENDBRANCH  32  35
ENDBRANCH  30  31
ENDBRANCH  29  30
ENDBRANCH  28  29
ENDBRANCH   1  28
TORSDOF 15
ENDMDL
MODEL 2
REMARK VINA RESULT:     -12.5      3.477      9.112
REMARK SMILES Cc1cccc(C(=O)NCCCCCCNC(=O)c2ccc(-c3c4nc(c(-c5c(F)cccc5F)c5ccc([nH]5)c(-c5c(F)cccc5F)c5nc(c(-c6c(F)cccc6F)c6ccc3[nH]6)C=C5)C=C4)cc2)c1NC(=O)N[C@@H]1CCCC1(C)C
REMARK SMILES IDX 12 1 11 2 10 3 9 4 7 5 8 6 6 8 1 9 2 10 3 11 73 12 4 13 5 14
REMARK SMILES IDX 74 15 75 16 76 18 77 19 78 21 79 22 82 23 80 24 81 25 83 26
REMARK SMILES IDX 84 27 13 28 14 29 15 30 16 31 17 32 18 34 19 35 20 36 72 37
REMARK SMILES IDX 21 38 71 39 22 40 23 41 24 42 65 43 25 44 70 45 64 46 66 47
REMARK SMILES IDX 26 48 69 49 63 50 62 51 27 53 53 54 36 55 52 56 37 57 40 58
REMARK SMILES IDX 51 59 67 60 38 61 39 62 50 64 68 65 41 66 28 67 29 68 34 69
REMARK SMILES IDX 30 70 31 71 33 72 35 73 32 74 54 75 55 76 60 77 56 78 57 79
REMARK SMILES IDX 59 80 61 81 58 82 42 83 43 84 48 85 44 86 45 87 47 88 49 89
REMARK SMILES IDX 46 90
REMARK H PARENT 9 7 74 17 77 20 16 33 66 52 40 63
REMARK Flexibility Score: inf
ROOT
ATOM      1  C   UNL A   1      34.092  28.804  25.650  1.00  0.00     0.002 C 
ENDROOT
BRANCH   1   2
ATOM      2  C   UNL A   1      33.147  29.304  24.551  1.00  0.00     0.021 C 
BRANCH   2   3
ATOM      3  C   UNL A   1      33.467  29.014  23.084  1.00  0.00     0.116 C 
BRANCH   3   4
ATOM      4  N   UNL A   1      32.409  28.378  22.324  1.00  0.00    -0.352 N 
ATOM      5  C   UNL A   1      31.516  27.397  22.684  1.00  0.00     0.253 C 
ATOM      6  O   UNL A   1      30.423  27.396  22.122  1.00  0.00    -0.269 OA
ATOM      7  H   UNL A   1      32.315  28.701  21.399  1.00  0.00     0.163 HD
BRANCH   5   8
ATOM      8  C   UNL A   1      31.789  26.428  23.776  1.00  0.00     0.063 A 
ATOM      9  C   UNL A   1      34.862  25.388  25.353  1.00  0.00     0.046 C 
ATOM     10  C   UNL A   1      33.399  25.216  25.035  1.00  0.00    -0.027 A 
ATOM     11  C   UNL A   1      32.508  25.095  26.108  1.00  0.00     0.005 A 
ATOM     12  C   UNL A   1      32.886  25.578  23.785  1.00  0.00     0.058 A 
ATOM     13  C   UNL A   1      31.221  25.605  25.989  1.00  0.00     0.001 A 
ATOM     14  C   UNL A   1      30.912  26.383  24.873  1.00  0.00     0.016 A 
BRANCH  12  15
ATOM     15  N   UNL A   1      33.424  24.952  22.641  1.00  0.00    -0.307 N 
ATOM     16  C   UNL A   1      33.290  23.687  22.165  1.00  0.00     0.319 C 
ATOM     17  H   UNL A   1      33.996  25.534  22.091  1.00  0.00     0.171 HD
ATOM     18  O   UNL A   1      33.528  23.477  20.973  1.00  0.00    -0.248 OA
ATOM     19  N   UNL A   1      33.000  22.620  22.951  1.00  0.00    -0.335 N 
ATOM     20  H   UNL A   1      32.438  21.927  22.537  1.00  0.00     0.165 HD
BRANCH  19  21
ATOM     21  C   UNL A   1      33.408  22.359  24.326  1.00  0.00     0.089 C 
ATOM     22  C   UNL A   1      34.816  21.767  24.418  1.00  0.00     0.025 C 
ATOM     23  C   UNL A   1      32.565  21.336  25.141  1.00  0.00    -0.015 C 
ATOM     24  C   UNL A   1      34.916  21.308  25.872  1.00  0.00     0.003 C 
ATOM     25  C   UNL A   1      33.476  21.132  26.371  1.00  0.00     0.008 C 
ATOM     26  C   UNL A   1      31.201  21.862  25.583  1.00  0.00     0.013 C 
ATOM     27  C   UNL A   1      32.332  19.988  24.432  1.00  0.00     0.013 C 
ENDBRANCH  19  21
ENDBRANCH  12  15
ENDBRANCH   5   8
ENDBRANCH   3   4
ENDBRANCH   2   3
ENDBRANCH   1   2
BRANCH   1  28
ATOM     28  C   UNL A   1      33.735  28.971  27.133  1.00  0.00     0.002 C 
BRANCH  28  29
ATOM     29  C   UNL A   1      33.660  30.377  27.722  1.00  0.00     0.021 C 
BRANCH  29  30
ATOM     30  C   UNL A   1      34.949  31.178  27.601  1.00  0.00     0.116 C 
BRANCH  30  31
ATOM     31  N   UNL A   1      35.464  31.686  28.869  1.00  0.00    -0.352 N 
ATOM     32  C   UNL A   1      36.405  31.118  29.708  1.00  0.00     0.251 C 
ATOM     33  H   UNL A   1      35.092  32.547  29.167  1.00  0.00     0.163 HD
ATOM     34  O   UNL A   1      36.767  31.710  30.725  1.00  0.00    -0.269 OA
BRANCH  32  35
ATOM     35  C   UNL A   1      37.082  29.865  29.299  1.00  0.00     0.039 A 
ATOM     36  C   UNL A   1      37.419  28.951  30.301  1.00  0.00     0.014 A 
ATOM     37  C   UNL A   1      37.594  29.712  28.012  1.00  0.00     0.014 A 
ATOM     38  C   UNL A   1      38.478  28.072  30.092  1.00  0.00     0.010 A 
ATOM     39  C   UNL A   1      38.704  28.910  27.829  1.00  0.00     0.010 A 
ATOM     40  C   UNL A   1      39.192  28.152  28.895  1.00  0.00    -0.014 A 
BRANCH  40  41
ATOM     41  C   UNL A   1      40.516  27.567  28.735  1.00  0.00     0.031 A 
ATOM     42  C   UNL A   1      40.673  26.141  28.401  1.00  0.00     0.074 A 
ATOM     43  C   UNL A   1      41.620  28.328  28.914  1.00  0.00     0.049 A 
ATOM     44  N   UNL A   1      41.673  25.425  28.792  1.00  0.00    -0.248 NA
ATOM     45  C   UNL A   1      39.692  25.400  27.617  1.00  0.00     0.031 C 
ATOM     46  C   UNL A   1      43.007  27.946  28.666  1.00  0.00     0.029 A 
ATOM     47  N   UNL A   1      41.711  29.549  29.595  1.00  0.00    -0.354 N 
ATOM     48  C   UNL A   1      41.604  24.226  28.132  1.00  0.00     0.074 A 
ATOM     49  C   UNL A   1      40.326  24.233  27.454  1.00  0.00     0.031 C 
ATOM     50  C   UNL A   1      43.804  28.708  29.430  1.00  0.00     0.029 A 
ATOM     51  C   UNL A   1      42.952  29.527  30.273  1.00  0.00     0.049 A 
ATOM     52  H   UNL A   1      41.047  30.275  29.601  1.00  0.00     0.167 HD
ATOM     53  C   UNL A   1      42.679  23.391  28.127  1.00  0.00     0.037 A 
ATOM     54  C   UNL A   1      43.005  29.592  31.634  1.00  0.00     0.037 A 
ATOM     55  C   UNL A   1      43.803  23.923  28.886  1.00  0.00     0.049 A 
ATOM     56  C   UNL A   1      43.595  28.369  32.304  1.00  0.00     0.074 A 
ATOM     57  C   UNL A   1      44.962  24.604  28.551  1.00  0.00     0.029 A 
ATOM     58  N   UNL A   1      43.671  24.055  30.255  1.00  0.00    -0.354 N 
ATOM     59  N   UNL A   1      44.027  27.311  31.674  1.00  0.00    -0.248 NA
ATOM     60  C   UNL A   1      43.645  28.207  33.759  1.00  0.00     0.031 C 
ATOM     61  C   UNL A   1      45.523  25.145  29.744  1.00  0.00     0.029 A 
ATOM     62  C   UNL A   1      44.707  24.785  30.800  1.00  0.00     0.049 A 
ATOM     63  H   UNL A   1      42.928  23.673  30.778  1.00  0.00     0.167 HD
ATOM     64  C   UNL A   1      44.321  26.330  32.587  1.00  0.00     0.074 A 
ATOM     65  C   UNL A   1      44.080  26.941  33.880  1.00  0.00     0.031 C 
ATOM     66  C   UNL A   1      44.687  25.067  32.225  1.00  0.00     0.037 A 
BRANCH  53  67
ATOM     67  C   UNL A   1      42.746  22.191  27.229  1.00  0.00     0.057 A 
ATOM     68  C   UNL A   1      41.915  21.077  27.436  1.00  0.00     0.134 A 
ATOM     69  C   UNL A   1      43.649  22.073  26.159  1.00  0.00     0.134 A 
ATOM     70  F   UNL A   1      40.962  21.077  28.377  1.00  0.00    -0.206 F 
ATOM     71  C   UNL A   1      42.042  19.895  26.699  1.00  0.00     0.040 A 
ATOM     72  C   UNL A   1      43.824  20.880  25.447  1.00  0.00     0.040 A 
ATOM     73  F   UNL A   1      44.391  23.119  25.760  1.00  0.00    -0.206 F 
ATOM     74  C   UNL A   1      43.024  19.779  25.725  1.00  0.00     0.006 A 
ENDBRANCH  53  67
BRANCH  54  75
ATOM     75  C   UNL A   1      41.937  30.453  32.209  1.00  0.00     0.057 A 
ATOM     76  C   UNL A   1      42.079  31.849  32.122  1.00  0.00     0.134 A 
ATOM     77  C   UNL A   1      40.665  29.957  32.497  1.00  0.00     0.134 A 
ATOM     78  F   UNL A   1      43.277  32.391  31.854  1.00  0.00    -0.206 F 
ATOM     79  C   UNL A   1      40.981  32.709  32.201  1.00  0.00     0.040 A 
ATOM     80  C   UNL A   1      39.560  30.810  32.596  1.00  0.00     0.040 A 
ATOM     81  F   UNL A   1      40.447  28.637  32.580  1.00  0.00    -0.206 F 
ATOM     82  C   UNL A   1      39.709  32.183  32.405  1.00  0.00     0.006 A 
ENDBRANCH  54  75
BRANCH  66  83
ATOM     83  C   UNL A   1      45.037  23.982  33.206  1.00  0.00     0.057 A 
ATOM     84  C   UNL A   1      44.148  22.949  33.535  1.00  0.00     0.134 A 
ATOM     85  C   UNL A   1      46.234  24.014  33.949  1.00  0.00     0.134 A 
ATOM     86  F   UNL A   1      42.948  22.856  32.944  1.00  0.00    -0.206 F 
ATOM     87  C   UNL A   1      44.451  21.986  34.506  1.00  0.00     0.040 A 
ATOM     88  C   UNL A   1      46.525  23.090  34.955  1.00  0.00     0.040 A 
ATOM     89  F   UNL A   1      47.183  24.932  33.718  1.00  0.00    -0.206 F 
ATOM     90  C   UNL A   1      45.637  22.061  35.229  1.00  0.00     0.006 A 
ENDBRANCH  66  83
ENDBRANCH  40  41
ENDBRANCH  32  35
ENDBRANCH  30  31
ENDBRANCH  29  30
ENDBRANCH  28  29
ENDBRANCH   1  28
TORSDOF 15
ENDMDL
MODEL 3
REMARK VINA RESULT:     -12.0      1.105      1.778
REMARK SMILES Cc1cccc(C(=O)NCCCCCCNC(=O)c2ccc(-c3c4nc(c(-c5c(F)cccc5F)c5ccc([nH]5)c(-c5c(F)cccc5F)c5nc(c(-c6c(F)cccc6F)c6ccc3[nH]6)C=C5)C=C4)cc2)c1NC(=O)N[C@@H]1CCCC1(C)C
REMARK SMILES IDX 12 1 11 2 10 3 9 4 7 5 8 6 6 8 1 9 2 10 3 11 73 12 4 13 5 14
REMARK SMILES IDX 74 15 75 16 76 18 77 19 78 21 79 22 82 23 80 24 81 25 83 26
REMARK SMILES IDX 84 27 13 28 14 29 15 30 16 31 17 32 18 34 19 35 20 36 72 37
REMARK SMILES IDX 21 38 71 39 22 40 23 41 24 42 65 43 25 44 70 45 64 46 66 47
REMARK SMILES IDX 26 48 69 49 63 50 62 51 27 53 53 54 36 55 52 56 37 57 40 58
REMARK SMILES IDX 51 59 67 60 38 61 39 62 50 64 68 65 41 66 28 67 29 68 34 69
REMARK SMILES IDX 30 70 31 71 33 72 35 73 32 74 54 75 55 76 60 77 56 78 57 79
REMARK SMILES IDX 59 80 61 81 58 82 42 83 43 84 48 85 44 86 45 87 47 88 49 89
REMARK SMILES IDX 46 90
REMARK H PARENT 9 7 74 17 77 20 16 33 66 52 40 63
REMARK Flexibility Score: inf
ROOT
ATOM      1  C   UNL A   1      36.460  23.243  24.796  1.00  0.00     0.002 C 
ENDROOT
BRANCH   1   2
ATOM      2  C   UNL A   1      36.330  21.859  24.149  1.00  0.00     0.021 C 
BRANCH   2   3
ATOM      3  C   UNL A   1      36.570  20.603  24.988  1.00  0.00     0.116 C 
BRANCH   3   4
ATOM      4  N   UNL A   1      35.462  19.670  25.053  1.00  0.00    -0.352 N 
ATOM      5  C   UNL A   1      34.113  19.893  25.188  1.00  0.00     0.253 C 
ATOM      6  O   UNL A   1      33.352  19.064  24.693  1.00  0.00    -0.269 OA
ATOM      7  H   UNL A   1      35.718  18.722  24.990  1.00  0.00     0.163 HD
BRANCH   5   8
ATOM      8  C   UNL A   1      33.564  21.126  25.807  1.00  0.00     0.063 A 
ATOM      9  C   UNL A   1      30.198  22.403  26.040  1.00  0.00     0.046 C 
ATOM     10  C   UNL A   1      31.695  22.560  26.119  1.00  0.00    -0.027 A 
ATOM     11  C   UNL A   1      32.237  23.051  27.313  1.00  0.00     0.005 A 
ATOM     12  C   UNL A   1      32.538  21.871  25.241  1.00  0.00     0.058 A 
ATOM     13  C   UNL A   1      33.485  22.608  27.729  1.00  0.00     0.001 A 
ATOM     14  C   UNL A   1      34.082  21.551  27.041  1.00  0.00     0.016 A 
BRANCH  12  15
ATOM     15  N   UNL A   1      32.377  22.092  23.857  1.00  0.00    -0.307 N 
ATOM     16  C   UNL A   1      32.799  23.105  23.055  1.00  0.00     0.319 C 
ATOM     17  H   UNL A   1      31.871  21.390  23.390  1.00  0.00     0.171 HD
ATOM     18  O   UNL A   1      32.878  22.902  21.841  1.00  0.00    -0.248 OA
ATOM     19  N   UNL A   1      33.048  24.359  23.507  1.00  0.00    -0.335 N 
ATOM     20  H   UNL A   1      33.786  24.833  23.059  1.00  0.00     0.165 HD
BRANCH  19  21
ATOM     21  C   UNL A   1      32.374  25.103  24.564  1.00  0.00     0.089 C 
ATOM     22  C   UNL A   1      31.018  25.655  24.118  1.00  0.00     0.025 C 
ATOM     23  C   UNL A   1      33.085  26.374  25.110  1.00  0.00    -0.015 C 
ATOM     24  C   UNL A   1      30.639  26.619  25.242  1.00  0.00     0.003 C 
ATOM     25  C   UNL A   1      31.947  26.999  25.947  1.00  0.00     0.008 C 
ATOM     26  C   UNL A   1      34.288  26.080  26.004  1.00  0.00     0.013 C 
ATOM     27  C   UNL A   1      33.546  27.367  24.027  1.00  0.00     0.013 C 
ENDBRANCH  19  21
ENDBRANCH  12  15
ENDBRANCH   5   8
ENDBRANCH   3   4
ENDBRANCH   2   3
ENDBRANCH   1   2
BRANCH   1  28
ATOM     28  C   UNL A   1      37.634  23.570  25.728  1.00  0.00     0.002 C 
BRANCH  28  29
ATOM     29  C   UNL A   1      38.807  22.597  25.810  1.00  0.00     0.021 C 
BRANCH  29  30
ATOM     30  C   UNL A   1      39.762  22.861  26.965  1.00  0.00     0.116 C 
BRANCH  30  31
ATOM     31  N   UNL A   1      41.082  23.333  26.560  1.00  0.00    -0.352 N 
ATOM     32  C   UNL A   1      41.538  24.633  26.450  1.00  0.00     0.251 C 
ATOM     33  H   UNL A   1      41.736  22.631  26.336  1.00  0.00     0.163 HD
ATOM     34  O   UNL A   1      42.709  24.856  26.141  1.00  0.00    -0.269 OA
BRANCH  32  35
ATOM     35  C   UNL A   1      40.651  25.751  26.851  1.00  0.00     0.039 A 
ATOM     36  C   UNL A   1      40.852  26.992  26.240  1.00  0.00     0.014 A 
ATOM     37  C   UNL A   1      39.823  25.647  27.967  1.00  0.00     0.014 A 
ATOM     38  C   UNL A   1      40.467  28.149  26.910  1.00  0.00     0.010 A 
ATOM     39  C   UNL A   1      39.522  26.790  28.681  1.00  0.00     0.010 A 
ATOM     40  C   UNL A   1      39.916  28.036  28.188  1.00  0.00    -0.014 A 
BRANCH  40  41
ATOM     41  C   UNL A   1      39.840  29.162  29.108  1.00  0.00     0.031 A 
ATOM     42  C   UNL A   1      38.771  30.167  28.980  1.00  0.00     0.074 A 
ATOM     43  C   UNL A   1      40.769  29.307  30.081  1.00  0.00     0.049 A 
ATOM     44  N   UNL A   1      38.920  31.408  29.298  1.00  0.00    -0.248 NA
ATOM     45  C   UNL A   1      37.449  29.852  28.451  1.00  0.00     0.031 C 
ATOM     46  C   UNL A   1      40.771  30.290  31.162  1.00  0.00     0.029 A 
ATOM     47  N   UNL A   1      42.041  28.724  30.137  1.00  0.00    -0.354 N 
ATOM     48  C   UNL A   1      37.683  31.997  29.254  1.00  0.00     0.074 A 
ATOM     49  C   UNL A   1      36.807  31.005  28.669  1.00  0.00     0.031 C 
ATOM     50  C   UNL A   1      42.035  30.477  31.568  1.00  0.00     0.029 A 
ATOM     51  C   UNL A   1      42.897  29.706  30.690  1.00  0.00     0.049 A 
ATOM     52  H   UNL A   1      42.290  27.816  29.851  1.00  0.00     0.167 HD
ATOM     53  C   UNL A   1      37.492  33.220  29.818  1.00  0.00     0.037 A 
ATOM     54  C   UNL A   1      43.949  30.196  29.974  1.00  0.00     0.037 A 
ATOM     55  C   UNL A   1      38.711  33.761  30.406  1.00  0.00     0.049 A 
ATOM     56  C   UNL A   1      43.868  31.677  29.665  1.00  0.00     0.074 A 
ATOM     57  C   UNL A   1      39.231  33.805  31.689  1.00  0.00     0.029 A 
ATOM     58  N   UNL A   1      39.753  34.100  29.565  1.00  0.00    -0.354 N 
ATOM     59  N   UNL A   1      42.890  32.461  30.028  1.00  0.00    -0.248 NA
ATOM     60  C   UNL A   1      44.849  32.367  28.824  1.00  0.00     0.031 C 
ATOM     61  C   UNL A   1      40.603  34.177  31.603  1.00  0.00     0.029 A 
ATOM     62  C   UNL A   1      40.910  34.366  30.268  1.00  0.00     0.049 A 
ATOM     63  H   UNL A   1      39.679  34.147  28.584  1.00  0.00     0.167 HD
ATOM     64  C   UNL A   1      43.046  33.685  29.431  1.00  0.00     0.074 A 
ATOM     65  C   UNL A   1      44.294  33.585  28.698  1.00  0.00     0.031 C 
ATOM     66  C   UNL A   1      42.119  34.681  29.527  1.00  0.00     0.037 A 
BRANCH  53  67
ATOM     67  C   UNL A   1      36.121  33.798  30.013  1.00  0.00     0.057 A 
ATOM     68  C   UNL A   1      35.341  34.211  28.919  1.00  0.00     0.134 A 
ATOM     69  C   UNL A   1      35.537  34.002  31.275  1.00  0.00     0.134 A 
ATOM     70  F   UNL A   1      35.743  34.017  27.657  1.00  0.00    -0.206 F 
ATOM     71  C   UNL A   1      34.117  34.870  29.073  1.00  0.00     0.040 A 
ATOM     72  C   UNL A   1      34.339  34.705  31.447  1.00  0.00     0.040 A 
ATOM     73  F   UNL A   1      36.108  33.516  32.388  1.00  0.00    -0.206 F 
ATOM     74  C   UNL A   1      33.629  35.154  30.341  1.00  0.00     0.006 A 
ENDBRANCH  53  67
BRANCH  54  75
ATOM     75  C   UNL A   1      44.575  29.171  29.098  1.00  0.00     0.057 A 
ATOM     76  C   UNL A   1      45.427  28.217  29.681  1.00  0.00     0.134 A 
ATOM     77  C   UNL A   1      44.085  28.894  27.820  1.00  0.00     0.134 A 
ATOM     78  F   UNL A   1      45.937  28.426  30.905  1.00  0.00    -0.206 F 
ATOM     79  C   UNL A   1      45.686  26.988  29.071  1.00  0.00     0.040 A 
ATOM     80  C   UNL A   1      44.352  27.673  27.191  1.00  0.00     0.040 A 
ATOM     81  F   UNL A   1      43.254  29.748  27.205  1.00  0.00    -0.206 F 
ATOM     82  C   UNL A   1      45.118  26.701  27.834  1.00  0.00     0.006 A 
ENDBRANCH  54  75
BRANCH  66  83
ATOM     83  C   UNL A   1      42.279  36.038  28.901  1.00  0.00     0.057 A 
ATOM     84  C   UNL A   1      41.761  36.350  27.636  1.00  0.00     0.134 A 
ATOM     85  C   UNL A   1      43.072  37.040  29.497  1.00  0.00     0.134 A 
ATOM     86  F   UNL A   1      41.048  35.452  26.941  1.00  0.00    -0.206 F 
ATOM     87  C   UNL A   1      41.979  37.592  27.026  1.00  0.00     0.040 A 
ATOM     88  C   UNL A   1      43.339  38.263  28.876  1.00  0.00     0.040 A 
ATOM     89  F   UNL A   1      43.607  36.884  30.716  1.00  0.00    -0.206 F 
ATOM     90  C   UNL A   1      42.780  38.549  27.640  1.00  0.00     0.006 A 
ENDBRANCH  66  83
ENDBRANCH  40  41
ENDBRANCH  32  35
ENDBRANCH  30  31
ENDBRANCH  29  30
ENDBRANCH  28  29
ENDBRANCH   1  28
TORSDOF 15
ENDMDL
