MODEL 1
REMARK VINA RESULT:     -11.7      0.000      0.000
REMARK SMILES C[N@@H+](Cc1ncccc1C(=O)NCCCCCCNC(=O)c1ccc(-c2c3nc(c(-c4c(F)cccc4F)c4ccc([nH]4)c(-c4c(F)cccc4F)c4nc(c(-c5c(F)cccc5F)c5ccc2[nH]5)C=C4)C=C3)cc1)C[C@@H]1CCN(c2ccccc2)C1
REMARK SMILES IDX 14 1 13 2 12 3 10 4 11 5 9 7 4 8 5 9 6 10 8 11 7 12 3 13
REMARK SMILES IDX 2 14 1 15 76 17 77 18 78 19 87 20 79 21 80 22 81 23 82 24
REMARK SMILES IDX 86 25 83 26 85 27 84 28 15 29 16 30 17 31 18 32 19 33 20 34
REMARK SMILES IDX 21 36 22 37 23 38 75 39 24 40 74 41 25 42 26 43 27 44 68 45
REMARK SMILES IDX 28 46 73 47 67 48 69 49 29 50 72 51 66 52 65 53 30 55 56 56
REMARK SMILES IDX 39 57 55 58 40 59 43 60 54 61 70 62 41 63 42 64 53 66 71 67
REMARK SMILES IDX 44 68 31 69 32 70 37 71 33 72 34 73 36 74 38 75 35 76 57 77
REMARK SMILES IDX 58 78 63 79 59 80 60 81 62 82 64 83 61 84 45 85 46 86 51 87
REMARK SMILES IDX 47 88 48 89 50 90 52 91 49 92
REMARK H PARENT 12 6 2 16 19 35 69 54 43 65
REMARK Flexibility Score: inf
ROOT
ATOM      1  C   UNL A   1      36.368  23.829  25.440  1.00  0.00     0.021 C 
ENDROOT
BRANCH   1   2
ATOM      2  C   UNL A   1      35.045  24.538  25.699  1.00  0.00     0.116 C 
BRANCH   2   3
ATOM      3  N   UNL A   1      34.509  25.169  24.510  1.00  0.00    -0.352 N 
ATOM      4  C   UNL A   1      33.583  26.154  24.274  1.00  0.00     0.253 C 
ATOM      5  O   UNL A   1      33.215  26.235  23.105  1.00  0.00    -0.269 OA
ATOM      6  H   UNL A   1      34.899  24.807  23.681  1.00  0.00     0.163 HD
BRANCH   4   7
ATOM      7  C   UNL A   1      32.992  27.025  25.336  1.00  0.00     0.067 A 
ATOM      8  C   UNL A   1      31.816  26.675  26.017  1.00  0.00     0.107 A 
ATOM      9  N   UNL A   1      31.459  27.284  27.195  1.00  0.00    -0.254 NA
ATOM     10  C   UNL A   1      32.174  28.346  27.614  1.00  0.00     0.111 A 
ATOM     11  C   UNL A   1      33.563  28.250  25.698  1.00  0.00     0.017 A 
ATOM     12  C   UNL A   1      33.178  28.909  26.861  1.00  0.00     0.021 A 
BRANCH   8  13
ATOM     13  C   UNL A   1      30.716  25.796  25.420  1.00  0.00     0.320 C 
BRANCH  13  14
ATOM     14  N   UNL A   1      30.786  24.331  25.669  1.00  0.00    -0.332 N 
ATOM     15  C   UNL A   1      31.596  23.931  26.807  1.00  0.00     0.333 C 
ATOM     16  H   UNL A   1      29.826  24.141  25.957  1.00  0.00     0.348 HD
BRANCH  14  17
ATOM     17  C   UNL A   1      30.941  23.464  24.492  1.00  0.00     0.267 C 
BRANCH  17  18
ATOM     18  C   UNL A   1      32.256  22.664  24.372  1.00  0.00     0.065 C 
ATOM     19  C   UNL A   1      32.706  22.522  22.911  1.00  0.00     0.032 C 
ATOM     20  C   UNL A   1      32.176  21.209  24.875  1.00  0.00     0.126 C 
ATOM     21  C   UNL A   1      32.117  21.198  22.467  1.00  0.00     0.117 C 
ATOM     22  N   UNL A   1      32.206  20.379  23.665  1.00  0.00    -0.371 N 
BRANCH  22  23
ATOM     23  C   UNL A   1      32.934  19.203  23.710  1.00  0.00     0.037 A 
ATOM     24  C   UNL A   1      34.068  19.123  24.528  1.00  0.00     0.026 A 
ATOM     25  C   UNL A   1      32.603  18.073  22.949  1.00  0.00     0.026 A 
ATOM     26  C   UNL A   1      34.822  17.949  24.616  1.00  0.00     0.002 A 
ATOM     27  C   UNL A   1      33.362  16.900  23.019  1.00  0.00     0.002 A 
ATOM     28  C   UNL A   1      34.467  16.834  23.861  1.00  0.00     0.000 A 
ENDBRANCH  22  23
ENDBRANCH  17  18
ENDBRANCH  14  17
ENDBRANCH  13  14
ENDBRANCH   8  13
ENDBRANCH   4   7
ENDBRANCH   2   3
ENDBRANCH   1   2
BRANCH   1  29
ATOM     29  C   UNL A   1      36.352  22.310  25.618  1.00  0.00     0.002 C 
BRANCH  29  30
ATOM     30  C   UNL A   1      36.943  21.491  24.466  1.00  0.00     0.002 C 
BRANCH  30  31
ATOM     31  C   UNL A   1      37.777  20.272  24.868  1.00  0.00     0.021 C 
BRANCH  31  32
ATOM     32  C   UNL A   1      38.939  20.562  25.807  1.00  0.00     0.116 C 
BRANCH  32  33
ATOM     33  N   UNL A   1      39.933  19.505  25.799  1.00  0.00    -0.352 N 
ATOM     34  C   UNL A   1      41.279  19.591  26.066  1.00  0.00     0.251 C 
ATOM     35  H   UNL A   1      39.600  18.607  25.572  1.00  0.00     0.163 HD
ATOM     36  O   UNL A   1      42.022  18.644  25.853  1.00  0.00    -0.269 OA
BRANCH  34  37
ATOM     37  C   UNL A   1      41.826  20.859  26.594  1.00  0.00     0.039 A 
ATOM     38  C   UNL A   1      42.263  21.838  25.699  1.00  0.00     0.014 A 
ATOM     39  C   UNL A   1      41.881  21.085  27.973  1.00  0.00     0.014 A 
ATOM     40  C   UNL A   1      42.693  23.075  26.184  1.00  0.00     0.010 A 
ATOM     41  C   UNL A   1      42.247  22.338  28.450  1.00  0.00     0.010 A 
ATOM     42  C   UNL A   1      42.656  23.346  27.560  1.00  0.00    -0.014 A 
BRANCH  42  43
ATOM     43  C   UNL A   1      43.045  24.667  28.113  1.00  0.00     0.031 A 
ATOM     44  C   UNL A   1      41.989  25.705  28.366  1.00  0.00     0.074 A 
ATOM     45  C   UNL A   1      44.347  24.966  28.287  1.00  0.00     0.049 A 
ATOM     46  N   UNL A   1      42.127  26.968  28.678  1.00  0.00    -0.248 NA
ATOM     47  C   UNL A   1      40.591  25.269  28.217  1.00  0.00     0.031 C 
ATOM     48  C   UNL A   1      45.467  24.054  28.052  1.00  0.00     0.029 A 
ATOM     49  N   UNL A   1      44.948  26.137  28.680  1.00  0.00    -0.354 N 
ATOM     50  C   UNL A   1      40.838  27.483  28.735  1.00  0.00     0.074 A 
ATOM     51  C   UNL A   1      39.935  26.407  28.387  1.00  0.00     0.031 C 
ATOM     52  C   UNL A   1      46.618  24.695  28.309  1.00  0.00     0.029 A 
ATOM     53  C   UNL A   1      46.321  26.075  28.682  1.00  0.00     0.049 A 
ATOM     54  H   UNL A   1      44.444  26.942  28.935  1.00  0.00     0.167 HD
ATOM     55  C   UNL A   1      40.444  28.736  29.064  1.00  0.00     0.037 A 
ATOM     56  C   UNL A   1      47.236  27.030  28.935  1.00  0.00     0.037 A 
ATOM     57  C   UNL A   1      41.344  29.792  29.441  1.00  0.00     0.049 A 
ATOM     58  C   UNL A   1      46.775  28.418  29.286  1.00  0.00     0.074 A 
ATOM     59  C   UNL A   1      41.041  31.080  29.844  1.00  0.00     0.029 A 
ATOM     60  N   UNL A   1      42.726  29.678  29.464  1.00  0.00    -0.354 N 
ATOM     61  N   UNL A   1      45.552  28.881  29.380  1.00  0.00    -0.248 NA
ATOM     62  C   UNL A   1      47.818  29.415  29.568  1.00  0.00     0.031 C 
ATOM     63  C   UNL A   1      42.241  31.758  30.075  1.00  0.00     0.029 A 
ATOM     64  C   UNL A   1      43.291  30.880  29.859  1.00  0.00     0.049 A 
ATOM     65  H   UNL A   1      43.231  28.866  29.234  1.00  0.00     0.167 HD
ATOM     66  C   UNL A   1      45.676  30.210  29.766  1.00  0.00     0.074 A 
ATOM     67  C   UNL A   1      47.094  30.480  29.888  1.00  0.00     0.031 C 
ATOM     68  C   UNL A   1      44.703  31.122  30.000  1.00  0.00     0.037 A 
BRANCH  55  69
ATOM     69  C   UNL A   1      38.973  29.031  29.028  1.00  0.00     0.057 A 
ATOM     70  C   UNL A   1      38.169  28.916  30.169  1.00  0.00     0.134 A 
ATOM     71  C   UNL A   1      38.361  29.468  27.847  1.00  0.00     0.134 A 
ATOM     72  F   UNL A   1      38.691  28.490  31.329  1.00  0.00    -0.206 F 
ATOM     73  C   UNL A   1      36.803  29.200  30.131  1.00  0.00     0.040 A 
ATOM     74  C   UNL A   1      37.001  29.781  27.803  1.00  0.00     0.040 A 
ATOM     75  F   UNL A   1      39.074  29.606  26.720  1.00  0.00    -0.206 F 
ATOM     76  C   UNL A   1      36.217  29.640  28.946  1.00  0.00     0.006 A 
ENDBRANCH  55  69
BRANCH  56  77
ATOM     77  C   UNL A   1      48.684  26.705  28.877  1.00  0.00     0.057 A 
ATOM     78  C   UNL A   1      49.368  26.264  30.015  1.00  0.00     0.134 A 
ATOM     79  C   UNL A   1      49.417  26.829  27.691  1.00  0.00     0.134 A 
ATOM     80  F   UNL A   1      48.724  26.145  31.185  1.00  0.00    -0.206 F 
ATOM     81  C   UNL A   1      50.733  25.973  29.981  1.00  0.00     0.040 A 
ATOM     82  C   UNL A   1      50.778  26.519  27.637  1.00  0.00     0.040 A 
ATOM     83  F   UNL A   1      48.819  27.239  26.563  1.00  0.00    -0.206 F 
ATOM     84  C   UNL A   1      51.441  26.097  28.787  1.00  0.00     0.006 A 
ENDBRANCH  56  77
BRANCH  68  85
ATOM     85  C   UNL A   1      45.124  32.481  30.470  1.00  0.00     0.057 A 
ATOM     86  C   UNL A   1      45.357  33.533  29.577  1.00  0.00     0.134 A 
ATOM     87  C   UNL A   1      45.222  32.758  31.839  1.00  0.00     0.134 A 
ATOM     88  F   UNL A   1      45.290  33.328  28.252  1.00  0.00    -0.206 F 
ATOM     89  C   UNL A   1      45.678  34.814  30.029  1.00  0.00     0.040 A 
ATOM     90  C   UNL A   1      45.519  34.039  32.306  1.00  0.00     0.040 A 
ATOM     91  F   UNL A   1      45.003  31.794  32.746  1.00  0.00    -0.206 F 
ATOM     92  C   UNL A   1      45.749  35.071  31.398  1.00  0.00     0.006 A 
ENDBRANCH  68  85
ENDBRANCH  42  43
ENDBRANCH  34  37
ENDBRANCH  32  33
ENDBRANCH  31  32
ENDBRANCH  30  31
ENDBRANCH  29  30
ENDBRANCH   1  29
TORSDOF 18
ENDMDL
MODEL 2
REMARK VINA RESULT:     -11.2      4.481      9.739
REMARK SMILES C[N@@H+](Cc1ncccc1C(=O)NCCCCCCNC(=O)c1ccc(-c2c3nc(c(-c4c(F)cccc4F)c4ccc([nH]4)c(-c4c(F)cccc4F)c4nc(c(-c5c(F)cccc5F)c5ccc2[nH]5)C=C4)C=C3)cc1)C[C@@H]1CCN(c2ccccc2)C1
REMARK SMILES IDX 14 1 13 2 12 3 10 4 11 5 9 7 4 8 5 9 6 10 8 11 7 12 3 13
REMARK SMILES IDX 2 14 1 15 76 17 77 18 78 19 87 20 79 21 80 22 81 23 82 24
REMARK SMILES IDX 86 25 83 26 85 27 84 28 15 29 16 30 17 31 18 32 19 33 20 34
REMARK SMILES IDX 21 36 22 37 23 38 75 39 24 40 74 41 25 42 26 43 27 44 68 45
REMARK SMILES IDX 28 46 73 47 67 48 69 49 29 50 72 51 66 52 65 53 30 55 56 56
REMARK SMILES IDX 39 57 55 58 40 59 43 60 54 61 70 62 41 63 42 64 53 66 71 67
REMARK SMILES IDX 44 68 31 69 32 70 37 71 33 72 34 73 36 74 38 75 35 76 57 77
REMARK SMILES IDX 58 78 63 79 59 80 60 81 62 82 64 83 61 84 45 85 46 86 51 87
REMARK SMILES IDX 47 88 48 89 50 90 52 91 49 92
REMARK H PARENT 12 6 2 16 19 35 69 54 43 65
REMARK Flexibility Score: inf
ROOT
ATOM      1  C   UNL A   1      32.739  28.159  26.061  1.00  0.00     0.021 C 
ENDROOT
BRANCH   1   2
ATOM      2  C   UNL A   1      34.039  27.508  25.606  1.00  0.00     0.116 C 
BRANCH   2   3
ATOM      3  N   UNL A   1      33.903  26.812  24.343  1.00  0.00    -0.352 N 
ATOM      4  C   UNL A   1      34.145  25.531  23.916  1.00  0.00     0.253 C 
ATOM      5  O   UNL A   1      34.140  25.393  22.695  1.00  0.00    -0.269 OA
ATOM      6  H   UNL A   1      33.556  27.393  23.627  1.00  0.00     0.163 HD
BRANCH   4   7
ATOM      7  C   UNL A   1      34.467  24.388  24.825  1.00  0.00     0.067 A 
ATOM      8  C   UNL A   1      33.513  23.417  25.166  1.00  0.00     0.107 A 
ATOM      9  N   UNL A   1      33.878  22.211  25.712  1.00  0.00    -0.254 NA
ATOM     10  C   UNL A   1      35.165  22.029  26.072  1.00  0.00     0.111 A 
ATOM     11  C   UNL A   1      35.730  24.231  25.407  1.00  0.00     0.017 A 
ATOM     12  C   UNL A   1      36.101  23.034  26.012  1.00  0.00     0.021 A 
BRANCH   8  13
ATOM     13  C   UNL A   1      32.007  23.679  25.205  1.00  0.00     0.320 C 
BRANCH  13  14
ATOM     14  N   UNL A   1      31.222  23.402  23.971  1.00  0.00    -0.332 N 
ATOM     15  C   UNL A   1      31.714  22.308  23.153  1.00  0.00     0.333 C 
ATOM     16  H   UNL A   1      30.353  23.051  24.375  1.00  0.00     0.348 HD
BRANCH  14  17
ATOM     17  C   UNL A   1      30.765  24.567  23.200  1.00  0.00     0.267 C 
BRANCH  17  18
ATOM     18  C   UNL A   1      30.628  25.906  23.957  1.00  0.00     0.065 C 
ATOM     19  C   UNL A   1      29.341  25.960  24.792  1.00  0.00     0.032 C 
ATOM     20  C   UNL A   1      30.535  27.153  23.055  1.00  0.00     0.126 C 
ATOM     21  C   UNL A   1      28.332  26.627  23.878  1.00  0.00     0.117 C 
ATOM     22  N   UNL A   1      29.137  27.592  23.147  1.00  0.00    -0.371 N 
BRANCH  22  23
ATOM     23  C   UNL A   1      28.894  28.953  23.196  1.00  0.00     0.037 A 
ATOM     24  C   UNL A   1      27.704  29.462  22.661  1.00  0.00     0.026 A 
ATOM     25  C   UNL A   1      29.802  29.870  23.744  1.00  0.00     0.026 A 
ATOM     26  C   UNL A   1      27.410  30.828  22.706  1.00  0.00     0.002 A 
ATOM     27  C   UNL A   1      29.523  31.241  23.778  1.00  0.00     0.002 A 
ATOM     28  C   UNL A   1      28.321  31.719  23.267  1.00  0.00     0.000 A 
ENDBRANCH  22  23
ENDBRANCH  17  18
ENDBRANCH  14  17
ENDBRANCH  13  14
ENDBRANCH   8  13
ENDBRANCH   4   7
ENDBRANCH   2   3
ENDBRANCH   1   2
BRANCH   1  29
ATOM     29  C   UNL A   1      32.695  29.685  25.973  1.00  0.00     0.002 C 
BRANCH  29  30
ATOM     30  C   UNL A   1      31.664  30.383  26.865  1.00  0.00     0.002 C 
BRANCH  30  31
ATOM     31  C   UNL A   1      31.590  31.906  26.741  1.00  0.00     0.021 C 
BRANCH  31  32
ATOM     32  C   UNL A   1      32.772  32.662  27.329  1.00  0.00     0.116 C 
BRANCH  32  33
ATOM     33  N   UNL A   1      32.446  34.042  27.642  1.00  0.00    -0.352 N 
ATOM     34  C   UNL A   1      33.033  34.874  28.566  1.00  0.00     0.251 C 
ATOM     35  H   UNL A   1      31.706  34.433  27.124  1.00  0.00     0.163 HD
ATOM     36  O   UNL A   1      32.537  35.958  28.837  1.00  0.00    -0.269 OA
BRANCH  34  37
ATOM     37  C   UNL A   1      34.265  34.430  29.251  1.00  0.00     0.039 A 
ATOM     38  C   UNL A   1      34.166  33.827  30.508  1.00  0.00     0.014 A 
ATOM     39  C   UNL A   1      35.511  34.586  28.637  1.00  0.00     0.014 A 
ATOM     40  C   UNL A   1      35.313  33.319  31.122  1.00  0.00     0.010 A 
ATOM     41  C   UNL A   1      36.640  34.023  29.219  1.00  0.00     0.010 A 
ATOM     42  C   UNL A   1      36.552  33.382  30.466  1.00  0.00    -0.014 A 
BRANCH  42  43
ATOM     43  C   UNL A   1      37.784  32.800  31.055  1.00  0.00     0.031 A 
ATOM     44  C   UNL A   1      38.402  31.584  30.427  1.00  0.00     0.074 A 
ATOM     45  C   UNL A   1      38.281  33.299  32.204  1.00  0.00     0.049 A 
ATOM     46  N   UNL A   1      39.366  30.821  30.874  1.00  0.00    -0.248 NA
ATOM     47  C   UNL A   1      37.837  31.150  29.140  1.00  0.00     0.031 C 
ATOM     48  C   UNL A   1      37.756  34.460  32.923  1.00  0.00     0.029 A 
ATOM     49  N   UNL A   1      39.330  32.873  32.981  1.00  0.00    -0.354 N 
ATOM     50  C   UNL A   1      39.504  29.804  29.937  1.00  0.00     0.074 A 
ATOM     51  C   UNL A   1      38.499  30.024  28.920  1.00  0.00     0.031 C 
ATOM     52  C   UNL A   1      38.486  34.657  34.033  1.00  0.00     0.029 A 
ATOM     53  C   UNL A   1      39.500  33.611  34.127  1.00  0.00     0.049 A 
ATOM     54  H   UNL A   1      39.905  32.112  32.740  1.00  0.00     0.167 HD
ATOM     55  C   UNL A   1      40.399  28.788  29.921  1.00  0.00     0.037 A 
ATOM     56  C   UNL A   1      40.362  33.449  35.149  1.00  0.00     0.037 A 
ATOM     57  C   UNL A   1      41.416  28.592  30.919  1.00  0.00     0.049 A 
ATOM     58  C   UNL A   1      41.339  32.306  35.114  1.00  0.00     0.074 A 
ATOM     59  C   UNL A   1      42.405  27.626  30.963  1.00  0.00     0.029 A 
ATOM     60  N   UNL A   1      41.577  29.383  32.045  1.00  0.00    -0.354 N 
ATOM     61  N   UNL A   1      41.489  31.377  34.201  1.00  0.00    -0.248 NA
ATOM     62  C   UNL A   1      42.267  32.188  36.248  1.00  0.00     0.031 C 
ATOM     63  C   UNL A   1      43.140  27.808  32.138  1.00  0.00     0.029 A 
ATOM     64  C   UNL A   1      42.639  28.916  32.802  1.00  0.00     0.049 A 
ATOM     65  H   UNL A   1      41.019  30.161  32.275  1.00  0.00     0.167 HD
ATOM     66  C   UNL A   1      42.548  30.587  34.631  1.00  0.00     0.074 A 
ATOM     67  C   UNL A   1      43.004  31.146  35.888  1.00  0.00     0.031 C 
ATOM     68  C   UNL A   1      43.094  29.501  34.036  1.00  0.00     0.037 A 
BRANCH  55  69
ATOM     69  C   UNL A   1      40.314  27.809  28.787  1.00  0.00     0.057 A 
ATOM     70  C   UNL A   1      41.007  28.008  27.587  1.00  0.00     0.134 A 
ATOM     71  C   UNL A   1      39.558  26.637  28.911  1.00  0.00     0.134 A 
ATOM     72  F   UNL A   1      41.739  29.116  27.399  1.00  0.00    -0.206 F 
ATOM     73  C   UNL A   1      40.929  27.089  26.539  1.00  0.00     0.040 A 
ATOM     74  C   UNL A   1      39.495  25.697  27.880  1.00  0.00     0.040 A 
ATOM     75  F   UNL A   1      38.875  26.381  30.037  1.00  0.00    -0.206 F 
ATOM     76  C   UNL A   1      40.176  25.926  26.687  1.00  0.00     0.006 A 
ENDBRANCH  55  69
BRANCH  56  77
ATOM     77  C   UNL A   1      40.351  34.401  36.289  1.00  0.00     0.057 A 
ATOM     78  C   UNL A   1      41.078  35.595  36.236  1.00  0.00     0.134 A 
ATOM     79  C   UNL A   1      39.618  34.142  37.453  1.00  0.00     0.134 A 
ATOM     80  F   UNL A   1      41.815  35.889  35.155  1.00  0.00    -0.206 F 
ATOM     81  C   UNL A   1      41.093  36.491  37.307  1.00  0.00     0.040 A 
ATOM     82  C   UNL A   1      39.605  35.040  38.522  1.00  0.00     0.040 A 
ATOM     83  F   UNL A   1      38.893  33.020  37.563  1.00  0.00    -0.206 F 
ATOM     84  C   UNL A   1      40.350  36.216  38.453  1.00  0.00     0.006 A 
ENDBRANCH  56  77
BRANCH  68  85
ATOM     85  C   UNL A   1      44.283  28.871  34.698  1.00  0.00     0.057 A 
ATOM     86  C   UNL A   1      45.584  29.338  34.480  1.00  0.00     0.134 A 
ATOM     87  C   UNL A   1      44.111  27.837  35.625  1.00  0.00     0.134 A 
ATOM     88  F   UNL A   1      45.816  30.320  33.594  1.00  0.00    -0.206 F 
ATOM     89  C   UNL A   1      46.675  28.792  35.157  1.00  0.00     0.040 A 
ATOM     90  C   UNL A   1      45.190  27.297  36.326  1.00  0.00     0.040 A 
ATOM     91  F   UNL A   1      42.887  27.351  35.885  1.00  0.00    -0.206 F 
ATOM     92  C   UNL A   1      46.477  27.775  36.091  1.00  0.00     0.006 A 
ENDBRANCH  68  85
ENDBRANCH  42  43
ENDBRANCH  34  37
ENDBRANCH  32  33
ENDBRANCH  31  32
ENDBRANCH  30  31
ENDBRANCH  29  30
ENDBRANCH   1  29
TORSDOF 18
ENDMDL
MODEL 3
REMARK VINA RESULT:     -11.2      4.237      8.851
REMARK SMILES C[N@@H+](Cc1ncccc1C(=O)NCCCCCCNC(=O)c1ccc(-c2c3nc(c(-c4c(F)cccc4F)c4ccc([nH]4)c(-c4c(F)cccc4F)c4nc(c(-c5c(F)cccc5F)c5ccc2[nH]5)C=C4)C=C3)cc1)C[C@@H]1CCN(c2ccccc2)C1
REMARK SMILES IDX 14 1 13 2 12 3 10 4 11 5 9 7 4 8 5 9 6 10 8 11 7 12 3 13
REMARK SMILES IDX 2 14 1 15 76 17 77 18 78 19 87 20 79 21 80 22 81 23 82 24
REMARK SMILES IDX 86 25 83 26 85 27 84 28 15 29 16 30 17 31 18 32 19 33 20 34
REMARK SMILES IDX 21 36 22 37 23 38 75 39 24 40 74 41 25 42 26 43 27 44 68 45
REMARK SMILES IDX 28 46 73 47 67 48 69 49 29 50 72 51 66 52 65 53 30 55 56 56
REMARK SMILES IDX 39 57 55 58 40 59 43 60 54 61 70 62 41 63 42 64 53 66 71 67
REMARK SMILES IDX 44 68 31 69 32 70 37 71 33 72 34 73 36 74 38 75 35 76 57 77
REMARK SMILES IDX 58 78 63 79 59 80 60 81 62 82 64 83 61 84 45 85 46 86 51 87
REMARK SMILES IDX 47 88 48 89 50 90 52 91 49 92
REMARK H PARENT 12 6 2 16 19 35 69 54 43 65
REMARK Flexibility Score: inf
ROOT
ATOM      1  C   UNL A   1      32.099  28.480  26.986  1.00  0.00     0.021 C 
ENDROOT
BRANCH   1   2
ATOM      2  C   UNL A   1      33.376  27.827  26.474  1.00  0.00     0.116 C 
BRANCH   2   3
ATOM      3  N   UNL A   1      33.791  28.347  25.187  1.00  0.00    -0.352 N 
ATOM      4  C   UNL A   1      33.258  28.330  23.922  1.00  0.00     0.253 C 
ATOM      5  O   UNL A   1      34.041  28.668  23.037  1.00  0.00    -0.269 OA
ATOM      6  H   UNL A   1      34.652  28.823  25.230  1.00  0.00     0.163 HD
BRANCH   4   7
ATOM      7  C   UNL A   1      31.872  27.873  23.599  1.00  0.00     0.067 A 
ATOM      8  C   UNL A   1      31.501  26.521  23.656  1.00  0.00     0.107 A 
ATOM      9  N   UNL A   1      30.183  26.138  23.690  1.00  0.00    -0.254 NA
ATOM     10  C   UNL A   1      29.233  27.076  23.502  1.00  0.00     0.111 A 
ATOM     11  C   UNL A   1      30.868  28.763  23.199  1.00  0.00     0.017 A 
ATOM     12  C   UNL A   1      29.531  28.378  23.176  1.00  0.00     0.021 A 
BRANCH   8  13
ATOM     13  C   UNL A   1      32.473  25.362  23.439  1.00  0.00     0.320 C 
BRANCH  13  14
ATOM     14  N   UNL A   1      33.008  24.668  24.642  1.00  0.00    -0.332 N 
ATOM     15  C   UNL A   1      34.442  24.783  24.840  1.00  0.00     0.333 C 
ATOM     16  H   UNL A   1      32.600  25.237  25.385  1.00  0.00     0.348 HD
BRANCH  14  17
ATOM     17  C   UNL A   1      32.469  23.332  24.933  1.00  0.00     0.267 C 
BRANCH  17  18
ATOM     18  C   UNL A   1      33.369  22.121  24.605  1.00  0.00     0.065 C 
ATOM     19  C   UNL A   1      33.213  21.672  23.145  1.00  0.00     0.032 C 
ATOM     20  C   UNL A   1      33.061  20.847  25.417  1.00  0.00     0.126 C 
ATOM     21  C   UNL A   1      32.153  20.590  23.199  1.00  0.00     0.117 C 
ATOM     22  N   UNL A   1      32.422  19.928  24.466  1.00  0.00    -0.371 N 
BRANCH  22  23
ATOM     23  C   UNL A   1      32.751  18.587  24.550  1.00  0.00     0.037 A 
ATOM     24  C   UNL A   1      33.309  17.942  23.439  1.00  0.00     0.026 A 
ATOM     25  C   UNL A   1      32.530  17.819  25.702  1.00  0.00     0.026 A 
ATOM     26  C   UNL A   1      33.671  16.592  23.485  1.00  0.00     0.002 A 
ATOM     27  C   UNL A   1      32.875  16.464  25.751  1.00  0.00     0.002 A 
ATOM     28  C   UNL A   1      33.455  15.852  24.645  1.00  0.00     0.000 A 
ENDBRANCH  22  23
ENDBRANCH  17  18
ENDBRANCH  14  17
ENDBRANCH  13  14
ENDBRANCH   8  13
ENDBRANCH   4   7
ENDBRANCH   2   3
ENDBRANCH   1   2
BRANCH   1  29
ATOM     29  C   UNL A   1      32.153  29.999  27.157  1.00  0.00     0.002 C 
BRANCH  29  30
ATOM     30  C   UNL A   1      31.289  30.817  26.192  1.00  0.00     0.002 C 
BRANCH  30  31
ATOM     31  C   UNL A   1      31.210  32.320  26.471  1.00  0.00     0.021 C 
BRANCH  31  32
ATOM     32  C   UNL A   1      32.499  32.954  26.974  1.00  0.00     0.116 C 
BRANCH  32  33
ATOM     33  N   UNL A   1      32.269  34.230  27.626  1.00  0.00    -0.352 N 
ATOM     34  C   UNL A   1      32.947  34.787  28.684  1.00  0.00     0.251 C 
ATOM     35  H   UNL A   1      31.530  34.768  27.262  1.00  0.00     0.163 HD
ATOM     36  O   UNL A   1      32.529  35.795  29.236  1.00  0.00    -0.269 OA
BRANCH  34  37
ATOM     37  C   UNL A   1      34.182  34.135  29.169  1.00  0.00     0.039 A 
ATOM     38  C   UNL A   1      35.409  34.500  28.612  1.00  0.00     0.014 A 
ATOM     39  C   UNL A   1      34.123  33.184  30.192  1.00  0.00     0.014 A 
ATOM     40  C   UNL A   1      36.590  33.960  29.126  1.00  0.00     0.010 A 
ATOM     41  C   UNL A   1      35.301  32.698  30.747  1.00  0.00     0.010 A 
ATOM     42  C   UNL A   1      36.546  33.082  30.220  1.00  0.00    -0.014 A 
BRANCH  42  43
ATOM     43  C   UNL A   1      37.780  32.533  30.837  1.00  0.00     0.031 A 
ATOM     44  C   UNL A   1      38.437  31.326  30.232  1.00  0.00     0.074 A 
ATOM     45  C   UNL A   1      38.244  33.054  31.989  1.00  0.00     0.049 A 
ATOM     46  N   UNL A   1      39.410  30.589  30.704  1.00  0.00    -0.248 NA
ATOM     47  C   UNL A   1      37.907  30.868  28.938  1.00  0.00     0.031 C 
ATOM     48  C   UNL A   1      37.679  34.209  32.688  1.00  0.00     0.029 A 
ATOM     49  N   UNL A   1      39.288  32.659  32.790  1.00  0.00    -0.354 N 
ATOM     50  C   UNL A   1      39.589  29.567  29.780  1.00  0.00     0.074 A 
ATOM     51  C   UNL A   1      38.598  29.755  28.742  1.00  0.00     0.031 C 
ATOM     52  C   UNL A   1      38.383  34.433  33.809  1.00  0.00     0.029 A 
ATOM     53  C   UNL A   1      39.419  33.412  33.932  1.00  0.00     0.049 A 
ATOM     54  H   UNL A   1      39.884  31.909  32.567  1.00  0.00     0.167 HD
ATOM     55  C   UNL A   1      40.506  28.572  29.790  1.00  0.00     0.037 A 
ATOM     56  C   UNL A   1      40.266  33.279  34.971  1.00  0.00     0.037 A 
ATOM     57  C   UNL A   1      41.509  28.409  30.808  1.00  0.00     0.049 A 
ATOM     58  C   UNL A   1      41.269  32.158  34.966  1.00  0.00     0.074 A 
ATOM     59  C   UNL A   1      42.518  27.466  30.880  1.00  0.00     0.029 A 
ATOM     60  N   UNL A   1      41.630  29.214  31.930  1.00  0.00    -0.354 N 
ATOM     61  N   UNL A   1      41.456  31.224  34.065  1.00  0.00    -0.248 NA
ATOM     62  C   UNL A   1      42.178  32.071  36.118  1.00  0.00     0.031 C 
ATOM     63  C   UNL A   1      43.227  27.676  32.066  1.00  0.00     0.029 A 
ATOM     64  C   UNL A   1      42.688  28.778  32.710  1.00  0.00     0.049 A 
ATOM     65  H   UNL A   1      41.051  29.980  32.142  1.00  0.00     0.167 HD
ATOM     66  C   UNL A   1      42.525  30.463  34.521  1.00  0.00     0.074 A 
ATOM     67  C   UNL A   1      42.944  31.043  35.781  1.00  0.00     0.031 C 
ATOM     68  C   UNL A   1      43.107  29.384  33.947  1.00  0.00     0.037 A 
BRANCH  55  69
ATOM     69  C   UNL A   1      40.465  27.581  28.664  1.00  0.00     0.057 A 
ATOM     70  C   UNL A   1      41.241  27.742  27.510  1.00  0.00     0.134 A 
ATOM     71  C   UNL A   1      39.666  26.435  28.750  1.00  0.00     0.134 A 
ATOM     72  F   UNL A   1      42.018  28.825  27.358  1.00  0.00    -0.206 F 
ATOM     73  C   UNL A   1      41.203  26.812  26.469  1.00  0.00     0.040 A 
ATOM     74  C   UNL A   1      39.641  25.483  27.729  1.00  0.00     0.040 A 
ATOM     75  F   UNL A   1      38.903  26.215  29.832  1.00  0.00    -0.206 F 
ATOM     76  C   UNL A   1      40.406  25.675  26.581  1.00  0.00     0.006 A 
ENDBRANCH  55  69
BRANCH  56  77
ATOM     77  C   UNL A   1      40.211  34.240  36.102  1.00  0.00     0.057 A 
ATOM     78  C   UNL A   1      39.357  34.023  37.189  1.00  0.00     0.134 A 
ATOM     79  C   UNL A   1      41.002  35.394  36.123  1.00  0.00     0.134 A 
ATOM     80  F   UNL A   1      38.560  32.945  37.217  1.00  0.00    -0.206 F 
ATOM     81  C   UNL A   1      39.280  34.928  38.250  1.00  0.00     0.040 A 
ATOM     82  C   UNL A   1      40.952  36.295  37.188  1.00  0.00     0.040 A 
ATOM     83  F   UNL A   1      41.847  35.656  35.115  1.00  0.00    -0.206 F 
ATOM     84  C   UNL A   1      40.083  36.066  38.253  1.00  0.00     0.006 A 
ENDBRANCH  56  77
BRANCH  68  85
ATOM     85  C   UNL A   1      44.297  28.788  34.637  1.00  0.00     0.057 A 
ATOM     86  C   UNL A   1      45.595  29.265  34.418  1.00  0.00     0.134 A 
ATOM     87  C   UNL A   1      44.129  27.777  35.591  1.00  0.00     0.134 A 
ATOM     88  F   UNL A   1      45.822  30.225  33.507  1.00  0.00    -0.206 F 
ATOM     89  C   UNL A   1      46.686  28.751  35.120  1.00  0.00     0.040 A 
ATOM     90  C   UNL A   1      45.208  27.271  36.316  1.00  0.00     0.040 A 
ATOM     91  F   UNL A   1      42.909  27.283  35.852  1.00  0.00    -0.206 F 
ATOM     92  C   UNL A   1      46.491  27.758  36.080  1.00  0.00     0.006 A 
ENDBRANCH  68  85
ENDBRANCH  42  43
ENDBRANCH  34  37
ENDBRANCH  32  33
ENDBRANCH  31  32
ENDBRANCH  30  31
ENDBRANCH  29  30
ENDBRANCH   1  29
TORSDOF 18
ENDMDL
