MODEL 1
REMARK VINA RESULT:     -12.9      0.000      0.000
REMARK SMILES O=C(NCCCCCCNC(=O)c1ccccc1C(=O)Nc1ccc(N2C(=O)[C@H]3[C@@H]4CC[C@@H](C4)[C@@H]3C2=O)cc1)c1ccc(-c2c3nc(c(-c4c(F)cccc4F)c4ccc([nH]4)c(-c4c(F)cccc4F)c4nc(c(-c5c(F)cccc5F)c5ccc2[nH]5)C=C4)C=C3)cc1
REMARK SMILES IDX 7 1 6 2 5 3 4 4 3 5 1 6 2 7 40 9 41 10 93 11 42 12 92 13
REMARK SMILES IDX 43 14 44 15 45 16 86 17 46 18 91 19 85 20 87 21 47 22 90 23
REMARK SMILES IDX 84 24 83 25 48 27 74 28 57 29 73 30 58 31 61 32 72 33 88 34
REMARK SMILES IDX 59 35 60 36 71 38 89 39 62 40 49 41 50 42 55 43 51 44 52 45
REMARK SMILES IDX 54 46 56 47 53 48 75 49 76 50 81 51 77 52 78 53 80 54 82 55
REMARK SMILES IDX 79 56 63 57 64 58 69 59 65 60 66 61 68 62 70 63 67 64 8 65
REMARK SMILES IDX 9 66 10 67 11 68 12 70 13 71 14 72 18 73 15 74 17 75 16 76
REMARK SMILES IDX 19 77 20 78 21 79 22 81 23 82 39 83 24 84 38 85 25 86 26 87
REMARK SMILES IDX 27 88 36 89 28 90 29 91 35 92 37 93 30 94 33 95 31 96 34 97
REMARK SMILES IDX 32 98
REMARK H PARENT 3 8 87 26 61 37 10 69 21 80
REMARK Flexibility Score: inf
ROOT
ATOM      1  C   UNL A   1      36.319  23.752  25.118  1.00  0.00     0.002 C 
ENDROOT
BRANCH   1   2
ATOM      2  C   UNL A   1      36.389  22.458  24.301  1.00  0.00     0.002 C 
BRANCH   2   3
ATOM      3  C   UNL A   1      37.735  21.754  24.270  1.00  0.00     0.021 C 
BRANCH   3   4
ATOM      4  C   UNL A   1      38.217  21.244  25.612  1.00  0.00     0.116 C 
BRANCH   4   5
ATOM      5  N   UNL A   1      39.048  20.052  25.524  1.00  0.00    -0.352 N 
ATOM      6  O   UNL A   1      40.980  18.871  25.677  1.00  0.00    -0.269 OA
ATOM      7  C   UNL A   1      40.370  19.912  25.888  1.00  0.00     0.251 C 
ATOM      8  H   UNL A   1      38.612  19.247  25.161  1.00  0.00     0.163 HD
BRANCH   7   9
ATOM      9  C   UNL A   1      41.054  21.074  26.493  1.00  0.00     0.039 A 
ATOM     10  C   UNL A   1      40.972  21.284  27.870  1.00  0.00     0.014 A 
ATOM     11  C   UNL A   1      41.664  22.019  25.667  1.00  0.00     0.014 A 
ATOM     12  C   UNL A   1      41.289  22.532  28.384  1.00  0.00     0.010 A 
ATOM     13  C   UNL A   1      42.112  23.224  26.217  1.00  0.00     0.010 A 
ATOM     14  C   UNL A   1      41.877  23.514  27.569  1.00  0.00    -0.014 A 
BRANCH  14  15
ATOM     15  C   UNL A   1      42.264  24.813  28.179  1.00  0.00     0.031 A 
ATOM     16  C   UNL A   1      43.693  25.122  28.536  1.00  0.00     0.074 A 
ATOM     17  C   UNL A   1      41.306  25.742  28.365  1.00  0.00     0.049 A 
ATOM     18  N   UNL A   1      44.194  26.219  29.052  1.00  0.00    -0.248 NA
ATOM     19  C   UNL A   1      44.690  24.068  28.298  1.00  0.00     0.031 C 
ATOM     20  C   UNL A   1      39.884  25.558  28.060  1.00  0.00     0.029 A 
ATOM     21  N   UNL A   1      41.378  27.031  28.825  1.00  0.00    -0.354 N 
ATOM     22  C   UNL A   1      45.552  25.975  29.228  1.00  0.00     0.074 A 
ATOM     23  C   UNL A   1      45.793  24.618  28.788  1.00  0.00     0.031 C 
ATOM     24  C   UNL A   1      39.232  26.708  28.274  1.00  0.00     0.029 A 
ATOM     25  C   UNL A   1      40.169  27.683  28.815  1.00  0.00     0.049 A 
ATOM     26  H   UNL A   1      42.216  27.449  29.131  1.00  0.00     0.167 HD
ATOM     27  C   UNL A   1      46.506  26.810  29.708  1.00  0.00     0.037 A 
ATOM     28  C   UNL A   1      39.841  28.924  29.217  1.00  0.00     0.037 A 
ATOM     29  C   UNL A   1      46.258  28.168  30.127  1.00  0.00     0.049 A 
ATOM     30  C   UNL A   1      40.914  29.813  29.771  1.00  0.00     0.074 A 
ATOM     31  C   UNL A   1      47.163  29.106  30.593  1.00  0.00     0.029 A 
ATOM     32  N   UNL A   1      45.012  28.778  30.139  1.00  0.00    -0.354 N 
ATOM     33  N   UNL A   1      42.197  29.578  29.903  1.00  0.00    -0.248 NA
ATOM     34  C   UNL A   1      40.491  31.139  30.233  1.00  0.00     0.031 C 
ATOM     35  C   UNL A   1      46.458  30.262  30.943  1.00  0.00     0.029 A 
ATOM     36  C   UNL A   1      45.122  30.072  30.628  1.00  0.00     0.049 A 
ATOM     37  H   UNL A   1      44.174  28.357  29.843  1.00  0.00     0.167 HD
ATOM     38  C   UNL A   1      42.741  30.739  30.433  1.00  0.00     0.074 A 
ATOM     39  C   UNL A   1      41.650  31.681  30.580  1.00  0.00     0.031 C 
ATOM     40  C   UNL A   1      44.029  31.002  30.763  1.00  0.00     0.037 A 
BRANCH  27  41
ATOM     41  C   UNL A   1      47.905  26.274  29.839  1.00  0.00     0.057 A 
ATOM     42  C   UNL A   1      48.841  26.358  28.800  1.00  0.00     0.134 A 
ATOM     43  C   UNL A   1      48.335  25.699  31.043  1.00  0.00     0.134 A 
ATOM     44  F   UNL A   1      48.497  26.888  27.616  1.00  0.00    -0.206 F 
ATOM     45  C   UNL A   1      50.142  25.866  28.943  1.00  0.00     0.040 A 
ATOM     46  C   UNL A   1      49.642  25.232  31.209  1.00  0.00     0.040 A 
ATOM     47  F   UNL A   1      47.499  25.594  32.086  1.00  0.00    -0.206 F 
ATOM     48  C   UNL A   1      50.547  25.308  30.154  1.00  0.00     0.006 A 
ENDBRANCH  27  41
BRANCH  28  49
ATOM     49  C   UNL A   1      38.435  29.387  29.114  1.00  0.00     0.057 A 
ATOM     50  C   UNL A   1      37.911  29.841  27.899  1.00  0.00     0.134 A 
ATOM     51  C   UNL A   1      37.583  29.389  30.225  1.00  0.00     0.134 A 
ATOM     52  F   UNL A   1      38.682  29.875  26.802  1.00  0.00    -0.206 F 
ATOM     53  C   UNL A   1      36.598  30.301  27.796  1.00  0.00     0.040 A 
ATOM     54  C   UNL A   1      36.258  29.815  30.130  1.00  0.00     0.040 A 
ATOM     55  F   UNL A   1      38.020  28.955  31.416  1.00  0.00    -0.206 F 
ATOM     56  C   UNL A   1      35.766  30.283  28.913  1.00  0.00     0.006 A 
ENDBRANCH  28  49
BRANCH  40  57
ATOM     57  C   UNL A   1      44.333  32.386  31.261  1.00  0.00     0.057 A 
ATOM     58  C   UNL A   1      44.635  33.444  30.393  1.00  0.00     0.134 A 
ATOM     59  C   UNL A   1      44.314  32.664  32.634  1.00  0.00     0.134 A 
ATOM     60  F   UNL A   1      44.685  33.244  29.068  1.00  0.00    -0.206 F 
ATOM     61  C   UNL A   1      44.946  34.717  30.876  1.00  0.00     0.040 A 
ATOM     62  C   UNL A   1      44.589  33.941  33.126  1.00  0.00     0.040 A 
ATOM     63  F   UNL A   1      44.024  31.700  33.521  1.00  0.00    -0.206 F 
ATOM     64  C   UNL A   1      44.916  34.968  32.246  1.00  0.00     0.006 A 
ENDBRANCH  40  57
ENDBRANCH  14  15
ENDBRANCH   7   9
ENDBRANCH   4   5
ENDBRANCH   3   4
ENDBRANCH   2   3
ENDBRANCH   1   2
BRANCH   1  65
ATOM     65  C   UNL A   1      34.988  24.010  25.841  1.00  0.00     0.021 C 
BRANCH  65  66
ATOM     66  C   UNL A   1      34.288  25.296  25.413  1.00  0.00     0.116 C 
BRANCH  66  67
ATOM     67  N   UNL A   1      33.221  25.648  26.328  1.00  0.00    -0.352 N 
ATOM     68  C   UNL A   1      32.228  26.575  26.200  1.00  0.00     0.252 C 
ATOM     69  H   UNL A   1      33.212  25.141  27.171  1.00  0.00     0.163 HD
ATOM     70  O   UNL A   1      31.531  26.854  27.175  1.00  0.00    -0.269 OA
BRANCH  68  71
ATOM     71  C   UNL A   1      32.041  27.356  24.962  1.00  0.00     0.052 A 
ATOM     72  C   UNL A   1      33.030  28.360  24.820  1.00  0.00     0.014 A 
ATOM     73  C   UNL A   1      31.066  27.190  23.968  1.00  0.00     0.052 A 
ATOM     74  C   UNL A   1      33.134  29.125  23.664  1.00  0.00     0.001 A 
ATOM     75  C   UNL A   1      31.223  27.956  22.784  1.00  0.00     0.014 A 
ATOM     76  C   UNL A   1      32.246  28.897  22.627  1.00  0.00     0.001 A 
BRANCH  73  77
ATOM     77  C   UNL A   1      29.920  26.229  23.902  1.00  0.00     0.256 C 
ATOM     78  O   UNL A   1      28.791  26.717  23.759  1.00  0.00    -0.269 OA
ATOM     79  N   UNL A   1      29.974  24.854  23.893  1.00  0.00    -0.322 N 
ATOM     80  H   UNL A   1      29.097  24.425  23.764  1.00  0.00     0.170 HD
BRANCH  79  81
ATOM     81  C   UNL A   1      31.024  23.951  24.030  1.00  0.00     0.041 A 
ATOM     82  C   UNL A   1      31.010  23.153  25.179  1.00  0.00     0.028 A 
ATOM     83  C   UNL A   1      31.998  23.749  23.064  1.00  0.00     0.028 A 
ATOM     84  C   UNL A   1      31.728  21.963  25.207  1.00  0.00     0.029 A 
ATOM     85  C   UNL A   1      32.839  22.638  23.170  1.00  0.00     0.029 A 
ATOM     86  C   UNL A   1      32.614  21.683  24.175  1.00  0.00     0.052 A 
BRANCH  86  87
ATOM     87  N   UNL A   1      33.152  20.395  24.027  1.00  0.00    -0.250 N 
ATOM     88  C   UNL A   1      32.581  19.420  23.206  1.00  0.00     0.237 C 
ATOM     89  C   UNL A   1      34.132  19.866  24.897  1.00  0.00     0.237 C 
ATOM     90  O   UNL A   1      31.855  19.531  22.240  1.00  0.00    -0.274 OA
ATOM     91  C   UNL A   1      32.939  18.160  23.911  1.00  0.00     0.095 C 
ATOM     92  C   UNL A   1      34.357  18.488  24.349  1.00  0.00     0.095 C 
ATOM     93  O   UNL A   1      34.754  20.394  25.803  1.00  0.00    -0.274 OA
ATOM     94  C   UNL A   1      33.047  16.695  23.495  1.00  0.00     0.002 C 
ATOM     95  C   UNL A   1      34.807  17.123  24.859  1.00  0.00     0.002 C 
ATOM     96  C   UNL A   1      32.663  15.924  24.777  1.00  0.00     0.005 C 
ATOM     97  C   UNL A   1      34.562  16.380  23.519  1.00  0.00     0.009 C 
ATOM     98  C   UNL A   1      33.781  16.379  25.761  1.00  0.00     0.005 C 
ENDBRANCH  86  87
ENDBRANCH  79  81
ENDBRANCH  73  77
ENDBRANCH  68  71
ENDBRANCH  66  67
ENDBRANCH  65  66
ENDBRANCH   1  65
TORSDOF 16
ENDMDL
MODEL 2
REMARK VINA RESULT:     -12.7      0.287      5.893
REMARK SMILES O=C(NCCCCCCNC(=O)c1ccccc1C(=O)Nc1ccc(N2C(=O)[C@H]3[C@@H]4CC[C@@H](C4)[C@@H]3C2=O)cc1)c1ccc(-c2c3nc(c(-c4c(F)cccc4F)c4ccc([nH]4)c(-c4c(F)cccc4F)c4nc(c(-c5c(F)cccc5F)c5ccc2[nH]5)C=C4)C=C3)cc1
REMARK SMILES IDX 7 1 6 2 5 3 4 4 3 5 1 6 2 7 40 9 41 10 93 11 42 12 92 13
REMARK SMILES IDX 43 14 44 15 45 16 86 17 46 18 91 19 85 20 87 21 47 22 90 23
REMARK SMILES IDX 84 24 83 25 48 27 74 28 57 29 73 30 58 31 61 32 72 33 88 34
REMARK SMILES IDX 59 35 60 36 71 38 89 39 62 40 49 41 50 42 55 43 51 44 52 45
REMARK SMILES IDX 54 46 56 47 53 48 75 49 76 50 81 51 77 52 78 53 80 54 82 55
REMARK SMILES IDX 79 56 63 57 64 58 69 59 65 60 66 61 68 62 70 63 67 64 8 65
REMARK SMILES IDX 9 66 10 67 11 68 12 70 13 71 14 72 18 73 15 74 17 75 16 76
REMARK SMILES IDX 19 77 20 78 21 79 22 81 23 82 39 83 24 84 38 85 25 86 26 87
REMARK SMILES IDX 27 88 36 89 28 90 29 91 35 92 37 93 30 94 33 95 31 96 34 97
REMARK SMILES IDX 32 98
REMARK H PARENT 3 8 87 26 61 37 10 69 21 80
REMARK Flexibility Score: inf
ROOT
ATOM      1  C   UNL A   1      36.311  23.752  25.070  1.00  0.00     0.002 C 
ENDROOT
BRANCH   1   2
ATOM      2  C   UNL A   1      36.388  22.422  24.314  1.00  0.00     0.002 C 
BRANCH   2   3
ATOM      3  C   UNL A   1      37.744  21.735  24.299  1.00  0.00     0.021 C 
BRANCH   3   4
ATOM      4  C   UNL A   1      38.214  21.226  25.645  1.00  0.00     0.116 C 
BRANCH   4   5
ATOM      5  N   UNL A   1      39.050  20.037  25.567  1.00  0.00    -0.352 N 
ATOM      6  O   UNL A   1      40.987  18.865  25.721  1.00  0.00    -0.269 OA
ATOM      7  C   UNL A   1      40.374  19.906  25.923  1.00  0.00     0.251 C 
ATOM      8  H   UNL A   1      38.615  19.226  25.216  1.00  0.00     0.163 HD
BRANCH   7   9
ATOM      9  C   UNL A   1      41.057  21.078  26.511  1.00  0.00     0.039 A 
ATOM     10  C   UNL A   1      40.953  21.324  27.880  1.00  0.00     0.014 A 
ATOM     11  C   UNL A   1      41.690  21.997  25.672  1.00  0.00     0.014 A 
ATOM     12  C   UNL A   1      41.272  22.582  28.367  1.00  0.00     0.010 A 
ATOM     13  C   UNL A   1      42.138  23.212  26.198  1.00  0.00     0.010 A 
ATOM     14  C   UNL A   1      41.882  23.538  27.539  1.00  0.00    -0.014 A 
BRANCH  14  15
ATOM     15  C   UNL A   1      42.269  24.849  28.121  1.00  0.00     0.031 A 
ATOM     16  C   UNL A   1      41.252  25.926  28.391  1.00  0.00     0.074 A 
ATOM     17  C   UNL A   1      43.562  25.043  28.453  1.00  0.00     0.049 A 
ATOM     18  N   UNL A   1      41.430  27.113  28.918  1.00  0.00    -0.248 NA
ATOM     19  C   UNL A   1      39.859  25.645  28.015  1.00  0.00     0.031 C 
ATOM     20  C   UNL A   1      44.641  24.075  28.237  1.00  0.00     0.029 A 
ATOM     21  N   UNL A   1      44.185  26.099  29.065  1.00  0.00    -0.354 N 
ATOM     22  C   UNL A   1      40.183  27.729  28.907  1.00  0.00     0.074 A 
ATOM     23  C   UNL A   1      39.262  26.794  28.297  1.00  0.00     0.031 C 
ATOM     24  C   UNL A   1      45.774  24.550  28.769  1.00  0.00     0.029 A 
ATOM     25  C   UNL A   1      45.525  25.890  29.283  1.00  0.00     0.049 A 
ATOM     26  H   UNL A   1      43.717  26.926  29.324  1.00  0.00     0.167 HD
ATOM     27  C   UNL A   1      39.843  28.958  29.366  1.00  0.00     0.037 A 
ATOM     28  C   UNL A   1      46.461  26.695  29.817  1.00  0.00     0.037 A 
ATOM     29  C   UNL A   1      40.765  29.875  29.988  1.00  0.00     0.049 A 
ATOM     30  C   UNL A   1      46.058  28.059  30.289  1.00  0.00     0.074 A 
ATOM     31  C   UNL A   1      40.511  31.127  30.521  1.00  0.00     0.029 A 
ATOM     32  N   UNL A   1      42.123  29.641  30.154  1.00  0.00    -0.354 N 
ATOM     33  N   UNL A   1      44.870  28.615  30.299  1.00  0.00    -0.248 NA
ATOM     34  C   UNL A   1      47.127  28.909  30.825  1.00  0.00     0.031 C 
ATOM     35  C   UNL A   1      41.723  31.676  30.953  1.00  0.00     0.029 A 
ATOM     36  C   UNL A   1      42.723  30.738  30.757  1.00  0.00     0.049 A 
ATOM     37  H   UNL A   1      42.592  28.819  29.885  1.00  0.00     0.167 HD
ATOM     38  C   UNL A   1      45.043  29.867  30.870  1.00  0.00     0.074 A 
ATOM     39  C   UNL A   1      46.447  29.980  31.209  1.00  0.00     0.031 C 
ATOM     40  C   UNL A   1      44.121  30.835  31.097  1.00  0.00     0.037 A 
BRANCH  27  41
ATOM     41  C   UNL A   1      38.416  29.402  29.187  1.00  0.00     0.057 A 
ATOM     42  C   UNL A   1      37.501  29.429  30.247  1.00  0.00     0.134 A 
ATOM     43  C   UNL A   1      37.964  29.851  27.938  1.00  0.00     0.134 A 
ATOM     44  F   UNL A   1      37.861  29.006  31.469  1.00  0.00    -0.206 F 
ATOM     45  C   UNL A   1      36.182  29.858  30.066  1.00  0.00     0.040 A 
ATOM     46  C   UNL A   1      36.658  30.311  27.751  1.00  0.00     0.040 A 
ATOM     47  F   UNL A   1      38.787  29.865  26.879  1.00  0.00    -0.206 F 
ATOM     48  C   UNL A   1      35.761  30.308  28.816  1.00  0.00     0.006 A 
ENDBRANCH  27  41
BRANCH  28  49
ATOM     49  C   UNL A   1      47.865  26.227  29.925  1.00  0.00     0.057 A 
ATOM     50  C   UNL A   1      48.355  25.680  31.115  1.00  0.00     0.134 A 
ATOM     51  C   UNL A   1      48.750  26.317  28.843  1.00  0.00     0.134 A 
ATOM     52  F   UNL A   1      47.559  25.579  32.190  1.00  0.00    -0.206 F 
ATOM     53  C   UNL A   1      49.680  25.258  31.234  1.00  0.00     0.040 A 
ATOM     54  C   UNL A   1      50.068  25.869  28.937  1.00  0.00     0.040 A 
ATOM     55  F   UNL A   1      48.339  26.820  27.671  1.00  0.00    -0.206 F 
ATOM     56  C   UNL A   1      50.538  25.347  30.141  1.00  0.00     0.006 A 
ENDBRANCH  28  49
BRANCH  40  57
ATOM     57  C   UNL A   1      44.596  32.075  31.798  1.00  0.00     0.057 A 
ATOM     58  C   UNL A   1      44.601  32.189  33.195  1.00  0.00     0.134 A 
ATOM     59  C   UNL A   1      45.064  33.170  31.059  1.00  0.00     0.134 A 
ATOM     60  F   UNL A   1      44.153  31.185  33.962  1.00  0.00    -0.206 F 
ATOM     61  C   UNL A   1      45.017  33.362  33.828  1.00  0.00     0.040 A 
ATOM     62  C   UNL A   1      45.515  34.334  31.682  1.00  0.00     0.040 A 
ATOM     63  F   UNL A   1      45.095  33.124  29.718  1.00  0.00    -0.206 F 
ATOM     64  C   UNL A   1      45.482  34.435  33.071  1.00  0.00     0.006 A 
ENDBRANCH  40  57
ENDBRANCH  14  15
ENDBRANCH   7   9
ENDBRANCH   4   5
ENDBRANCH   3   4
ENDBRANCH   2   3
ENDBRANCH   1   2
BRANCH   1  65
ATOM     65  C   UNL A   1      34.997  24.015  25.820  1.00  0.00     0.021 C 
BRANCH  65  66
ATOM     66  C   UNL A   1      34.280  25.292  25.390  1.00  0.00     0.116 C 
BRANCH  66  67
ATOM     67  N   UNL A   1      33.216  25.637  26.310  1.00  0.00    -0.352 N 
ATOM     68  C   UNL A   1      32.213  26.554  26.183  1.00  0.00     0.252 C 
ATOM     69  H   UNL A   1      33.215  25.132  27.155  1.00  0.00     0.163 HD
ATOM     70  O   UNL A   1      31.518  26.829  27.162  1.00  0.00    -0.269 OA
BRANCH  68  71
ATOM     71  C   UNL A   1      32.013  27.329  24.944  1.00  0.00     0.052 A 
ATOM     72  C   UNL A   1      32.997  28.336  24.789  1.00  0.00     0.014 A 
ATOM     73  C   UNL A   1      31.030  27.156  23.959  1.00  0.00     0.052 A 
ATOM     74  C   UNL A   1      33.088  29.096  23.630  1.00  0.00     0.001 A 
ATOM     75  C   UNL A   1      31.174  27.918  22.771  1.00  0.00     0.014 A 
ATOM     76  C   UNL A   1      32.192  28.861  22.601  1.00  0.00     0.001 A 
BRANCH  73  77
ATOM     77  C   UNL A   1      29.886  26.190  23.908  1.00  0.00     0.256 C 
ATOM     78  O   UNL A   1      28.755  26.673  23.768  1.00  0.00    -0.269 OA
ATOM     79  N   UNL A   1      29.945  24.816  23.908  1.00  0.00    -0.322 N 
ATOM     80  H   UNL A   1      29.069  24.383  23.787  1.00  0.00     0.170 HD
BRANCH  79  81
ATOM     81  C   UNL A   1      30.999  23.917  24.045  1.00  0.00     0.041 A 
ATOM     82  C   UNL A   1      30.991  23.123  25.196  1.00  0.00     0.028 A 
ATOM     83  C   UNL A   1      31.970  23.715  23.076  1.00  0.00     0.028 A 
ATOM     84  C   UNL A   1      31.714  21.936  25.226  1.00  0.00     0.029 A 
ATOM     85  C   UNL A   1      32.815  22.608  23.183  1.00  0.00     0.029 A 
ATOM     86  C   UNL A   1      32.598  21.655  24.192  1.00  0.00     0.052 A 
BRANCH  86  87
ATOM     87  N   UNL A   1      33.140  20.369  24.047  1.00  0.00    -0.250 N 
ATOM     88  C   UNL A   1      32.578  19.393  23.220  1.00  0.00     0.237 C 
ATOM     89  C   UNL A   1      34.114  19.841  24.924  1.00  0.00     0.237 C 
ATOM     90  O   UNL A   1      31.859  19.504  22.249  1.00  0.00    -0.274 OA
ATOM     91  C   UNL A   1      32.933  18.134  23.927  1.00  0.00     0.095 C 
ATOM     92  C   UNL A   1      34.346  18.464  24.377  1.00  0.00     0.095 C 
ATOM     93  O   UNL A   1      34.727  20.369  25.837  1.00  0.00    -0.274 OA
ATOM     94  C   UNL A   1      33.048  16.669  23.510  1.00  0.00     0.002 C 
ATOM     95  C   UNL A   1      34.796  17.099  24.889  1.00  0.00     0.002 C 
ATOM     96  C   UNL A   1      32.655  15.896  24.787  1.00  0.00     0.005 C 
ATOM     97  C   UNL A   1      34.563  16.358  23.546  1.00  0.00     0.009 C 
ATOM     98  C   UNL A   1      33.764  16.352  25.782  1.00  0.00     0.005 C 
ENDBRANCH  86  87
ENDBRANCH  79  81
ENDBRANCH  73  77
ENDBRANCH  68  71
ENDBRANCH  66  67
ENDBRANCH  65  66
ENDBRANCH   1  65
TORSDOF 16
ENDMDL
MODEL 3
REMARK VINA RESULT:     -12.7      3.839      8.314
REMARK SMILES O=C(NCCCCCCNC(=O)c1ccccc1C(=O)Nc1ccc(N2C(=O)[C@H]3[C@@H]4CC[C@@H](C4)[C@@H]3C2=O)cc1)c1ccc(-c2c3nc(c(-c4c(F)cccc4F)c4ccc([nH]4)c(-c4c(F)cccc4F)c4nc(c(-c5c(F)cccc5F)c5ccc2[nH]5)C=C4)C=C3)cc1
REMARK SMILES IDX 7 1 6 2 5 3 4 4 3 5 1 6 2 7 40 9 41 10 93 11 42 12 92 13
REMARK SMILES IDX 43 14 44 15 45 16 86 17 46 18 91 19 85 20 87 21 47 22 90 23
REMARK SMILES IDX 84 24 83 25 48 27 74 28 57 29 73 30 58 31 61 32 72 33 88 34
REMARK SMILES IDX 59 35 60 36 71 38 89 39 62 40 49 41 50 42 55 43 51 44 52 45
REMARK SMILES IDX 54 46 56 47 53 48 75 49 76 50 81 51 77 52 78 53 80 54 82 55
REMARK SMILES IDX 79 56 63 57 64 58 69 59 65 60 66 61 68 62 70 63 67 64 8 65
REMARK SMILES IDX 9 66 10 67 11 68 12 70 13 71 14 72 18 73 15 74 17 75 16 76
REMARK SMILES IDX 19 77 20 78 21 79 22 81 23 82 39 83 24 84 38 85 25 86 26 87
REMARK SMILES IDX 27 88 36 89 28 90 29 91 35 92 37 93 30 94 33 95 31 96 34 97
REMARK SMILES IDX 32 98
REMARK H PARENT 3 8 87 26 61 37 10 69 21 80
REMARK Flexibility Score: inf
ROOT
ATOM      1  C   UNL A   1      31.671  29.624  25.185  1.00  0.00     0.002 C 
ENDROOT
BRANCH   1   2
ATOM      2  C   UNL A   1      32.182  30.219  26.501  1.00  0.00     0.002 C 
BRANCH   2   3
ATOM      3  C   UNL A   1      31.804  31.665  26.777  1.00  0.00     0.021 C 
BRANCH   3   4
ATOM      4  C   UNL A   1      32.905  32.505  27.388  1.00  0.00     0.116 C 
BRANCH   4   5
ATOM      5  N   UNL A   1      32.523  33.888  27.634  1.00  0.00    -0.352 N 
ATOM      6  O   UNL A   1      32.596  35.888  28.705  1.00  0.00    -0.269 OA
ATOM      7  C   UNL A   1      33.074  34.773  28.535  1.00  0.00     0.251 C 
ATOM      8  H   UNL A   1      31.779  34.234  27.090  1.00  0.00     0.163 HD
BRANCH   7   9
ATOM      9  C   UNL A   1      34.233  34.322  29.336  1.00  0.00     0.039 A 
ATOM     10  C   UNL A   1      35.527  34.554  28.869  1.00  0.00     0.014 A 
ATOM     11  C   UNL A   1      34.019  33.556  30.482  1.00  0.00     0.014 A 
ATOM     12  C   UNL A   1      36.580  33.834  29.411  1.00  0.00     0.010 A 
ATOM     13  C   UNL A   1      35.107  32.943  31.111  1.00  0.00     0.010 A 
ATOM     14  C   UNL A   1      36.390  33.030  30.547  1.00  0.00    -0.014 A 
BRANCH  14  15
ATOM     15  C   UNL A   1      37.561  32.331  31.136  1.00  0.00     0.031 A 
ATOM     16  C   UNL A   1      38.033  32.622  32.535  1.00  0.00     0.074 A 
ATOM     17  C   UNL A   1      38.175  31.383  30.400  1.00  0.00     0.049 A 
ATOM     18  N   UNL A   1      39.024  32.079  33.199  1.00  0.00    -0.248 NA
ATOM     19  C   UNL A   1      37.312  33.660  33.287  1.00  0.00     0.031 C 
ATOM     20  C   UNL A   1      37.811  31.014  29.029  1.00  0.00     0.029 A 
ATOM     21  N   UNL A   1      39.210  30.538  30.703  1.00  0.00    -0.354 N 
ATOM     22  C   UNL A   1      39.065  32.728  34.428  1.00  0.00     0.074 A 
ATOM     23  C   UNL A   1      38.016  33.724  34.409  1.00  0.00     0.031 C 
ATOM     24  C   UNL A   1      38.560  29.976  28.636  1.00  0.00     0.029 A 
ATOM     25  C   UNL A   1      39.515  29.663  29.689  1.00  0.00     0.049 A 
ATOM     26  H   UNL A   1      39.687  30.555  31.564  1.00  0.00     0.167 HD
ATOM     27  C   UNL A   1      39.900  32.509  35.474  1.00  0.00     0.037 A 
ATOM     28  C   UNL A   1      40.475  28.724  29.602  1.00  0.00     0.037 A 
ATOM     29  C   UNL A   1      40.931  31.501  35.490  1.00  0.00     0.049 A 
ATOM     30  C   UNL A   1      41.400  28.525  30.765  1.00  0.00     0.074 A 
ATOM     31  C   UNL A   1      41.803  31.174  36.514  1.00  0.00     0.029 A 
ATOM     32  N   UNL A   1      41.235  30.661  34.427  1.00  0.00    -0.354 N 
ATOM     33  N   UNL A   1      41.407  29.127  31.930  1.00  0.00    -0.248 NA
ATOM     34  C   UNL A   1      42.453  27.518  30.600  1.00  0.00     0.031 C 
ATOM     35  C   UNL A   1      42.673  30.181  36.052  1.00  0.00     0.029 A 
ATOM     36  C   UNL A   1      42.298  29.836  34.764  1.00  0.00     0.049 A 
ATOM     37  H   UNL A   1      40.765  30.652  33.563  1.00  0.00     0.167 HD
ATOM     38  C   UNL A   1      42.443  28.548  32.649  1.00  0.00     0.074 A 
ATOM     39  C   UNL A   1      43.028  27.536  31.793  1.00  0.00     0.031 C 
ATOM     40  C   UNL A   1      42.867  28.827  33.906  1.00  0.00     0.037 A 
BRANCH  27  41
ATOM     41  C   UNL A   1      39.758  33.395  36.682  1.00  0.00     0.057 A 
ATOM     42  C   UNL A   1      40.464  34.597  36.817  1.00  0.00     0.134 A 
ATOM     43  C   UNL A   1      38.866  33.056  37.709  1.00  0.00     0.134 A 
ATOM     44  F   UNL A   1      41.341  34.981  35.877  1.00  0.00    -0.206 F 
ATOM     45  C   UNL A   1      40.310  35.415  37.940  1.00  0.00     0.040 A 
ATOM     46  C   UNL A   1      38.680  33.880  38.822  1.00  0.00     0.040 A 
ATOM     47  F   UNL A   1      38.147  31.925  37.644  1.00  0.00    -0.206 F 
ATOM     48  C   UNL A   1      39.410  35.060  38.943  1.00  0.00     0.006 A 
ENDBRANCH  27  41
BRANCH  28  49
ATOM     49  C   UNL A   1      40.605  27.911  28.368  1.00  0.00     0.057 A 
ATOM     50  C   UNL A   1      41.359  28.364  27.280  1.00  0.00     0.134 A 
ATOM     51  C   UNL A   1      39.980  26.664  28.245  1.00  0.00     0.134 A 
ATOM     52  F   UNL A   1      41.972  29.556  27.333  1.00  0.00    -0.206 F 
ATOM     53  C   UNL A   1      41.469  27.617  26.106  1.00  0.00     0.040 A 
ATOM     54  C   UNL A   1      40.108  25.892  27.091  1.00  0.00     0.040 A 
ATOM     55  F   UNL A   1      39.253  26.167  29.257  1.00  0.00    -0.206 F 
ATOM     56  C   UNL A   1      40.847  26.374  26.013  1.00  0.00     0.006 A 
ENDBRANCH  28  49
BRANCH  40  57
ATOM     57  C   UNL A   1      43.983  27.981  34.449  1.00  0.00     0.057 A 
ATOM     58  C   UNL A   1      45.326  28.372  34.369  1.00  0.00     0.134 A 
ATOM     59  C   UNL A   1      43.704  26.756  35.070  1.00  0.00     0.134 A 
ATOM     60  F   UNL A   1      45.665  29.525  33.774  1.00  0.00    -0.206 F 
ATOM     61  C   UNL A   1      46.352  27.557  34.852  1.00  0.00     0.040 A 
ATOM     62  C   UNL A   1      44.718  25.950  35.588  1.00  0.00     0.040 A 
ATOM     63  F   UNL A   1      42.438  26.325  35.189  1.00  0.00    -0.206 F 
ATOM     64  C   UNL A   1      46.048  26.346  35.469  1.00  0.00     0.006 A 
ENDBRANCH  40  57
ENDBRANCH  14  15
ENDBRANCH   7   9
ENDBRANCH   4   5
ENDBRANCH   3   4
ENDBRANCH   2   3
ENDBRANCH   1   2
BRANCH   1  65
ATOM     65  C   UNL A   1      32.724  29.455  24.079  1.00  0.00     0.021 C 
BRANCH  65  66
ATOM     66  C   UNL A   1      32.150  29.002  22.739  1.00  0.00     0.116 C 
BRANCH  66  67
ATOM     67  N   UNL A   1      32.963  27.965  22.139  1.00  0.00    -0.352 N 
ATOM     68  C   UNL A   1      33.104  26.652  22.485  1.00  0.00     0.252 C 
ATOM     69  H   UNL A   1      33.496  28.250  21.362  1.00  0.00     0.163 HD
ATOM     70  O   UNL A   1      33.993  25.980  21.962  1.00  0.00    -0.269 OA
BRANCH  68  71
ATOM     71  C   UNL A   1      32.308  26.038  23.565  1.00  0.00     0.052 A 
ATOM     72  C   UNL A   1      31.042  25.604  23.104  1.00  0.00     0.014 A 
ATOM     73  C   UNL A   1      32.672  25.832  24.904  1.00  0.00     0.052 A 
ATOM     74  C   UNL A   1      30.180  24.874  23.914  1.00  0.00     0.001 A 
ATOM     75  C   UNL A   1      31.791  25.049  25.693  1.00  0.00     0.014 A 
ATOM     76  C   UNL A   1      30.572  24.565  25.205  1.00  0.00     0.001 A 
BRANCH  73  77
ATOM     77  C   UNL A   1      33.928  26.217  25.624  1.00  0.00     0.256 C 
ATOM     78  O   UNL A   1      33.994  27.378  26.047  1.00  0.00    -0.269 OA
ATOM     79  N   UNL A   1      34.989  25.407  25.955  1.00  0.00    -0.322 N 
ATOM     80  H   UNL A   1      35.674  25.857  26.501  1.00  0.00     0.170 HD
BRANCH  79  81
ATOM     81  C   UNL A   1      35.286  24.077  25.671  1.00  0.00     0.041 A 
ATOM     82  C   UNL A   1      35.041  23.154  26.693  1.00  0.00     0.028 A 
ATOM     83  C   UNL A   1      35.711  23.632  24.428  1.00  0.00     0.028 A 
ATOM     84  C   UNL A   1      34.887  21.807  26.389  1.00  0.00     0.029 A 
ATOM     85  C   UNL A   1      35.715  22.259  24.165  1.00  0.00     0.029 A 
ATOM     86  C   UNL A   1      35.182  21.363  25.106  1.00  0.00     0.052 A 
BRANCH  86  87
ATOM     87  N   UNL A   1      34.793  20.081  24.687  1.00  0.00    -0.250 N 
ATOM     88  C   UNL A   1      33.460  19.719  24.481  1.00  0.00     0.237 C 
ATOM     89  C   UNL A   1      35.660  18.967  24.715  1.00  0.00     0.237 C 
ATOM     90  O   UNL A   1      32.489  20.402  24.229  1.00  0.00    -0.274 OA
ATOM     91  C   UNL A   1      33.467  18.272  24.821  1.00  0.00     0.095 C 
ATOM     92  C   UNL A   1      34.792  17.855  24.205  1.00  0.00     0.095 C 
ATOM     93  O   UNL A   1      36.851  18.896  24.968  1.00  0.00    -0.274 OA
ATOM     94  C   UNL A   1      32.558  17.090  24.490  1.00  0.00     0.002 C 
ATOM     95  C   UNL A   1      34.692  16.339  24.341  1.00  0.00     0.002 C 
ATOM     96  C   UNL A   1      32.673  16.183  25.734  1.00  0.00     0.005 C 
ATOM     97  C   UNL A   1      33.381  16.208  23.522  1.00  0.00     0.009 C 
ATOM     98  C   UNL A   1      34.190  15.827  25.722  1.00  0.00     0.005 C 
ENDBRANCH  86  87
ENDBRANCH  79  81
ENDBRANCH  73  77
ENDBRANCH  68  71
ENDBRANCH  66  67
ENDBRANCH  65  66
ENDBRANCH   1  65
TORSDOF 16
ENDMDL
