MODEL 1
REMARK VINA RESULT:     -11.7      0.000      0.000
REMARK SMILES Cc1cc(C)cc(-c2ccc([C@@H](C)C(=O)NCCCCCCNC(=O)c3ccc(-c4c5nc(c(-c6c(F)cccc6F)c6ccc([nH]6)c(-c6c(F)cccc6F)c6nc(c(-c7c(F)cccc7F)c7ccc4[nH]7)C=C6)C=C5)cc3)cc2F)c1
REMARK SMILES IDX 19 1 18 2 17 3 16 4 14 5 15 6 12 8 13 9 11 10 8 11 9 12
REMARK SMILES IDX 81 13 10 14 80 15 82 16 7 17 1 18 2 19 3 20 83 21 4 22 5 23
REMARK SMILES IDX 6 24 20 25 21 26 22 27 23 28 24 29 25 31 26 32 27 33 79 34
REMARK SMILES IDX 28 35 78 36 29 37 30 38 31 39 72 40 32 41 77 42 71 43 73 44
REMARK SMILES IDX 33 45 76 46 70 47 69 48 34 50 60 51 43 52 59 53 44 54 47 55
REMARK SMILES IDX 58 56 74 57 45 58 46 59 57 61 75 62 48 63 35 64 36 65 41 66
REMARK SMILES IDX 37 67 38 68 40 69 42 70 39 71 61 72 62 73 67 74 63 75 64 76
REMARK SMILES IDX 66 77 68 78 65 79 49 80 50 81 55 82 51 83 52 84 54 85 56 86
REMARK SMILES IDX 53 87
REMARK H PARENT 16 7 23 30 73 49 47 60
REMARK Flexibility Score: inf
ROOT
ATOM      1  C   UNL A   1      33.741  28.477  25.096  1.00  0.00     0.002 C 
ENDROOT
BRANCH   1   2
ATOM      2  C   UNL A   1      32.824  29.699  24.979  1.00  0.00     0.021 C 
BRANCH   2   3
ATOM      3  C   UNL A   1      31.335  29.350  24.919  1.00  0.00     0.116 C 
BRANCH   3   4
ATOM      4  N   UNL A   1      30.790  29.555  23.594  1.00  0.00    -0.356 N 
ATOM      5  C   UNL A   1      30.210  28.698  22.710  1.00  0.00     0.227 C 
ATOM      6  O   UNL A   1      29.934  29.162  21.598  1.00  0.00    -0.274 OA
ATOM      7  H   UNL A   1      30.850  30.485  23.275  1.00  0.00     0.163 HD
BRANCH   5   8
ATOM      8  C   UNL A   1      29.880  27.233  23.032  1.00  0.00     0.105 C 
ATOM      9  C   UNL A   1      28.611  27.051  23.866  1.00  0.00     0.023 C 
BRANCH   8  10
ATOM     10  C   UNL A   1      31.086  26.417  23.471  1.00  0.00    -0.033 A 
ATOM     11  C   UNL A   1      33.260  24.760  24.328  1.00  0.00     0.017 A 
ATOM     12  C   UNL A   1      33.250  25.377  23.065  1.00  0.00     0.012 A 
ATOM     13  C   UNL A   1      32.162  25.019  25.158  1.00  0.00     0.131 A 
ATOM     14  C   UNL A   1      32.205  26.213  22.659  1.00  0.00     0.005 A 
ATOM     15  C   UNL A   1      31.089  25.815  24.738  1.00  0.00     0.044 A 
ATOM     16  F   UNL A   1      32.109  24.508  26.398  1.00  0.00    -0.206 F 
BRANCH  11  17
ATOM     17  C   UNL A   1      34.380  23.873  24.714  1.00  0.00    -0.015 A 
ATOM     18  C   UNL A   1      37.850  24.081  26.315  1.00  0.00     0.044 C 
ATOM     19  C   UNL A   1      36.592  23.526  25.714  1.00  0.00    -0.050 A 
ATOM     20  C   UNL A   1      36.441  22.142  25.573  1.00  0.00     0.006 A 
ATOM     21  C   UNL A   1      35.561  24.376  25.286  1.00  0.00     0.012 A 
ATOM     22  C   UNL A   1      35.282  21.607  25.006  1.00  0.00    -0.050 A 
ATOM     23  C   UNL A   1      35.124  20.122  24.874  1.00  0.00     0.044 C 
ATOM     24  C   UNL A   1      34.275  22.476  24.568  1.00  0.00     0.012 A 
ENDBRANCH  11  17
ENDBRANCH   8  10
ENDBRANCH   5   8
ENDBRANCH   3   4
ENDBRANCH   2   3
ENDBRANCH   1   2
BRANCH   1  25
ATOM     25  C   UNL A   1      33.951  27.955  26.524  1.00  0.00     0.002 C 
BRANCH  25  26
ATOM     26  C   UNL A   1      33.858  29.010  27.632  1.00  0.00     0.021 C 
BRANCH  26  27
ATOM     27  C   UNL A   1      35.101  29.882  27.790  1.00  0.00     0.116 C 
BRANCH  27  28
ATOM     28  N   UNL A   1      35.180  30.474  29.116  1.00  0.00    -0.352 N 
ATOM     29  C   UNL A   1      36.193  30.426  30.040  1.00  0.00     0.251 C 
ATOM     30  H   UNL A   1      34.387  30.989  29.392  1.00  0.00     0.163 HD
ATOM     31  O   UNL A   1      35.991  30.787  31.194  1.00  0.00    -0.269 OA
BRANCH  29  32
ATOM     32  C   UNL A   1      37.531  29.931  29.650  1.00  0.00     0.039 A 
ATOM     33  C   UNL A   1      37.936  30.057  28.318  1.00  0.00     0.014 A 
ATOM     34  C   UNL A   1      38.368  29.313  30.582  1.00  0.00     0.014 A 
ATOM     35  C   UNL A   1      39.202  29.611  27.933  1.00  0.00     0.010 A 
ATOM     36  C   UNL A   1      39.655  28.928  30.213  1.00  0.00     0.010 A 
ATOM     37  C   UNL A   1      40.082  29.069  28.885  1.00  0.00    -0.014 A 
BRANCH  37  38
ATOM     38  C   UNL A   1      41.456  28.649  28.508  1.00  0.00     0.031 A 
ATOM     39  C   UNL A   1      41.736  27.221  28.132  1.00  0.00     0.074 A 
ATOM     40  C   UNL A   1      42.462  29.542  28.567  1.00  0.00     0.049 A 
ATOM     41  N   UNL A   1      42.880  26.652  27.847  1.00  0.00    -0.248 NA
ATOM     42  C   UNL A   1      40.584  26.305  28.091  1.00  0.00     0.031 C 
ATOM     43  C   UNL A   1      42.324  30.945  28.959  1.00  0.00     0.029 A 
ATOM     44  N   UNL A   1      43.803  29.400  28.307  1.00  0.00    -0.354 N 
ATOM     45  C   UNL A   1      42.588  25.316  27.610  1.00  0.00     0.074 A 
ATOM     46  C   UNL A   1      41.169  25.145  27.826  1.00  0.00     0.031 C 
ATOM     47  C   UNL A   1      43.526  31.541  28.892  1.00  0.00     0.029 A 
ATOM     48  C   UNL A   1      44.525  30.554  28.491  1.00  0.00     0.049 A 
ATOM     49  H   UNL A   1      44.208  28.551  28.017  1.00  0.00     0.167 HD
ATOM     50  C   UNL A   1      43.427  24.325  27.225  1.00  0.00     0.037 A 
ATOM     51  C   UNL A   1      45.844  30.792  28.358  1.00  0.00     0.037 A 
ATOM     52  C   UNL A   1      44.833  24.506  26.975  1.00  0.00     0.049 A 
ATOM     53  C   UNL A   1      46.753  29.676  27.928  1.00  0.00     0.074 A 
ATOM     54  C   UNL A   1      45.750  23.576  26.516  1.00  0.00     0.029 A 
ATOM     55  N   UNL A   1      45.524  25.693  27.161  1.00  0.00    -0.354 N 
ATOM     56  N   UNL A   1      46.454  28.429  27.653  1.00  0.00    -0.248 NA
ATOM     57  C   UNL A   1      48.180  29.996  27.784  1.00  0.00     0.031 C 
ATOM     58  C   UNL A   1      47.004  24.189  26.466  1.00  0.00     0.029 A 
ATOM     59  C   UNL A   1      46.860  25.514  26.847  1.00  0.00     0.049 A 
ATOM     60  H   UNL A   1      45.123  26.538  27.469  1.00  0.00     0.167 HD
ATOM     61  C   UNL A   1      47.648  27.823  27.287  1.00  0.00     0.074 A 
ATOM     62  C   UNL A   1      48.675  28.841  27.361  1.00  0.00     0.031 C 
ATOM     63  C   UNL A   1      47.871  26.537  26.922  1.00  0.00     0.037 A 
BRANCH  50  64
ATOM     64  C   UNL A   1      42.851  22.953  27.031  1.00  0.00     0.057 A 
ATOM     65  C   UNL A   1      42.629  22.109  28.127  1.00  0.00     0.134 A 
ATOM     66  C   UNL A   1      42.589  22.439  25.755  1.00  0.00     0.134 A 
ATOM     67  F   UNL A   1      42.866  22.539  29.376  1.00  0.00    -0.206 F 
ATOM     68  C   UNL A   1      42.180  20.799  27.960  1.00  0.00     0.040 A 
ATOM     69  C   UNL A   1      42.116  21.138  25.577  1.00  0.00     0.040 A 
ATOM     70  F   UNL A   1      42.771  23.199  24.664  1.00  0.00    -0.206 F 
ATOM     71  C   UNL A   1      41.921  20.310  26.681  1.00  0.00     0.006 A 
ENDBRANCH  50  64
BRANCH  51  72
ATOM     72  C   UNL A   1      46.372  32.155  28.611  1.00  0.00     0.057 A 
ATOM     73  C   UNL A   1      46.853  32.532  29.870  1.00  0.00     0.134 A 
ATOM     74  C   UNL A   1      46.380  33.123  27.600  1.00  0.00     0.134 A 
ATOM     75  F   UNL A   1      46.864  31.653  30.883  1.00  0.00    -0.206 F 
ATOM     76  C   UNL A   1      47.308  33.829  30.120  1.00  0.00     0.040 A 
ATOM     77  C   UNL A   1      46.852  34.416  27.829  1.00  0.00     0.040 A 
ATOM     78  F   UNL A   1      45.947  32.815  26.369  1.00  0.00    -0.206 F 
ATOM     79  C   UNL A   1      47.310  34.773  29.096  1.00  0.00     0.006 A 
ENDBRANCH  51  72
BRANCH  63  80
ATOM     80  C   UNL A   1      49.273  26.151  26.556  1.00  0.00     0.057 A 
ATOM     81  C   UNL A   1      50.154  25.659  27.528  1.00  0.00     0.134 A 
ATOM     82  C   UNL A   1      49.776  26.348  25.264  1.00  0.00     0.134 A 
ATOM     83  F   UNL A   1      49.738  25.459  28.787  1.00  0.00    -0.206 F 
ATOM     84  C   UNL A   1      51.491  25.392  27.230  1.00  0.00     0.040 A 
ATOM     85  C   UNL A   1      51.104  26.061  24.948  1.00  0.00     0.040 A 
ATOM     86  F   UNL A   1      48.978  26.808  24.287  1.00  0.00    -0.206 F 
ATOM     87  C   UNL A   1      51.969  25.591  25.937  1.00  0.00     0.006 A 
ENDBRANCH  63  80
ENDBRANCH  37  38
ENDBRANCH  29  32
ENDBRANCH  27  28
ENDBRANCH  26  27
ENDBRANCH  25  26
ENDBRANCH   1  25
TORSDOF 15
ENDMDL
MODEL 2
REMARK VINA RESULT:     -11.6      0.744      6.228
REMARK SMILES Cc1cc(C)cc(-c2ccc([C@@H](C)C(=O)NCCCCCCNC(=O)c3ccc(-c4c5nc(c(-c6c(F)cccc6F)c6ccc([nH]6)c(-c6c(F)cccc6F)c6nc(c(-c7c(F)cccc7F)c7ccc4[nH]7)C=C6)C=C5)cc3)cc2F)c1
REMARK SMILES IDX 19 1 18 2 17 3 16 4 14 5 15 6 12 8 13 9 11 10 8 11 9 12
REMARK SMILES IDX 81 13 10 14 80 15 82 16 7 17 1 18 2 19 3 20 83 21 4 22 5 23
REMARK SMILES IDX 6 24 20 25 21 26 22 27 23 28 24 29 25 31 26 32 27 33 79 34
REMARK SMILES IDX 28 35 78 36 29 37 30 38 31 39 72 40 32 41 77 42 71 43 73 44
REMARK SMILES IDX 33 45 76 46 70 47 69 48 34 50 60 51 43 52 59 53 44 54 47 55
REMARK SMILES IDX 58 56 74 57 45 58 46 59 57 61 75 62 48 63 35 64 36 65 41 66
REMARK SMILES IDX 37 67 38 68 40 69 42 70 39 71 61 72 62 73 67 74 63 75 64 76
REMARK SMILES IDX 66 77 68 78 65 79 49 80 50 81 55 82 51 83 52 84 54 85 56 86
REMARK SMILES IDX 53 87
REMARK H PARENT 16 7 23 30 73 49 47 60
REMARK Flexibility Score: inf
ROOT
ATOM      1  C   UNL A   1      33.404  28.082  24.979  1.00  0.00     0.002 C 
ENDROOT
BRANCH   1   2
ATOM      2  C   UNL A   1      32.771  29.466  24.804  1.00  0.00     0.021 C 
BRANCH   2   3
ATOM      3  C   UNL A   1      31.242  29.440  24.727  1.00  0.00     0.116 C 
BRANCH   3   4
ATOM      4  N   UNL A   1      30.764  29.865  23.429  1.00  0.00    -0.356 N 
ATOM      5  C   UNL A   1      29.998  29.236  22.496  1.00  0.00     0.227 C 
ATOM      6  O   UNL A   1      29.843  29.831  21.423  1.00  0.00    -0.274 OA
ATOM      7  H   UNL A   1      31.045  30.773  23.175  1.00  0.00     0.163 HD
BRANCH   5   8
ATOM      8  C   UNL A   1      29.328  27.872  22.719  1.00  0.00     0.105 C 
ATOM      9  C   UNL A   1      28.016  27.946  23.503  1.00  0.00     0.023 C 
BRANCH   8  10
ATOM     10  C   UNL A   1      30.294  26.778  23.144  1.00  0.00    -0.033 A 
ATOM     11  C   UNL A   1      32.232  24.821  23.932  1.00  0.00     0.017 A 
ATOM     12  C   UNL A   1      31.115  25.121  24.729  1.00  0.00     0.012 A 
ATOM     13  C   UNL A   1      32.336  25.511  22.716  1.00  0.00     0.131 A 
ATOM     14  C   UNL A   1      30.151  26.053  24.330  1.00  0.00     0.005 A 
ATOM     15  C   UNL A   1      31.400  26.480  22.334  1.00  0.00     0.044 A 
ATOM     16  F   UNL A   1      33.346  25.254  21.870  1.00  0.00    -0.206 F 
BRANCH  11  17
ATOM     17  C   UNL A   1      33.235  23.837  24.396  1.00  0.00    -0.015 A 
ATOM     18  C   UNL A   1      33.714  20.048  24.638  1.00  0.00     0.044 C 
ATOM     19  C   UNL A   1      33.984  21.522  24.707  1.00  0.00    -0.050 A 
ATOM     20  C   UNL A   1      35.226  21.982  25.157  1.00  0.00     0.006 A 
ATOM     21  C   UNL A   1      33.003  22.453  24.330  1.00  0.00     0.012 A 
ATOM     22  C   UNL A   1      35.491  23.351  25.238  1.00  0.00    -0.050 A 
ATOM     23  C   UNL A   1      36.832  23.833  25.707  1.00  0.00     0.044 C 
ATOM     24  C   UNL A   1      34.490  24.261  24.875  1.00  0.00     0.012 A 
ENDBRANCH  11  17
ENDBRANCH   8  10
ENDBRANCH   5   8
ENDBRANCH   3   4
ENDBRANCH   2   3
ENDBRANCH   1   2
BRANCH   1  25
ATOM     25  C   UNL A   1      33.602  27.635  26.433  1.00  0.00     0.002 C 
BRANCH  25  26
ATOM     26  C   UNL A   1      33.666  28.765  27.468  1.00  0.00     0.021 C 
BRANCH  26  27
ATOM     27  C   UNL A   1      35.039  29.413  27.620  1.00  0.00     0.116 C 
BRANCH  27  28
ATOM     28  N   UNL A   1      35.097  30.288  28.780  1.00  0.00    -0.352 N 
ATOM     29  C   UNL A   1      36.114  30.487  29.680  1.00  0.00     0.251 C 
ATOM     30  H   UNL A   1      34.284  30.819  28.944  1.00  0.00     0.163 HD
ATOM     31  O   UNL A   1      35.900  31.089  30.727  1.00  0.00    -0.269 OA
BRANCH  29  32
ATOM     32  C   UNL A   1      37.470  29.972  29.394  1.00  0.00     0.039 A 
ATOM     33  C   UNL A   1      37.939  29.998  28.077  1.00  0.00     0.014 A 
ATOM     34  C   UNL A   1      38.262  29.432  30.410  1.00  0.00     0.014 A 
ATOM     35  C   UNL A   1      39.223  29.531  27.789  1.00  0.00     0.010 A 
ATOM     36  C   UNL A   1      39.566  29.027  30.134  1.00  0.00     0.010 A 
ATOM     37  C   UNL A   1      40.058  29.068  28.821  1.00  0.00    -0.014 A 
BRANCH  37  38
ATOM     38  C   UNL A   1      41.449  28.629  28.545  1.00  0.00     0.031 A 
ATOM     39  C   UNL A   1      42.576  29.621  28.572  1.00  0.00     0.074 A 
ATOM     40  C   UNL A   1      41.684  27.346  28.208  1.00  0.00     0.049 A 
ATOM     41  N   UNL A   1      43.841  29.440  28.285  1.00  0.00    -0.248 NA
ATOM     42  C   UNL A   1      42.239  31.003  28.949  1.00  0.00     0.031 C 
ATOM     43  C   UNL A   1      40.666  26.299  28.106  1.00  0.00     0.029 A 
ATOM     44  N   UNL A   1      42.853  26.707  27.878  1.00  0.00    -0.354 N 
ATOM     45  C   UNL A   1      44.443  30.683  28.431  1.00  0.00     0.074 A 
ATOM     46  C   UNL A   1      43.401  31.620  28.788  1.00  0.00     0.031 C 
ATOM     47  C   UNL A   1      41.258  25.144  27.762  1.00  0.00     0.029 A 
ATOM     48  C   UNL A   1      42.688  25.376  27.580  1.00  0.00     0.049 A 
ATOM     49  H   UNL A   1      43.727  27.159  27.858  1.00  0.00     0.167 HD
ATOM     50  C   UNL A   1      45.751  31.007  28.300  1.00  0.00     0.037 A 
ATOM     51  C   UNL A   1      43.585  24.446  27.199  1.00  0.00     0.037 A 
ATOM     52  C   UNL A   1      46.790  30.065  27.980  1.00  0.00     0.049 A 
ATOM     53  C   UNL A   1      45.031  24.831  27.062  1.00  0.00     0.074 A 
ATOM     54  C   UNL A   1      48.154  30.287  27.893  1.00  0.00     0.029 A 
ATOM     55  N   UNL A   1      46.584  28.724  27.698  1.00  0.00    -0.354 N 
ATOM     56  N   UNL A   1      45.594  25.999  27.257  1.00  0.00    -0.248 NA
ATOM     57  C   UNL A   1      45.967  23.774  26.657  1.00  0.00     0.031 C 
ATOM     58  C   UNL A   1      48.767  29.091  27.514  1.00  0.00     0.029 A 
ATOM     59  C   UNL A   1      47.792  28.111  27.414  1.00  0.00     0.049 A 
ATOM     60  H   UNL A   1      45.708  28.273  27.700  1.00  0.00     0.167 HD
ATOM     61  C   UNL A   1      46.949  25.813  27.019  1.00  0.00     0.074 A 
ATOM     62  C   UNL A   1      47.127  24.417  26.678  1.00  0.00     0.031 C 
ATOM     63  C   UNL A   1      47.955  26.719  27.078  1.00  0.00     0.037 A 
BRANCH  50  64
ATOM     64  C   UNL A   1      46.144  32.439  28.518  1.00  0.00     0.057 A 
ATOM     65  C   UNL A   1      46.427  32.915  29.805  1.00  0.00     0.134 A 
ATOM     66  C   UNL A   1      46.166  33.363  27.467  1.00  0.00     0.134 A 
ATOM     67  F   UNL A   1      46.417  32.082  30.857  1.00  0.00    -0.206 F 
ATOM     68  C   UNL A   1      46.705  34.262  30.039  1.00  0.00     0.040 A 
ATOM     69  C   UNL A   1      46.467  34.709  27.685  1.00  0.00     0.040 A 
ATOM     70  F   UNL A   1      45.914  32.970  26.209  1.00  0.00    -0.206 F 
ATOM     71  C   UNL A   1      46.726  35.163  28.977  1.00  0.00     0.006 A 
ENDBRANCH  50  64
BRANCH  51  72
ATOM     72  C   UNL A   1      43.137  23.054  26.946  1.00  0.00     0.057 A 
ATOM     73  C   UNL A   1      42.970  22.564  25.645  1.00  0.00     0.134 A 
ATOM     74  C   UNL A   1      42.837  22.191  28.006  1.00  0.00     0.134 A 
ATOM     75  F   UNL A   1      43.232  23.345  24.587  1.00  0.00    -0.206 F 
ATOM     76  C   UNL A   1      42.504  21.269  25.408  1.00  0.00     0.040 A 
ATOM     77  C   UNL A   1      42.393  20.888  27.783  1.00  0.00     0.040 A 
ATOM     78  F   UNL A   1      42.994  22.601  29.273  1.00  0.00    -0.206 F 
ATOM     79  C   UNL A   1      42.217  20.427  26.480  1.00  0.00     0.006 A 
ENDBRANCH  51  72
BRANCH  63  80
ATOM     80  C   UNL A   1      49.345  26.237  26.786  1.00  0.00     0.057 A 
ATOM     81  C   UNL A   1      50.219  25.909  27.830  1.00  0.00     0.134 A 
ATOM     82  C   UNL A   1      49.844  26.183  25.480  1.00  0.00     0.134 A 
ATOM     83  F   UNL A   1      49.806  25.953  29.105  1.00  0.00    -0.206 F 
ATOM     84  C   UNL A   1      51.547  25.558  27.584  1.00  0.00     0.040 A 
ATOM     85  C   UNL A   1      51.163  25.809  25.219  1.00  0.00     0.040 A 
ATOM     86  F   UNL A   1      49.052  26.477  24.436  1.00  0.00    -0.206 F 
ATOM     87  C   UNL A   1      52.022  25.506  26.275  1.00  0.00     0.006 A 
ENDBRANCH  63  80
ENDBRANCH  37  38
ENDBRANCH  29  32
ENDBRANCH  27  28
ENDBRANCH  26  27
ENDBRANCH  25  26
ENDBRANCH   1  25
TORSDOF 15
ENDMDL
MODEL 3
REMARK VINA RESULT:     -11.5      5.633      9.351
REMARK SMILES Cc1cc(C)cc(-c2ccc([C@@H](C)C(=O)NCCCCCCNC(=O)c3ccc(-c4c5nc(c(-c6c(F)cccc6F)c6ccc([nH]6)c(-c6c(F)cccc6F)c6nc(c(-c7c(F)cccc7F)c7ccc4[nH]7)C=C6)C=C5)cc3)cc2F)c1
REMARK SMILES IDX 19 1 18 2 17 3 16 4 14 5 15 6 12 8 13 9 11 10 8 11 9 12
REMARK SMILES IDX 81 13 10 14 80 15 82 16 7 17 1 18 2 19 3 20 83 21 4 22 5 23
REMARK SMILES IDX 6 24 20 25 21 26 22 27 23 28 24 29 25 31 26 32 27 33 79 34
REMARK SMILES IDX 28 35 78 36 29 37 30 38 31 39 72 40 32 41 77 42 71 43 73 44
REMARK SMILES IDX 33 45 76 46 70 47 69 48 34 50 60 51 43 52 59 53 44 54 47 55
REMARK SMILES IDX 58 56 74 57 45 58 46 59 57 61 75 62 48 63 35 64 36 65 41 66
REMARK SMILES IDX 37 67 38 68 40 69 42 70 39 71 61 72 62 73 67 74 63 75 64 76
REMARK SMILES IDX 66 77 68 78 65 79 49 80 50 81 55 82 51 83 52 84 54 85 56 86
REMARK SMILES IDX 53 87
REMARK H PARENT 16 7 23 30 73 49 47 60
REMARK Flexibility Score: inf
ROOT
ATOM      1  C   UNL A   1      33.783  32.067  28.052  1.00  0.00     0.002 C 
ENDROOT
BRANCH   1   2
ATOM      2  C   UNL A   1      34.959  31.110  27.831  1.00  0.00     0.021 C 
BRANCH   2   3
ATOM      3  C   UNL A   1      34.545  29.735  27.302  1.00  0.00     0.116 C 
BRANCH   3   4
ATOM      4  N   UNL A   1      33.914  29.830  26.003  1.00  0.00    -0.356 N 
ATOM      5  C   UNL A   1      32.904  29.118  25.433  1.00  0.00     0.227 C 
ATOM      6  O   UNL A   1      32.654  29.373  24.249  1.00  0.00    -0.274 OA
ATOM      7  H   UNL A   1      34.284  30.537  25.427  1.00  0.00     0.163 HD
BRANCH   5   8
ATOM      8  C   UNL A   1      32.078  28.060  26.178  1.00  0.00     0.105 C 
ATOM      9  C   UNL A   1      31.663  28.477  27.590  1.00  0.00     0.023 C 
BRANCH   8  10
ATOM     10  C   UNL A   1      32.623  26.647  26.036  1.00  0.00    -0.033 A 
ATOM     11  C   UNL A   1      33.526  23.952  25.678  1.00  0.00     0.017 A 
ATOM     12  C   UNL A   1      34.338  25.055  25.364  1.00  0.00     0.012 A 
ATOM     13  C   UNL A   1      32.259  24.240  26.201  1.00  0.00     0.131 A 
ATOM     14  C   UNL A   1      33.911  26.371  25.569  1.00  0.00     0.005 A 
ATOM     15  C   UNL A   1      31.806  25.555  26.363  1.00  0.00     0.044 A 
ATOM     16  F   UNL A   1      31.433  23.248  26.572  1.00  0.00    -0.206 F 
BRANCH  11  17
ATOM     17  C   UNL A   1      34.012  22.576  25.434  1.00  0.00    -0.015 A 
ATOM     18  C   UNL A   1      32.638  19.085  24.677  1.00  0.00     0.044 C 
ATOM     19  C   UNL A   1      33.596  20.217  24.908  1.00  0.00    -0.050 A 
ATOM     20  C   UNL A   1      34.974  19.989  24.830  1.00  0.00     0.006 A 
ATOM     21  C   UNL A   1      33.129  21.507  25.207  1.00  0.00     0.012 A 
ATOM     22  C   UNL A   1      35.881  21.028  25.053  1.00  0.00    -0.050 A 
ATOM     23  C   UNL A   1      37.356  20.776  24.952  1.00  0.00     0.044 C 
ATOM     24  C   UNL A   1      35.393  22.302  25.369  1.00  0.00     0.012 A 
ENDBRANCH  11  17
ENDBRANCH   8  10
ENDBRANCH   5   8
ENDBRANCH   3   4
ENDBRANCH   2   3
ENDBRANCH   1   2
BRANCH   1  25
ATOM     25  C   UNL A   1      34.169  33.476  28.521  1.00  0.00     0.002 C 
BRANCH  25  26
ATOM     26  C   UNL A   1      33.018  34.486  28.591  1.00  0.00     0.021 C 
BRANCH  26  27
ATOM     27  C   UNL A   1      33.402  35.852  29.152  1.00  0.00     0.116 C 
BRANCH  27  28
ATOM     28  N   UNL A   1      32.591  36.210  30.305  1.00  0.00    -0.352 N 
ATOM     29  C   UNL A   1      32.678  35.784  31.607  1.00  0.00     0.251 C 
ATOM     30  H   UNL A   1      31.870  36.856  30.125  1.00  0.00     0.163 HD
ATOM     31  O   UNL A   1      31.764  36.013  32.392  1.00  0.00    -0.269 OA
BRANCH  29  32
ATOM     32  C   UNL A   1      33.871  35.040  32.066  1.00  0.00     0.039 A 
ATOM     33  C   UNL A   1      33.737  33.691  32.404  1.00  0.00     0.014 A 
ATOM     34  C   UNL A   1      35.107  35.678  32.199  1.00  0.00     0.014 A 
ATOM     35  C   UNL A   1      34.855  32.967  32.824  1.00  0.00     0.010 A 
ATOM     36  C   UNL A   1      36.234  34.941  32.555  1.00  0.00     0.010 A 
ATOM     37  C   UNL A   1      36.119  33.580  32.875  1.00  0.00    -0.014 A 
BRANCH  37  38
ATOM     38  C   UNL A   1      37.330  32.812  33.257  1.00  0.00     0.031 A 
ATOM     39  C   UNL A   1      38.041  33.109  34.547  1.00  0.00     0.074 A 
ATOM     40  C   UNL A   1      37.825  31.889  32.409  1.00  0.00     0.049 A 
ATOM     41  N   UNL A   1      39.152  32.597  35.013  1.00  0.00    -0.248 NA
ATOM     42  C   UNL A   1      37.439  34.130  35.419  1.00  0.00     0.031 C 
ATOM     43  C   UNL A   1      37.248  31.542  31.109  1.00  0.00     0.029 A 
ATOM     44  N   UNL A   1      38.931  31.082  32.509  1.00  0.00    -0.354 N 
ATOM     45  C   UNL A   1      39.389  33.242  36.219  1.00  0.00     0.074 A 
ATOM     46  C   UNL A   1      38.333  34.215  36.395  1.00  0.00     0.031 C 
ATOM     47  C   UNL A   1      37.991  30.577  30.543  1.00  0.00     0.029 A 
ATOM     48  C   UNL A   1      39.117  30.265  31.420  1.00  0.00     0.049 A 
ATOM     49  H   UNL A   1      39.533  31.088  33.287  1.00  0.00     0.167 HD
ATOM     50  C   UNL A   1      40.385  33.027  37.110  1.00  0.00     0.037 A 
ATOM     51  C   UNL A   1      40.087  29.370  31.153  1.00  0.00     0.037 A 
ATOM     52  C   UNL A   1      41.414  32.033  36.949  1.00  0.00     0.049 A 
ATOM     53  C   UNL A   1      41.181  29.148  32.159  1.00  0.00     0.074 A 
ATOM     54  C   UNL A   1      42.427  31.695  37.831  1.00  0.00     0.029 A 
ATOM     55  N   UNL A   1      41.560  31.218  35.838  1.00  0.00    -0.354 N 
ATOM     56  N   UNL A   1      41.361  29.727  33.321  1.00  0.00    -0.248 NA
ATOM     57  C   UNL A   1      42.204  28.149  31.822  1.00  0.00     0.031 C 
ATOM     58  C   UNL A   1      43.212  30.707  37.233  1.00  0.00     0.029 A 
ATOM     59  C   UNL A   1      42.661  30.393  36.001  1.00  0.00     0.049 A 
ATOM     60  H   UNL A   1      40.969  31.224  35.050  1.00  0.00     0.167 HD
ATOM     61  C   UNL A   1      42.502  29.151  33.861  1.00  0.00     0.074 A 
ATOM     62  C   UNL A   1      42.966  28.167  32.906  1.00  0.00     0.031 C 
ATOM     63  C   UNL A   1      43.110  29.415  35.043  1.00  0.00     0.037 A 
BRANCH  50  64
ATOM     64  C   UNL A   1      40.410  33.868  38.352  1.00  0.00     0.057 A 
ATOM     65  C   UNL A   1      39.618  33.533  39.459  1.00  0.00     0.134 A 
ATOM     66  C   UNL A   1      41.156  35.051  38.425  1.00  0.00     0.134 A 
ATOM     67  F   UNL A   1      38.875  32.417  39.451  1.00  0.00    -0.206 F 
ATOM     68  C   UNL A   1      39.558  34.352  40.587  1.00  0.00     0.040 A 
ATOM     69  C   UNL A   1      41.123  35.865  39.558  1.00  0.00     0.040 A 
ATOM     70  F   UNL A   1      41.942  35.424  37.403  1.00  0.00    -0.206 F 
ATOM     71  C   UNL A   1      40.313  35.522  40.639  1.00  0.00     0.006 A 
ENDBRANCH  50  64
BRANCH  51  72
ATOM     72  C   UNL A   1      40.044  28.598  29.886  1.00  0.00     0.057 A 
ATOM     73  C   UNL A   1      39.317  27.407  29.778  1.00  0.00     0.134 A 
ATOM     74  C   UNL A   1      40.759  29.023  28.760  1.00  0.00     0.134 A 
ATOM     75  F   UNL A   1      38.618  26.942  30.824  1.00  0.00    -0.206 F 
ATOM     76  C   UNL A   1      39.315  26.658  28.600  1.00  0.00     0.040 A 
ATOM     77  C   UNL A   1      40.747  28.296  27.570  1.00  0.00     0.040 A 
ATOM     78  F   UNL A   1      41.461  30.165  28.800  1.00  0.00    -0.206 F 
ATOM     79  C   UNL A   1      40.030  27.105  27.491  1.00  0.00     0.006 A 
ENDBRANCH  51  72
BRANCH  63  80
ATOM     80  C   UNL A   1      44.335  28.622  35.389  1.00  0.00     0.057 A 
ATOM     81  C   UNL A   1      44.239  27.476  36.188  1.00  0.00     0.134 A 
ATOM     82  C   UNL A   1      45.614  29.041  35.005  1.00  0.00     0.134 A 
ATOM     83  F   UNL A   1      43.043  27.029  36.600  1.00  0.00    -0.206 F 
ATOM     84  C   UNL A   1      45.376  26.783  36.607  1.00  0.00     0.040 A 
ATOM     85  C   UNL A   1      46.756  28.343  35.397  1.00  0.00     0.040 A 
ATOM     86  F   UNL A   1      45.770  30.127  34.232  1.00  0.00    -0.206 F 
ATOM     87  C   UNL A   1      46.639  27.216  36.210  1.00  0.00     0.006 A 
ENDBRANCH  63  80
ENDBRANCH  37  38
ENDBRANCH  29  32
ENDBRANCH  27  28
ENDBRANCH  26  27
ENDBRANCH  25  26
ENDBRANCH   1  25
TORSDOF 15
ENDMDL
