MODEL 1
REMARK VINA RESULT:     -12.0      0.000      0.000
REMARK SMILES O=C(NCCCCCCNC(=O)c1cccnc1C(=O)Nc1ccc([N+](=O)[O-])cc1)c1ccc(-c2c3nc(c(-c4c(F)cccc4F)c4ccc([nH]4)c(-c4c(F)cccc4F)c4nc(c(-c5c(F)cccc5F)c5ccc2[nH]5)C=C4)C=C3)cc1
REMARK SMILES IDX 7 1 6 2 5 3 4 4 3 5 1 6 2 7 31 9 32 10 84 11 33 12 83 13
REMARK SMILES IDX 34 14 35 15 36 16 77 17 37 18 82 19 76 20 78 21 38 22 81 23
REMARK SMILES IDX 75 24 74 25 39 27 65 28 48 29 64 30 49 31 52 32 63 33 79 34
REMARK SMILES IDX 50 35 51 36 62 38 80 39 53 40 40 41 41 42 46 43 42 44 43 45
REMARK SMILES IDX 45 46 47 47 44 48 66 49 67 50 72 51 68 52 69 53 71 54 73 55
REMARK SMILES IDX 70 56 54 57 55 58 60 59 56 60 57 61 59 62 61 63 58 64 8 65
REMARK SMILES IDX 9 66 10 67 11 68 12 70 13 71 14 72 18 73 15 74 17 75 16 76
REMARK SMILES IDX 19 77 20 78 21 79 22 81 23 82 30 83 24 84 29 85 25 86 26 87
REMARK SMILES IDX 27 88 28 89
REMARK H PARENT 3 8 78 26 52 37 10 69 21 80
REMARK Flexibility Score: inf
ROOT
ATOM      1  C   UNL A   1      32.152  29.182  26.596  1.00  0.00     0.002 C 
ENDROOT
BRANCH   1   2
ATOM      2  C   UNL A   1      31.675  30.366  25.753  1.00  0.00     0.002 C 
BRANCH   2   3
ATOM      3  C   UNL A   1      31.407  31.645  26.537  1.00  0.00     0.021 C 
BRANCH   3   4
ATOM      4  C   UNL A   1      32.660  32.424  26.891  1.00  0.00     0.116 C 
BRANCH   4   5
ATOM      5  N   UNL A   1      32.392  33.765  27.386  1.00  0.00    -0.352 N 
ATOM      6  O   UNL A   1      32.705  35.518  28.796  1.00  0.00    -0.269 OA
ATOM      7  C   UNL A   1      33.071  34.430  28.384  1.00  0.00     0.251 C 
ATOM      8  H   UNL A   1      31.646  34.249  26.965  1.00  0.00     0.163 HD
BRANCH   7   9
ATOM      9  C   UNL A   1      34.252  33.759  28.968  1.00  0.00     0.039 A 
ATOM     10  C   UNL A   1      34.069  32.695  29.853  1.00  0.00     0.014 A 
ATOM     11  C   UNL A   1      35.528  34.256  28.698  1.00  0.00     0.014 A 
ATOM     12  C   UNL A   1      35.151  32.210  30.570  1.00  0.00     0.010 A 
ATOM     13  C   UNL A   1      36.630  33.698  29.349  1.00  0.00     0.010 A 
ATOM     14  C   UNL A   1      36.447  32.681  30.298  1.00  0.00    -0.014 A 
BRANCH  14  15
ATOM     15  C   UNL A   1      37.599  31.988  30.921  1.00  0.00     0.031 A 
ATOM     16  C   UNL A   1      38.376  30.930  30.194  1.00  0.00     0.074 A 
ATOM     17  C   UNL A   1      37.934  32.350  32.175  1.00  0.00     0.049 A 
ATOM     18  N   UNL A   1      39.394  30.227  30.622  1.00  0.00    -0.248 NA
ATOM     19  C   UNL A   1      37.962  30.611  28.819  1.00  0.00     0.031 C 
ATOM     20  C   UNL A   1      37.229  33.357  32.976  1.00  0.00     0.029 A 
ATOM     21  N   UNL A   1      38.949  31.931  32.993  1.00  0.00    -0.354 N 
ATOM     22  C   UNL A   1      39.727  29.367  29.583  1.00  0.00     0.074 A 
ATOM     23  C   UNL A   1      38.799  29.629  28.504  1.00  0.00     0.031 C 
ATOM     24  C   UNL A   1      37.854  33.506  34.150  1.00  0.00     0.029 A 
ATOM     25  C   UNL A   1      38.953  32.553  34.218  1.00  0.00     0.049 A 
ATOM     26  H   UNL A   1      39.611  31.252  32.730  1.00  0.00     0.167 HD
ATOM     27  C   UNL A   1      40.718  28.444  29.546  1.00  0.00     0.037 A 
ATOM     28  C   UNL A   1      39.731  32.354  35.295  1.00  0.00     0.037 A 
ATOM     29  C   UNL A   1      41.646  28.209  30.625  1.00  0.00     0.049 A 
ATOM     30  C   UNL A   1      40.801  31.309  35.226  1.00  0.00     0.074 A 
ATOM     31  C   UNL A   1      42.724  27.340  30.658  1.00  0.00     0.029 A 
ATOM     32  N   UNL A   1      41.602  28.838  31.860  1.00  0.00    -0.354 N 
ATOM     33  N   UNL A   1      41.134  30.539  34.218  1.00  0.00    -0.248 NA
ATOM     34  C   UNL A   1      41.595  31.096  36.441  1.00  0.00     0.031 C 
ATOM     35  C   UNL A   1      43.299  27.406  31.931  1.00  0.00     0.029 A 
ATOM     36  C   UNL A   1      42.612  28.351  32.674  1.00  0.00     0.049 A 
ATOM     37  H   UNL A   1      40.950  29.529  32.119  1.00  0.00     0.167 HD
ATOM     38  C   UNL A   1      42.179  29.751  34.677  1.00  0.00     0.074 A 
ATOM     39  C   UNL A   1      42.446  30.163  36.040  1.00  0.00     0.031 C 
ATOM     40  C   UNL A   1      42.853  28.769  34.030  1.00  0.00     0.037 A 
BRANCH  27  41
ATOM     41  C   UNL A   1      40.854  27.595  28.316  1.00  0.00     0.057 A 
ATOM     42  C   UNL A   1      40.113  26.422  28.137  1.00  0.00     0.134 A 
ATOM     43  C   UNL A   1      41.665  28.015  27.251  1.00  0.00     0.134 A 
ATOM     44  F   UNL A   1      39.323  25.961  29.119  1.00  0.00    -0.206 F 
ATOM     45  C   UNL A   1      40.172  25.695  26.946  1.00  0.00     0.040 A 
ATOM     46  C   UNL A   1      41.719  27.307  26.049  1.00  0.00     0.040 A 
ATOM     47  F   UNL A   1      42.397  29.135  27.354  1.00  0.00    -0.206 F 
ATOM     48  C   UNL A   1      40.969  26.143  25.893  1.00  0.00     0.006 A 
ENDBRANCH  27  41
BRANCH  28  49
ATOM     49  C   UNL A   1      39.489  33.130  36.537  1.00  0.00     0.057 A 
ATOM     50  C   UNL A   1      38.558  32.705  37.490  1.00  0.00     0.134 A 
ATOM     51  C   UNL A   1      40.187  34.316  36.799  1.00  0.00     0.134 A 
ATOM     52  F   UNL A   1      37.849  31.585  37.289  1.00  0.00    -0.206 F 
ATOM     53  C   UNL A   1      38.313  33.442  38.649  1.00  0.00     0.040 A 
ATOM     54  C   UNL A   1      39.976  35.047  37.968  1.00  0.00     0.040 A 
ATOM     55  F   UNL A   1      41.102  34.771  35.930  1.00  0.00    -0.206 F 
ATOM     56  C   UNL A   1      39.028  34.614  38.893  1.00  0.00     0.006 A 
ENDBRANCH  28  49
BRANCH  40  57
ATOM     57  C   UNL A   1      43.945  28.088  34.799  1.00  0.00     0.057 A 
ATOM     58  C   UNL A   1      45.252  28.590  34.818  1.00  0.00     0.134 A 
ATOM     59  C   UNL A   1      43.683  26.925  35.535  1.00  0.00     0.134 A 
ATOM     60  F   UNL A   1      45.567  29.690  34.117  1.00  0.00    -0.206 F 
ATOM     61  C   UNL A   1      46.269  27.945  35.522  1.00  0.00     0.040 A 
ATOM     62  C   UNL A   1      44.686  26.287  36.264  1.00  0.00     0.040 A 
ATOM     63  F   UNL A   1      42.451  26.398  35.561  1.00  0.00    -0.206 F 
ATOM     64  C   UNL A   1      45.984  26.792  36.253  1.00  0.00     0.006 A 
ENDBRANCH  40  57
ENDBRANCH  14  15
ENDBRANCH   7   9
ENDBRANCH   4   5
ENDBRANCH   3   4
ENDBRANCH   2   3
ENDBRANCH   1   2
BRANCH   1  65
ATOM     65  C   UNL A   1      31.358  27.872  26.507  1.00  0.00     0.021 C 
BRANCH  65  66
ATOM     66  C   UNL A   1      32.115  26.544  26.494  1.00  0.00     0.116 C 
BRANCH  66  67
ATOM     67  N   UNL A   1      31.345  25.365  26.864  1.00  0.00    -0.352 N 
ATOM     68  C   UNL A   1      31.620  24.026  26.676  1.00  0.00     0.253 C 
ATOM     69  H   UNL A   1      30.492  25.552  27.320  1.00  0.00     0.163 HD
ATOM     70  O   UNL A   1      30.984  23.161  27.267  1.00  0.00    -0.269 OA
BRANCH  68  71
ATOM     71  C   UNL A   1      32.785  23.640  25.890  1.00  0.00     0.071 A 
ATOM     72  C   UNL A   1      33.935  23.432  26.686  1.00  0.00     0.018 A 
ATOM     73  C   UNL A   1      32.859  23.433  24.517  1.00  0.00     0.141 A 
ATOM     74  C   UNL A   1      35.147  23.097  26.110  1.00  0.00     0.021 A 
ATOM     75  N   UNL A   1      34.085  23.134  23.962  1.00  0.00    -0.250 NA
ATOM     76  C   UNL A   1      35.175  22.973  24.743  1.00  0.00     0.112 A 
BRANCH  73  77
ATOM     77  C   UNL A   1      31.784  23.349  23.426  1.00  0.00     0.275 C 
ATOM     78  O   UNL A   1      31.786  22.358  22.681  1.00  0.00    -0.267 OA
ATOM     79  N   UNL A   1      30.648  24.121  23.340  1.00  0.00    -0.321 N 
ATOM     80  H   UNL A   1      29.822  23.597  23.237  1.00  0.00     0.170 HD
BRANCH  79  81
ATOM     81  C   UNL A   1      30.437  25.496  23.369  1.00  0.00     0.042 A 
ATOM     82  C   UNL A   1      31.451  26.313  22.850  1.00  0.00     0.033 A 
ATOM     83  C   UNL A   1      29.278  26.061  23.889  1.00  0.00     0.033 A 
ATOM     84  C   UNL A   1      31.202  27.666  22.611  1.00  0.00     0.088 A 
ATOM     85  C   UNL A   1      29.047  27.425  23.700  1.00  0.00     0.088 A 
ATOM     86  C   UNL A   1      29.964  28.188  22.976  1.00  0.00     0.269 A 
BRANCH  86  87
ATOM     87  N   UNL A   1      29.549  29.493  22.478  1.00  0.00     0.062 N 
ATOM     88  O   UNL A   1      29.134  30.319  23.300  1.00  0.00    -0.258 OA
ATOM     89  O   UNL A   1      29.663  29.689  21.257  1.00  0.00    -0.258 OA
ENDBRANCH  86  87
ENDBRANCH  79  81
ENDBRANCH  73  77
ENDBRANCH  68  71
ENDBRANCH  66  67
ENDBRANCH  65  66
ENDBRANCH   1  65
TORSDOF 16
ENDMDL
MODEL 2
REMARK VINA RESULT:     -11.9      4.418      9.328
REMARK SMILES O=C(NCCCCCCNC(=O)c1cccnc1C(=O)Nc1ccc([N+](=O)[O-])cc1)c1ccc(-c2c3nc(c(-c4c(F)cccc4F)c4ccc([nH]4)c(-c4c(F)cccc4F)c4nc(c(-c5c(F)cccc5F)c5ccc2[nH]5)C=C4)C=C3)cc1
REMARK SMILES IDX 7 1 6 2 5 3 4 4 3 5 1 6 2 7 31 9 32 10 84 11 33 12 83 13
REMARK SMILES IDX 34 14 35 15 36 16 77 17 37 18 82 19 76 20 78 21 38 22 81 23
REMARK SMILES IDX 75 24 74 25 39 27 65 28 48 29 64 30 49 31 52 32 63 33 79 34
REMARK SMILES IDX 50 35 51 36 62 38 80 39 53 40 40 41 41 42 46 43 42 44 43 45
REMARK SMILES IDX 45 46 47 47 44 48 66 49 67 50 72 51 68 52 69 53 71 54 73 55
REMARK SMILES IDX 70 56 54 57 55 58 60 59 56 60 57 61 59 62 61 63 58 64 8 65
REMARK SMILES IDX 9 66 10 67 11 68 12 70 13 71 14 72 18 73 15 74 17 75 16 76
REMARK SMILES IDX 19 77 20 78 21 79 22 81 23 82 30 83 24 84 29 85 25 86 26 87
REMARK SMILES IDX 27 88 28 89
REMARK H PARENT 3 8 78 26 52 37 10 69 21 80
REMARK Flexibility Score: inf
ROOT
ATOM      1  C   UNL A   1      36.515  22.104  24.398  1.00  0.00     0.002 C 
ENDROOT
BRANCH   1   2
ATOM      2  C   UNL A   1      36.257  20.705  24.961  1.00  0.00     0.002 C 
BRANCH   2   3
ATOM      3  C   UNL A   1      37.447  19.755  24.891  1.00  0.00     0.021 C 
BRANCH   3   4
ATOM      4  C   UNL A   1      38.664  20.236  25.660  1.00  0.00     0.116 C 
BRANCH   4   5
ATOM      5  N   UNL A   1      39.768  19.291  25.651  1.00  0.00    -0.352 N 
ATOM      6  O   UNL A   1      41.950  18.702  25.885  1.00  0.00    -0.269 OA
ATOM      7  C   UNL A   1      41.072  19.538  26.023  1.00  0.00     0.251 C 
ATOM      8  H   UNL A   1      39.564  18.378  25.346  1.00  0.00     0.163 HD
BRANCH   7   9
ATOM      9  C   UNL A   1      41.382  20.876  26.571  1.00  0.00     0.039 A 
ATOM     10  C   UNL A   1      41.765  21.901  25.704  1.00  0.00     0.014 A 
ATOM     11  C   UNL A   1      41.376  21.071  27.954  1.00  0.00     0.014 A 
ATOM     12  C   UNL A   1      42.267  23.083  26.224  1.00  0.00     0.010 A 
ATOM     13  C   UNL A   1      41.788  22.300  28.472  1.00  0.00     0.010 A 
ATOM     14  C   UNL A   1      42.249  23.308  27.611  1.00  0.00    -0.014 A 
BRANCH  14  15
ATOM     15  C   UNL A   1      42.584  24.661  28.115  1.00  0.00     0.031 A 
ATOM     16  C   UNL A   1      41.531  25.702  28.353  1.00  0.00     0.074 A 
ATOM     17  C   UNL A   1      43.883  24.924  28.362  1.00  0.00     0.049 A 
ATOM     18  N   UNL A   1      41.681  26.933  28.773  1.00  0.00    -0.248 NA
ATOM     19  C   UNL A   1      40.135  25.327  28.084  1.00  0.00     0.031 C 
ATOM     20  C   UNL A   1      44.988  23.983  28.144  1.00  0.00     0.029 A 
ATOM     21  N   UNL A   1      44.498  26.044  28.857  1.00  0.00    -0.354 N 
ATOM     22  C   UNL A   1      40.408  27.487  28.795  1.00  0.00     0.074 A 
ATOM     23  C   UNL A   1      39.494  26.462  28.339  1.00  0.00     0.031 C 
ATOM     24  C   UNL A   1      46.135  24.548  28.540  1.00  0.00     0.029 A 
ATOM     25  C   UNL A   1      45.860  25.914  28.963  1.00  0.00     0.049 A 
ATOM     26  H   UNL A   1      44.010  26.860  29.111  1.00  0.00     0.167 HD
ATOM     27  C   UNL A   1      40.047  28.741  29.161  1.00  0.00     0.037 A 
ATOM     28  C   UNL A   1      46.796  26.807  29.326  1.00  0.00     0.037 A 
ATOM     29  C   UNL A   1      40.970  29.744  29.631  1.00  0.00     0.049 A 
ATOM     30  C   UNL A   1      46.362  28.191  29.702  1.00  0.00     0.074 A 
ATOM     31  C   UNL A   1      40.692  31.023  30.086  1.00  0.00     0.029 A 
ATOM     32  N   UNL A   1      42.346  29.586  29.700  1.00  0.00    -0.354 N 
ATOM     33  N   UNL A   1      45.148  28.683  29.764  1.00  0.00    -0.248 NA
ATOM     34  C   UNL A   1      47.422  29.144  30.047  1.00  0.00     0.031 C 
ATOM     35  C   UNL A   1      41.904  31.655  30.380  1.00  0.00     0.029 A 
ATOM     36  C   UNL A   1      42.934  30.755  30.156  1.00  0.00     0.049 A 
ATOM     37  H   UNL A   1      42.833  28.764  29.461  1.00  0.00     0.167 HD
ATOM     38  C   UNL A   1      45.298  30.004  30.159  1.00  0.00     0.074 A 
ATOM     39  C   UNL A   1      46.717  30.223  30.354  1.00  0.00     0.031 C 
ATOM     40  C   UNL A   1      44.348  30.953  30.335  1.00  0.00     0.037 A 
BRANCH  27  41
ATOM     41  C   UNL A   1      38.599  29.123  29.057  1.00  0.00     0.057 A 
ATOM     42  C   UNL A   1      37.736  29.068  30.157  1.00  0.00     0.134 A 
ATOM     43  C   UNL A   1      38.089  29.648  27.862  1.00  0.00     0.134 A 
ATOM     44  F   UNL A   1      38.159  28.569  31.330  1.00  0.00    -0.206 F 
ATOM     45  C   UNL A   1      36.417  29.522  30.074  1.00  0.00     0.040 A 
ATOM     46  C   UNL A   1      36.779  30.122  27.770  1.00  0.00     0.040 A 
ATOM     47  F   UNL A   1      38.865  29.735  26.771  1.00  0.00    -0.206 F 
ATOM     48  C   UNL A   1      35.938  30.061  28.881  1.00  0.00     0.006 A 
ENDBRANCH  27  41
BRANCH  28  49
ATOM     49  C   UNL A   1      48.231  26.429  29.302  1.00  0.00     0.057 A 
ATOM     50  C   UNL A   1      48.845  25.839  30.411  1.00  0.00     0.134 A 
ATOM     51  C   UNL A   1      49.021  26.650  28.167  1.00  0.00     0.134 A 
ATOM     52  F   UNL A   1      48.145  25.615  31.532  1.00  0.00    -0.206 F 
ATOM     53  C   UNL A   1      50.199  25.501  30.400  1.00  0.00     0.040 A 
ATOM     54  C   UNL A   1      50.367  26.289  28.130  1.00  0.00     0.040 A 
ATOM     55  F   UNL A   1      48.488  27.203  27.067  1.00  0.00    -0.206 F 
ATOM     56  C   UNL A   1      50.963  25.720  29.254  1.00  0.00     0.006 A 
ENDBRANCH  28  49
BRANCH  40  57
ATOM     57  C   UNL A   1      44.825  32.307  30.768  1.00  0.00     0.057 A 
ATOM     58  C   UNL A   1      44.995  32.626  32.121  1.00  0.00     0.134 A 
ATOM     59  C   UNL A   1      45.128  33.294  29.823  1.00  0.00     0.134 A 
ATOM     60  F   UNL A   1      44.702  31.728  33.073  1.00  0.00    -0.206 F 
ATOM     61  C   UNL A   1      45.424  33.892  32.521  1.00  0.00     0.040 A 
ATOM     62  C   UNL A   1      45.585  34.554  30.210  1.00  0.00     0.040 A 
ATOM     63  F   UNL A   1      44.992  33.049  28.512  1.00  0.00    -0.206 F 
ATOM     64  C   UNL A   1      45.726  34.858  31.562  1.00  0.00     0.006 A 
ENDBRANCH  40  57
ENDBRANCH  14  15
ENDBRANCH   7   9
ENDBRANCH   4   5
ENDBRANCH   3   4
ENDBRANCH   2   3
ENDBRANCH   1   2
BRANCH   1  65
ATOM     65  C   UNL A   1      36.346  23.300  25.345  1.00  0.00     0.021 C 
BRANCH  65  66
ATOM     66  C   UNL A   1      34.993  24.010  25.410  1.00  0.00     0.116 C 
BRANCH  66  67
ATOM     67  N   UNL A   1      34.526  24.612  24.170  1.00  0.00    -0.352 N 
ATOM     68  C   UNL A   1      33.720  25.713  23.962  1.00  0.00     0.253 C 
ATOM     69  H   UNL A   1      34.834  24.164  23.349  1.00  0.00     0.163 HD
ATOM     70  O   UNL A   1      33.629  26.229  22.854  1.00  0.00    -0.269 OA
BRANCH  68  71
ATOM     71  C   UNL A   1      33.095  26.366  25.105  1.00  0.00     0.071 A 
ATOM     72  C   UNL A   1      33.911  27.372  25.670  1.00  0.00     0.018 A 
ATOM     73  C   UNL A   1      31.832  26.132  25.637  1.00  0.00     0.141 A 
ATOM     74  C   UNL A   1      33.500  28.076  26.788  1.00  0.00     0.021 A 
ATOM     75  N   UNL A   1      31.459  26.820  26.772  1.00  0.00    -0.250 NA
ATOM     76  C   UNL A   1      32.272  27.755  27.311  1.00  0.00     0.112 A 
BRANCH  73  77
ATOM     77  C   UNL A   1      30.640  25.303  25.144  1.00  0.00     0.275 C 
ATOM     78  O   UNL A   1      29.502  25.774  25.287  1.00  0.00    -0.267 OA
ATOM     79  N   UNL A   1      30.698  24.204  24.317  1.00  0.00    -0.321 N 
ATOM     80  H   UNL A   1      30.103  24.266  23.535  1.00  0.00     0.170 HD
BRANCH  79  81
ATOM     81  C   UNL A   1      31.432  23.023  24.367  1.00  0.00     0.042 A 
ATOM     82  C   UNL A   1      31.694  22.482  25.633  1.00  0.00     0.033 A 
ATOM     83  C   UNL A   1      31.901  22.388  23.223  1.00  0.00     0.033 A 
ATOM     84  C   UNL A   1      32.191  21.182  25.748  1.00  0.00     0.088 A 
ATOM     85  C   UNL A   1      32.449  21.109  23.335  1.00  0.00     0.088 A 
ATOM     86  C   UNL A   1      32.494  20.483  24.582  1.00  0.00     0.269 A 
BRANCH  86  87
ATOM     87  N   UNL A   1      32.720  19.044  24.636  1.00  0.00     0.062 N 
ATOM     88  O   UNL A   1      32.075  18.390  25.463  1.00  0.00    -0.258 OA
ATOM     89  O   UNL A   1      33.536  18.574  23.826  1.00  0.00    -0.258 OA
ENDBRANCH  86  87
ENDBRANCH  79  81
ENDBRANCH  73  77
ENDBRANCH  68  71
ENDBRANCH  66  67
ENDBRANCH  65  66
ENDBRANCH   1  65
TORSDOF 16
ENDMDL
MODEL 3
REMARK VINA RESULT:     -11.9      4.651      9.651
REMARK SMILES O=C(NCCCCCCNC(=O)c1cccnc1C(=O)Nc1ccc([N+](=O)[O-])cc1)c1ccc(-c2c3nc(c(-c4c(F)cccc4F)c4ccc([nH]4)c(-c4c(F)cccc4F)c4nc(c(-c5c(F)cccc5F)c5ccc2[nH]5)C=C4)C=C3)cc1
REMARK SMILES IDX 7 1 6 2 5 3 4 4 3 5 1 6 2 7 31 9 32 10 84 11 33 12 83 13
REMARK SMILES IDX 34 14 35 15 36 16 77 17 37 18 82 19 76 20 78 21 38 22 81 23
REMARK SMILES IDX 75 24 74 25 39 27 65 28 48 29 64 30 49 31 52 32 63 33 79 34
REMARK SMILES IDX 50 35 51 36 62 38 80 39 53 40 40 41 41 42 46 43 42 44 43 45
REMARK SMILES IDX 45 46 47 47 44 48 66 49 67 50 72 51 68 52 69 53 71 54 73 55
REMARK SMILES IDX 70 56 54 57 55 58 60 59 56 60 57 61 59 62 61 63 58 64 8 65
REMARK SMILES IDX 9 66 10 67 11 68 12 70 13 71 14 72 18 73 15 74 17 75 16 76
REMARK SMILES IDX 19 77 20 78 21 79 22 81 23 82 30 83 24 84 29 85 25 86 26 87
REMARK SMILES IDX 27 88 28 89
REMARK H PARENT 3 8 78 26 52 37 10 69 21 80
REMARK Flexibility Score: inf
ROOT
ATOM      1  C   UNL A   1      37.308  22.009  24.537  1.00  0.00     0.002 C 
ENDROOT
BRANCH   1   2
ATOM      2  C   UNL A   1      36.909  20.602  24.986  1.00  0.00     0.002 C 
BRANCH   2   3
ATOM      3  C   UNL A   1      38.037  19.577  24.965  1.00  0.00     0.021 C 
BRANCH   3   4
ATOM      4  C   UNL A   1      39.267  20.000  25.747  1.00  0.00     0.116 C 
BRANCH   4   5
ATOM      5  N   UNL A   1      40.286  18.966  25.832  1.00  0.00    -0.352 N 
ATOM      6  O   UNL A   1      42.420  18.222  26.052  1.00  0.00    -0.269 OA
ATOM      7  C   UNL A   1      41.626  19.146  26.100  1.00  0.00     0.251 C 
ATOM      8  H   UNL A   1      39.988  18.041  25.681  1.00  0.00     0.163 HD
BRANCH   7   9
ATOM      9  C   UNL A   1      42.079  20.516  26.421  1.00  0.00     0.039 A 
ATOM     10  C   UNL A   1      42.118  20.933  27.752  1.00  0.00     0.014 A 
ATOM     11  C   UNL A   1      42.377  21.402  25.383  1.00  0.00     0.014 A 
ATOM     12  C   UNL A   1      42.327  22.272  28.043  1.00  0.00     0.010 A 
ATOM     13  C   UNL A   1      42.685  22.729  25.686  1.00  0.00     0.010 A 
ATOM     14  C   UNL A   1      42.649  23.175  27.016  1.00  0.00    -0.014 A 
BRANCH  14  15
ATOM     15  C   UNL A   1      43.082  24.543  27.385  1.00  0.00     0.031 A 
ATOM     16  C   UNL A   1      42.109  25.582  27.861  1.00  0.00     0.074 A 
ATOM     17  C   UNL A   1      44.396  24.824  27.285  1.00  0.00     0.049 A 
ATOM     18  N   UNL A   1      42.343  26.824  28.200  1.00  0.00    -0.248 NA
ATOM     19  C   UNL A   1      40.697  25.187  27.967  1.00  0.00     0.031 C 
ATOM     20  C   UNL A   1      45.422  23.888  26.813  1.00  0.00     0.029 A 
ATOM     21  N   UNL A   1      45.100  25.962  27.579  1.00  0.00    -0.354 N 
ATOM     22  C   UNL A   1      41.109  27.368  28.534  1.00  0.00     0.074 A 
ATOM     23  C   UNL A   1      40.125  26.322  28.352  1.00  0.00     0.031 C 
ATOM     24  C   UNL A   1      46.624  24.473  26.889  1.00  0.00     0.029 A 
ATOM     25  C   UNL A   1      46.446  25.847  27.336  1.00  0.00     0.049 A 
ATOM     26  H   UNL A   1      44.682  26.780  27.930  1.00  0.00     0.167 HD
ATOM     27  C   UNL A   1      40.835  28.627  28.951  1.00  0.00     0.037 A 
ATOM     28  C   UNL A   1      47.430  26.758  27.426  1.00  0.00     0.037 A 
ATOM     29  C   UNL A   1      41.832  29.650  29.145  1.00  0.00     0.049 A 
ATOM     30  C   UNL A   1      47.085  28.147  27.868  1.00  0.00     0.074 A 
ATOM     31  C   UNL A   1      41.660  30.938  29.625  1.00  0.00     0.029 A 
ATOM     32  N   UNL A   1      43.182  29.506  28.863  1.00  0.00    -0.354 N 
ATOM     33  N   UNL A   1      45.921  28.630  28.227  1.00  0.00    -0.248 NA
ATOM     34  C   UNL A   1      48.184  29.118  27.907  1.00  0.00     0.031 C 
ATOM     35  C   UNL A   1      42.898  31.589  29.584  1.00  0.00     0.029 A 
ATOM     36  C   UNL A   1      43.849  30.692  29.125  1.00  0.00     0.049 A 
ATOM     37  H   UNL A   1      43.604  28.683  28.526  1.00  0.00     0.167 HD
ATOM     38  C   UNL A   1      46.147  29.962  28.539  1.00  0.00     0.074 A 
ATOM     39  C   UNL A   1      47.565  30.199  28.359  1.00  0.00     0.031 C 
ATOM     40  C   UNL A   1      45.259  30.908  28.931  1.00  0.00     0.037 A 
BRANCH  27  41
ATOM     41  C   UNL A   1      39.403  28.993  29.213  1.00  0.00     0.057 A 
ATOM     42  C   UNL A   1      38.560  29.462  28.199  1.00  0.00     0.134 A 
ATOM     43  C   UNL A   1      38.835  28.777  30.476  1.00  0.00     0.134 A 
ATOM     44  F   UNL A   1      39.041  29.697  26.968  1.00  0.00    -0.206 F 
ATOM     45  C   UNL A   1      37.204  29.704  28.431  1.00  0.00     0.040 A 
ATOM     46  C   UNL A   1      37.478  28.997  30.716  1.00  0.00     0.040 A 
ATOM     47  F   UNL A   1      39.586  28.323  31.491  1.00  0.00    -0.206 F 
ATOM     48  C   UNL A   1      36.656  29.461  29.690  1.00  0.00     0.006 A 
ENDBRANCH  27  41
BRANCH  28  49
ATOM     49  C   UNL A   1      48.816  26.392  27.044  1.00  0.00     0.057 A 
ATOM     50  C   UNL A   1      49.266  26.522  25.727  1.00  0.00     0.134 A 
ATOM     51  C   UNL A   1      49.725  25.902  27.992  1.00  0.00     0.134 A 
ATOM     52  F   UNL A   1      48.439  26.972  24.772  1.00  0.00    -0.206 F 
ATOM     53  C   UNL A   1      50.563  26.159  25.359  1.00  0.00     0.040 A 
ATOM     54  C   UNL A   1      51.033  25.566  27.646  1.00  0.00     0.040 A 
ATOM     55  F   UNL A   1      49.358  25.765  29.275  1.00  0.00    -0.206 F 
ATOM     56  C   UNL A   1      51.452  25.685  26.323  1.00  0.00     0.006 A 
ENDBRANCH  28  49
BRANCH  40  57
ATOM     57  C   UNL A   1      45.810  32.276  29.196  1.00  0.00     0.057 A 
ATOM     58  C   UNL A   1      46.266  32.650  30.466  1.00  0.00     0.134 A 
ATOM     59  C   UNL A   1      45.896  33.224  28.168  1.00  0.00     0.134 A 
ATOM     60  F   UNL A   1      46.192  31.792  31.494  1.00  0.00    -0.206 F 
ATOM     61  C   UNL A   1      46.765  33.930  30.712  1.00  0.00     0.040 A 
ATOM     62  C   UNL A   1      46.417  34.497  28.396  1.00  0.00     0.040 A 
ATOM     63  F   UNL A   1      45.481  32.925  26.928  1.00  0.00    -0.206 F 
ATOM     64  C   UNL A   1      46.846  34.855  29.672  1.00  0.00     0.006 A 
ENDBRANCH  40  57
ENDBRANCH  14  15
ENDBRANCH   7   9
ENDBRANCH   4   5
ENDBRANCH   3   4
ENDBRANCH   2   3
ENDBRANCH   1   2
BRANCH   1  65
ATOM     65  C   UNL A   1      37.153  23.154  25.548  1.00  0.00     0.021 C 
BRANCH  65  66
ATOM     66  C   UNL A   1      35.761  23.733  25.805  1.00  0.00     0.116 C 
BRANCH  66  67
ATOM     67  N   UNL A   1      35.002  23.117  26.884  1.00  0.00    -0.352 N 
ATOM     68  C   UNL A   1      33.765  22.506  26.867  1.00  0.00     0.253 C 
ATOM     69  H   UNL A   1      35.440  23.139  27.766  1.00  0.00     0.163 HD
ATOM     70  O   UNL A   1      33.384  21.823  27.811  1.00  0.00    -0.269 OA
BRANCH  68  71
ATOM     71  C   UNL A   1      32.968  22.541  25.647  1.00  0.00     0.071 A 
ATOM     72  C   UNL A   1      33.428  21.628  24.671  1.00  0.00     0.018 A 
ATOM     73  C   UNL A   1      31.844  23.315  25.383  1.00  0.00     0.141 A 
ATOM     74  C   UNL A   1      32.819  21.547  23.431  1.00  0.00     0.021 A 
ATOM     75  N   UNL A   1      31.276  23.242  24.129  1.00  0.00    -0.250 NA
ATOM     76  C   UNL A   1      31.755  22.384  23.203  1.00  0.00     0.112 A 
BRANCH  73  77
ATOM     77  C   UNL A   1      30.972  24.208  26.274  1.00  0.00     0.275 C 
ATOM     78  O   UNL A   1      30.418  23.691  27.255  1.00  0.00    -0.267 OA
ATOM     79  N   UNL A   1      30.939  25.585  26.264  1.00  0.00    -0.321 N 
ATOM     80  H   UNL A   1      31.064  25.988  27.153  1.00  0.00     0.170 HD
BRANCH  79  81
ATOM     81  C   UNL A   1      30.765  26.517  25.247  1.00  0.00     0.042 A 
ATOM     82  C   UNL A   1      29.685  26.323  24.374  1.00  0.00     0.033 A 
ATOM     83  C   UNL A   1      31.614  27.606  25.080  1.00  0.00     0.033 A 
ATOM     84  C   UNL A   1      29.299  27.344  23.504  1.00  0.00     0.088 A 
ATOM     85  C   UNL A   1      31.261  28.606  24.172  1.00  0.00     0.088 A 
ATOM     86  C   UNL A   1      30.059  28.510  23.470  1.00  0.00     0.269 A 
BRANCH  86  87
ATOM     87  N   UNL A   1      29.532  29.702  22.818  1.00  0.00     0.062 N 
ATOM     88  O   UNL A   1      29.654  29.790  21.591  1.00  0.00    -0.258 OA
ATOM     89  O   UNL A   1      28.978  30.542  23.547  1.00  0.00    -0.258 OA
ENDBRANCH  86  87
ENDBRANCH  79  81
ENDBRANCH  73  77
ENDBRANCH  68  71
ENDBRANCH  66  67
ENDBRANCH  65  66
ENDBRANCH   1  65
TORSDOF 16
ENDMDL
