MODEL 1
REMARK VINA RESULT:     -10.7      0.000      0.000
REMARK SMILES O=C(CCCCCN1C(=O)[C@@H]2CC=CC[C@H]2C1=O)NCCCCCCNC(=O)c1ccc(-c2c3nc(c(-c4c(F)cccc4F)c4ccc([nH]4)c(-c4c(F)cccc4F)c4nc(c(-c5c(F)cccc5F)c5ccc2[nH]5)C=C4)C=C3)cc1
REMARK SMILES IDX 21 1 20 2 19 3 1 4 2 5 3 7 4 8 5 9 6 10 7 11 8 12 9 13 17 14
REMARK SMILES IDX 10 15 11 16 16 17 18 18 12 19 15 20 13 21 14 22 22 23 23 24
REMARK SMILES IDX 24 25 25 26 26 27 27 28 28 30 29 31 30 32 82 33 31 34 81 35
REMARK SMILES IDX 32 36 33 37 34 38 75 39 35 40 80 41 74 42 76 43 36 44 79 45
REMARK SMILES IDX 73 46 72 47 37 49 63 50 46 51 62 52 47 53 50 54 61 55 77 56
REMARK SMILES IDX 48 57 49 58 60 60 78 61 51 62 38 63 39 64 44 65 40 66 41 67
REMARK SMILES IDX 43 68 45 69 42 70 64 71 65 72 70 73 66 74 67 75 69 76 71 77
REMARK SMILES IDX 68 78 52 79 53 80 58 81 54 82 55 83 57 84 59 85 56 86
REMARK H PARENT 19 6 26 29 76 48 50 59
REMARK Flexibility Score: inf
ROOT
ATOM      1  C   UNL A   1      33.463  27.847  26.473  1.00  0.00     0.021 C 
ENDROOT
BRANCH   1   2
ATOM      2  C   UNL A   1      32.421  26.756  26.227  1.00  0.00     0.116 C 
BRANCH   2   3
ATOM      3  N   UNL A   1      33.035  25.447  26.204  1.00  0.00    -0.356 N 
ATOM      4  O   UNL A   1      31.336  24.308  27.247  1.00  0.00    -0.275 OA
ATOM      5  C   UNL A   1      32.425  24.314  26.683  1.00  0.00     0.219 C 
ATOM      6  H   UNL A   1      33.940  25.364  25.825  1.00  0.00     0.163 HD
BRANCH   5   7
ATOM      7  C   UNL A   1      33.228  23.048  26.442  1.00  0.00     0.100 C 
BRANCH   7   8
ATOM      8  C   UNL A   1      32.853  22.339  25.139  1.00  0.00     0.010 C 
BRANCH   8   9
ATOM      9  C   UNL A   1      33.976  22.170  24.110  1.00  0.00     0.002 C 
BRANCH   9  10
ATOM     10  C   UNL A   1      34.132  23.320  23.105  1.00  0.00     0.022 C 
BRANCH  10  11
ATOM     11  C   UNL A   1      32.904  23.579  22.229  1.00  0.00     0.128 C 
BRANCH  11  12
ATOM     12  N   UNL A   1      32.237  24.851  22.450  1.00  0.00    -0.282 N 
ATOM     13  C   UNL A   1      31.020  24.943  23.090  1.00  0.00     0.233 C 
ATOM     14  C   UNL A   1      32.646  26.070  21.950  1.00  0.00     0.233 C 
ATOM     15  O   UNL A   1      30.286  24.030  23.435  1.00  0.00    -0.274 OA
ATOM     16  C   UNL A   1      30.820  26.394  23.388  1.00  0.00     0.095 C 
ATOM     17  C   UNL A   1      31.540  27.043  22.217  1.00  0.00     0.095 C 
ATOM     18  O   UNL A   1      33.654  26.328  21.316  1.00  0.00    -0.274 OA
ATOM     19  C   UNL A   1      29.429  26.982  23.501  1.00  0.00     0.041 C 
ATOM     20  C   UNL A   1      31.894  28.469  22.584  1.00  0.00     0.041 C 
ATOM     21  C   UNL A   1      29.538  28.496  23.489  1.00  0.00    -0.030 C 
ATOM     22  C   UNL A   1      30.653  29.159  23.115  1.00  0.00    -0.030 C 
ENDBRANCH  11  12
ENDBRANCH  10  11
ENDBRANCH   9  10
ENDBRANCH   8   9
ENDBRANCH   7   8
ENDBRANCH   5   7
ENDBRANCH   2   3
ENDBRANCH   1   2
BRANCH   1  23
ATOM     23  C   UNL A   1      33.055  29.252  26.002  1.00  0.00     0.002 C 
BRANCH  23  24
ATOM     24  C   UNL A   1      31.771  29.811  26.619  1.00  0.00     0.002 C 
BRANCH  24  25
ATOM     25  C   UNL A   1      31.598  31.326  26.501  1.00  0.00     0.021 C 
BRANCH  25  26
ATOM     26  C   UNL A   1      32.820  32.150  26.897  1.00  0.00     0.116 C 
BRANCH  26  27
ATOM     27  N   UNL A   1      32.483  33.512  27.282  1.00  0.00    -0.352 N 
ATOM     28  C   UNL A   1      33.029  34.289  28.275  1.00  0.00     0.251 C 
ATOM     29  H   UNL A   1      31.764  33.934  26.760  1.00  0.00     0.163 HD
ATOM     30  O   UNL A   1      32.529  35.373  28.561  1.00  0.00    -0.269 OA
BRANCH  28  31
ATOM     31  C   UNL A   1      34.210  33.804  29.022  1.00  0.00     0.039 A 
ATOM     32  C   UNL A   1      34.019  32.927  30.093  1.00  0.00     0.014 A 
ATOM     33  C   UNL A   1      35.500  34.203  28.665  1.00  0.00     0.014 A 
ATOM     34  C   UNL A   1      35.126  32.399  30.763  1.00  0.00     0.010 A 
ATOM     35  C   UNL A   1      36.603  33.621  29.285  1.00  0.00     0.010 A 
ATOM     36  C   UNL A   1      36.428  32.714  30.342  1.00  0.00    -0.014 A 
BRANCH  36  37
ATOM     37  C   UNL A   1      37.620  32.112  30.994  1.00  0.00     0.031 A 
ATOM     38  C   UNL A   1      38.373  31.003  30.311  1.00  0.00     0.074 A 
ATOM     39  C   UNL A   1      37.985  32.513  32.228  1.00  0.00     0.049 A 
ATOM     40  N   UNL A   1      39.378  30.289  30.753  1.00  0.00    -0.248 NA
ATOM     41  C   UNL A   1      37.921  30.630  28.962  1.00  0.00     0.031 C 
ATOM     42  C   UNL A   1      37.315  33.551  33.015  1.00  0.00     0.029 A 
ATOM     43  N   UNL A   1      39.002  32.085  33.045  1.00  0.00    -0.354 N 
ATOM     44  C   UNL A   1      39.665  29.376  29.748  1.00  0.00     0.074 A 
ATOM     45  C   UNL A   1      38.698  29.590  28.693  1.00  0.00     0.031 C 
ATOM     46  C   UNL A   1      37.948  33.688  34.191  1.00  0.00     0.029 A 
ATOM     47  C   UNL A   1      39.041  32.724  34.261  1.00  0.00     0.049 A 
ATOM     48  H   UNL A   1      39.643  31.385  32.783  1.00  0.00     0.167 HD
ATOM     49  C   UNL A   1      40.657  28.456  29.697  1.00  0.00     0.037 A 
ATOM     50  C   UNL A   1      39.857  32.543  35.318  1.00  0.00     0.037 A 
ATOM     51  C   UNL A   1      41.635  28.262  30.735  1.00  0.00     0.049 A 
ATOM     52  C   UNL A   1      40.943  31.504  35.240  1.00  0.00     0.074 A 
ATOM     53  C   UNL A   1      42.713  27.394  30.751  1.00  0.00     0.029 A 
ATOM     54  N   UNL A   1      41.653  28.944  31.941  1.00  0.00    -0.354 N 
ATOM     55  N   UNL A   1      41.242  30.692  34.255  1.00  0.00    -0.248 NA
ATOM     56  C   UNL A   1      41.808  31.360  36.419  1.00  0.00     0.031 C 
ATOM     57  C   UNL A   1      43.355  27.517  31.986  1.00  0.00     0.029 A 
ATOM     58  C   UNL A   1      42.711  28.502  32.718  1.00  0.00     0.049 A 
ATOM     59  H   UNL A   1      41.009  29.641  32.207  1.00  0.00     0.167 HD
ATOM     60  C   UNL A   1      42.349  29.969  34.681  1.00  0.00     0.074 A 
ATOM     61  C   UNL A   1      42.675  30.446  36.009  1.00  0.00     0.031 C 
ATOM     62  C   UNL A   1      43.036  28.999  34.030  1.00  0.00     0.037 A 
BRANCH  49  63
ATOM     63  C   UNL A   1      40.741  27.589  28.473  1.00  0.00     0.057 A 
ATOM     64  C   UNL A   1      40.026  26.390  28.367  1.00  0.00     0.134 A 
ATOM     65  C   UNL A   1      41.508  27.984  27.369  1.00  0.00     0.134 A 
ATOM     66  F   UNL A   1      39.282  25.948  29.392  1.00  0.00    -0.206 F 
ATOM     67  C   UNL A   1      40.089  25.602  27.216  1.00  0.00     0.040 A 
ATOM     68  C   UNL A   1      41.555  27.219  26.202  1.00  0.00     0.040 A 
ATOM     69  F   UNL A   1      42.212  29.126  27.400  1.00  0.00    -0.206 F 
ATOM     70  C   UNL A   1      40.848  26.020  26.126  1.00  0.00     0.006 A 
ENDBRANCH  49  63
BRANCH  50  71
ATOM     71  C   UNL A   1      39.692  33.370  36.541  1.00  0.00     0.057 A 
ATOM     72  C   UNL A   1      38.825  32.976  37.568  1.00  0.00     0.134 A 
ATOM     73  C   UNL A   1      40.371  34.583  36.703  1.00  0.00     0.134 A 
ATOM     74  F   UNL A   1      38.130  31.834  37.463  1.00  0.00    -0.206 F 
ATOM     75  C   UNL A   1      38.616  33.771  38.695  1.00  0.00     0.040 A 
ATOM     76  C   UNL A   1      40.194  35.374  37.839  1.00  0.00     0.040 A 
ATOM     77  F   UNL A   1      41.222  35.014  35.761  1.00  0.00    -0.206 F 
ATOM     78  C   UNL A   1      39.306  34.974  38.835  1.00  0.00     0.006 A 
ENDBRANCH  50  71
BRANCH  62  79
ATOM     79  C   UNL A   1      44.240  28.424  34.717  1.00  0.00     0.057 A 
ATOM     80  C   UNL A   1      45.512  28.998  34.594  1.00  0.00     0.134 A 
ATOM     81  C   UNL A   1      44.113  27.306  35.552  1.00  0.00     0.134 A 
ATOM     82  F   UNL A   1      45.704  30.062  33.800  1.00  0.00    -0.206 F 
ATOM     83  C   UNL A   1      46.618  28.466  35.260  1.00  0.00     0.040 A 
ATOM     84  C   UNL A   1      45.205  26.783  36.244  1.00  0.00     0.040 A 
ATOM     85  F   UNL A   1      42.922  26.714  35.721  1.00  0.00    -0.206 F 
ATOM     86  C   UNL A   1      46.464  27.361  36.094  1.00  0.00     0.006 A 
ENDBRANCH  62  79
ENDBRANCH  36  37
ENDBRANCH  28  31
ENDBRANCH  26  27
ENDBRANCH  25  26
ENDBRANCH  24  25
ENDBRANCH  23  24
ENDBRANCH   1  23
TORSDOF 18
ENDMDL
MODEL 2
REMARK VINA RESULT:     -10.6      5.025      9.897
REMARK SMILES O=C(CCCCCN1C(=O)[C@@H]2CC=CC[C@H]2C1=O)NCCCCCCNC(=O)c1ccc(-c2c3nc(c(-c4c(F)cccc4F)c4ccc([nH]4)c(-c4c(F)cccc4F)c4nc(c(-c5c(F)cccc5F)c5ccc2[nH]5)C=C4)C=C3)cc1
REMARK SMILES IDX 21 1 20 2 19 3 1 4 2 5 3 7 4 8 5 9 6 10 7 11 8 12 9 13 17 14
REMARK SMILES IDX 10 15 11 16 16 17 18 18 12 19 15 20 13 21 14 22 22 23 23 24
REMARK SMILES IDX 24 25 25 26 26 27 27 28 28 30 29 31 30 32 82 33 31 34 81 35
REMARK SMILES IDX 32 36 33 37 34 38 75 39 35 40 80 41 74 42 76 43 36 44 79 45
REMARK SMILES IDX 73 46 72 47 37 49 63 50 46 51 62 52 47 53 50 54 61 55 77 56
REMARK SMILES IDX 48 57 49 58 60 60 78 61 51 62 38 63 39 64 44 65 40 66 41 67
REMARK SMILES IDX 43 68 45 69 42 70 64 71 65 72 70 73 66 74 67 75 69 76 71 77
REMARK SMILES IDX 68 78 52 79 53 80 58 81 54 82 55 83 57 84 59 85 56 86
REMARK H PARENT 19 6 26 29 76 48 50 59
REMARK Flexibility Score: inf
ROOT
ATOM      1  C   UNL A   1      42.435  18.591  26.028  1.00  0.00     0.021 C 
ENDROOT
BRANCH   1   2
ATOM      2  C   UNL A   1      43.844  18.526  25.440  1.00  0.00     0.116 C 
BRANCH   2   3
ATOM      3  N   UNL A   1      44.480  19.824  25.472  1.00  0.00    -0.356 N 
ATOM      4  O   UNL A   1      46.538  19.161  24.701  1.00  0.00    -0.275 OA
ATOM      5  C   UNL A   1      45.771  20.047  25.061  1.00  0.00     0.219 C 
ATOM      6  H   UNL A   1      43.959  20.590  25.806  1.00  0.00     0.163 HD
BRANCH   5   7
ATOM      7  C   UNL A   1      46.168  21.513  25.086  1.00  0.00     0.100 C 
BRANCH   7   8
ATOM      8  C   UNL A   1      45.152  22.397  25.814  1.00  0.00     0.010 C 
BRANCH   8   9
ATOM      9  C   UNL A   1      45.707  23.294  26.925  1.00  0.00     0.002 C 
BRANCH   9  10
ATOM     10  C   UNL A   1      46.899  24.177  26.532  1.00  0.00     0.022 C 
BRANCH  10  11
ATOM     11  C   UNL A   1      46.617  25.170  25.402  1.00  0.00     0.128 C 
BRANCH  11  12
ATOM     12  N   UNL A   1      45.685  26.236  25.724  1.00  0.00    -0.282 N 
ATOM     13  C   UNL A   1      46.054  27.337  26.468  1.00  0.00     0.233 C 
ATOM     14  C   UNL A   1      44.331  26.227  25.460  1.00  0.00     0.233 C 
ATOM     15  O   UNL A   1      47.109  27.524  27.054  1.00  0.00    -0.274 OA
ATOM     16  C   UNL A   1      44.938  28.322  26.326  1.00  0.00     0.095 C 
ATOM     17  C   UNL A   1      43.740  27.399  26.179  1.00  0.00     0.095 C 
ATOM     18  O   UNL A   1      43.685  25.392  24.853  1.00  0.00    -0.274 OA
ATOM     19  C   UNL A   1      44.652  29.337  27.413  1.00  0.00     0.041 C 
ATOM     20  C   UNL A   1      42.607  28.163  25.524  1.00  0.00     0.041 C 
ATOM     21  C   UNL A   1      43.300  29.971  27.142  1.00  0.00    -0.030 C 
ATOM     22  C   UNL A   1      42.402  29.467  26.269  1.00  0.00    -0.030 C 
ENDBRANCH  11  12
ENDBRANCH  10  11
ENDBRANCH   9  10
ENDBRANCH   8   9
ENDBRANCH   7   8
ENDBRANCH   5   7
ENDBRANCH   2   3
ENDBRANCH   1   2
BRANCH   1  23
ATOM     23  C   UNL A   1      42.358  19.111  27.472  1.00  0.00     0.002 C 
BRANCH  23  24
ATOM     24  C   UNL A   1      41.367  20.252  27.714  1.00  0.00     0.002 C 
BRANCH  24  25
ATOM     25  C   UNL A   1      41.942  21.660  27.549  1.00  0.00     0.021 C 
BRANCH  25  26
ATOM     26  C   UNL A   1      41.599  22.349  26.232  1.00  0.00     0.116 C 
BRANCH  26  27
ATOM     27  N   UNL A   1      40.196  22.210  25.870  1.00  0.00    -0.352 N 
ATOM     28  C   UNL A   1      39.137  23.026  26.189  1.00  0.00     0.251 C 
ATOM     29  H   UNL A   1      39.976  21.424  25.322  1.00  0.00     0.163 HD
ATOM     30  O   UNL A   1      37.989  22.686  25.921  1.00  0.00    -0.269 OA
BRANCH  28  31
ATOM     31  C   UNL A   1      39.381  24.308  26.886  1.00  0.00     0.039 A 
ATOM     32  C   UNL A   1      38.969  24.444  28.214  1.00  0.00     0.014 A 
ATOM     33  C   UNL A   1      40.019  25.368  26.238  1.00  0.00     0.014 A 
ATOM     34  C   UNL A   1      39.257  25.620  28.912  1.00  0.00     0.010 A 
ATOM     35  C   UNL A   1      40.370  26.509  26.955  1.00  0.00     0.010 A 
ATOM     36  C   UNL A   1      39.991  26.648  28.300  1.00  0.00    -0.014 A 
BRANCH  36  37
ATOM     37  C   UNL A   1      40.369  27.879  29.042  1.00  0.00     0.031 A 
ATOM     38  C   UNL A   1      41.718  27.976  29.704  1.00  0.00     0.074 A 
ATOM     39  C   UNL A   1      39.479  28.881  29.179  1.00  0.00     0.049 A 
ATOM     40  N   UNL A   1      42.198  28.922  30.470  1.00  0.00    -0.248 NA
ATOM     41  C   UNL A   1      42.638  26.847  29.497  1.00  0.00     0.031 C 
ATOM     42  C   UNL A   1      38.125  28.894  28.621  1.00  0.00     0.029 A 
ATOM     43  N   UNL A   1      39.573  30.077  29.846  1.00  0.00    -0.354 N 
ATOM     44  C   UNL A   1      43.464  28.497  30.849  1.00  0.00     0.074 A 
ATOM     45  C   UNL A   1      43.660  27.185  30.271  1.00  0.00     0.031 C 
ATOM     46  C   UNL A   1      37.523  30.047  28.954  1.00  0.00     0.029 A 
ATOM     47  C   UNL A   1      38.428  30.837  29.784  1.00  0.00     0.049 A 
ATOM     48  H   UNL A   1      40.384  30.364  30.326  1.00  0.00     0.167 HD
ATOM     49  C   UNL A   1      44.389  29.148  31.593  1.00  0.00     0.037 A 
ATOM     50  C   UNL A   1      38.138  32.028  30.342  1.00  0.00     0.037 A 
ATOM     51  C   UNL A   1      44.204  30.464  32.145  1.00  0.00     0.049 A 
ATOM     52  C   UNL A   1      39.180  32.723  31.176  1.00  0.00     0.074 A 
ATOM     53  C   UNL A   1      45.104  31.230  32.865  1.00  0.00     0.029 A 
ATOM     54  N   UNL A   1      43.039  31.208  32.040  1.00  0.00    -0.354 N 
ATOM     55  N   UNL A   1      40.397  32.336  31.472  1.00  0.00    -0.248 NA
ATOM     56  C   UNL A   1      38.809  34.024  31.750  1.00  0.00     0.031 C 
ATOM     57  C   UNL A   1      44.468  32.418  33.236  1.00  0.00     0.029 A 
ATOM     58  C   UNL A   1      43.190  32.416  32.700  1.00  0.00     0.049 A 
ATOM     59  H   UNL A   1      42.225  30.920  31.566  1.00  0.00     0.167 HD
ATOM     60  C   UNL A   1      40.947  33.359  32.232  1.00  0.00     0.074 A 
ATOM     61  C   UNL A   1      39.936  34.389  32.344  1.00  0.00     0.031 C 
ATOM     62  C   UNL A   1      42.182  33.440  32.787  1.00  0.00     0.037 A 
BRANCH  49  63
ATOM     63  C   UNL A   1      45.693  28.449  31.851  1.00  0.00     0.057 A 
ATOM     64  C   UNL A   1      45.869  27.592  32.945  1.00  0.00     0.134 A 
ATOM     65  C   UNL A   1      46.770  28.596  30.966  1.00  0.00     0.134 A 
ATOM     66  F   UNL A   1      44.882  27.416  33.836  1.00  0.00    -0.206 F 
ATOM     67  C   UNL A   1      47.076  26.926  33.164  1.00  0.00     0.040 A 
ATOM     68  C   UNL A   1      47.971  27.911  31.159  1.00  0.00     0.040 A 
ATOM     69  F   UNL A   1      46.668  29.394  29.893  1.00  0.00    -0.206 F 
ATOM     70  C   UNL A   1      48.128  27.077  32.264  1.00  0.00     0.006 A 
ENDBRANCH  49  63
BRANCH  50  71
ATOM     71  C   UNL A   1      36.807  32.651  30.126  1.00  0.00     0.057 A 
ATOM     72  C   UNL A   1      36.587  33.536  29.062  1.00  0.00     0.134 A 
ATOM     73  C   UNL A   1      35.733  32.404  30.988  1.00  0.00     0.134 A 
ATOM     74  F   UNL A   1      37.583  33.830  28.213  1.00  0.00    -0.206 F 
ATOM     75  C   UNL A   1      35.359  34.173  28.881  1.00  0.00     0.040 A 
ATOM     76  C   UNL A   1      34.490  33.012  30.802  1.00  0.00     0.040 A 
ATOM     77  F   UNL A   1      35.874  31.561  32.021  1.00  0.00    -0.206 F 
ATOM     78  C   UNL A   1      34.304  33.908  29.751  1.00  0.00     0.006 A 
ENDBRANCH  50  71
BRANCH  62  79
ATOM     79  C   UNL A   1      42.530  34.704  33.519  1.00  0.00     0.057 A 
ATOM     80  C   UNL A   1      42.357  34.833  34.903  1.00  0.00     0.134 A 
ATOM     81  C   UNL A   1      43.089  35.790  32.833  1.00  0.00     0.134 A 
ATOM     82  F   UNL A   1      41.815  33.836  35.617  1.00  0.00    -0.206 F 
ATOM     83  C   UNL A   1      42.710  36.006  35.574  1.00  0.00     0.040 A 
ATOM     84  C   UNL A   1      43.471  36.955  33.497  1.00  0.00     0.040 A 
ATOM     85  F   UNL A   1      43.290  35.728  31.508  1.00  0.00    -0.206 F 
ATOM     86  C   UNL A   1      43.276  37.068  34.871  1.00  0.00     0.006 A 
ENDBRANCH  62  79
ENDBRANCH  36  37
ENDBRANCH  28  31
ENDBRANCH  26  27
ENDBRANCH  25  26
ENDBRANCH  24  25
ENDBRANCH  23  24
ENDBRANCH   1  23
TORSDOF 18
ENDMDL
MODEL 3
REMARK VINA RESULT:     -10.5      1.875      7.154
REMARK SMILES O=C(CCCCCN1C(=O)[C@@H]2CC=CC[C@H]2C1=O)NCCCCCCNC(=O)c1ccc(-c2c3nc(c(-c4c(F)cccc4F)c4ccc([nH]4)c(-c4c(F)cccc4F)c4nc(c(-c5c(F)cccc5F)c5ccc2[nH]5)C=C4)C=C3)cc1
REMARK SMILES IDX 21 1 20 2 19 3 1 4 2 5 3 7 4 8 5 9 6 10 7 11 8 12 9 13 17 14
REMARK SMILES IDX 10 15 11 16 16 17 18 18 12 19 15 20 13 21 14 22 22 23 23 24
REMARK SMILES IDX 24 25 25 26 26 27 27 28 28 30 29 31 30 32 82 33 31 34 81 35
REMARK SMILES IDX 32 36 33 37 34 38 75 39 35 40 80 41 74 42 76 43 36 44 79 45
REMARK SMILES IDX 73 46 72 47 37 49 63 50 46 51 62 52 47 53 50 54 61 55 77 56
REMARK SMILES IDX 48 57 49 58 60 60 78 61 51 62 38 63 39 64 44 65 40 66 41 67
REMARK SMILES IDX 43 68 45 69 42 70 64 71 65 72 70 73 66 74 67 75 69 76 71 77
REMARK SMILES IDX 68 78 52 79 53 80 58 81 54 82 55 83 57 84 59 85 56 86
REMARK H PARENT 19 6 26 29 76 48 50 59
REMARK Flexibility Score: inf
ROOT
ATOM      1  C   UNL A   1      35.459  31.977  27.928  1.00  0.00     0.021 C 
ENDROOT
BRANCH   1   2
ATOM      2  C   UNL A   1      34.127  31.229  27.987  1.00  0.00     0.116 C 
BRANCH   2   3
ATOM      3  N   UNL A   1      34.079  30.175  26.999  1.00  0.00    -0.356 N 
ATOM      4  O   UNL A   1      32.002  30.665  26.150  1.00  0.00    -0.275 OA
ATOM      5  C   UNL A   1      33.031  29.999  26.128  1.00  0.00     0.219 C 
ATOM      6  H   UNL A   1      34.837  29.550  26.947  1.00  0.00     0.163 HD
BRANCH   5   7
ATOM      7  C   UNL A   1      33.270  28.895  25.114  1.00  0.00     0.100 C 
BRANCH   7   8
ATOM      8  C   UNL A   1      33.443  27.517  25.757  1.00  0.00     0.010 C 
BRANCH   8   9
ATOM      9  C   UNL A   1      32.208  26.931  26.450  1.00  0.00     0.002 C 
BRANCH   9  10
ATOM     10  C   UNL A   1      30.951  26.813  25.577  1.00  0.00     0.022 C 
BRANCH  10  11
ATOM     11  C   UNL A   1      30.168  25.509  25.752  1.00  0.00     0.128 C 
BRANCH  11  12
ATOM     12  N   UNL A   1      30.890  24.297  25.410  1.00  0.00    -0.282 N 
ATOM     13  C   UNL A   1      31.382  23.437  26.369  1.00  0.00     0.233 C 
ATOM     14  C   UNL A   1      31.284  23.927  24.141  1.00  0.00     0.233 C 
ATOM     15  O   UNL A   1      31.412  23.605  27.578  1.00  0.00    -0.274 OA
ATOM     16  C   UNL A   1      31.777  22.192  25.642  1.00  0.00     0.095 C 
ATOM     17  C   UNL A   1      32.199  22.753  24.293  1.00  0.00     0.095 C 
ATOM     18  O   UNL A   1      31.043  24.481  23.082  1.00  0.00    -0.274 OA
ATOM     19  C   UNL A   1      32.877  21.296  26.172  1.00  0.00     0.041 C 
ATOM     20  C   UNL A   1      32.147  21.646  23.261  1.00  0.00     0.041 C 
ATOM     21  C   UNL A   1      33.266  20.309  25.086  1.00  0.00    -0.030 C 
ATOM     22  C   UNL A   1      32.907  20.446  23.792  1.00  0.00    -0.030 C 
ENDBRANCH  11  12
ENDBRANCH  10  11
ENDBRANCH   9  10
ENDBRANCH   8   9
ENDBRANCH   7   8
ENDBRANCH   5   7
ENDBRANCH   2   3
ENDBRANCH   1   2
BRANCH   1  23
ATOM     23  C   UNL A   1      35.387  33.463  28.312  1.00  0.00     0.002 C 
BRANCH  23  24
ATOM     24  C   UNL A   1      34.324  33.829  29.352  1.00  0.00     0.002 C 
BRANCH  24  25
ATOM     25  C   UNL A   1      33.324  34.899  28.912  1.00  0.00     0.021 C 
BRANCH  25  26
ATOM     26  C   UNL A   1      33.448  36.236  29.636  1.00  0.00     0.116 C 
BRANCH  26  27
ATOM     27  N   UNL A   1      32.465  36.398  30.697  1.00  0.00    -0.352 N 
ATOM     28  C   UNL A   1      32.471  35.874  31.967  1.00  0.00     0.251 C 
ATOM     29  H   UNL A   1      31.688  36.959  30.473  1.00  0.00     0.163 HD
ATOM     30  O   UNL A   1      31.488  35.994  32.693  1.00  0.00    -0.269 OA
BRANCH  28  31
ATOM     31  C   UNL A   1      33.657  35.136  32.453  1.00  0.00     0.039 A 
ATOM     32  C   UNL A   1      33.504  33.815  32.880  1.00  0.00     0.014 A 
ATOM     33  C   UNL A   1      34.917  35.739  32.478  1.00  0.00     0.014 A 
ATOM     34  C   UNL A   1      34.625  33.078  33.271  1.00  0.00     0.010 A 
ATOM     35  C   UNL A   1      36.043  34.983  32.798  1.00  0.00     0.010 A 
ATOM     36  C   UNL A   1      35.908  33.644  33.200  1.00  0.00    -0.014 A 
BRANCH  36  37
ATOM     37  C   UNL A   1      37.122  32.859  33.544  1.00  0.00     0.031 A 
ATOM     38  C   UNL A   1      37.859  33.135  34.827  1.00  0.00     0.074 A 
ATOM     39  C   UNL A   1      37.602  31.948  32.675  1.00  0.00     0.049 A 
ATOM     40  N   UNL A   1      38.983  32.625  35.262  1.00  0.00    -0.248 NA
ATOM     41  C   UNL A   1      37.266  34.135  35.729  1.00  0.00     0.031 C 
ATOM     42  C   UNL A   1      37.004  31.614  31.380  1.00  0.00     0.029 A 
ATOM     43  N   UNL A   1      38.713  31.144  32.743  1.00  0.00    -0.354 N 
ATOM     44  C   UNL A   1      39.239  33.252  36.474  1.00  0.00     0.074 A 
ATOM     45  C   UNL A   1      38.181  34.216  36.684  1.00  0.00     0.031 C 
ATOM     46  C   UNL A   1      37.745  30.666  30.785  1.00  0.00     0.029 A 
ATOM     47  C   UNL A   1      38.891  30.353  31.633  1.00  0.00     0.049 A 
ATOM     48  H   UNL A   1      39.325  31.136  33.514  1.00  0.00     0.167 HD
ATOM     49  C   UNL A   1      40.251  33.030  37.346  1.00  0.00     0.037 A 
ATOM     50  C   UNL A   1      39.874  29.484  31.328  1.00  0.00     0.037 A 
ATOM     51  C   UNL A   1      41.288  32.052  37.150  1.00  0.00     0.049 A 
ATOM     52  C   UNL A   1      40.995  29.267  32.308  1.00  0.00     0.074 A 
ATOM     53  C   UNL A   1      42.326  31.714  38.001  1.00  0.00     0.029 A 
ATOM     54  N   UNL A   1      41.422  31.256  36.023  1.00  0.00    -0.354 N 
ATOM     55  N   UNL A   1      41.189  29.821  33.481  1.00  0.00    -0.248 NA
ATOM     56  C   UNL A   1      42.033  28.299  31.925  1.00  0.00     0.031 C 
ATOM     57  C   UNL A   1      43.113  30.748  37.370  1.00  0.00     0.029 A 
ATOM     58  C   UNL A   1      42.535  30.443  36.148  1.00  0.00     0.049 A 
ATOM     59  H   UNL A   1      40.813  31.267  35.248  1.00  0.00     0.167 HD
ATOM     60  C   UNL A   1      42.345  29.244  33.988  1.00  0.00     0.074 A 
ATOM     61  C   UNL A   1      42.804  28.288  33.002  1.00  0.00     0.031 C 
ATOM     62  C   UNL A   1      42.969  29.482  35.167  1.00  0.00     0.037 A 
BRANCH  49  63
ATOM     63  C   UNL A   1      40.286  33.858  38.599  1.00  0.00     0.057 A 
ATOM     64  C   UNL A   1      40.996  35.063  38.669  1.00  0.00     0.134 A 
ATOM     65  C   UNL A   1      39.560  33.470  39.732  1.00  0.00     0.134 A 
ATOM     66  F   UNL A   1      41.722  35.487  37.623  1.00  0.00    -0.206 F 
ATOM     67  C   UNL A   1      41.003  35.840  39.828  1.00  0.00     0.040 A 
ATOM     68  C   UNL A   1      39.536  34.254  40.887  1.00  0.00     0.040 A 
ATOM     69  F   UNL A   1      38.851  32.331  39.731  1.00  0.00    -0.206 F 
ATOM     70  C   UNL A   1      40.264  35.440  40.939  1.00  0.00     0.006 A 
ENDBRANCH  49  63
BRANCH  50  71
ATOM     71  C   UNL A   1      39.844  28.740  30.042  1.00  0.00     0.057 A 
ATOM     72  C   UNL A   1      40.482  29.242  28.901  1.00  0.00     0.134 A 
ATOM     73  C   UNL A   1      39.155  27.529  29.912  1.00  0.00     0.134 A 
ATOM     74  F   UNL A   1      41.142  30.408  28.956  1.00  0.00    -0.206 F 
ATOM     75  C   UNL A   1      40.412  28.583  27.673  1.00  0.00     0.040 A 
ATOM     76  C   UNL A   1      39.101  26.844  28.697  1.00  0.00     0.040 A 
ATOM     77  F   UNL A   1      38.528  26.989  30.968  1.00  0.00    -0.206 F 
ATOM     78  C   UNL A   1      39.723  27.377  27.570  1.00  0.00     0.006 A 
ENDBRANCH  50  71
BRANCH  62  79
ATOM     79  C   UNL A   1      44.186  28.661  35.484  1.00  0.00     0.057 A 
ATOM     80  C   UNL A   1      45.477  29.080  35.137  1.00  0.00     0.134 A 
ATOM     81  C   UNL A   1      44.065  27.456  36.188  1.00  0.00     0.134 A 
ATOM     82  F   UNL A   1      45.662  30.218  34.452  1.00  0.00    -0.206 F 
ATOM     83  C   UNL A   1      46.601  28.318  35.461  1.00  0.00     0.040 A 
ATOM     84  C   UNL A   1      45.182  26.700  36.542  1.00  0.00     0.040 A 
ATOM     85  F   UNL A   1      42.858  27.001  36.559  1.00  0.00    -0.206 F 
ATOM     86  C   UNL A   1      46.455  27.128  36.173  1.00  0.00     0.006 A 
ENDBRANCH  62  79
ENDBRANCH  36  37
ENDBRANCH  28  31
ENDBRANCH  26  27
ENDBRANCH  25  26
ENDBRANCH  24  25
ENDBRANCH  23  24
ENDBRANCH   1  23
TORSDOF 18
ENDMDL
