MODEL 1
REMARK VINA RESULT:     -11.1      0.000      0.000
REMARK SMILES CCn1ccc([C@@H](C)NC(=O)[C@H](C)n2ccc(C(=O)NCCCCCCNC(=O)c3ccc(-c4c5nc(c(-c6c(F)cccc6F)c6ccc([nH]6)c(-c6c(F)cccc6F)c6nc(c(-c7c(F)cccc7F)c7ccc4[nH]7)C=C6)C=C5)cc3)n2)n1
REMARK SMILES IDX 22 1 21 2 20 3 18 4 19 5 17 7 14 8 15 9 84 10 16 11 12 12
REMARK SMILES IDX 13 13 10 14 9 15 11 17 7 18 8 19 6 20 3 21 4 22 85 23 5 24
REMARK SMILES IDX 2 25 1 26 23 27 24 28 25 29 26 30 27 31 28 32 29 34 30 35
REMARK SMILES IDX 31 36 83 37 32 38 82 39 33 40 34 41 35 42 76 43 36 44 81 45
REMARK SMILES IDX 75 46 77 47 37 48 80 49 74 50 73 51 38 53 64 54 47 55 63 56
REMARK SMILES IDX 48 57 51 58 62 59 78 60 49 61 50 62 61 64 79 65 52 66 39 67
REMARK SMILES IDX 40 68 45 69 41 70 42 71 44 72 46 73 43 74 65 75 66 76 71 77
REMARK SMILES IDX 67 78 68 79 70 80 72 81 69 82 53 83 54 84 59 85 55 86 56 87
REMARK SMILES IDX 58 88 60 89 57 90
REMARK H PARENT 20 6 9 16 27 33 77 52 51 63
REMARK Flexibility Score: inf
ROOT
ATOM      1  C   UNL A   1      38.997  22.218  26.490  1.00  0.00     0.021 C 
ENDROOT
BRANCH   1   2
ATOM      2  C   UNL A   1      38.195  22.207  25.193  1.00  0.00     0.116 C 
BRANCH   2   3
ATOM      3  N   UNL A   1      37.526  20.934  24.993  1.00  0.00    -0.351 N 
ATOM      4  C   UNL A   1      36.198  20.582  25.079  1.00  0.00     0.271 C 
ATOM      5  O   UNL A   1      35.917  19.398  24.880  1.00  0.00    -0.267 OA
ATOM      6  H   UNL A   1      38.128  20.192  24.754  1.00  0.00     0.163 HD
BRANCH   4   7
ATOM      7  C   UNL A   1      35.153  21.577  25.366  1.00  0.00     0.150 A 
ATOM      8  N   UNL A   1      33.499  22.913  25.122  1.00  0.00    -0.260 N 
ATOM      9  C   UNL A   1      33.811  22.989  26.445  1.00  0.00     0.110 A 
ATOM     10  N   UNL A   1      34.255  22.018  24.473  1.00  0.00    -0.167 NA
ATOM     11  C   UNL A   1      34.913  22.187  26.625  1.00  0.00     0.056 A 
BRANCH   8  12
ATOM     12  C   UNL A   1      32.456  23.599  24.366  1.00  0.00     0.193 C 
ATOM     13  C   UNL A   1      31.886  22.826  23.177  1.00  0.00     0.044 C 
BRANCH  12  14
ATOM     14  C   UNL A   1      31.432  24.254  25.291  1.00  0.00     0.245 C 
ATOM     15  N   UNL A   1      31.422  25.583  25.576  1.00  0.00    -0.346 N 
ATOM     16  H   UNL A   1      30.695  25.867  26.175  1.00  0.00     0.164 HD
ATOM     17  O   UNL A   1      30.564  23.572  25.851  1.00  0.00    -0.273 OA
BRANCH  15  18
ATOM     18  C   UNL A   1      32.306  26.656  25.143  1.00  0.00     0.130 C 
ATOM     19  C   UNL A   1      33.218  27.077  26.287  1.00  0.00     0.038 C 
BRANCH  18  20
ATOM     20  C   UNL A   1      31.475  27.789  24.609  1.00  0.00     0.084 A 
ATOM     21  N   UNL A   1      29.909  28.732  23.523  1.00  0.00    -0.273 N 
ATOM     22  C   UNL A   1      30.532  29.750  24.186  1.00  0.00     0.109 A 
ATOM     23  N   UNL A   1      30.493  27.539  23.731  1.00  0.00    -0.176 NA
ATOM     24  C   UNL A   1      31.555  29.172  24.901  1.00  0.00     0.047 A 
BRANCH  21  25
ATOM     25  C   UNL A   1      28.700  28.787  22.723  1.00  0.00     0.141 C 
ATOM     26  C   UNL A   1      28.570  30.026  21.853  1.00  0.00     0.029 C 
ENDBRANCH  21  25
ENDBRANCH  18  20
ENDBRANCH  15  18
ENDBRANCH  12  14
ENDBRANCH   8  12
ENDBRANCH   4   7
ENDBRANCH   2   3
ENDBRANCH   1   2
BRANCH   1  27
ATOM     27  C   UNL A   1      40.462  21.809  26.328  1.00  0.00     0.002 C 
BRANCH  27  28
ATOM     28  C   UNL A   1      40.903  20.558  27.107  1.00  0.00     0.002 C 
BRANCH  28  29
ATOM     29  C   UNL A   1      42.376  20.137  26.982  1.00  0.00     0.021 C 
BRANCH  29  30
ATOM     30  C   UNL A   1      42.755  19.624  25.608  1.00  0.00     0.116 C 
BRANCH  30  31
ATOM     31  N   UNL A   1      44.206  19.502  25.404  1.00  0.00    -0.352 N 
ATOM     32  C   UNL A   1      45.123  20.504  25.095  1.00  0.00     0.251 C 
ATOM     33  H   UNL A   1      44.578  18.595  25.499  1.00  0.00     0.163 HD
ATOM     34  O   UNL A   1      46.209  20.254  24.606  1.00  0.00    -0.269 OA
BRANCH  32  35
ATOM     35  C   UNL A   1      44.738  21.892  25.406  1.00  0.00     0.039 A 
ATOM     36  C   UNL A   1      43.832  22.648  24.659  1.00  0.00     0.014 A 
ATOM     37  C   UNL A   1      45.280  22.398  26.573  1.00  0.00     0.014 A 
ATOM     38  C   UNL A   1      43.468  23.900  25.155  1.00  0.00     0.010 A 
ATOM     39  C   UNL A   1      44.613  23.383  27.223  1.00  0.00     0.010 A 
ATOM     40  C   UNL A   1      43.877  24.251  26.453  1.00  0.00    -0.014 A 
BRANCH  40  41
ATOM     41  C   UNL A   1      43.590  25.523  27.085  1.00  0.00     0.031 A 
ATOM     42  C   UNL A   1      44.536  26.602  26.749  1.00  0.00     0.074 A 
ATOM     43  C   UNL A   1      42.448  25.758  27.770  1.00  0.00     0.049 A 
ATOM     44  N   UNL A   1      45.482  27.054  27.497  1.00  0.00    -0.248 NA
ATOM     45  C   UNL A   1      44.537  27.131  25.380  1.00  0.00     0.031 C 
ATOM     46  C   UNL A   1      41.258  24.911  27.958  1.00  0.00     0.029 A 
ATOM     47  N   UNL A   1      42.102  26.891  28.431  1.00  0.00    -0.354 N 
ATOM     48  C   UNL A   1      46.078  28.077  26.776  1.00  0.00     0.074 A 
ATOM     49  C   UNL A   1      45.586  27.958  25.426  1.00  0.00     0.031 C 
ATOM     50  C   UNL A   1      40.258  25.635  28.512  1.00  0.00     0.029 A 
ATOM     51  C   UNL A   1      40.791  26.930  28.884  1.00  0.00     0.049 A 
ATOM     52  H   UNL A   1      42.735  27.630  28.580  1.00  0.00     0.167 HD
ATOM     53  C   UNL A   1      46.748  29.074  27.414  1.00  0.00     0.037 A 
ATOM     54  C   UNL A   1      40.199  27.961  29.534  1.00  0.00     0.037 A 
ATOM     55  C   UNL A   1      46.994  28.735  28.796  1.00  0.00     0.049 A 
ATOM     56  C   UNL A   1      41.292  28.764  30.141  1.00  0.00     0.074 A 
ATOM     57  C   UNL A   1      47.699  27.735  29.439  1.00  0.00     0.029 A 
ATOM     58  N   UNL A   1      46.126  29.236  29.738  1.00  0.00    -0.354 N 
ATOM     59  N   UNL A   1      42.061  28.314  31.097  1.00  0.00    -0.248 NA
ATOM     60  C   UNL A   1      41.852  29.846  29.347  1.00  0.00     0.031 C 
ATOM     61  C   UNL A   1      46.879  27.360  30.547  1.00  0.00     0.029 A 
ATOM     62  C   UNL A   1      45.761  28.195  30.556  1.00  0.00     0.049 A 
ATOM     63  H   UNL A   1      45.821  30.170  29.812  1.00  0.00     0.167 HD
ATOM     64  C   UNL A   1      43.338  28.748  30.763  1.00  0.00     0.074 A 
ATOM     65  C   UNL A   1      43.135  29.744  29.710  1.00  0.00     0.031 C 
ATOM     66  C   UNL A   1      44.452  28.060  31.157  1.00  0.00     0.037 A 
BRANCH  53  67
ATOM     67  C   UNL A   1      46.853  30.487  26.913  1.00  0.00     0.057 A 
ATOM     68  C   UNL A   1      48.104  31.128  26.938  1.00  0.00     0.134 A 
ATOM     69  C   UNL A   1      45.747  31.330  26.686  1.00  0.00     0.134 A 
ATOM     70  F   UNL A   1      49.230  30.431  27.150  1.00  0.00    -0.206 F 
ATOM     71  C   UNL A   1      48.234  32.517  26.829  1.00  0.00     0.040 A 
ATOM     72  C   UNL A   1      45.872  32.711  26.525  1.00  0.00     0.040 A 
ATOM     73  F   UNL A   1      44.486  30.882  26.714  1.00  0.00    -0.206 F 
ATOM     74  C   UNL A   1      47.114  33.314  26.631  1.00  0.00     0.006 A 
ENDBRANCH  53  67
BRANCH  54  75
ATOM     75  C   UNL A   1      38.828  28.480  29.321  1.00  0.00     0.057 A 
ATOM     76  C   UNL A   1      37.912  28.588  30.376  1.00  0.00     0.134 A 
ATOM     77  C   UNL A   1      38.479  29.144  28.130  1.00  0.00     0.134 A 
ATOM     78  F   UNL A   1      38.176  28.028  31.565  1.00  0.00    -0.206 F 
ATOM     79  C   UNL A   1      36.725  29.327  30.259  1.00  0.00     0.040 A 
ATOM     80  C   UNL A   1      37.300  29.885  28.000  1.00  0.00     0.040 A 
ATOM     81  F   UNL A   1      39.315  29.167  27.083  1.00  0.00    -0.206 F 
ATOM     82  C   UNL A   1      36.422  29.989  29.072  1.00  0.00     0.006 A 
ENDBRANCH  54  75
BRANCH  66  83
ATOM     83  C   UNL A   1      44.262  26.917  32.121  1.00  0.00     0.057 A 
ATOM     84  C   UNL A   1      44.229  25.567  31.737  1.00  0.00     0.134 A 
ATOM     85  C   UNL A   1      44.273  27.174  33.494  1.00  0.00     0.134 A 
ATOM     86  F   UNL A   1      44.316  25.213  30.451  1.00  0.00    -0.206 F 
ATOM     87  C   UNL A   1      44.168  24.526  32.669  1.00  0.00     0.040 A 
ATOM     88  C   UNL A   1      44.240  26.144  34.439  1.00  0.00     0.040 A 
ATOM     89  F   UNL A   1      44.364  28.435  33.943  1.00  0.00    -0.206 F 
ATOM     90  C   UNL A   1      44.179  24.814  34.029  1.00  0.00     0.006 A 
ENDBRANCH  66  83
ENDBRANCH  40  41
ENDBRANCH  32  35
ENDBRANCH  30  31
ENDBRANCH  29  30
ENDBRANCH  28  29
ENDBRANCH  27  28
ENDBRANCH   1  27
TORSDOF 18
ENDMDL
MODEL 2
REMARK VINA RESULT:     -11.0      1.869      3.165
REMARK SMILES CCn1ccc([C@@H](C)NC(=O)[C@H](C)n2ccc(C(=O)NCCCCCCNC(=O)c3ccc(-c4c5nc(c(-c6c(F)cccc6F)c6ccc([nH]6)c(-c6c(F)cccc6F)c6nc(c(-c7c(F)cccc7F)c7ccc4[nH]7)C=C6)C=C5)cc3)n2)n1
REMARK SMILES IDX 22 1 21 2 20 3 18 4 19 5 17 7 14 8 15 9 84 10 16 11 12 12
REMARK SMILES IDX 13 13 10 14 9 15 11 17 7 18 8 19 6 20 3 21 4 22 85 23 5 24
REMARK SMILES IDX 2 25 1 26 23 27 24 28 25 29 26 30 27 31 28 32 29 34 30 35
REMARK SMILES IDX 31 36 83 37 32 38 82 39 33 40 34 41 35 42 76 43 36 44 81 45
REMARK SMILES IDX 75 46 77 47 37 48 80 49 74 50 73 51 38 53 64 54 47 55 63 56
REMARK SMILES IDX 48 57 51 58 62 59 78 60 49 61 50 62 61 64 79 65 52 66 39 67
REMARK SMILES IDX 40 68 45 69 41 70 42 71 44 72 46 73 43 74 65 75 66 76 71 77
REMARK SMILES IDX 67 78 68 79 70 80 72 81 69 82 53 83 54 84 59 85 55 86 56 87
REMARK SMILES IDX 58 88 60 89 57 90
REMARK H PARENT 20 6 9 16 27 33 77 52 51 63
REMARK Flexibility Score: inf
ROOT
ATOM      1  C   UNL A   1      40.154  22.059  26.621  1.00  0.00     0.021 C 
ENDROOT
BRANCH   1   2
ATOM      2  C   UNL A   1      38.909  22.551  25.889  1.00  0.00     0.116 C 
BRANCH   2   3
ATOM      3  N   UNL A   1      38.109  21.443  25.397  1.00  0.00    -0.351 N 
ATOM      4  C   UNL A   1      36.802  21.386  24.970  1.00  0.00     0.271 C 
ATOM      5  O   UNL A   1      36.372  20.282  24.627  1.00  0.00    -0.267 OA
ATOM      6  H   UNL A   1      38.586  20.582  25.365  1.00  0.00     0.163 HD
BRANCH   4   7
ATOM      7  C   UNL A   1      35.961  22.591  24.896  1.00  0.00     0.150 A 
ATOM      8  N   UNL A   1      34.512  24.018  24.228  1.00  0.00    -0.260 N 
ATOM      9  C   UNL A   1      34.981  24.525  25.402  1.00  0.00     0.110 A 
ATOM     10  N   UNL A   1      35.044  22.822  23.944  1.00  0.00    -0.167 NA
ATOM     11  C   UNL A   1      35.961  23.660  25.828  1.00  0.00     0.056 A 
BRANCH   8  12
ATOM     12  C   UNL A   1      33.507  24.550  23.314  1.00  0.00     0.193 C 
ATOM     13  C   UNL A   1      33.729  25.990  22.853  1.00  0.00     0.044 C 
BRANCH  12  14
ATOM     14  C   UNL A   1      33.158  23.545  22.219  1.00  0.00     0.245 C 
ATOM     15  N   UNL A   1      32.233  22.561  22.372  1.00  0.00    -0.346 N 
ATOM     16  H   UNL A   1      32.100  21.995  21.578  1.00  0.00     0.164 HD
ATOM     17  O   UNL A   1      33.743  23.575  21.128  1.00  0.00    -0.273 OA
BRANCH  15  18
ATOM     18  C   UNL A   1      31.404  22.204  23.515  1.00  0.00     0.130 C 
ATOM     19  C   UNL A   1      31.035  23.453  24.305  1.00  0.00     0.038 C 
BRANCH  18  20
ATOM     20  C   UNL A   1      32.126  21.179  24.343  1.00  0.00     0.084 A 
ATOM     21  N   UNL A   1      33.170  19.374  24.760  1.00  0.00    -0.273 N 
ATOM     22  C   UNL A   1      33.192  20.065  25.936  1.00  0.00     0.109 A 
ATOM     23  N   UNL A   1      32.490  20.013  23.791  1.00  0.00    -0.176 NA
ATOM     24  C   UNL A   1      32.521  21.243  25.701  1.00  0.00     0.047 A 
BRANCH  21  25
ATOM     25  C   UNL A   1      33.835  18.125  24.438  1.00  0.00     0.141 C 
ATOM     26  C   UNL A   1      33.204  17.346  23.297  1.00  0.00     0.029 C 
ENDBRANCH  21  25
ENDBRANCH  18  20
ENDBRANCH  15  18
ENDBRANCH  12  14
ENDBRANCH   8  12
ENDBRANCH   4   7
ENDBRANCH   2   3
ENDBRANCH   1   2
BRANCH   1  27
ATOM     27  C   UNL A   1      40.411  20.557  26.485  1.00  0.00     0.002 C 
BRANCH  27  28
ATOM     28  C   UNL A   1      41.266  19.916  27.590  1.00  0.00     0.002 C 
BRANCH  28  29
ATOM     29  C   UNL A   1      42.680  19.452  27.203  1.00  0.00     0.021 C 
BRANCH  29  30
ATOM     30  C   UNL A   1      42.974  19.548  25.720  1.00  0.00     0.116 C 
BRANCH  30  31
ATOM     31  N   UNL A   1      44.408  19.493  25.399  1.00  0.00    -0.352 N 
ATOM     32  C   UNL A   1      45.247  20.534  25.008  1.00  0.00     0.251 C 
ATOM     33  H   UNL A   1      44.830  18.606  25.470  1.00  0.00     0.163 HD
ATOM     34  O   UNL A   1      46.300  20.330  24.434  1.00  0.00    -0.269 OA
BRANCH  32  35
ATOM     35  C   UNL A   1      44.821  21.906  25.338  1.00  0.00     0.039 A 
ATOM     36  C   UNL A   1      43.794  22.594  24.689  1.00  0.00     0.014 A 
ATOM     37  C   UNL A   1      45.463  22.467  26.427  1.00  0.00     0.014 A 
ATOM     38  C   UNL A   1      43.419  23.835  25.203  1.00  0.00     0.010 A 
ATOM     39  C   UNL A   1      44.820  23.429  27.133  1.00  0.00     0.010 A 
ATOM     40  C   UNL A   1      43.952  24.238  26.439  1.00  0.00    -0.014 A 
BRANCH  40  41
ATOM     41  C   UNL A   1      43.667  25.506  27.078  1.00  0.00     0.031 A 
ATOM     42  C   UNL A   1      44.617  26.584  26.755  1.00  0.00     0.074 A 
ATOM     43  C   UNL A   1      42.523  25.740  27.761  1.00  0.00     0.049 A 
ATOM     44  N   UNL A   1      45.562  27.027  27.508  1.00  0.00    -0.248 NA
ATOM     45  C   UNL A   1      44.626  27.123  25.389  1.00  0.00     0.031 C 
ATOM     46  C   UNL A   1      41.330  24.895  27.939  1.00  0.00     0.029 A 
ATOM     47  N   UNL A   1      42.179  26.869  28.429  1.00  0.00    -0.354 N 
ATOM     48  C   UNL A   1      46.165  28.054  26.797  1.00  0.00     0.074 A 
ATOM     49  C   UNL A   1      45.677  27.946  25.445  1.00  0.00     0.031 C 
ATOM     50  C   UNL A   1      40.330  25.619  28.494  1.00  0.00     0.029 A 
ATOM     51  C   UNL A   1      40.866  26.910  28.878  1.00  0.00     0.049 A 
ATOM     52  H   UNL A   1      42.814  27.605  28.585  1.00  0.00     0.167 HD
ATOM     53  C   UNL A   1      46.836  29.044  27.445  1.00  0.00     0.037 A 
ATOM     54  C   UNL A   1      40.275  27.937  29.533  1.00  0.00     0.037 A 
ATOM     55  C   UNL A   1      47.075  28.694  28.826  1.00  0.00     0.049 A 
ATOM     56  C   UNL A   1      41.369  28.732  30.149  1.00  0.00     0.074 A 
ATOM     57  C   UNL A   1      47.775  27.687  29.464  1.00  0.00     0.029 A 
ATOM     58  N   UNL A   1      46.205  29.192  29.767  1.00  0.00    -0.354 N 
ATOM     59  N   UNL A   1      42.133  28.273  31.104  1.00  0.00    -0.248 NA
ATOM     60  C   UNL A   1      41.935  29.819  29.365  1.00  0.00     0.031 C 
ATOM     61  C   UNL A   1      46.950  27.307  30.566  1.00  0.00     0.029 A 
ATOM     62  C   UNL A   1      45.834  28.146  30.577  1.00  0.00     0.049 A 
ATOM     63  H   UNL A   1      45.903  30.126  29.847  1.00  0.00     0.167 HD
ATOM     64  C   UNL A   1      43.412  28.705  30.778  1.00  0.00     0.074 A 
ATOM     65  C   UNL A   1      43.216  29.709  29.732  1.00  0.00     0.031 C 
ATOM     66  C   UNL A   1      44.522  28.011  31.172  1.00  0.00     0.037 A 
BRANCH  53  67
ATOM     67  C   UNL A   1      46.948  30.460  26.954  1.00  0.00     0.057 A 
ATOM     68  C   UNL A   1      48.204  31.090  26.969  1.00  0.00     0.134 A 
ATOM     69  C   UNL A   1      45.846  31.314  26.747  1.00  0.00     0.134 A 
ATOM     70  F   UNL A   1      49.326  30.382  27.163  1.00  0.00    -0.206 F 
ATOM     71  C   UNL A   1      48.345  32.478  26.870  1.00  0.00     0.040 A 
ATOM     72  C   UNL A   1      45.981  32.696  26.596  1.00  0.00     0.040 A 
ATOM     73  F   UNL A   1      44.582  30.878  26.786  1.00  0.00    -0.206 F 
ATOM     74  C   UNL A   1      47.230  33.287  26.692  1.00  0.00     0.006 A 
ENDBRANCH  53  67
BRANCH  54  75
ATOM     75  C   UNL A   1      38.907  28.463  29.319  1.00  0.00     0.057 A 
ATOM     76  C   UNL A   1      37.989  28.574  30.372  1.00  0.00     0.134 A 
ATOM     77  C   UNL A   1      38.562  29.130  28.128  1.00  0.00     0.134 A 
ATOM     78  F   UNL A   1      38.249  28.010  31.561  1.00  0.00    -0.206 F 
ATOM     79  C   UNL A   1      36.806  29.318  30.254  1.00  0.00     0.040 A 
ATOM     80  C   UNL A   1      37.386  29.876  27.997  1.00  0.00     0.040 A 
ATOM     81  F   UNL A   1      39.400  29.151  27.082  1.00  0.00    -0.206 F 
ATOM     82  C   UNL A   1      36.508  29.982  29.067  1.00  0.00     0.006 A 
ENDBRANCH  54  75
BRANCH  66  83
ATOM     83  C   UNL A   1      44.325  26.861  32.127  1.00  0.00     0.057 A 
ATOM     84  C   UNL A   1      44.273  25.516  31.731  1.00  0.00     0.134 A 
ATOM     85  C   UNL A   1      44.347  27.107  33.502  1.00  0.00     0.134 A 
ATOM     86  F   UNL A   1      44.348  25.172  30.442  1.00  0.00    -0.206 F 
ATOM     87  C   UNL A   1      44.206  24.468  32.655  1.00  0.00     0.040 A 
ATOM     88  C   UNL A   1      44.309  26.069  34.438  1.00  0.00     0.040 A 
ATOM     89  F   UNL A   1      44.456  28.363  33.961  1.00  0.00    -0.206 F 
ATOM     90  C   UNL A   1      44.230  24.744  34.017  1.00  0.00     0.006 A 
ENDBRANCH  66  83
ENDBRANCH  40  41
ENDBRANCH  32  35
ENDBRANCH  30  31
ENDBRANCH  29  30
ENDBRANCH  28  29
ENDBRANCH  27  28
ENDBRANCH   1  27
TORSDOF 18
ENDMDL
MODEL 3
REMARK VINA RESULT:     -10.6      4.437     10.044
REMARK SMILES CCn1ccc([C@@H](C)NC(=O)[C@H](C)n2ccc(C(=O)NCCCCCCNC(=O)c3ccc(-c4c5nc(c(-c6c(F)cccc6F)c6ccc([nH]6)c(-c6c(F)cccc6F)c6nc(c(-c7c(F)cccc7F)c7ccc4[nH]7)C=C6)C=C5)cc3)n2)n1
REMARK SMILES IDX 22 1 21 2 20 3 18 4 19 5 17 7 14 8 15 9 84 10 16 11 12 12
REMARK SMILES IDX 13 13 10 14 9 15 11 17 7 18 8 19 6 20 3 21 4 22 85 23 5 24
REMARK SMILES IDX 2 25 1 26 23 27 24 28 25 29 26 30 27 31 28 32 29 34 30 35
REMARK SMILES IDX 31 36 83 37 32 38 82 39 33 40 34 41 35 42 76 43 36 44 81 45
REMARK SMILES IDX 75 46 77 47 37 48 80 49 74 50 73 51 38 53 64 54 47 55 63 56
REMARK SMILES IDX 48 57 51 58 62 59 78 60 49 61 50 62 61 64 79 65 52 66 39 67
REMARK SMILES IDX 40 68 45 69 41 70 42 71 44 72 46 73 43 74 65 75 66 76 71 77
REMARK SMILES IDX 67 78 68 79 70 80 72 81 69 82 53 83 54 84 59 85 55 86 56 87
REMARK SMILES IDX 58 88 60 89 57 90
REMARK H PARENT 20 6 9 16 27 33 77 52 51 63
REMARK Flexibility Score: inf
ROOT
ATOM      1  C   UNL A   1      33.662  32.532  28.597  1.00  0.00     0.021 C 
ENDROOT
BRANCH   1   2
ATOM      2  C   UNL A   1      33.640  31.653  27.350  1.00  0.00     0.116 C 
BRANCH   2   3
ATOM      3  N   UNL A   1      34.528  30.513  27.489  1.00  0.00    -0.351 N 
ATOM      4  C   UNL A   1      34.510  29.270  26.898  1.00  0.00     0.271 C 
ATOM      5  O   UNL A   1      35.393  28.477  27.231  1.00  0.00    -0.267 OA
ATOM      6  H   UNL A   1      35.274  30.654  28.116  1.00  0.00     0.163 HD
BRANCH   4   7
ATOM      7  C   UNL A   1      33.501  28.910  25.890  1.00  0.00     0.150 A 
ATOM      8  N   UNL A   1      31.741  28.103  24.976  1.00  0.00    -0.260 N 
ATOM      9  C   UNL A   1      32.376  28.771  23.974  1.00  0.00     0.110 A 
ATOM     10  N   UNL A   1      32.372  28.233  26.151  1.00  0.00    -0.167 NA
ATOM     11  C   UNL A   1      33.544  29.252  24.514  1.00  0.00     0.056 A 
BRANCH   8  12
ATOM     12  C   UNL A   1      30.490  27.352  24.956  1.00  0.00     0.193 C 
ATOM     13  C   UNL A   1      29.796  27.261  23.597  1.00  0.00     0.044 C 
BRANCH  12  14
ATOM     14  C   UNL A   1      30.609  26.044  25.734  1.00  0.00     0.245 C 
ATOM     15  N   UNL A   1      31.529  25.084  25.449  1.00  0.00    -0.346 N 
ATOM     16  H   UNL A   1      31.501  24.300  26.044  1.00  0.00     0.164 HD
ATOM     17  O   UNL A   1      29.833  25.792  26.665  1.00  0.00    -0.273 OA
BRANCH  15  18
ATOM     18  C   UNL A   1      32.550  25.022  24.413  1.00  0.00     0.130 C 
ATOM     19  C   UNL A   1      31.990  24.348  23.167  1.00  0.00     0.038 C 
BRANCH  18  20
ATOM     20  C   UNL A   1      33.763  24.324  24.961  1.00  0.00     0.084 A 
ATOM     21  N   UNL A   1      34.944  22.700  25.659  1.00  0.00    -0.273 N 
ATOM     22  C   UNL A   1      35.794  23.768  25.653  1.00  0.00     0.109 A 
ATOM     23  N   UNL A   1      33.694  23.025  25.284  1.00  0.00    -0.176 NA
ATOM     24  C   UNL A   1      35.058  24.840  25.205  1.00  0.00     0.047 A 
BRANCH  21  25
ATOM     25  C   UNL A   1      35.250  21.309  25.937  1.00  0.00     0.141 C 
ATOM     26  C   UNL A   1      36.321  20.704  25.046  1.00  0.00     0.029 C 
ENDBRANCH  21  25
ENDBRANCH  18  20
ENDBRANCH  15  18
ENDBRANCH  12  14
ENDBRANCH   8  12
ENDBRANCH   4   7
ENDBRANCH   2   3
ENDBRANCH   1   2
BRANCH   1  27
ATOM     27  C   UNL A   1      34.697  33.658  28.554  1.00  0.00     0.002 C 
BRANCH  27  28
ATOM     28  C   UNL A   1      34.203  35.008  28.005  1.00  0.00     0.002 C 
BRANCH  28  29
ATOM     29  C   UNL A   1      33.761  36.063  29.032  1.00  0.00     0.021 C 
BRANCH  29  30
ATOM     30  C   UNL A   1      32.891  35.513  30.144  1.00  0.00     0.116 C 
BRANCH  30  31
ATOM     31  N   UNL A   1      32.987  36.274  31.398  1.00  0.00    -0.352 N 
ATOM     32  C   UNL A   1      33.588  35.895  32.596  1.00  0.00     0.251 C 
ATOM     33  H   UNL A   1      32.574  37.169  31.391  1.00  0.00     0.163 HD
ATOM     34  O   UNL A   1      33.309  36.430  33.653  1.00  0.00    -0.269 OA
BRANCH  32  35
ATOM     35  C   UNL A   1      34.603  34.828  32.536  1.00  0.00     0.039 A 
ATOM     36  C   UNL A   1      34.317  33.474  32.352  1.00  0.00     0.014 A 
ATOM     37  C   UNL A   1      35.913  35.268  32.588  1.00  0.00     0.014 A 
ATOM     38  C   UNL A   1      35.391  32.601  32.182  1.00  0.00     0.010 A 
ATOM     39  C   UNL A   1      36.875  34.505  32.015  1.00  0.00     0.010 A 
ATOM     40  C   UNL A   1      36.677  33.145  32.017  1.00  0.00    -0.014 A 
BRANCH  40  41
ATOM     41  C   UNL A   1      37.883  32.359  31.853  1.00  0.00     0.031 A 
ATOM     42  C   UNL A   1      38.657  32.158  33.091  1.00  0.00     0.074 A 
ATOM     43  C   UNL A   1      38.178  31.702  30.709  1.00  0.00     0.049 A 
ATOM     44  N   UNL A   1      39.741  32.766  33.425  1.00  0.00    -0.248 NA
ATOM     45  C   UNL A   1      38.087  31.309  34.143  1.00  0.00     0.031 C 
ATOM     46  C   UNL A   1      37.390  31.536  29.475  1.00  0.00     0.029 A 
ATOM     47  N   UNL A   1      39.293  30.979  30.438  1.00  0.00    -0.354 N 
ATOM     48  C   UNL A   1      40.116  32.228  34.647  1.00  0.00     0.074 A 
ATOM     49  C   UNL A   1      38.978  31.482  35.123  1.00  0.00     0.031 C 
ATOM     50  C   UNL A   1      37.968  30.605  28.680  1.00  0.00     0.029 A 
ATOM     51  C   UNL A   1      39.249  30.251  29.256  1.00  0.00     0.049 A 
ATOM     52  H   UNL A   1      40.076  30.971  31.035  1.00  0.00     0.167 HD
ATOM     53  C   UNL A   1      41.416  32.257  35.047  1.00  0.00     0.037 A 
ATOM     54  C   UNL A   1      40.217  29.427  28.788  1.00  0.00     0.037 A 
ATOM     55  C   UNL A   1      42.195  33.151  34.222  1.00  0.00     0.049 A 
ATOM     56  C   UNL A   1      41.486  29.852  29.434  1.00  0.00     0.074 A 
ATOM     57  C   UNL A   1      42.158  34.508  33.958  1.00  0.00     0.029 A 
ATOM     58  N   UNL A   1      42.922  32.597  33.195  1.00  0.00    -0.354 N 
ATOM     59  N   UNL A   1      42.051  31.007  29.204  1.00  0.00    -0.248 NA
ATOM     60  C   UNL A   1      41.840  29.224  30.697  1.00  0.00     0.031 C 
ATOM     61  C   UNL A   1      42.419  34.618  32.558  1.00  0.00     0.029 A 
ATOM     62  C   UNL A   1      42.669  33.336  32.066  1.00  0.00     0.049 A 
ATOM     63  H   UNL A   1      43.516  31.814  33.257  1.00  0.00     0.167 HD
ATOM     64  C   UNL A   1      42.485  31.446  30.448  1.00  0.00     0.074 A 
ATOM     65  C   UNL A   1      42.386  30.275  31.318  1.00  0.00     0.031 C 
ATOM     66  C   UNL A   1      42.608  32.778  30.732  1.00  0.00     0.037 A 
BRANCH  53  67
ATOM     67  C   UNL A   1      42.062  31.221  35.923  1.00  0.00     0.057 A 
ATOM     68  C   UNL A   1      42.825  31.640  37.026  1.00  0.00     0.134 A 
ATOM     69  C   UNL A   1      42.208  29.865  35.567  1.00  0.00     0.134 A 
ATOM     70  F   UNL A   1      42.773  32.910  37.456  1.00  0.00    -0.206 F 
ATOM     71  C   UNL A   1      43.730  30.793  37.674  1.00  0.00     0.040 A 
ATOM     72  C   UNL A   1      43.071  28.998  36.240  1.00  0.00     0.040 A 
ATOM     73  F   UNL A   1      41.611  29.337  34.493  1.00  0.00    -0.206 F 
ATOM     74  C   UNL A   1      43.862  29.469  37.275  1.00  0.00     0.006 A 
ENDBRANCH  53  67
BRANCH  54  75
ATOM     75  C   UNL A   1      40.029  28.102  28.153  1.00  0.00     0.057 A 
ATOM     76  C   UNL A   1      40.598  27.796  26.909  1.00  0.00     0.134 A 
ATOM     77  C   UNL A   1      39.520  27.012  28.883  1.00  0.00     0.134 A 
ATOM     78  F   UNL A   1      41.150  28.761  26.159  1.00  0.00    -0.206 F 
ATOM     79  C   UNL A   1      40.671  26.481  26.426  1.00  0.00     0.040 A 
ATOM     80  C   UNL A   1      39.587  25.696  28.414  1.00  0.00     0.040 A 
ATOM     81  F   UNL A   1      39.020  27.180  30.115  1.00  0.00    -0.206 F 
ATOM     82  C   UNL A   1      40.175  25.424  27.186  1.00  0.00     0.006 A 
ENDBRANCH  54  75
BRANCH  66  83
ATOM     83  C   UNL A   1      42.434  33.754  29.596  1.00  0.00     0.057 A 
ATOM     84  C   UNL A   1      41.254  34.476  29.358  1.00  0.00     0.134 A 
ATOM     85  C   UNL A   1      43.541  34.093  28.814  1.00  0.00     0.134 A 
ATOM     86  F   UNL A   1      40.170  34.296  30.119  1.00  0.00    -0.206 F 
ATOM     87  C   UNL A   1      41.166  35.458  28.366  1.00  0.00     0.040 A 
ATOM     88  C   UNL A   1      43.477  35.092  27.837  1.00  0.00     0.040 A 
ATOM     89  F   UNL A   1      44.722  33.491  29.019  1.00  0.00    -0.206 F 
ATOM     90  C   UNL A   1      42.284  35.773  27.604  1.00  0.00     0.006 A 
ENDBRANCH  66  83
ENDBRANCH  40  41
ENDBRANCH  32  35
ENDBRANCH  30  31
ENDBRANCH  29  30
ENDBRANCH  28  29
ENDBRANCH  27  28
ENDBRANCH   1  27
TORSDOF 18
ENDMDL
