MODEL 1
REMARK VINA RESULT:     -10.3      0.000      0.000
REMARK SMILES C[C@H]1CC[C@](C#N)([C@H](O)C(=O)NCCCCCCNC(=O)c2ccc(-c3c4nc(c(-c5c(F)cccc5F)c5ccc([nH]5)c(-c5c(F)cccc5F)c5nc(c(-c6c(F)cccc6F)c6ccc3[nH]6)C=C5)C=C4)cc2)C1
REMARK SMILES IDX 15 1 14 2 13 3 12 4 10 5 11 6 8 8 5 9 1 10 2 11 3 12 76 13
REMARK SMILES IDX 4 14 6 15 7 16 9 17 16 19 17 20 18 21 19 22 20 23 21 25
REMARK SMILES IDX 22 26 23 27 75 28 24 29 74 30 25 31 26 32 27 33 68 34 28 35
REMARK SMILES IDX 73 36 67 37 69 38 29 39 72 40 66 41 65 42 30 44 56 45 39 46
REMARK SMILES IDX 55 47 40 48 43 49 54 50 70 51 41 52 42 53 53 55 71 56 44 57
REMARK SMILES IDX 31 58 32 59 37 60 33 61 34 62 36 63 38 64 35 65 57 66 58 67
REMARK SMILES IDX 63 68 59 69 60 70 62 71 64 72 61 73 45 74 46 75 51 76 47 77
REMARK SMILES IDX 48 78 50 79 52 80 49 81
REMARK H PARENT 12 7 9 18 19 24 69 43 43 54
REMARK Flexibility Score: inf
ROOT
ATOM      1  C   UNL A   1      36.281  21.756  25.665  1.00  0.00     0.002 C 
ENDROOT
BRANCH   1   2
ATOM      2  C   UNL A   1      35.030  22.624  25.561  1.00  0.00     0.021 C 
BRANCH   2   3
ATOM      3  C   UNL A   1      34.093  22.253  24.412  1.00  0.00     0.116 C 
BRANCH   3   4
ATOM      4  N   UNL A   1      34.133  23.228  23.356  1.00  0.00    -0.354 N 
ATOM      5  C   UNL A   1      33.432  24.338  23.063  1.00  0.00     0.250 C 
ATOM      6  O   UNL A   1      33.789  24.888  22.003  1.00  0.00    -0.272 OA
ATOM      7  H   UNL A   1      34.838  23.041  22.694  1.00  0.00     0.163 HD
BRANCH   5   8
ATOM      8  C   UNL A   1      32.294  25.037  23.860  1.00  0.00     0.223 C 
BRANCH   8   9
ATOM      9  C   UNL A   1      32.401  25.780  25.212  1.00  0.00     0.092 C 
ATOM     10  C   UNL A   1      31.712  28.074  27.606  1.00  0.00     0.008 C 
ATOM     11  C   UNL A   1      32.303  28.040  26.201  1.00  0.00    -0.013 C 
ATOM     12  C   UNL A   1      33.760  27.577  26.237  1.00  0.00     0.005 C 
ATOM     13  C   UNL A   1      31.575  27.086  25.244  1.00  0.00     0.029 C 
ATOM     14  C   UNL A   1      33.827  26.166  25.640  1.00  0.00     0.026 C 
BRANCH   9  15
ATOM     15  C   UNL A   1      31.824  24.909  26.280  1.00  0.00     0.072 C 
ATOM     16  N   UNL A   1      31.364  24.185  27.065  1.00  0.00    -0.198 NA
ENDBRANCH   9  15
ENDBRANCH   8   9
BRANCH   8  17
ATOM     17  O   UNL A   1      31.366  23.927  24.036  1.00  0.00    -0.382 OA
ATOM     18  H   UNL A   1      31.115  23.862  24.971  1.00  0.00     0.211 HD
ENDBRANCH   8  17
ENDBRANCH   5   8
ENDBRANCH   3   4
ENDBRANCH   2   3
ENDBRANCH   1   2
BRANCH   1  19
ATOM     19  C   UNL A   1      36.191  20.409  24.941  1.00  0.00     0.002 C 
BRANCH  19  20
ATOM     20  C   UNL A   1      37.491  19.597  24.885  1.00  0.00     0.021 C 
BRANCH  20  21
ATOM     21  C   UNL A   1      38.717  20.308  25.453  1.00  0.00     0.116 C 
BRANCH  21  22
ATOM     22  N   UNL A   1      39.810  19.383  25.688  1.00  0.00    -0.352 N 
ATOM     23  C   UNL A   1      41.108  19.616  26.053  1.00  0.00     0.251 C 
ATOM     24  H   UNL A   1      39.580  18.434  25.564  1.00  0.00     0.163 HD
ATOM     25  O   UNL A   1      41.943  18.727  25.906  1.00  0.00    -0.269 OA
BRANCH  23  26
ATOM     26  C   UNL A   1      41.512  20.917  26.621  1.00  0.00     0.039 A 
ATOM     27  C   UNL A   1      41.762  21.974  25.743  1.00  0.00     0.014 A 
ATOM     28  C   UNL A   1      41.711  21.089  27.995  1.00  0.00     0.014 A 
ATOM     29  C   UNL A   1      42.180  23.205  26.244  1.00  0.00     0.010 A 
ATOM     30  C   UNL A   1      42.042  22.345  28.502  1.00  0.00     0.010 A 
ATOM     31  C   UNL A   1      42.292  23.413  27.630  1.00  0.00    -0.014 A 
BRANCH  31  32
ATOM     32  C   UNL A   1      42.651  24.757  28.151  1.00  0.00     0.031 A 
ATOM     33  C   UNL A   1      44.084  25.141  28.394  1.00  0.00     0.074 A 
ATOM     34  C   UNL A   1      41.664  25.639  28.406  1.00  0.00     0.049 A 
ATOM     35  N   UNL A   1      44.574  26.296  28.769  1.00  0.00    -0.248 NA
ATOM     36  C   UNL A   1      45.098  24.091  28.215  1.00  0.00     0.031 C 
ATOM     37  C   UNL A   1      40.233  25.364  28.262  1.00  0.00     0.029 A 
ATOM     38  N   UNL A   1      41.711  26.946  28.817  1.00  0.00    -0.354 N 
ATOM     39  C   UNL A   1      45.948  26.112  28.869  1.00  0.00     0.074 A 
ATOM     40  C   UNL A   1      46.208  24.718  28.578  1.00  0.00     0.031 C 
ATOM     41  C   UNL A   1      39.542  26.484  28.521  1.00  0.00     0.029 A 
ATOM     42  C   UNL A   1      40.475  27.541  28.897  1.00  0.00     0.049 A 
ATOM     43  H   UNL A   1      42.550  27.413  29.036  1.00  0.00     0.167 HD
ATOM     44  C   UNL A   1      46.906  27.025  29.158  1.00  0.00     0.037 A 
ATOM     45  C   UNL A   1      40.131  28.798  29.229  1.00  0.00     0.037 A 
ATOM     46  C   UNL A   1      46.639  28.412  29.448  1.00  0.00     0.049 A 
ATOM     47  C   UNL A   1      41.213  29.786  29.563  1.00  0.00     0.074 A 
ATOM     48  C   UNL A   1      47.543  29.430  29.700  1.00  0.00     0.029 A 
ATOM     49  N   UNL A   1      45.373  28.971  29.543  1.00  0.00    -0.354 N 
ATOM     50  N   UNL A   1      42.514  29.620  29.572  1.00  0.00    -0.248 NA
ATOM     51  C   UNL A   1      40.778  31.142  29.924  1.00  0.00     0.031 C 
ATOM     52  C   UNL A   1      46.823  30.584  30.021  1.00  0.00     0.029 A 
ATOM     53  C   UNL A   1      45.472  30.311  29.886  1.00  0.00     0.049 A 
ATOM     54  H   UNL A   1      44.528  28.489  29.391  1.00  0.00     0.167 HD
ATOM     55  C   UNL A   1      43.053  30.857  29.901  1.00  0.00     0.074 A 
ATOM     56  C   UNL A   1      41.938  31.765  30.065  1.00  0.00     0.031 C 
ATOM     57  C   UNL A   1      44.355  31.209  30.049  1.00  0.00     0.037 A 
BRANCH  44  58
ATOM     58  C   UNL A   1      48.335  26.553  29.191  1.00  0.00     0.057 A 
ATOM     59  C   UNL A   1      48.915  26.010  30.346  1.00  0.00     0.134 A 
ATOM     60  C   UNL A   1      49.131  26.606  28.039  1.00  0.00     0.134 A 
ATOM     61  F   UNL A   1      48.215  25.934  31.489  1.00  0.00    -0.206 F 
ATOM     62  C   UNL A   1      50.240  25.569  30.362  1.00  0.00     0.040 A 
ATOM     63  C   UNL A   1      50.445  26.137  28.034  1.00  0.00     0.040 A 
ATOM     64  F   UNL A   1      48.640  27.105  26.894  1.00  0.00    -0.206 F 
ATOM     65  C   UNL A   1      51.007  25.625  29.201  1.00  0.00     0.006 A 
ENDBRANCH  44  58
BRANCH  45  66
ATOM     66  C   UNL A   1      38.701  29.202  29.237  1.00  0.00     0.057 A 
ATOM     67  C   UNL A   1      38.081  29.700  28.085  1.00  0.00     0.134 A 
ATOM     68  C   UNL A   1      37.923  29.111  30.397  1.00  0.00     0.134 A 
ATOM     69  F   UNL A   1      38.775  29.825  26.943  1.00  0.00    -0.206 F 
ATOM     70  C   UNL A   1      36.749  30.121  28.093  1.00  0.00     0.040 A 
ATOM     71  C   UNL A   1      36.581  29.496  30.411  1.00  0.00     0.040 A 
ATOM     72  F   UNL A   1      38.452  28.629  31.532  1.00  0.00    -0.206 F 
ATOM     73  C   UNL A   1      35.995  30.013  29.258  1.00  0.00     0.006 A 
ENDBRANCH  45  66
BRANCH  57  74
ATOM     74  C   UNL A   1      44.643  32.653  30.355  1.00  0.00     0.057 A 
ATOM     75  C   UNL A   1      44.784  33.619  29.349  1.00  0.00     0.134 A 
ATOM     76  C   UNL A   1      44.775  33.084  31.681  1.00  0.00     0.134 A 
ATOM     77  F   UNL A   1      44.679  33.276  28.056  1.00  0.00    -0.206 F 
ATOM     78  C   UNL A   1      45.091  34.948  29.650  1.00  0.00     0.040 A 
ATOM     79  C   UNL A   1      45.043  34.416  31.996  1.00  0.00     0.040 A 
ATOM     80  F   UNL A   1      44.639  32.218  32.697  1.00  0.00    -0.206 F 
ATOM     81  C   UNL A   1      45.216  35.350  30.977  1.00  0.00     0.006 A 
ENDBRANCH  57  74
ENDBRANCH  31  32
ENDBRANCH  23  26
ENDBRANCH  21  22
ENDBRANCH  20  21
ENDBRANCH  19  20
ENDBRANCH   1  19
TORSDOF 16
ENDMDL
MODEL 2
REMARK VINA RESULT:     -10.2      4.505      9.415
REMARK SMILES C[C@H]1CC[C@](C#N)([C@H](O)C(=O)NCCCCCCNC(=O)c2ccc(-c3c4nc(c(-c5c(F)cccc5F)c5ccc([nH]5)c(-c5c(F)cccc5F)c5nc(c(-c6c(F)cccc6F)c6ccc3[nH]6)C=C5)C=C4)cc2)C1
REMARK SMILES IDX 15 1 14 2 13 3 12 4 10 5 11 6 8 8 5 9 1 10 2 11 3 12 76 13
REMARK SMILES IDX 4 14 6 15 7 16 9 17 16 19 17 20 18 21 19 22 20 23 21 25
REMARK SMILES IDX 22 26 23 27 75 28 24 29 74 30 25 31 26 32 27 33 68 34 28 35
REMARK SMILES IDX 73 36 67 37 69 38 29 39 72 40 66 41 65 42 30 44 56 45 39 46
REMARK SMILES IDX 55 47 40 48 43 49 54 50 70 51 41 52 42 53 53 55 71 56 44 57
REMARK SMILES IDX 31 58 32 59 37 60 33 61 34 62 36 63 38 64 35 65 57 66 58 67
REMARK SMILES IDX 63 68 59 69 60 70 62 71 64 72 61 73 45 74 46 75 51 76 47 77
REMARK SMILES IDX 48 78 50 79 52 80 49 81
REMARK H PARENT 12 7 9 18 19 24 69 43 43 54
REMARK Flexibility Score: inf
ROOT
ATOM      1  C   UNL A   1      31.778  29.555  26.602  1.00  0.00     0.002 C 
ENDROOT
BRANCH   1   2
ATOM      2  C   UNL A   1      31.657  28.207  25.898  1.00  0.00     0.021 C 
BRANCH   2   3
ATOM      3  C   UNL A   1      32.640  27.144  26.388  1.00  0.00     0.116 C 
BRANCH   3   4
ATOM      4  N   UNL A   1      31.958  25.973  26.873  1.00  0.00    -0.354 N 
ATOM      5  C   UNL A   1      31.771  24.724  26.409  1.00  0.00     0.250 C 
ATOM      6  O   UNL A   1      31.072  24.014  27.157  1.00  0.00    -0.272 OA
ATOM      7  H   UNL A   1      31.531  26.118  27.748  1.00  0.00     0.163 HD
BRANCH   5   8
ATOM      8  C   UNL A   1      32.323  24.047  25.122  1.00  0.00     0.223 C 
BRANCH   8   9
ATOM      9  C   UNL A   1      33.776  24.059  24.593  1.00  0.00     0.092 C 
ATOM     10  C   UNL A   1      36.609  22.896  23.146  1.00  0.00     0.008 C 
ATOM     11  C   UNL A   1      35.789  22.642  24.406  1.00  0.00    -0.013 C 
ATOM     12  C   UNL A   1      36.068  23.715  25.461  1.00  0.00     0.005 C 
ATOM     13  C   UNL A   1      34.272  22.656  24.174  1.00  0.00     0.029 C 
ATOM     14  C   UNL A   1      34.828  24.610  25.569  1.00  0.00     0.026 C 
BRANCH   9  15
ATOM     15  C   UNL A   1      33.823  24.892  23.353  1.00  0.00     0.072 C 
ATOM     16  N   UNL A   1      33.827  25.493  22.357  1.00  0.00    -0.198 NA
ENDBRANCH   9  15
ENDBRANCH   8   9
BRANCH   8  17
ATOM     17  O   UNL A   1      31.476  24.661  24.108  1.00  0.00    -0.382 OA
ATOM     18  H   UNL A   1      31.766  24.374  23.227  1.00  0.00     0.211 HD
ENDBRANCH   8  17
ENDBRANCH   5   8
ENDBRANCH   3   4
ENDBRANCH   2   3
ENDBRANCH   1   2
BRANCH   1  19
ATOM     19  C   UNL A   1      31.346  30.761  25.761  1.00  0.00     0.002 C 
BRANCH  19  20
ATOM     20  C   UNL A   1      31.298  32.103  26.501  1.00  0.00     0.021 C 
BRANCH  20  21
ATOM     21  C   UNL A   1      32.636  32.572  27.068  1.00  0.00     0.116 C 
BRANCH  21  22
ATOM     22  N   UNL A   1      32.542  33.910  27.623  1.00  0.00    -0.352 N 
ATOM     23  C   UNL A   1      33.193  34.479  28.683  1.00  0.00     0.251 C 
ATOM     24  H   UNL A   1      31.906  34.503  27.162  1.00  0.00     0.163 HD
ATOM     25  O   UNL A   1      32.754  35.517  29.172  1.00  0.00    -0.269 OA
BRANCH  23  26
ATOM     26  C   UNL A   1      34.414  33.863  29.240  1.00  0.00     0.039 A 
ATOM     27  C   UNL A   1      34.271  32.892  30.233  1.00  0.00     0.014 A 
ATOM     28  C   UNL A   1      35.692  34.278  28.847  1.00  0.00     0.014 A 
ATOM     29  C   UNL A   1      35.404  32.316  30.806  1.00  0.00     0.010 A 
ATOM     30  C   UNL A   1      36.821  33.638  29.356  1.00  0.00     0.010 A 
ATOM     31  C   UNL A   1      36.689  32.659  30.350  1.00  0.00    -0.014 A 
BRANCH  31  32
ATOM     32  C   UNL A   1      37.881  31.971  30.907  1.00  0.00     0.031 A 
ATOM     33  C   UNL A   1      38.390  32.289  32.286  1.00  0.00     0.074 A 
ATOM     34  C   UNL A   1      38.508  31.046  30.154  1.00  0.00     0.049 A 
ATOM     35  N   UNL A   1      39.366  31.725  32.954  1.00  0.00    -0.248 NA
ATOM     36  C   UNL A   1      37.737  33.394  33.003  1.00  0.00     0.031 C 
ATOM     37  C   UNL A   1      38.141  30.691  28.782  1.00  0.00     0.029 A 
ATOM     38  N   UNL A   1      39.567  30.224  30.438  1.00  0.00    -0.354 N 
ATOM     39  C   UNL A   1      39.442  32.405  34.163  1.00  0.00     0.074 A 
ATOM     40  C   UNL A   1      38.457  33.463  34.113  1.00  0.00     0.031 C 
ATOM     41  C   UNL A   1      38.921  29.683  28.366  1.00  0.00     0.029 A 
ATOM     42  C   UNL A   1      39.875  29.353  29.420  1.00  0.00     0.049 A 
ATOM     43  H   UNL A   1      40.061  30.254  31.289  1.00  0.00     0.167 HD
ATOM     44  C   UNL A   1      40.246  32.156  35.225  1.00  0.00     0.037 A 
ATOM     45  C   UNL A   1      40.815  28.393  29.345  1.00  0.00     0.037 A 
ATOM     46  C   UNL A   1      41.226  31.100  35.266  1.00  0.00     0.049 A 
ATOM     47  C   UNL A   1      41.705  28.152  30.531  1.00  0.00     0.074 A 
ATOM     48  C   UNL A   1      42.052  30.731  36.314  1.00  0.00     0.029 A 
ATOM     49  N   UNL A   1      41.525  30.255  34.207  1.00  0.00    -0.354 N 
ATOM     50  N   UNL A   1      41.710  28.747  31.700  1.00  0.00    -0.248 NA
ATOM     51  C   UNL A   1      42.716  27.096  30.390  1.00  0.00     0.031 C 
ATOM     52  C   UNL A   1      42.901  29.715  35.865  1.00  0.00     0.029 A 
ATOM     53  C   UNL A   1      42.548  29.391  34.565  1.00  0.00     0.049 A 
ATOM     54  H   UNL A   1      41.078  30.267  33.330  1.00  0.00     0.167 HD
ATOM     55  C   UNL A   1      42.695  28.112  32.446  1.00  0.00     0.074 A 
ATOM     56  C   UNL A   1      43.253  27.076  31.601  1.00  0.00     0.031 C 
ATOM     57  C   UNL A   1      43.099  28.363  33.716  1.00  0.00     0.037 A 
BRANCH  44  58
ATOM     58  C   UNL A   1      40.112  33.052  36.427  1.00  0.00     0.057 A 
ATOM     59  C   UNL A   1      39.172  32.810  37.438  1.00  0.00     0.134 A 
ATOM     60  C   UNL A   1      40.963  34.153  36.594  1.00  0.00     0.134 A 
ATOM     61  F   UNL A   1      38.319  31.777  37.342  1.00  0.00    -0.206 F 
ATOM     62  C   UNL A   1      39.062  33.645  38.552  1.00  0.00     0.040 A 
ATOM     63  C   UNL A   1      40.885  34.975  37.720  1.00  0.00     0.040 A 
ATOM     64  F   UNL A   1      41.893  34.442  35.671  1.00  0.00    -0.206 F 
ATOM     65  C   UNL A   1      39.926  34.728  38.699  1.00  0.00     0.006 A 
ENDBRANCH  44  58
BRANCH  45  66
ATOM     66  C   UNL A   1      40.945  27.572  28.114  1.00  0.00     0.057 A 
ATOM     67  C   UNL A   1      41.764  27.977  27.053  1.00  0.00     0.134 A 
ATOM     68  C   UNL A   1      40.244  26.370  27.961  1.00  0.00     0.134 A 
ATOM     69  F   UNL A   1      42.452  29.127  27.132  1.00  0.00    -0.206 F 
ATOM     70  C   UNL A   1      41.861  27.234  25.876  1.00  0.00     0.040 A 
ATOM     71  C   UNL A   1      40.357  25.598  26.803  1.00  0.00     0.040 A 
ATOM     72  F   UNL A   1      39.452  25.917  28.945  1.00  0.00    -0.206 F 
ATOM     73  C   UNL A   1      41.159  26.037  25.752  1.00  0.00     0.006 A 
ENDBRANCH  45  66
BRANCH  57  74
ATOM     74  C   UNL A   1      44.161  27.463  34.287  1.00  0.00     0.057 A 
ATOM     75  C   UNL A   1      43.857  26.243  34.906  1.00  0.00     0.134 A 
ATOM     76  C   UNL A   1      45.512  27.825  34.210  1.00  0.00     0.134 A 
ATOM     77  F   UNL A   1      42.584  25.837  35.024  1.00  0.00    -0.206 F 
ATOM     78  C   UNL A   1      44.853  25.440  35.466  1.00  0.00     0.040 A 
ATOM     79  C   UNL A   1      46.520  27.013  34.730  1.00  0.00     0.040 A 
ATOM     80  F   UNL A   1      45.879  28.972  33.619  1.00  0.00    -0.206 F 
ATOM     81  C   UNL A   1      46.190  25.822  35.374  1.00  0.00     0.006 A 
ENDBRANCH  57  74
ENDBRANCH  31  32
ENDBRANCH  23  26
ENDBRANCH  21  22
ENDBRANCH  20  21
ENDBRANCH  19  20
ENDBRANCH   1  19
TORSDOF 16
ENDMDL
MODEL 3
REMARK VINA RESULT:     -10.1      3.111      7.370
REMARK SMILES C[C@H]1CC[C@](C#N)([C@H](O)C(=O)NCCCCCCNC(=O)c2ccc(-c3c4nc(c(-c5c(F)cccc5F)c5ccc([nH]5)c(-c5c(F)cccc5F)c5nc(c(-c6c(F)cccc6F)c6ccc3[nH]6)C=C5)C=C4)cc2)C1
REMARK SMILES IDX 15 1 14 2 13 3 12 4 10 5 11 6 8 8 5 9 1 10 2 11 3 12 76 13
REMARK SMILES IDX 4 14 6 15 7 16 9 17 16 19 17 20 18 21 19 22 20 23 21 25
REMARK SMILES IDX 22 26 23 27 75 28 24 29 74 30 25 31 26 32 27 33 68 34 28 35
REMARK SMILES IDX 73 36 67 37 69 38 29 39 72 40 66 41 65 42 30 44 56 45 39 46
REMARK SMILES IDX 55 47 40 48 43 49 54 50 70 51 41 52 42 53 53 55 71 56 44 57
REMARK SMILES IDX 31 58 32 59 37 60 33 61 34 62 36 63 38 64 35 65 57 66 58 67
REMARK SMILES IDX 63 68 59 69 60 70 62 71 64 72 61 73 45 74 46 75 51 76 47 77
REMARK SMILES IDX 48 78 50 79 52 80 49 81
REMARK H PARENT 12 7 9 18 19 24 69 43 43 54
REMARK Flexibility Score: inf
ROOT
ATOM      1  C   UNL A   1      32.621  25.104  26.517  1.00  0.00     0.002 C 
ENDROOT
BRANCH   1   2
ATOM      2  C   UNL A   1      31.872  24.003  25.772  1.00  0.00     0.021 C 
BRANCH   2   3
ATOM      3  C   UNL A   1      31.724  22.696  26.551  1.00  0.00     0.116 C 
BRANCH   3   4
ATOM      4  N   UNL A   1      31.665  21.557  25.674  1.00  0.00    -0.354 N 
ATOM      5  C   UNL A   1      32.563  20.667  25.214  1.00  0.00     0.250 C 
ATOM      6  O   UNL A   1      32.079  19.832  24.426  1.00  0.00    -0.272 OA
ATOM      7  H   UNL A   1      30.758  21.389  25.331  1.00  0.00     0.163 HD
BRANCH   5   8
ATOM      8  C   UNL A   1      34.075  20.513  25.550  1.00  0.00     0.223 C 
BRANCH   8   9
ATOM      9  C   UNL A   1      35.220  21.508  25.245  1.00  0.00     0.092 C 
ATOM     10  C   UNL A   1      37.558  23.888  25.822  1.00  0.00     0.008 C 
ATOM     11  C   UNL A   1      36.038  23.764  25.818  1.00  0.00    -0.013 C 
ATOM     12  C   UNL A   1      35.493  23.814  24.390  1.00  0.00     0.005 C 
ATOM     13  C   UNL A   1      35.520  22.455  26.428  1.00  0.00     0.029 C 
ATOM     14  C   UNL A   1      34.998  22.410  24.020  1.00  0.00     0.026 C 
BRANCH   9  15
ATOM     15  C   UNL A   1      36.475  20.730  25.018  1.00  0.00     0.072 C 
ATOM     16  N   UNL A   1      37.449  20.104  24.904  1.00  0.00    -0.198 NA
ENDBRANCH   9  15
ENDBRANCH   8   9
BRANCH   8  17
ATOM     17  O   UNL A   1      34.378  19.264  24.865  1.00  0.00    -0.382 OA
ATOM     18  H   UNL A   1      33.570  18.730  24.794  1.00  0.00     0.211 HD
ENDBRANCH   8  17
ENDBRANCH   5   8
ENDBRANCH   3   4
ENDBRANCH   2   3
ENDBRANCH   1   2
BRANCH   1  19
ATOM     19  C   UNL A   1      32.815  26.400  25.722  1.00  0.00     0.002 C 
BRANCH  19  20
ATOM     20  C   UNL A   1      33.066  27.660  26.560  1.00  0.00     0.021 C 
BRANCH  20  21
ATOM     21  C   UNL A   1      34.076  28.638  25.963  1.00  0.00     0.116 C 
BRANCH  21  22
ATOM     22  N   UNL A   1      33.859  29.990  26.443  1.00  0.00    -0.352 N 
ATOM     23  C   UNL A   1      34.469  30.682  27.454  1.00  0.00     0.251 C 
ATOM     24  H   UNL A   1      33.158  30.490  25.965  1.00  0.00     0.163 HD
ATOM     25  O   UNL A   1      33.937  31.698  27.894  1.00  0.00    -0.269 OA
BRANCH  23  26
ATOM     26  C   UNL A   1      35.755  30.223  28.016  1.00  0.00     0.039 A 
ATOM     27  C   UNL A   1      35.752  29.646  29.287  1.00  0.00     0.014 A 
ATOM     28  C   UNL A   1      36.964  30.416  27.338  1.00  0.00     0.014 A 
ATOM     29  C   UNL A   1      36.955  29.235  29.862  1.00  0.00     0.010 A 
ATOM     30  C   UNL A   1      38.152  29.924  27.875  1.00  0.00     0.010 A 
ATOM     31  C   UNL A   1      38.161  29.339  29.148  1.00  0.00    -0.014 A 
BRANCH  31  32
ATOM     32  C   UNL A   1      39.419  28.814  29.739  1.00  0.00     0.031 A 
ATOM     33  C   UNL A   1      40.151  27.661  29.111  1.00  0.00     0.074 A 
ATOM     34  C   UNL A   1      39.903  29.392  30.855  1.00  0.00     0.049 A 
ATOM     35  N   UNL A   1      41.301  27.133  29.451  1.00  0.00    -0.248 NA
ATOM     36  C   UNL A   1      39.504  26.998  27.969  1.00  0.00     0.031 C 
ATOM     37  C   UNL A   1      39.253  30.483  31.586  1.00  0.00     0.029 A 
ATOM     38  N   UNL A   1      41.056  29.162  31.559  1.00  0.00    -0.354 N 
ATOM     39  C   UNL A   1      41.512  26.081  28.568  1.00  0.00     0.074 A 
ATOM     40  C   UNL A   1      40.345  26.005  27.718  1.00  0.00     0.031 C 
ATOM     41  C   UNL A   1      40.045  30.866  32.598  1.00  0.00     0.029 A 
ATOM     42  C   UNL A   1      41.233  30.019  32.619  1.00  0.00     0.049 A 
ATOM     43  H   UNL A   1      41.696  28.450  31.329  1.00  0.00     0.167 HD
ATOM     44  C   UNL A   1      42.591  25.267  28.463  1.00  0.00     0.037 A 
ATOM     45  C   UNL A   1      42.241  30.116  33.505  1.00  0.00     0.037 A 
ATOM     46  C   UNL A   1      43.750  25.349  29.315  1.00  0.00     0.049 A 
ATOM     47  C   UNL A   1      43.416  29.188  33.377  1.00  0.00     0.074 A 
ATOM     48  C   UNL A   1      44.918  24.607  29.258  1.00  0.00     0.029 A 
ATOM     49  N   UNL A   1      43.882  26.214  30.393  1.00  0.00    -0.354 N 
ATOM     50  N   UNL A   1      43.642  28.253  32.485  1.00  0.00    -0.248 NA
ATOM     51  C   UNL A   1      44.483  29.336  34.375  1.00  0.00     0.031 C 
ATOM     52  C   UNL A   1      45.721  24.970  30.342  1.00  0.00     0.029 A 
ATOM     53  C   UNL A   1      45.095  25.997  31.028  1.00  0.00     0.049 A 
ATOM     54  H   UNL A   1      43.213  26.882  30.667  1.00  0.00     0.167 HD
ATOM     55  C   UNL A   1      44.891  27.730  32.791  1.00  0.00     0.074 A 
ATOM     56  C   UNL A   1      45.379  28.464  33.939  1.00  0.00     0.031 C 
ATOM     57  C   UNL A   1      45.573  26.733  32.173  1.00  0.00     0.037 A 
BRANCH  44  58
ATOM     58  C   UNL A   1      42.563  24.204  27.398  1.00  0.00     0.057 A 
ATOM     59  C   UNL A   1      43.060  24.427  26.107  1.00  0.00     0.134 A 
ATOM     60  C   UNL A   1      42.064  22.925  27.681  1.00  0.00     0.134 A 
ATOM     61  F   UNL A   1      43.546  25.630  25.763  1.00  0.00    -0.206 F 
ATOM     62  C   UNL A   1      43.033  23.430  25.129  1.00  0.00     0.040 A 
ATOM     63  C   UNL A   1      42.063  21.911  26.722  1.00  0.00     0.040 A 
ATOM     64  F   UNL A   1      41.579  22.636  28.898  1.00  0.00    -0.206 F 
ATOM     65  C   UNL A   1      42.541  22.164  25.438  1.00  0.00     0.006 A 
ENDBRANCH  44  58
BRANCH  45  66
ATOM     66  C   UNL A   1      42.196  31.147  34.574  1.00  0.00     0.057 A 
ATOM     67  C   UNL A   1      42.755  32.416  34.384  1.00  0.00     0.134 A 
ATOM     68  C   UNL A   1      41.606  30.885  35.816  1.00  0.00     0.134 A 
ATOM     69  F   UNL A   1      43.348  32.726  33.220  1.00  0.00    -0.206 F 
ATOM     70  C   UNL A   1      42.754  33.377  35.396  1.00  0.00     0.040 A 
ATOM     71  C   UNL A   1      41.567  31.848  36.827  1.00  0.00     0.040 A 
ATOM     72  F   UNL A   1      41.040  29.693  36.061  1.00  0.00    -0.206 F 
ATOM     73  C   UNL A   1      42.153  33.094  36.621  1.00  0.00     0.006 A 
ENDBRANCH  45  66
BRANCH  57  74
ATOM     74  C   UNL A   1      46.947  26.417  32.697  1.00  0.00     0.057 A 
ATOM     75  C   UNL A   1      47.172  25.430  33.666  1.00  0.00     0.134 A 
ATOM     76  C   UNL A   1      48.066  27.111  32.216  1.00  0.00     0.134 A 
ATOM     77  F   UNL A   1      46.147  24.733  34.180  1.00  0.00    -0.206 F 
ATOM     78  C   UNL A   1      48.451  25.178  34.170  1.00  0.00     0.040 A 
ATOM     79  C   UNL A   1      49.352  26.841  32.683  1.00  0.00     0.040 A 
ATOM     80  F   UNL A   1      47.928  28.059  31.277  1.00  0.00    -0.206 F 
ATOM     81  C   UNL A   1      49.546  25.882  33.674  1.00  0.00     0.006 A 
ENDBRANCH  57  74
ENDBRANCH  31  32
ENDBRANCH  23  26
ENDBRANCH  21  22
ENDBRANCH  20  21
ENDBRANCH  19  20
ENDBRANCH   1  19
TORSDOF 16
ENDMDL
