MODEL 1
REMARK VINA RESULT:     -13.1      0.000      0.000
REMARK SMILES NC(=O)c1cc(NC(=O)/C=C\C(=O)NCCCCCCNC(=O)c2ccc(-c3c4nc(c(-c5c(F)cccc5F)c5ccc([nH]5)c(-c5c(F)cccc5F)c5nc(c(-c6c(F)cccc6F)c6ccc3[nH]6)C=C5)C=C4)cc2)ccc1N1CCOCC1
REMARK SMILES IDX 17 1 16 2 15 3 14 4 12 5 13 6 11 8 10 9 8 10 7 11 9 13 6 14
REMARK SMILES IDX 4 15 5 16 80 17 79 18 78 19 2 20 1 21 3 24 81 25 82 26 86 27
REMARK SMILES IDX 83 28 85 29 84 30 18 31 19 32 20 33 21 34 22 35 23 37 24 38
REMARK SMILES IDX 25 39 77 40 26 41 76 42 27 43 28 44 29 45 70 46 30 47 75 48
REMARK SMILES IDX 69 49 71 50 31 51 74 52 68 53 67 54 32 56 58 57 41 58 57 59
REMARK SMILES IDX 42 60 45 61 56 62 72 63 43 64 44 65 55 67 73 68 46 69 33 70
REMARK SMILES IDX 34 71 39 72 35 73 36 74 38 75 40 76 37 77 59 78 60 79 65 80
REMARK SMILES IDX 61 81 62 82 64 83 66 84 63 85 47 86 48 87 53 88 49 89 50 90
REMARK SMILES IDX 52 91 54 92 51 93
REMARK H PARENT 14 7 7 12 1 22 1 23 21 36 71 55 45 66
REMARK Flexibility Score: inf
ROOT
ATOM      1  C   UNL A   1      35.388  20.940  25.190  1.00  0.00     0.002 C 
ENDROOT
BRANCH   1   2
ATOM      2  C   UNL A   1      34.740  22.234  25.668  1.00  0.00     0.021 C 
BRANCH   2   3
ATOM      3  C   UNL A   1      34.919  23.451  24.714  1.00  0.00     0.116 C 
BRANCH   3   4
ATOM      4  N   UNL A   1      34.950  25.008  25.393  1.00  0.00    -0.353 N 
ATOM      5  C   UNL A   1      33.779  26.490  25.964  1.00  0.00     0.244 C 
ATOM      6  O   UNL A   1      34.056  27.677  26.298  1.00  0.00    -0.270 OA
ATOM      7  H   UNL A   1      35.886  25.261  25.561  1.00  0.00     0.163 HD
BRANCH   5   8
ATOM      8  C   UNL A   1      32.074  26.471  26.318  1.00  0.00     0.077 C 
ATOM      9  C   UNL A   1      31.024  25.621  26.248  1.00  0.00     0.077 C 
BRANCH   9  10
ATOM     10  C   UNL A   1      31.030  24.257  25.652  1.00  0.00     0.248 C 
ATOM     11  N   UNL A   1      30.300  24.147  24.515  1.00  0.00    -0.322 N 
ATOM     12  H   UNL A   1      29.943  23.276  24.225  1.00  0.00     0.170 HD
ATOM     13  O   UNL A   1      31.529  23.301  26.229  1.00  0.00    -0.270 OA
BRANCH  11  14
ATOM     14  C   UNL A   1      30.073  25.291  23.776  1.00  0.00     0.042 A 
ATOM     15  C   UNL A   1      31.302  27.967  22.597  1.00  0.00     0.064 A 
ATOM     16  C   UNL A   1      31.521  26.213  23.052  1.00  0.00     0.042 A 
ATOM     17  C   UNL A   1      29.678  28.785  22.753  1.00  0.00     0.050 A 
ATOM     18  C   UNL A   1      28.242  27.813  23.371  1.00  0.00     0.029 A 
ATOM     19  C   UNL A   1      28.444  26.094  23.915  1.00  0.00     0.028 A 
BRANCH  15  20
ATOM     20  C   UNL A   1      32.540  28.720  22.874  1.00  0.00     0.250 C 
ATOM     21  N   UNL A   1      32.515  29.360  24.080  1.00  0.00    -0.366 N 
ATOM     22  H   UNL A   1      33.289  29.895  24.369  1.00  0.00     0.159 HD
ATOM     23  H   UNL A   1      31.722  29.289  24.660  1.00  0.00     0.159 HD
ATOM     24  O   UNL A   1      33.536  28.631  22.177  1.00  0.00    -0.269 OA
ENDBRANCH  15  20
BRANCH  17  25
ATOM     25  N   UNL A   1      29.516  30.176  22.657  1.00  0.00    -0.366 N 
ATOM     26  C   UNL A   1      29.250  31.117  23.768  1.00  0.00     0.145 C 
ATOM     27  C   UNL A   1      29.408  30.812  21.332  1.00  0.00     0.145 C 
ATOM     28  C   UNL A   1      27.964  31.952  23.511  1.00  0.00     0.181 C 
ATOM     29  C   UNL A   1      28.065  31.541  21.202  1.00  0.00     0.181 C 
ATOM     30  O   UNL A   1      27.945  32.555  22.207  1.00  0.00    -0.378 OA
ENDBRANCH  17  25
ENDBRANCH  11  14
ENDBRANCH   9  10
ENDBRANCH   5   8
ENDBRANCH   3   4
ENDBRANCH   2   3
ENDBRANCH   1   2
BRANCH   1  31
ATOM     31  C   UNL A   1      36.774  21.193  24.609  1.00  0.00     0.002 C 
BRANCH  31  32
ATOM     32  C   UNL A   1      37.797  20.100  24.939  1.00  0.00     0.021 C 
BRANCH  32  33
ATOM     33  C   UNL A   1      38.992  20.602  25.739  1.00  0.00     0.116 C 
BRANCH  33  34
ATOM     34  N   UNL A   1      39.946  19.522  25.947  1.00  0.00    -0.352 N 
ATOM     35  C   UNL A   1      41.304  19.648  26.100  1.00  0.00     0.251 C 
ATOM     36  H   UNL A   1      39.580  18.610  25.981  1.00  0.00     0.163 HD
ATOM     37  O   UNL A   1      42.066  18.724  25.850  1.00  0.00    -0.269 OA
BRANCH  35  38
ATOM     38  C   UNL A   1      41.812  20.941  26.591  1.00  0.00     0.039 A 
ATOM     39  C   UNL A   1      42.263  21.900  25.686  1.00  0.00     0.014 A 
ATOM     40  C   UNL A   1      41.768  21.204  27.964  1.00  0.00     0.014 A 
ATOM     41  C   UNL A   1      42.646  23.149  26.167  1.00  0.00     0.010 A 
ATOM     42  C   UNL A   1      42.055  22.478  28.425  1.00  0.00     0.010 A 
ATOM     43  C   UNL A   1      42.521  23.455  27.534  1.00  0.00    -0.014 A 
BRANCH  43  44
ATOM     44  C   UNL A   1      42.905  24.784  28.060  1.00  0.00     0.031 A 
ATOM     45  C   UNL A   1      41.848  25.831  28.279  1.00  0.00     0.074 A 
ATOM     46  C   UNL A   1      44.201  25.060  28.297  1.00  0.00     0.049 A 
ATOM     47  N   UNL A   1      41.981  27.062  28.701  1.00  0.00    -0.248 NA
ATOM     48  C   UNL A   1      40.461  25.454  27.956  1.00  0.00     0.031 C 
ATOM     49  C   UNL A   1      45.317  24.137  28.077  1.00  0.00     0.029 A 
ATOM     50  N   UNL A   1      44.799  26.198  28.773  1.00  0.00    -0.354 N 
ATOM     51  C   UNL A   1      40.701  27.603  28.688  1.00  0.00     0.074 A 
ATOM     52  C   UNL A   1      39.818  26.594  28.147  1.00  0.00     0.031 C 
ATOM     53  C   UNL A   1      46.459  24.733  28.454  1.00  0.00     0.029 A 
ATOM     54  C   UNL A   1      46.163  26.093  28.892  1.00  0.00     0.049 A 
ATOM     55  H   UNL A   1      44.298  27.012  29.008  1.00  0.00     0.167 HD
ATOM     56  C   UNL A   1      40.295  28.821  29.115  1.00  0.00     0.037 A 
ATOM     57  C   UNL A   1      47.072  26.998  29.300  1.00  0.00     0.037 A 
ATOM     58  C   UNL A   1      41.182  29.815  29.656  1.00  0.00     0.049 A 
ATOM     59  C   UNL A   1      46.601  28.360  29.729  1.00  0.00     0.074 A 
ATOM     60  C   UNL A   1      40.869  31.064  30.160  1.00  0.00     0.029 A 
ATOM     61  N   UNL A   1      42.560  29.678  29.749  1.00  0.00    -0.354 N 
ATOM     62  N   UNL A   1      45.378  28.836  29.782  1.00  0.00    -0.248 NA
ATOM     63  C   UNL A   1      47.633  29.312  30.160  1.00  0.00     0.031 C 
ATOM     64  C   UNL A   1      42.064  31.712  30.489  1.00  0.00     0.029 A 
ATOM     65  C   UNL A   1      43.115  30.836  30.269  1.00  0.00     0.049 A 
ATOM     66  H   UNL A   1      43.067  28.877  29.486  1.00  0.00     0.167 HD
ATOM     67  C   UNL A   1      45.492  30.126  30.284  1.00  0.00     0.074 A 
ATOM     68  C   UNL A   1      46.901  30.351  30.534  1.00  0.00     0.031 C 
ATOM     69  C   UNL A   1      44.520  31.042  30.516  1.00  0.00     0.037 A 
BRANCH  56  70
ATOM     70  C   UNL A   1      38.832  29.143  29.003  1.00  0.00     0.057 A 
ATOM     71  C   UNL A   1      38.250  29.558  27.797  1.00  0.00     0.134 A 
ATOM     72  C   UNL A   1      37.987  29.014  30.113  1.00  0.00     0.134 A 
ATOM     73  F   UNL A   1      39.002  29.714  26.697  1.00  0.00    -0.206 F 
ATOM     74  C   UNL A   1      36.891  29.866  27.708  1.00  0.00     0.040 A 
ATOM     75  C   UNL A   1      36.620  29.283  30.027  1.00  0.00     0.040 A 
ATOM     76  F   UNL A   1      38.473  28.617  31.299  1.00  0.00    -0.206 F 
ATOM     77  C   UNL A   1      36.070  29.721  28.824  1.00  0.00     0.006 A 
ENDBRANCH  56  70
BRANCH  57  78
ATOM     78  C   UNL A   1      48.515  26.644  29.332  1.00  0.00     0.057 A 
ATOM     79  C   UNL A   1      49.325  26.796  28.200  1.00  0.00     0.134 A 
ATOM     80  C   UNL A   1      49.116  26.134  30.488  1.00  0.00     0.134 A 
ATOM     81  F   UNL A   1      48.807  27.267  27.056  1.00  0.00    -0.206 F 
ATOM     82  C   UNL A   1      50.671  26.426  28.208  1.00  0.00     0.040 A 
ATOM     83  C   UNL A   1      50.469  25.790  30.520  1.00  0.00     0.040 A 
ATOM     84  F   UNL A   1      48.400  25.975  31.612  1.00  0.00    -0.206 F 
ATOM     85  C   UNL A   1      51.247  25.925  29.373  1.00  0.00     0.006 A 
ENDBRANCH  57  78
BRANCH  69  86
ATOM     86  C   UNL A   1      44.939  32.356  31.114  1.00  0.00     0.057 A 
ATOM     87  C   UNL A   1      45.032  32.552  32.498  1.00  0.00     0.134 A 
ATOM     88  C   UNL A   1      45.296  33.430  30.286  1.00  0.00     0.134 A 
ATOM     89  F   UNL A   1      44.696  31.569  33.348  1.00  0.00    -0.206 F 
ATOM     90  C   UNL A   1      45.431  33.776  33.037  1.00  0.00     0.040 A 
ATOM     91  C   UNL A   1      45.734  34.645  30.813  1.00  0.00     0.040 A 
ATOM     92  F   UNL A   1      45.245  33.308  28.952  1.00  0.00    -0.206 F 
ATOM     93  C   UNL A   1      45.791  34.824  32.193  1.00  0.00     0.006 A 
ENDBRANCH  69  86
ENDBRANCH  43  44
ENDBRANCH  35  38
ENDBRANCH  33  34
ENDBRANCH  32  33
ENDBRANCH  31  32
ENDBRANCH   1  31
TORSDOF 17
ENDMDL
MODEL 2
REMARK VINA RESULT:     -12.4      1.342      2.494
REMARK SMILES NC(=O)c1cc(NC(=O)/C=C\C(=O)NCCCCCCNC(=O)c2ccc(-c3c4nc(c(-c5c(F)cccc5F)c5ccc([nH]5)c(-c5c(F)cccc5F)c5nc(c(-c6c(F)cccc6F)c6ccc3[nH]6)C=C5)C=C4)cc2)ccc1N1CCOCC1
REMARK SMILES IDX 17 1 16 2 15 3 14 4 12 5 13 6 11 8 10 9 8 10 7 11 9 13 6 14
REMARK SMILES IDX 4 15 5 16 80 17 79 18 78 19 2 20 1 21 3 24 81 25 82 26 86 27
REMARK SMILES IDX 83 28 85 29 84 30 18 31 19 32 20 33 21 34 22 35 23 37 24 38
REMARK SMILES IDX 25 39 77 40 26 41 76 42 27 43 28 44 29 45 70 46 30 47 75 48
REMARK SMILES IDX 69 49 71 50 31 51 74 52 68 53 67 54 32 56 58 57 41 58 57 59
REMARK SMILES IDX 42 60 45 61 56 62 72 63 43 64 44 65 55 67 73 68 46 69 33 70
REMARK SMILES IDX 34 71 39 72 35 73 36 74 38 75 40 76 37 77 59 78 60 79 65 80
REMARK SMILES IDX 61 81 62 82 64 83 66 84 63 85 47 86 48 87 53 88 49 89 50 90
REMARK SMILES IDX 52 91 54 92 51 93
REMARK H PARENT 14 7 7 12 1 22 1 23 21 36 71 55 45 66
REMARK Flexibility Score: inf
ROOT
ATOM      1  C   UNL A   1      35.720  20.711  25.152  1.00  0.00     0.002 C 
ENDROOT
BRANCH   1   2
ATOM      2  C   UNL A   1      35.166  21.779  26.087  1.00  0.00     0.021 C 
BRANCH   2   3
ATOM      3  C   UNL A   1      34.258  21.245  27.234  1.00  0.00     0.116 C 
BRANCH   3   4
ATOM      4  N   UNL A   1      32.808  22.068  27.563  1.00  0.00    -0.353 N 
ATOM      5  C   UNL A   1      31.388  23.139  26.709  1.00  0.00     0.244 C 
ATOM      6  O   UNL A   1      30.454  23.822  27.216  1.00  0.00    -0.270 OA
ATOM      7  H   UNL A   1      32.606  21.979  28.522  1.00  0.00     0.163 HD
BRANCH   5   8
ATOM      8  C   UNL A   1      30.968  23.264  25.024  1.00  0.00     0.077 C 
ATOM      9  C   UNL A   1      31.359  22.759  23.831  1.00  0.00     0.077 C 
BRANCH   9  10
ATOM     10  C   UNL A   1      32.530  21.872  23.589  1.00  0.00     0.248 C 
ATOM     11  N   UNL A   1      33.504  22.435  22.833  1.00  0.00    -0.322 N 
ATOM     12  H   UNL A   1      34.136  21.878  22.324  1.00  0.00     0.170 HD
ATOM     13  O   UNL A   1      32.531  20.696  23.923  1.00  0.00    -0.270 OA
BRANCH  11  14
ATOM     14  C   UNL A   1      33.582  23.813  22.796  1.00  0.00     0.042 A 
ATOM     15  C   UNL A   1      33.723  26.501  24.477  1.00  0.00     0.064 A 
ATOM     16  C   UNL A   1      34.156  24.735  24.311  1.00  0.00     0.042 A 
ATOM     17  C   UNL A   1      32.829  27.380  23.151  1.00  0.00     0.050 A 
ATOM     18  C   UNL A   1      32.372  26.465  21.620  1.00  0.00     0.029 A 
ATOM     19  C   UNL A   1      32.708  24.689  21.459  1.00  0.00     0.028 A 
BRANCH  15  20
ATOM     20  C   UNL A   1      33.456  26.825  25.891  1.00  0.00     0.250 C 
ATOM     21  N   UNL A   1      32.262  26.334  26.333  1.00  0.00    -0.366 N 
ATOM     22  H   UNL A   1      31.979  26.490  27.263  1.00  0.00     0.159 HD
ATOM     23  H   UNL A   1      31.682  25.822  25.723  1.00  0.00     0.159 HD
ATOM     24  O   UNL A   1      34.293  27.326  26.622  1.00  0.00    -0.269 OA
ENDBRANCH  15  20
BRANCH  17  25
ATOM     25  N   UNL A   1      32.259  28.650  23.331  1.00  0.00    -0.366 N 
ATOM     26  C   UNL A   1      32.588  29.629  24.391  1.00  0.00     0.145 C 
ATOM     27  C   UNL A   1      31.085  29.047  22.532  1.00  0.00     0.145 C 
ATOM     28  C   UNL A   1      31.323  30.045  25.194  1.00  0.00     0.181 C 
ATOM     29  C   UNL A   1      29.901  29.364  23.453  1.00  0.00     0.181 C 
ATOM     30  O   UNL A   1      30.232  30.437  24.345  1.00  0.00    -0.378 OA
ENDBRANCH  17  25
ENDBRANCH  11  14
ENDBRANCH   9  10
ENDBRANCH   5   8
ENDBRANCH   3   4
ENDBRANCH   2   3
ENDBRANCH   1   2
BRANCH   1  31
ATOM     31  C   UNL A   1      37.128  21.058  24.684  1.00  0.00     0.002 C 
BRANCH  31  32
ATOM     32  C   UNL A   1      38.140  19.918  24.855  1.00  0.00     0.021 C 
BRANCH  32  33
ATOM     33  C   UNL A   1      39.011  20.056  26.097  1.00  0.00     0.116 C 
BRANCH  33  34
ATOM     34  N   UNL A   1      40.236  19.284  25.938  1.00  0.00    -0.352 N 
ATOM     35  C   UNL A   1      41.513  19.781  25.867  1.00  0.00     0.251 C 
ATOM     36  H   UNL A   1      40.138  18.308  25.876  1.00  0.00     0.163 HD
ATOM     37  O   UNL A   1      42.415  19.156  25.326  1.00  0.00    -0.269 OA
BRANCH  35  38
ATOM     38  C   UNL A   1      41.761  21.098  26.479  1.00  0.00     0.039 A 
ATOM     39  C   UNL A   1      41.771  21.230  27.866  1.00  0.00     0.014 A 
ATOM     40  C   UNL A   1      42.047  22.184  25.646  1.00  0.00     0.014 A 
ATOM     41  C   UNL A   1      42.104  22.462  28.422  1.00  0.00     0.010 A 
ATOM     42  C   UNL A   1      42.474  23.378  26.203  1.00  0.00     0.010 A 
ATOM     43  C   UNL A   1      42.481  23.537  27.595  1.00  0.00    -0.014 A 
BRANCH  43  44
ATOM     44  C   UNL A   1      42.857  24.848  28.169  1.00  0.00     0.031 A 
ATOM     45  C   UNL A   1      41.799  25.894  28.390  1.00  0.00     0.074 A 
ATOM     46  C   UNL A   1      44.148  25.110  28.449  1.00  0.00     0.049 A 
ATOM     47  N   UNL A   1      41.927  27.112  28.851  1.00  0.00    -0.248 NA
ATOM     48  C   UNL A   1      40.421  25.534  28.019  1.00  0.00     0.031 C 
ATOM     49  C   UNL A   1      45.264  24.188  28.233  1.00  0.00     0.029 A 
ATOM     50  N   UNL A   1      44.738  26.230  28.974  1.00  0.00    -0.354 N 
ATOM     51  C   UNL A   1      40.651  27.660  28.819  1.00  0.00     0.074 A 
ATOM     52  C   UNL A   1      39.778  26.672  28.226  1.00  0.00     0.031 C 
ATOM     53  C   UNL A   1      46.399  24.765  28.658  1.00  0.00     0.029 A 
ATOM     54  C   UNL A   1      46.097  26.114  29.127  1.00  0.00     0.049 A 
ATOM     55  H   UNL A   1      44.235  27.040  29.219  1.00  0.00     0.167 HD
ATOM     56  C   UNL A   1      40.239  28.867  29.270  1.00  0.00     0.037 A 
ATOM     57  C   UNL A   1      47.000  27.001  29.585  1.00  0.00     0.037 A 
ATOM     58  C   UNL A   1      41.116  29.840  29.864  1.00  0.00     0.049 A 
ATOM     59  C   UNL A   1      46.523  28.354  30.041  1.00  0.00     0.074 A 
ATOM     60  C   UNL A   1      40.795  31.076  30.395  1.00  0.00     0.029 A 
ATOM     61  N   UNL A   1      42.490  29.693  29.990  1.00  0.00    -0.354 N 
ATOM     62  N   UNL A   1      45.302  28.834  30.075  1.00  0.00    -0.248 NA
ATOM     63  C   UNL A   1      47.548  29.286  30.527  1.00  0.00     0.031 C 
ATOM     64  C   UNL A   1      41.983  31.707  30.775  1.00  0.00     0.029 A 
ATOM     65  C   UNL A   1      43.036  30.833  30.558  1.00  0.00     0.049 A 
ATOM     66  H   UNL A   1      43.000  28.897  29.717  1.00  0.00     0.167 HD
ATOM     67  C   UNL A   1      45.409  30.109  30.616  1.00  0.00     0.074 A 
ATOM     68  C   UNL A   1      46.812  30.318  30.911  1.00  0.00     0.031 C 
ATOM     69  C   UNL A   1      44.435  31.024  30.849  1.00  0.00     0.037 A 
BRANCH  56  70
ATOM     70  C   UNL A   1      38.781  29.200  29.128  1.00  0.00     0.057 A 
ATOM     71  C   UNL A   1      37.895  29.149  30.214  1.00  0.00     0.134 A 
ATOM     72  C   UNL A   1      38.259  29.601  27.892  1.00  0.00     0.134 A 
ATOM     73  F   UNL A   1      38.324  28.762  31.425  1.00  0.00    -0.206 F 
ATOM     74  C   UNL A   1      36.540  29.449  30.067  1.00  0.00     0.040 A 
ATOM     75  C   UNL A   1      36.913  29.939  27.741  1.00  0.00     0.040 A 
ATOM     76  F   UNL A   1      39.048  29.677  26.810  1.00  0.00    -0.206 F 
ATOM     77  C   UNL A   1      36.047  29.854  28.828  1.00  0.00     0.006 A 
ENDBRANCH  56  70
BRANCH  57  78
ATOM     78  C   UNL A   1      48.439  26.639  29.646  1.00  0.00     0.057 A 
ATOM     79  C   UNL A   1      48.971  25.962  30.749  1.00  0.00     0.134 A 
ATOM     80  C   UNL A   1      49.321  26.974  28.611  1.00  0.00     0.134 A 
ATOM     81  F   UNL A   1      48.183  25.626  31.781  1.00  0.00    -0.206 F 
ATOM     82  C   UNL A   1      50.331  25.656  30.835  1.00  0.00     0.040 A 
ATOM     83  C   UNL A   1      50.676  26.645  28.668  1.00  0.00     0.040 A 
ATOM     84  F   UNL A   1      48.874  27.612  27.519  1.00  0.00    -0.206 F 
ATOM     85  C   UNL A   1      51.187  25.995  29.789  1.00  0.00     0.006 A 
ENDBRANCH  57  78
BRANCH  69  86
ATOM     86  C   UNL A   1      44.844  32.317  31.495  1.00  0.00     0.057 A 
ATOM     87  C   UNL A   1      44.897  32.473  32.887  1.00  0.00     0.134 A 
ATOM     88  C   UNL A   1      45.232  33.411  30.710  1.00  0.00     0.134 A 
ATOM     89  F   UNL A   1      44.530  31.469  33.698  1.00  0.00    -0.206 F 
ATOM     90  C   UNL A   1      45.287  33.679  33.472  1.00  0.00     0.040 A 
ATOM     91  C   UNL A   1      45.661  34.608  31.283  1.00  0.00     0.040 A 
ATOM     92  F   UNL A   1      45.219  33.327  29.371  1.00  0.00    -0.206 F 
ATOM     93  C   UNL A   1      45.678  34.748  32.669  1.00  0.00     0.006 A 
ENDBRANCH  69  86
ENDBRANCH  43  44
ENDBRANCH  35  38
ENDBRANCH  33  34
ENDBRANCH  32  33
ENDBRANCH  31  32
ENDBRANCH   1  31
TORSDOF 17
ENDMDL
MODEL 3
REMARK VINA RESULT:     -12.4      2.166      2.892
REMARK SMILES NC(=O)c1cc(NC(=O)/C=C\C(=O)NCCCCCCNC(=O)c2ccc(-c3c4nc(c(-c5c(F)cccc5F)c5ccc([nH]5)c(-c5c(F)cccc5F)c5nc(c(-c6c(F)cccc6F)c6ccc3[nH]6)C=C5)C=C4)cc2)ccc1N1CCOCC1
REMARK SMILES IDX 17 1 16 2 15 3 14 4 12 5 13 6 11 8 10 9 8 10 7 11 9 13 6 14
REMARK SMILES IDX 4 15 5 16 80 17 79 18 78 19 2 20 1 21 3 24 81 25 82 26 86 27
REMARK SMILES IDX 83 28 85 29 84 30 18 31 19 32 20 33 21 34 22 35 23 37 24 38
REMARK SMILES IDX 25 39 77 40 26 41 76 42 27 43 28 44 29 45 70 46 30 47 75 48
REMARK SMILES IDX 69 49 71 50 31 51 74 52 68 53 67 54 32 56 58 57 41 58 57 59
REMARK SMILES IDX 42 60 45 61 56 62 72 63 43 64 44 65 55 67 73 68 46 69 33 70
REMARK SMILES IDX 34 71 39 72 35 73 36 74 38 75 40 76 37 77 59 78 60 79 65 80
REMARK SMILES IDX 61 81 62 82 64 83 66 84 63 85 47 86 48 87 53 88 49 89 50 90
REMARK SMILES IDX 52 91 54 92 51 93
REMARK H PARENT 14 7 7 12 1 22 1 23 21 36 71 55 45 66
REMARK Flexibility Score: inf
ROOT
ATOM      1  C   UNL A   1      35.618  20.706  25.017  1.00  0.00     0.002 C 
ENDROOT
BRANCH   1   2
ATOM      2  C   UNL A   1      35.081  21.734  26.006  1.00  0.00     0.021 C 
BRANCH   2   3
ATOM      3  C   UNL A   1      34.187  21.153  27.141  1.00  0.00     0.116 C 
BRANCH   3   4
ATOM      4  N   UNL A   1      32.746  21.965  27.527  1.00  0.00    -0.353 N 
ATOM      5  C   UNL A   1      31.242  22.954  26.718  1.00  0.00     0.244 C 
ATOM      6  O   UNL A   1      30.331  23.648  27.252  1.00  0.00    -0.270 OA
ATOM      7  H   UNL A   1      32.615  21.932  28.502  1.00  0.00     0.163 HD
BRANCH   5   8
ATOM      8  C   UNL A   1      30.697  22.967  25.065  1.00  0.00     0.077 C 
ATOM      9  C   UNL A   1      31.181  22.721  23.826  1.00  0.00     0.077 C 
BRANCH   9  10
ATOM     10  C   UNL A   1      32.594  22.409  23.475  1.00  0.00     0.248 C 
ATOM     11  N   UNL A   1      33.374  23.502  23.293  1.00  0.00    -0.322 N 
ATOM     12  H   UNL A   1      34.188  23.457  22.742  1.00  0.00     0.170 HD
ATOM     13  O   UNL A   1      32.963  21.269  23.232  1.00  0.00    -0.270 OA
BRANCH  11  14
ATOM     14  C   UNL A   1      32.992  24.681  23.902  1.00  0.00     0.042 A 
ATOM     15  C   UNL A   1      32.319  27.758  23.523  1.00  0.00     0.064 A 
ATOM     16  C   UNL A   1      32.281  26.056  22.865  1.00  0.00     0.042 A 
ATOM     17  C   UNL A   1      32.950  28.105  25.201  1.00  0.00     0.050 A 
ATOM     18  C   UNL A   1      33.544  26.707  26.240  1.00  0.00     0.029 A 
ATOM     19  C   UNL A   1      33.603  25.016  25.585  1.00  0.00     0.028 A 
BRANCH  15  20
ATOM     20  C   UNL A   1      32.557  28.719  22.430  1.00  0.00     0.250 C 
ATOM     21  N   UNL A   1      31.442  29.432  22.094  1.00  0.00    -0.366 N 
ATOM     22  H   UNL A   1      31.485  30.103  21.376  1.00  0.00     0.159 HD
ATOM     23  H   UNL A   1      30.595  29.274  22.570  1.00  0.00     0.159 HD
ATOM     24  O   UNL A   1      33.671  28.966  22.000  1.00  0.00    -0.269 OA
ENDBRANCH  15  20
BRANCH  17  25
ATOM     25  N   UNL A   1      33.231  29.404  25.653  1.00  0.00    -0.366 N 
ATOM     26  C   UNL A   1      34.466  29.861  26.327  1.00  0.00     0.145 C 
ATOM     27  C   UNL A   1      32.170  30.427  25.652  1.00  0.00     0.145 C 
ATOM     28  C   UNL A   1      34.155  30.525  27.698  1.00  0.00     0.181 C 
ATOM     29  C   UNL A   1      31.928  30.941  27.077  1.00  0.00     0.181 C 
ATOM     30  O   UNL A   1      33.125  31.523  27.610  1.00  0.00    -0.378 OA
ENDBRANCH  17  25
ENDBRANCH  11  14
ENDBRANCH   9  10
ENDBRANCH   5   8
ENDBRANCH   3   4
ENDBRANCH   2   3
ENDBRANCH   1   2
BRANCH   1  31
ATOM     31  C   UNL A   1      37.064  21.000  24.639  1.00  0.00     0.002 C 
BRANCH  31  32
ATOM     32  C   UNL A   1      38.043  19.877  25.003  1.00  0.00     0.021 C 
BRANCH  32  33
ATOM     33  C   UNL A   1      39.209  20.339  25.867  1.00  0.00     0.116 C 
BRANCH  33  34
ATOM     34  N   UNL A   1      40.139  19.239  26.084  1.00  0.00    -0.352 N 
ATOM     35  C   UNL A   1      41.509  19.309  26.062  1.00  0.00     0.251 C 
ATOM     36  H   UNL A   1      39.744  18.357  26.266  1.00  0.00     0.163 HD
ATOM     37  O   UNL A   1      42.197  18.324  25.832  1.00  0.00    -0.269 OA
BRANCH  35  38
ATOM     38  C   UNL A   1      42.124  20.618  26.338  1.00  0.00     0.039 A 
ATOM     39  C   UNL A   1      42.487  21.453  25.282  1.00  0.00     0.014 A 
ATOM     40  C   UNL A   1      42.271  21.027  27.668  1.00  0.00     0.014 A 
ATOM     41  C   UNL A   1      42.975  22.725  25.569  1.00  0.00     0.010 A 
ATOM     42  C   UNL A   1      42.662  22.326  27.944  1.00  0.00     0.010 A 
ATOM     43  C   UNL A   1      43.043  23.179  26.899  1.00  0.00    -0.014 A 
BRANCH  43  44
ATOM     44  C   UNL A   1      43.541  24.535  27.221  1.00  0.00     0.031 A 
ATOM     45  C   UNL A   1      42.576  25.590  27.690  1.00  0.00     0.074 A 
ATOM     46  C   UNL A   1      44.844  24.825  27.051  1.00  0.00     0.049 A 
ATOM     47  N   UNL A   1      42.806  26.842  27.991  1.00  0.00    -0.248 NA
ATOM     48  C   UNL A   1      41.163  25.193  27.808  1.00  0.00     0.031 C 
ATOM     49  C   UNL A   1      45.862  23.895  26.559  1.00  0.00     0.029 A 
ATOM     50  N   UNL A   1      45.535  25.988  27.273  1.00  0.00    -0.354 N 
ATOM     51  C   UNL A   1      41.569  27.378  28.328  1.00  0.00     0.074 A 
ATOM     52  C   UNL A   1      40.584  26.341  28.123  1.00  0.00     0.031 C 
ATOM     53  C   UNL A   1      47.053  24.512  26.553  1.00  0.00     0.029 A 
ATOM     54  C   UNL A   1      46.875  25.892  26.990  1.00  0.00     0.049 A 
ATOM     55  H   UNL A   1      45.112  26.813  27.604  1.00  0.00     0.167 HD
ATOM     56  C   UNL A   1      41.285  28.616  28.795  1.00  0.00     0.037 A 
ATOM     57  C   UNL A   1      47.848  26.820  27.066  1.00  0.00     0.037 A 
ATOM     58  C   UNL A   1      42.275  29.639  29.000  1.00  0.00     0.049 A 
ATOM     59  C   UNL A   1      47.500  28.202  27.546  1.00  0.00     0.074 A 
ATOM     60  C   UNL A   1      42.102  30.913  29.510  1.00  0.00     0.029 A 
ATOM     61  N   UNL A   1      43.621  29.511  28.690  1.00  0.00    -0.354 N 
ATOM     62  N   UNL A   1      46.339  28.677  27.933  1.00  0.00    -0.248 NA
ATOM     63  C   UNL A   1      48.597  29.177  27.605  1.00  0.00     0.031 C 
ATOM     64  C   UNL A   1      43.329  31.580  29.440  1.00  0.00     0.029 A 
ATOM     65  C   UNL A   1      44.284  30.696  28.964  1.00  0.00     0.049 A 
ATOM     66  H   UNL A   1      44.043  28.698  28.329  1.00  0.00     0.167 HD
ATOM     67  C   UNL A   1      46.573  29.992  28.313  1.00  0.00     0.074 A 
ATOM     68  C   UNL A   1      47.989  30.233  28.126  1.00  0.00     0.031 C 
ATOM     69  C   UNL A   1      45.696  30.918  28.776  1.00  0.00     0.037 A 
BRANCH  56  70
ATOM     70  C   UNL A   1      39.849  28.929  29.103  1.00  0.00     0.057 A 
ATOM     71  C   UNL A   1      38.961  29.397  28.124  1.00  0.00     0.134 A 
ATOM     72  C   UNL A   1      39.339  28.736  30.393  1.00  0.00     0.134 A 
ATOM     73  F   UNL A   1      39.385  29.616  26.870  1.00  0.00    -0.206 F 
ATOM     74  C   UNL A   1      37.631  29.696  28.425  1.00  0.00     0.040 A 
ATOM     75  C   UNL A   1      38.002  28.996  30.697  1.00  0.00     0.040 A 
ATOM     76  F   UNL A   1      40.128  28.286  31.380  1.00  0.00    -0.206 F 
ATOM     77  C   UNL A   1      37.146  29.488  29.714  1.00  0.00     0.006 A 
ENDBRANCH  56  70
BRANCH  57  78
ATOM     78  C   UNL A   1      49.243  26.472  26.689  1.00  0.00     0.057 A 
ATOM     79  C   UNL A   1      49.712  26.665  25.385  1.00  0.00     0.134 A 
ATOM     80  C   UNL A   1      50.135  25.924  27.618  1.00  0.00     0.134 A 
ATOM     81  F   UNL A   1      48.903  27.172  24.443  1.00  0.00    -0.206 F 
ATOM     82  C   UNL A   1      51.007  26.301  25.010  1.00  0.00     0.040 A 
ATOM     83  C   UNL A   1      51.443  25.585  27.267  1.00  0.00     0.040 A 
ATOM     84  F   UNL A   1      49.754  25.724  28.889  1.00  0.00    -0.206 F 
ATOM     85  C   UNL A   1      51.878  25.763  25.955  1.00  0.00     0.006 A 
ENDBRANCH  57  78
BRANCH  69  86
ATOM     86  C   UNL A   1      46.249  32.263  29.157  1.00  0.00     0.057 A 
ATOM     87  C   UNL A   1      46.778  32.520  30.429  1.00  0.00     0.134 A 
ATOM     88  C   UNL A   1      46.291  33.304  28.219  1.00  0.00     0.134 A 
ATOM     89  F   UNL A   1      46.762  31.570  31.377  1.00  0.00    -0.206 F 
ATOM     90  C   UNL A   1      47.296  33.772  30.764  1.00  0.00     0.040 A 
ATOM     91  C   UNL A   1      46.841  34.547  28.531  1.00  0.00     0.040 A 
ATOM     92  F   UNL A   1      45.815  33.123  26.979  1.00  0.00    -0.206 F 
ATOM     93  C   UNL A   1      47.336  34.787  29.811  1.00  0.00     0.006 A 
ENDBRANCH  69  86
ENDBRANCH  43  44
ENDBRANCH  35  38
ENDBRANCH  33  34
ENDBRANCH  32  33
ENDBRANCH  31  32
ENDBRANCH   1  31
TORSDOF 17
ENDMDL
