MODEL 1
REMARK VINA RESULT:     -12.4      0.000      0.000
REMARK SMILES CC(C)Cc1ccc(-c2cc(Cl)cc3c2O[C@H](C(F)(F)F)C(C(=O)NCCCCCCNC(=O)c2ccc(-c4c5nc(c(-c6c(F)cccc6F)c6ccc([nH]6)c(-c6c(F)cccc6F)c6nc(c(-c7c(F)cccc7F)c7ccc4[nH]7)C=C6)C=C5)cc2)=C3)cc1
REMARK SMILES IDX 28 1 27 2 26 3 25 4 23 5 24 6 22 8 9 9 10 10 15 11 11 12
REMARK SMILES IDX 14 13 16 14 12 15 13 16 89 17 17 18 8 19 5 20 6 21 91 22
REMARK SMILES IDX 7 23 90 24 4 25 2 26 1 27 3 28 18 29 19 30 20 31 21 32 29 33
REMARK SMILES IDX 30 34 31 35 32 36 33 37 34 39 35 40 36 41 88 42 37 43 87 44
REMARK SMILES IDX 38 45 39 46 40 47 81 48 41 49 86 50 80 51 82 52 42 53 85 54
REMARK SMILES IDX 79 55 78 56 43 58 69 59 52 60 68 61 53 62 56 63 67 64 83 65
REMARK SMILES IDX 54 66 55 67 66 69 84 70 57 71 44 72 45 73 50 74 46 75 47 76
REMARK SMILES IDX 49 77 51 78 48 79 70 80 71 81 76 82 72 83 73 84 75 85 77 86
REMARK SMILES IDX 74 87 58 88 59 89 64 90 60 91 61 92 63 93 65 94 62 95
REMARK H PARENT 25 7 32 38 82 57 56 68
REMARK Flexibility Score: inf
ROOT
ATOM      1  C   UNL A   1      29.867  30.557  24.054  1.00  0.00     0.002 C 
ENDROOT
BRANCH   1   2
ATOM      2  C   UNL A   1      29.865  29.205  23.320  1.00  0.00     0.021 C 
BRANCH   2   3
ATOM      3  C   UNL A   1      31.004  29.019  22.305  1.00  0.00     0.116 C 
BRANCH   3   4
ATOM      4  N   UNL A   1      31.283  27.609  22.125  1.00  0.00    -0.352 N 
ATOM      5  C   UNL A   1      32.349  26.969  22.672  1.00  0.00     0.251 C 
ATOM      6  O   UNL A   1      33.129  26.346  21.964  1.00  0.00    -0.270 OA
ATOM      7  H   UNL A   1      30.662  27.081  21.574  1.00  0.00     0.163 HD
BRANCH   5   8
ATOM      8  C   UNL A   1      32.397  26.935  24.164  1.00  0.00     0.067 C 
ATOM      9  C   UNL A   1      34.540  23.517  24.686  1.00  0.00     0.026 A 
ATOM     10  C   UNL A   1      34.017  22.593  23.741  1.00  0.00     0.033 A 
ATOM     11  C   UNL A   1      33.778  24.681  24.900  1.00  0.00     0.135 A 
ATOM     12  C   UNL A   1      32.732  22.700  23.218  1.00  0.00     0.042 A 
ATOM     13  C   UNL A   1      32.431  24.709  24.453  1.00  0.00     0.019 A 
ATOM     14  O   UNL A   1      34.280  25.853  25.459  1.00  0.00    -0.475 OA
ATOM     15  Cl  UNL A   1      32.173  21.537  22.085  1.00  0.00    -0.084 Cl
ATOM     16  C   UNL A   1      31.899  23.715  23.638  1.00  0.00     0.032 A 
ATOM     17  C   UNL A   1      31.649  25.943  24.685  1.00  0.00     0.025 C 
ATOM     18  C   UNL A   1      33.783  27.091  24.772  1.00  0.00     0.314 C 
BRANCH   9  19
ATOM     19  C   UNL A   1      35.650  22.947  25.505  1.00  0.00    -0.015 A 
ATOM     20  C   UNL A   1      38.324  21.937  25.801  1.00  0.00    -0.048 A 
ATOM     21  C   UNL A   1      38.017  23.269  26.102  1.00  0.00     0.004 A 
ATOM     22  C   UNL A   1      37.253  21.086  25.492  1.00  0.00     0.004 A 
ATOM     23  C   UNL A   1      36.702  23.764  25.966  1.00  0.00     0.009 A 
ATOM     24  C   UNL A   1      35.937  21.577  25.365  1.00  0.00     0.009 A 
BRANCH  20  25
ATOM     25  C   UNL A   1      39.750  21.411  25.856  1.00  0.00     0.038 C 
BRANCH  25  26
ATOM     26  C   UNL A   1      40.838  22.265  26.567  1.00  0.00    -0.013 C 
ATOM     27  C   UNL A   1      41.112  21.851  28.014  1.00  0.00     0.008 C 
ATOM     28  C   UNL A   1      42.161  22.165  25.784  1.00  0.00     0.008 C 
ENDBRANCH  25  26
ENDBRANCH  20  25
ENDBRANCH   9  19
BRANCH  18  29
ATOM     29  C   UNL A   1      33.739  28.323  25.708  1.00  0.00     0.429 C 
ATOM     30  F   UNL A   1      32.651  28.338  26.508  1.00  0.00    -0.167 F 
ATOM     31  F   UNL A   1      34.837  28.379  26.500  1.00  0.00    -0.167 F 
ATOM     32  F   UNL A   1      33.722  29.498  25.018  1.00  0.00    -0.167 F 
ENDBRANCH  18  29
ENDBRANCH   5   8
ENDBRANCH   3   4
ENDBRANCH   2   3
ENDBRANCH   1   2
BRANCH   1  33
ATOM     33  C   UNL A   1      30.893  30.678  25.182  1.00  0.00     0.002 C 
BRANCH  33  34
ATOM     34  C   UNL A   1      30.819  31.985  25.970  1.00  0.00     0.021 C 
BRANCH  34  35
ATOM     35  C   UNL A   1      32.042  32.274  26.831  1.00  0.00     0.116 C 
BRANCH  35  36
ATOM     36  N   UNL A   1      32.108  33.663  27.259  1.00  0.00    -0.352 N 
ATOM     37  C   UNL A   1      33.001  34.259  28.113  1.00  0.00     0.251 C 
ATOM     38  H   UNL A   1      31.417  34.255  26.885  1.00  0.00     0.163 HD
ATOM     39  O   UNL A   1      32.818  35.411  28.501  1.00  0.00    -0.269 OA
BRANCH  37  40
ATOM     40  C   UNL A   1      34.172  33.496  28.588  1.00  0.00     0.039 A 
ATOM     41  C   UNL A   1      35.414  34.131  28.642  1.00  0.00     0.014 A 
ATOM     42  C   UNL A   1      34.038  32.167  28.999  1.00  0.00     0.014 A 
ATOM     43  C   UNL A   1      36.514  33.448  29.165  1.00  0.00     0.010 A 
ATOM     44  C   UNL A   1      35.114  31.517  29.594  1.00  0.00     0.010 A 
ATOM     45  C   UNL A   1      36.364  32.149  29.677  1.00  0.00    -0.014 A 
BRANCH  45  46
ATOM     46  C   UNL A   1      37.505  31.436  30.302  1.00  0.00     0.031 A 
ATOM     47  C   UNL A   1      37.879  31.713  31.732  1.00  0.00     0.074 A 
ATOM     48  C   UNL A   1      38.246  30.588  29.564  1.00  0.00     0.049 A 
ATOM     49  N   UNL A   1      38.875  31.235  32.434  1.00  0.00    -0.248 NA
ATOM     50  C   UNL A   1      37.041  32.679  32.458  1.00  0.00     0.031 C 
ATOM     51  C   UNL A   1      38.021  30.281  28.150  1.00  0.00     0.029 A 
ATOM     52  N   UNL A   1      39.348  29.840  29.895  1.00  0.00    -0.354 N 
ATOM     53  C   UNL A   1      38.787  31.846  33.677  1.00  0.00     0.074 A 
ATOM     54  C   UNL A   1      37.684  32.781  33.610  1.00  0.00     0.031 C 
ATOM     55  C   UNL A   1      38.944  29.399  27.740  1.00  0.00     0.029 A 
ATOM     56  C   UNL A   1      39.849  29.107  28.849  1.00  0.00     0.049 A 
ATOM     57  H   UNL A   1      39.741  29.831  30.798  1.00  0.00     0.167 HD
ATOM     58  C   UNL A   1      39.538  31.630  34.784  1.00  0.00     0.037 A 
ATOM     59  C   UNL A   1      40.924  28.299  28.784  1.00  0.00     0.037 A 
ATOM     60  C   UNL A   1      40.631  30.696  34.846  1.00  0.00     0.049 A 
ATOM     61  C   UNL A   1      41.752  28.079  30.019  1.00  0.00     0.074 A 
ATOM     62  C   UNL A   1      41.423  30.364  35.931  1.00  0.00     0.029 A 
ATOM     63  N   UNL A   1      41.097  29.952  33.770  1.00  0.00    -0.354 N 
ATOM     64  N   UNL A   1      41.612  28.605  31.213  1.00  0.00    -0.248 NA
ATOM     65  C   UNL A   1      42.881  27.147  29.903  1.00  0.00     0.031 C 
ATOM     66  C   UNL A   1      42.400  29.461  35.499  1.00  0.00     0.029 A 
ATOM     67  C   UNL A   1      42.181  29.183  34.159  1.00  0.00     0.049 A 
ATOM     68  H   UNL A   1      40.712  29.968  32.864  1.00  0.00     0.167 HD
ATOM     69  C   UNL A   1      42.618  28.053  31.994  1.00  0.00     0.074 A 
ATOM     70  C   UNL A   1      43.352  27.138  31.142  1.00  0.00     0.031 C 
ATOM     71  C   UNL A   1      42.907  28.281  33.299  1.00  0.00     0.037 A 
BRANCH  58  72
ATOM     72  C   UNL A   1      39.198  32.431  36.009  1.00  0.00     0.057 A 
ATOM     73  C   UNL A   1      39.745  33.701  36.241  1.00  0.00     0.134 A 
ATOM     74  C   UNL A   1      38.314  31.927  36.974  1.00  0.00     0.134 A 
ATOM     75  F   UNL A   1      40.607  34.240  35.365  1.00  0.00    -0.206 F 
ATOM     76  C   UNL A   1      39.463  34.419  37.405  1.00  0.00     0.040 A 
ATOM     77  C   UNL A   1      37.998  32.651  38.125  1.00  0.00     0.040 A 
ATOM     78  F   UNL A   1      37.745  30.723  36.814  1.00  0.00    -0.206 F 
ATOM     79  C   UNL A   1      38.583  33.896  38.349  1.00  0.00     0.006 A 
ENDBRANCH  58  72
BRANCH  59  80
ATOM     80  C   UNL A   1      41.263  27.631  27.502  1.00  0.00     0.057 A 
ATOM     81  C   UNL A   1      42.137  28.221  26.584  1.00  0.00     0.134 A 
ATOM     82  C   UNL A   1      40.741  26.372  27.179  1.00  0.00     0.134 A 
ATOM     83  F   UNL A   1      42.657  29.433  26.830  1.00  0.00    -0.206 F 
ATOM     84  C   UNL A   1      42.473  27.591  25.385  1.00  0.00     0.040 A 
ATOM     85  C   UNL A   1      41.089  25.718  25.996  1.00  0.00     0.040 A 
ATOM     86  F   UNL A   1      39.906  25.747  28.023  1.00  0.00    -0.206 F 
ATOM     87  C   UNL A   1      41.954  26.331  25.092  1.00  0.00     0.006 A 
ENDBRANCH  59  80
BRANCH  71  88
ATOM     88  C   UNL A   1      44.051  27.512  33.894  1.00  0.00     0.057 A 
ATOM     89  C   UNL A   1      43.873  26.254  34.485  1.00  0.00     0.134 A 
ATOM     90  C   UNL A   1      45.356  28.020  33.841  1.00  0.00     0.134 A 
ATOM     91  F   UNL A   1      42.648  25.715  34.580  1.00  0.00    -0.206 F 
ATOM     92  C   UNL A   1      44.947  25.540  35.021  1.00  0.00     0.040 A 
ATOM     93  C   UNL A   1      46.442  27.303  34.346  1.00  0.00     0.040 A 
ATOM     94  F   UNL A   1      45.599  29.215  33.282  1.00  0.00    -0.206 F 
ATOM     95  C   UNL A   1      46.237  26.061  34.945  1.00  0.00     0.006 A 
ENDBRANCH  71  88
ENDBRANCH  45  46
ENDBRANCH  37  40
ENDBRANCH  35  36
ENDBRANCH  34  35
ENDBRANCH  33  34
ENDBRANCH   1  33
TORSDOF 17
ENDMDL
MODEL 2
REMARK VINA RESULT:     -12.2      0.417      5.908
REMARK SMILES CC(C)Cc1ccc(-c2cc(Cl)cc3c2O[C@H](C(F)(F)F)C(C(=O)NCCCCCCNC(=O)c2ccc(-c4c5nc(c(-c6c(F)cccc6F)c6ccc([nH]6)c(-c6c(F)cccc6F)c6nc(c(-c7c(F)cccc7F)c7ccc4[nH]7)C=C6)C=C5)cc2)=C3)cc1
REMARK SMILES IDX 28 1 27 2 26 3 25 4 23 5 24 6 22 8 9 9 10 10 15 11 11 12
REMARK SMILES IDX 14 13 16 14 12 15 13 16 89 17 17 18 8 19 5 20 6 21 91 22
REMARK SMILES IDX 7 23 90 24 4 25 2 26 1 27 3 28 18 29 19 30 20 31 21 32 29 33
REMARK SMILES IDX 30 34 31 35 32 36 33 37 34 39 35 40 36 41 88 42 37 43 87 44
REMARK SMILES IDX 38 45 39 46 40 47 81 48 41 49 86 50 80 51 82 52 42 53 85 54
REMARK SMILES IDX 79 55 78 56 43 58 69 59 52 60 68 61 53 62 56 63 67 64 83 65
REMARK SMILES IDX 54 66 55 67 66 69 84 70 57 71 44 72 45 73 50 74 46 75 47 76
REMARK SMILES IDX 49 77 51 78 48 79 70 80 71 81 76 82 72 83 73 84 75 85 77 86
REMARK SMILES IDX 74 87 58 88 59 89 64 90 60 91 61 92 63 93 65 94 62 95
REMARK H PARENT 25 7 32 38 82 57 56 68
REMARK Flexibility Score: inf
ROOT
ATOM      1  C   UNL A   1      29.844  30.543  24.096  1.00  0.00     0.002 C 
ENDROOT
BRANCH   1   2
ATOM      2  C   UNL A   1      29.819  29.280  23.218  1.00  0.00     0.021 C 
BRANCH   2   3
ATOM      3  C   UNL A   1      31.091  29.043  22.390  1.00  0.00     0.116 C 
BRANCH   3   4
ATOM      4  N   UNL A   1      31.290  27.623  22.180  1.00  0.00    -0.352 N 
ATOM      5  C   UNL A   1      32.316  26.911  22.715  1.00  0.00     0.251 C 
ATOM      6  O   UNL A   1      33.061  26.261  21.995  1.00  0.00    -0.270 OA
ATOM      7  H   UNL A   1      30.641  27.144  21.616  1.00  0.00     0.163 HD
BRANCH   5   8
ATOM      8  C   UNL A   1      32.356  26.843  24.206  1.00  0.00     0.067 C 
ATOM      9  C   UNL A   1      34.509  23.420  24.657  1.00  0.00     0.026 A 
ATOM     10  C   UNL A   1      33.993  22.517  23.688  1.00  0.00     0.033 A 
ATOM     11  C   UNL A   1      33.741  24.577  24.896  1.00  0.00     0.135 A 
ATOM     12  C   UNL A   1      32.711  22.632  23.162  1.00  0.00     0.042 A 
ATOM     13  C   UNL A   1      32.397  24.610  24.443  1.00  0.00     0.019 A 
ATOM     14  O   UNL A   1      34.238  25.736  25.484  1.00  0.00    -0.475 OA
ATOM     15  Cl  UNL A   1      32.161  21.495  21.999  1.00  0.00    -0.084 Cl
ATOM     16  C   UNL A   1      31.872  23.634  23.601  1.00  0.00     0.032 A 
ATOM     17  C   UNL A   1      31.610  25.836  24.700  1.00  0.00     0.025 C 
ATOM     18  C   UNL A   1      33.739  26.989  24.825  1.00  0.00     0.314 C 
BRANCH   9  19
ATOM     19  C   UNL A   1      35.616  22.835  25.468  1.00  0.00    -0.015 A 
ATOM     20  C   UNL A   1      38.293  21.828  25.753  1.00  0.00    -0.048 A 
ATOM     21  C   UNL A   1      37.979  23.150  26.084  1.00  0.00     0.004 A 
ATOM     22  C   UNL A   1      37.227  20.980  25.419  1.00  0.00     0.004 A 
ATOM     23  C   UNL A   1      36.664  23.644  25.953  1.00  0.00     0.009 A 
ATOM     24  C   UNL A   1      35.909  21.469  25.297  1.00  0.00     0.009 A 
BRANCH  20  25
ATOM     25  C   UNL A   1      39.721  21.305  25.802  1.00  0.00     0.038 C 
BRANCH  25  26
ATOM     26  C   UNL A   1      40.789  22.115  26.591  1.00  0.00    -0.013 C 
ATOM     27  C   UNL A   1      41.152  21.515  27.950  1.00  0.00     0.008 C 
ATOM     28  C   UNL A   1      42.079  22.212  25.754  1.00  0.00     0.008 C 
ENDBRANCH  25  26
ENDBRANCH  20  25
ENDBRANCH   9  19
BRANCH  18  29
ATOM     29  C   UNL A   1      33.687  28.198  25.788  1.00  0.00     0.429 C 
ATOM     30  F   UNL A   1      33.596  29.382  25.145  1.00  0.00    -0.167 F 
ATOM     31  F   UNL A   1      32.634  28.106  26.636  1.00  0.00    -0.167 F 
ATOM     32  F   UNL A   1      34.792  28.277  26.581  1.00  0.00    -0.167 F 
ENDBRANCH  18  29
ENDBRANCH   5   8
ENDBRANCH   3   4
ENDBRANCH   2   3
ENDBRANCH   1   2
BRANCH   1  33
ATOM     33  C   UNL A   1      31.046  30.651  25.038  1.00  0.00     0.002 C 
BRANCH  33  34
ATOM     34  C   UNL A   1      30.879  31.670  26.165  1.00  0.00     0.021 C 
BRANCH  34  35
ATOM     35  C   UNL A   1      32.184  32.115  26.811  1.00  0.00     0.116 C 
BRANCH  35  36
ATOM     36  N   UNL A   1      32.167  33.518  27.194  1.00  0.00    -0.352 N 
ATOM     37  C   UNL A   1      32.991  34.183  28.067  1.00  0.00     0.251 C 
ATOM     38  H   UNL A   1      31.467  34.065  26.771  1.00  0.00     0.163 HD
ATOM     39  O   UNL A   1      32.739  35.337  28.407  1.00  0.00    -0.269 OA
BRANCH  37  40
ATOM     40  C   UNL A   1      34.174  33.492  28.618  1.00  0.00     0.039 A 
ATOM     41  C   UNL A   1      35.403  34.153  28.619  1.00  0.00     0.014 A 
ATOM     42  C   UNL A   1      34.063  32.205  29.153  1.00  0.00     0.014 A 
ATOM     43  C   UNL A   1      36.512  33.545  29.210  1.00  0.00     0.010 A 
ATOM     44  C   UNL A   1      35.146  31.637  29.813  1.00  0.00     0.010 A 
ATOM     45  C   UNL A   1      36.383  32.298  29.843  1.00  0.00    -0.014 A 
BRANCH  45  46
ATOM     46  C   UNL A   1      37.533  31.671  30.539  1.00  0.00     0.031 A 
ATOM     47  C   UNL A   1      38.382  30.651  29.831  1.00  0.00     0.074 A 
ATOM     48  C   UNL A   1      37.774  31.969  31.830  1.00  0.00     0.049 A 
ATOM     49  N   UNL A   1      39.390  29.953  30.289  1.00  0.00    -0.248 NA
ATOM     50  C   UNL A   1      38.030  30.356  28.434  1.00  0.00     0.031 C 
ATOM     51  C   UNL A   1      36.986  32.897  32.644  1.00  0.00     0.029 A 
ATOM     52  N   UNL A   1      38.741  31.512  32.689  1.00  0.00    -0.354 N 
ATOM     53  C   UNL A   1      39.786  29.133  29.241  1.00  0.00     0.074 A 
ATOM     54  C   UNL A   1      38.867  29.370  28.149  1.00  0.00     0.031 C 
ATOM     55  C   UNL A   1      37.510  32.952  33.877  1.00  0.00     0.029 A 
ATOM     56  C   UNL A   1      38.645  32.036  33.954  1.00  0.00     0.049 A 
ATOM     57  H   UNL A   1      39.437  30.868  32.423  1.00  0.00     0.167 HD
ATOM     58  C   UNL A   1      40.836  28.279  29.182  1.00  0.00     0.037 A 
ATOM     59  C   UNL A   1      39.380  31.799  35.056  1.00  0.00     0.037 A 
ATOM     60  C   UNL A   1      41.750  28.050  30.271  1.00  0.00     0.049 A 
ATOM     61  C   UNL A   1      40.535  30.841  34.976  1.00  0.00     0.074 A 
ATOM     62  C   UNL A   1      42.876  27.246  30.298  1.00  0.00     0.029 A 
ATOM     63  N   UNL A   1      41.635  28.618  31.532  1.00  0.00    -0.354 N 
ATOM     64  N   UNL A   1      40.948  30.128  33.955  1.00  0.00    -0.248 NA
ATOM     65  C   UNL A   1      41.333  30.661  36.196  1.00  0.00     0.031 C 
ATOM     66  C   UNL A   1      43.410  27.286  31.591  1.00  0.00     0.029 A 
ATOM     67  C   UNL A   1      42.653  28.161  32.353  1.00  0.00     0.049 A 
ATOM     68  H   UNL A   1      40.933  29.253  31.803  1.00  0.00     0.167 HD
ATOM     69  C   UNL A   1      42.064  29.433  34.401  1.00  0.00     0.074 A 
ATOM     70  C   UNL A   1      42.273  29.822  35.781  1.00  0.00     0.031 C 
ATOM     71  C   UNL A   1      42.846  28.552  33.728  1.00  0.00     0.037 A 
BRANCH  58  72
ATOM     72  C   UNL A   1      41.038  27.529  27.896  1.00  0.00     0.057 A 
ATOM     73  C   UNL A   1      41.849  28.026  26.866  1.00  0.00     0.134 A 
ATOM     74  C   UNL A   1      40.412  26.293  27.680  1.00  0.00     0.134 A 
ATOM     75  F   UNL A   1      42.470  29.208  27.001  1.00  0.00    -0.206 F 
ATOM     76  C   UNL A   1      41.994  27.348  25.654  1.00  0.00     0.040 A 
ATOM     77  C   UNL A   1      40.577  25.589  26.486  1.00  0.00     0.040 A 
ATOM     78  F   UNL A   1      39.629  25.751  28.624  1.00  0.00    -0.206 F 
ATOM     79  C   UNL A   1      41.361  26.122  25.464  1.00  0.00     0.006 A 
ENDBRANCH  58  72
BRANCH  59  80
ATOM     80  C   UNL A   1      39.046  32.496  36.324  1.00  0.00     0.057 A 
ATOM     81  C   UNL A   1      38.205  31.910  37.275  1.00  0.00     0.134 A 
ATOM     82  C   UNL A   1      39.584  33.753  36.627  1.00  0.00     0.134 A 
ATOM     83  F   UNL A   1      37.645  30.714  37.037  1.00  0.00    -0.206 F 
ATOM     84  C   UNL A   1      37.900  32.552  38.477  1.00  0.00     0.040 A 
ATOM     85  C   UNL A   1      39.310  34.395  37.835  1.00  0.00     0.040 A 
ATOM     86  F   UNL A   1      40.408  34.363  35.761  1.00  0.00    -0.206 F 
ATOM     87  C   UNL A   1      38.460  33.796  38.762  1.00  0.00     0.006 A 
ENDBRANCH  59  80
BRANCH  71  88
ATOM     88  C   UNL A   1      44.016  27.968  34.466  1.00  0.00     0.057 A 
ATOM     89  C   UNL A   1      45.253  28.621  34.531  1.00  0.00     0.134 A 
ATOM     90  C   UNL A   1      43.890  26.754  35.154  1.00  0.00     0.134 A 
ATOM     91  F   UNL A   1      45.446  29.781  33.885  1.00  0.00    -0.206 F 
ATOM     92  C   UNL A   1      46.330  28.076  35.235  1.00  0.00     0.040 A 
ATOM     93  C   UNL A   1      44.949  26.214  35.885  1.00  0.00     0.040 A 
ATOM     94  F   UNL A   1      42.730  26.080  35.140  1.00  0.00    -0.206 F 
ATOM     95  C   UNL A   1      46.176  26.873  35.921  1.00  0.00     0.006 A 
ENDBRANCH  71  88
ENDBRANCH  45  46
ENDBRANCH  37  40
ENDBRANCH  35  36
ENDBRANCH  34  35
ENDBRANCH  33  34
ENDBRANCH   1  33
TORSDOF 17
ENDMDL
MODEL 3
REMARK VINA RESULT:     -11.6      4.543      8.226
REMARK SMILES CC(C)Cc1ccc(-c2cc(Cl)cc3c2O[C@H](C(F)(F)F)C(C(=O)NCCCCCCNC(=O)c2ccc(-c4c5nc(c(-c6c(F)cccc6F)c6ccc([nH]6)c(-c6c(F)cccc6F)c6nc(c(-c7c(F)cccc7F)c7ccc4[nH]7)C=C6)C=C5)cc2)=C3)cc1
REMARK SMILES IDX 28 1 27 2 26 3 25 4 23 5 24 6 22 8 9 9 10 10 15 11 11 12
REMARK SMILES IDX 14 13 16 14 12 15 13 16 89 17 17 18 8 19 5 20 6 21 91 22
REMARK SMILES IDX 7 23 90 24 4 25 2 26 1 27 3 28 18 29 19 30 20 31 21 32 29 33
REMARK SMILES IDX 30 34 31 35 32 36 33 37 34 39 35 40 36 41 88 42 37 43 87 44
REMARK SMILES IDX 38 45 39 46 40 47 81 48 41 49 86 50 80 51 82 52 42 53 85 54
REMARK SMILES IDX 79 55 78 56 43 58 69 59 52 60 68 61 53 62 56 63 67 64 83 65
REMARK SMILES IDX 54 66 55 67 66 69 84 70 57 71 44 72 45 73 50 74 46 75 47 76
REMARK SMILES IDX 49 77 51 78 48 79 70 80 71 81 76 82 72 83 73 84 75 85 77 86
REMARK SMILES IDX 74 87 58 88 59 89 64 90 60 91 61 92 63 93 65 94 62 95
REMARK H PARENT 25 7 32 38 82 57 56 68
REMARK Flexibility Score: inf
ROOT
ATOM      1  C   UNL A   1      33.101  30.830  27.129  1.00  0.00     0.002 C 
ENDROOT
BRANCH   1   2
ATOM      2  C   UNL A   1      32.565  29.533  26.498  1.00  0.00     0.021 C 
BRANCH   2   3
ATOM      3  C   UNL A   1      32.906  29.348  25.011  1.00  0.00     0.116 C 
BRANCH   3   4
ATOM      4  N   UNL A   1      33.761  28.192  24.838  1.00  0.00    -0.352 N 
ATOM      5  C   UNL A   1      33.373  26.914  25.089  1.00  0.00     0.251 C 
ATOM      6  O   UNL A   1      34.011  26.213  25.863  1.00  0.00    -0.270 OA
ATOM      7  H   UNL A   1      34.680  28.339  24.518  1.00  0.00     0.163 HD
BRANCH   5   8
ATOM      8  C   UNL A   1      32.256  26.393  24.246  1.00  0.00     0.067 C 
ATOM      9  C   UNL A   1      33.204  22.437  24.254  1.00  0.00     0.026 A 
ATOM     10  C   UNL A   1      34.614  22.384  24.083  1.00  0.00     0.033 A 
ATOM     11  C   UNL A   1      32.596  23.681  24.000  1.00  0.00     0.135 A 
ATOM     12  C   UNL A   1      35.337  23.414  23.490  1.00  0.00     0.042 A 
ATOM     13  C   UNL A   1      33.328  24.668  23.289  1.00  0.00     0.019 A 
ATOM     14  O   UNL A   1      31.338  24.047  24.471  1.00  0.00    -0.475 OA
ATOM     15  Cl  UNL A   1      37.040  23.270  23.314  1.00  0.00    -0.084 Cl
ATOM     16  C   UNL A   1      34.684  24.529  23.011  1.00  0.00     0.032 A 
ATOM     17  C   UNL A   1      32.671  25.970  23.037  1.00  0.00     0.025 C 
ATOM     18  C   UNL A   1      31.283  25.465  24.960  1.00  0.00     0.314 C 
BRANCH   9  19
ATOM     19  C   UNL A   1      32.582  21.086  24.379  1.00  0.00    -0.015 A 
ATOM     20  C   UNL A   1      32.702  18.218  24.258  1.00  0.00    -0.048 A 
ATOM     21  C   UNL A   1      32.844  18.896  25.473  1.00  0.00     0.004 A 
ATOM     22  C   UNL A   1      32.356  18.981  23.134  1.00  0.00     0.004 A 
ATOM     23  C   UNL A   1      32.776  20.304  25.535  1.00  0.00     0.009 A 
ATOM     24  C   UNL A   1      32.278  20.388  23.196  1.00  0.00     0.009 A 
BRANCH  20  25
ATOM     25  C   UNL A   1      32.862  16.708  24.159  1.00  0.00     0.038 C 
BRANCH  25  26
ATOM     26  C   UNL A   1      33.411  15.930  25.388  1.00  0.00    -0.013 C 
ATOM     27  C   UNL A   1      32.838  14.520  25.543  1.00  0.00     0.008 C 
ATOM     28  C   UNL A   1      34.943  15.810  25.277  1.00  0.00     0.008 C 
ENDBRANCH  25  26
ENDBRANCH  20  25
ENDBRANCH   9  19
BRANCH  18  29
ATOM     29  C   UNL A   1      29.875  26.091  24.837  1.00  0.00     0.429 C 
ATOM     30  F   UNL A   1      29.054  25.748  25.854  1.00  0.00    -0.167 F 
ATOM     31  F   UNL A   1      29.939  27.444  24.796  1.00  0.00    -0.167 F 
ATOM     32  F   UNL A   1      29.240  25.718  23.690  1.00  0.00    -0.167 F 
ENDBRANCH  18  29
ENDBRANCH   5   8
ENDBRANCH   3   4
ENDBRANCH   2   3
ENDBRANCH   1   2
BRANCH   1  33
ATOM     33  C   UNL A   1      34.527  30.739  27.677  1.00  0.00     0.002 C 
BRANCH  33  34
ATOM     34  C   UNL A   1      35.285  32.066  27.694  1.00  0.00     0.021 C 
BRANCH  34  35
ATOM     35  C   UNL A   1      36.368  32.161  28.761  1.00  0.00     0.116 C 
BRANCH  35  36
ATOM     36  N   UNL A   1      35.965  31.556  30.021  1.00  0.00    -0.352 N 
ATOM     37  C   UNL A   1      36.542  30.511  30.697  1.00  0.00     0.251 C 
ATOM     38  H   UNL A   1      35.169  31.949  30.445  1.00  0.00     0.163 HD
ATOM     39  O   UNL A   1      35.980  30.012  31.670  1.00  0.00    -0.269 OA
BRANCH  37  40
ATOM     40  C   UNL A   1      37.835  29.970  30.233  1.00  0.00     0.039 A 
ATOM     41  C   UNL A   1      38.022  29.745  28.869  1.00  0.00     0.014 A 
ATOM     42  C   UNL A   1      38.864  29.707  31.142  1.00  0.00     0.014 A 
ATOM     43  C   UNL A   1      39.266  29.310  28.408  1.00  0.00     0.010 A 
ATOM     44  C   UNL A   1      40.124  29.353  30.673  1.00  0.00     0.010 A 
ATOM     45  C   UNL A   1      40.336  29.145  29.302  1.00  0.00    -0.014 A 
BRANCH  45  46
ATOM     46  C   UNL A   1      41.683  28.754  28.820  1.00  0.00     0.031 A 
ATOM     47  C   UNL A   1      41.951  27.340  28.384  1.00  0.00     0.074 A 
ATOM     48  C   UNL A   1      42.684  29.655  28.836  1.00  0.00     0.049 A 
ATOM     49  N   UNL A   1      43.072  26.795  27.988  1.00  0.00    -0.248 NA
ATOM     50  C   UNL A   1      40.813  26.410  28.430  1.00  0.00     0.031 C 
ATOM     51  C   UNL A   1      42.566  31.041  29.293  1.00  0.00     0.029 A 
ATOM     52  N   UNL A   1      44.003  29.535  28.474  1.00  0.00    -0.354 N 
ATOM     53  C   UNL A   1      42.777  25.460  27.746  1.00  0.00     0.074 A 
ATOM     54  C   UNL A   1      41.390  25.263  28.106  1.00  0.00     0.031 C 
ATOM     55  C   UNL A   1      43.756  31.647  29.169  1.00  0.00     0.029 A 
ATOM     56  C   UNL A   1      44.730  30.684  28.661  1.00  0.00     0.049 A 
ATOM     57  H   UNL A   1      44.388  28.705  28.114  1.00  0.00     0.167 HD
ATOM     58  C   UNL A   1      43.579  24.491  27.243  1.00  0.00     0.037 A 
ATOM     59  C   UNL A   1      46.037  30.933  28.459  1.00  0.00     0.037 A 
ATOM     60  C   UNL A   1      44.959  24.694  26.883  1.00  0.00     0.049 A 
ATOM     61  C   UNL A   1      46.916  29.843  27.911  1.00  0.00     0.074 A 
ATOM     62  C   UNL A   1      45.845  23.793  26.318  1.00  0.00     0.029 A 
ATOM     63  N   UNL A   1      45.657  25.879  27.066  1.00  0.00    -0.354 N 
ATOM     64  N   UNL A   1      46.606  28.604  27.612  1.00  0.00    -0.248 NA
ATOM     65  C   UNL A   1      48.322  30.187  27.662  1.00  0.00     0.031 C 
ATOM     66  C   UNL A   1      47.092  24.418  26.209  1.00  0.00     0.029 A 
ATOM     67  C   UNL A   1      46.969  25.726  26.649  1.00  0.00     0.049 A 
ATOM     68  H   UNL A   1      45.275  26.708  27.436  1.00  0.00     0.167 HD
ATOM     69  C   UNL A   1      47.769  28.027  27.121  1.00  0.00     0.074 A 
ATOM     70  C   UNL A   1      48.788  29.058  27.146  1.00  0.00     0.031 C 
ATOM     71  C   UNL A   1      47.975  26.759  26.687  1.00  0.00     0.037 A 
BRANCH  58  72
ATOM     72  C   UNL A   1      42.977  23.126  27.066  1.00  0.00     0.057 A 
ATOM     73  C   UNL A   1      42.744  22.271  28.154  1.00  0.00     0.134 A 
ATOM     74  C   UNL A   1      42.626  22.655  25.794  1.00  0.00     0.134 A 
ATOM     75  F   UNL A   1      43.066  22.652  29.399  1.00  0.00    -0.206 F 
ATOM     76  C   UNL A   1      42.229  20.985  27.978  1.00  0.00     0.040 A 
ATOM     77  C   UNL A   1      42.079  21.384  25.609  1.00  0.00     0.040 A 
ATOM     78  F   UNL A   1      42.812  23.421  24.709  1.00  0.00    -0.206 F 
ATOM     79  C   UNL A   1      41.890  20.541  26.702  1.00  0.00     0.006 A 
ENDBRANCH  58  72
BRANCH  59  80
ATOM     80  C   UNL A   1      46.584  32.279  28.767  1.00  0.00     0.057 A 
ATOM     81  C   UNL A   1      46.591  33.297  27.809  1.00  0.00     0.134 A 
ATOM     82  C   UNL A   1      47.086  32.585  30.039  1.00  0.00     0.134 A 
ATOM     83  F   UNL A   1      46.138  33.060  26.569  1.00  0.00    -0.206 F 
ATOM     84  C   UNL A   1      47.088  34.569  28.097  1.00  0.00     0.040 A 
ATOM     85  C   UNL A   1      47.562  33.860  30.349  1.00  0.00     0.040 A 
ATOM     86  F   UNL A   1      47.096  31.656  31.006  1.00  0.00    -0.206 F 
ATOM     87  C   UNL A   1      47.568  34.855  29.374  1.00  0.00     0.006 A 
ENDBRANCH  59  80
BRANCH  71  88
ATOM     88  C   UNL A   1      49.347  26.421  26.179  1.00  0.00     0.057 A 
ATOM     89  C   UNL A   1      49.764  26.758  24.885  1.00  0.00     0.134 A 
ATOM     90  C   UNL A   1      50.277  25.783  27.011  1.00  0.00     0.134 A 
ATOM     91  F   UNL A   1      48.920  27.358  24.033  1.00  0.00    -0.206 F 
ATOM     92  C   UNL A   1      51.049  26.453  24.429  1.00  0.00     0.040 A 
ATOM     93  C   UNL A   1      51.573  25.500  26.576  1.00  0.00     0.040 A 
ATOM     94  F   UNL A   1      49.947  25.440  28.265  1.00  0.00    -0.206 F 
ATOM     95  C   UNL A   1      51.960  25.829  25.279  1.00  0.00     0.006 A 
ENDBRANCH  71  88
ENDBRANCH  45  46
ENDBRANCH  37  40
ENDBRANCH  35  36
ENDBRANCH  34  35
ENDBRANCH  33  34
ENDBRANCH   1  33
TORSDOF 17
ENDMDL
