MODEL 1
REMARK VINA RESULT:     -10.1      0.000      0.000
REMARK SMILES CC[C@H](C(=O)NCCCCCCNC(=O)c1ccc(-c2c3nc(c(-c4c(F)cccc4F)c4ccc([nH]4)c(-c4c(F)cccc4F)c4nc(c(-c5c(F)cccc5F)c5ccc2[nH]5)C=C4)C=C3)cc1)[N@H+](C)[C@H]1CC[C@H]([NH3+])CC1
REMARK SMILES IDX 9 1 8 2 7 3 6 4 4 5 5 6 3 8 2 9 1 10 70 11 71 12 72 14 73 15
REMARK SMILES IDX 78 16 74 17 77 18 75 19 76 20 10 24 11 25 12 26 13 27 14 28
REMARK SMILES IDX 15 30 16 31 17 32 69 33 18 34 68 35 19 36 20 37 21 38 62 39
REMARK SMILES IDX 22 40 67 41 61 42 63 43 23 44 66 45 60 46 59 47 24 49 50 50
REMARK SMILES IDX 33 51 49 52 34 53 37 54 48 55 64 56 35 57 36 58 47 60 65 61
REMARK SMILES IDX 38 62 25 63 26 64 31 65 27 66 28 67 30 68 32 69 29 70 51 71
REMARK SMILES IDX 52 72 57 73 53 74 54 75 56 76 58 77 55 78 39 79 40 80 45 81
REMARK SMILES IDX 41 82 42 83 44 84 46 85 43 86
REMARK H PARENT 6 7 70 13 76 21 76 22 76 23 13 29 63 48 37 59
REMARK Flexibility Score: inf
ROOT
ATOM      1  C   UNL A   1      37.158  21.871  24.400  1.00  0.00     0.002 C 
ENDROOT
BRANCH   1   2
ATOM      2  C   UNL A   1      36.085  22.928  24.678  1.00  0.00     0.021 C 
BRANCH   2   3
ATOM      3  C   UNL A   1      35.571  22.889  26.120  1.00  0.00     0.116 C 
BRANCH   3   4
ATOM      4  N   UNL A   1      34.692  24.016  26.333  1.00  0.00    -0.351 N 
ATOM      5  C   UNL A   1      33.488  24.317  25.777  1.00  0.00     0.278 C 
ATOM      6  O   UNL A   1      33.242  25.525  25.650  1.00  0.00    -0.268 OA
ATOM      7  H   UNL A   1      35.017  24.674  26.989  1.00  0.00     0.163 HD
BRANCH   5   8
ATOM      8  C   UNL A   1      32.402  23.277  25.427  1.00  0.00     0.273 C 
BRANCH   8   9
ATOM      9  C   UNL A   1      30.920  23.628  25.618  1.00  0.00     0.072 C 
ATOM     10  C   UNL A   1      30.245  22.807  26.712  1.00  0.00     0.011 C 
ENDBRANCH   8   9
BRANCH   8  11
ATOM     11  N   UNL A   1      32.576  22.607  24.095  1.00  0.00    -0.325 N 
ATOM     12  C   UNL A   1      31.499  23.007  23.187  1.00  0.00     0.333 C 
ATOM     13  H   UNL A   1      33.467  22.973  23.761  1.00  0.00     0.348 HD
BRANCH  11  14
ATOM     14  C   UNL A   1      32.947  21.173  24.034  1.00  0.00     0.184 C 
ATOM     15  C   UNL A   1      32.101  20.448  22.946  1.00  0.00     0.071 C 
ATOM     16  C   UNL A   1      32.835  20.373  25.354  1.00  0.00     0.071 C 
ATOM     17  C   UNL A   1      32.431  18.958  22.803  1.00  0.00     0.071 C 
ATOM     18  C   UNL A   1      33.228  18.905  25.174  1.00  0.00     0.071 C 
ATOM     19  C   UNL A   1      32.323  18.232  24.147  1.00  0.00     0.181 C 
BRANCH  19  20
ATOM     20  N   UNL A   1      32.676  16.821  24.016  1.00  0.00    -0.355 N 
ATOM     21  H   UNL A   1      33.453  16.725  23.362  1.00  0.00     0.344 HD
ATOM     22  H   UNL A   1      31.871  16.300  23.667  1.00  0.00     0.344 HD
ATOM     23  H   UNL A   1      32.950  16.454  24.926  1.00  0.00     0.344 HD
ENDBRANCH  19  20
ENDBRANCH  11  14
ENDBRANCH   8  11
ENDBRANCH   5   8
ENDBRANCH   3   4
ENDBRANCH   2   3
ENDBRANCH   1   2
BRANCH   1  24
ATOM     24  C   UNL A   1      36.720  20.434  24.700  1.00  0.00     0.002 C 
BRANCH  24  25
ATOM     25  C   UNL A   1      37.860  19.468  25.036  1.00  0.00     0.021 C 
BRANCH  25  26
ATOM     26  C   UNL A   1      39.029  20.106  25.780  1.00  0.00     0.116 C 
BRANCH  26  27
ATOM     27  N   UNL A   1      40.181  19.221  25.828  1.00  0.00    -0.352 N 
ATOM     28  C   UNL A   1      41.494  19.530  26.060  1.00  0.00     0.251 C 
ATOM     29  H   UNL A   1      39.990  18.267  25.671  1.00  0.00     0.163 HD
ATOM     30  O   UNL A   1      42.378  18.702  25.836  1.00  0.00    -0.269 OA
BRANCH  28  31
ATOM     31  C   UNL A   1      41.851  20.865  26.575  1.00  0.00     0.039 A 
ATOM     32  C   UNL A   1      42.293  21.843  25.681  1.00  0.00     0.014 A 
ATOM     33  C   UNL A   1      41.764  21.143  27.944  1.00  0.00     0.014 A 
ATOM     34  C   UNL A   1      42.605  23.118  26.154  1.00  0.00     0.010 A 
ATOM     35  C   UNL A   1      42.014  22.432  28.403  1.00  0.00     0.010 A 
ATOM     36  C   UNL A   1      42.447  23.428  27.515  1.00  0.00    -0.014 A 
BRANCH  36  37
ATOM     37  C   UNL A   1      42.738  24.788  28.029  1.00  0.00     0.031 A 
ATOM     38  C   UNL A   1      44.137  25.153  28.438  1.00  0.00     0.074 A 
ATOM     39  C   UNL A   1      41.732  25.669  28.188  1.00  0.00     0.049 A 
ATOM     40  N   UNL A   1      44.579  26.263  28.975  1.00  0.00    -0.248 NA
ATOM     41  C   UNL A   1      45.173  24.126  28.246  1.00  0.00     0.031 C 
ATOM     42  C   UNL A   1      40.326  25.413  27.874  1.00  0.00     0.029 A 
ATOM     43  N   UNL A   1      41.738  26.954  28.667  1.00  0.00    -0.354 N 
ATOM     44  C   UNL A   1      45.934  26.060  29.200  1.00  0.00     0.074 A 
ATOM     45  C   UNL A   1      46.234  24.706  28.786  1.00  0.00     0.031 C 
ATOM     46  C   UNL A   1      39.606  26.512  28.156  1.00  0.00     0.029 A 
ATOM     47  C   UNL A   1      40.494  27.535  28.698  1.00  0.00     0.049 A 
ATOM     48  H   UNL A   1      42.556  27.416  28.962  1.00  0.00     0.167 HD
ATOM     49  C   UNL A   1      46.849  26.929  29.690  1.00  0.00     0.037 A 
ATOM     50  C   UNL A   1      40.113  28.754  29.123  1.00  0.00     0.037 A 
ATOM     51  C   UNL A   1      46.552  28.285  30.069  1.00  0.00     0.049 A 
ATOM     52  C   UNL A   1      41.151  29.708  29.645  1.00  0.00     0.074 A 
ATOM     53  C   UNL A   1      47.422  29.269  30.506  1.00  0.00     0.029 A 
ATOM     54  N   UNL A   1      45.285  28.849  30.054  1.00  0.00    -0.354 N 
ATOM     55  N   UNL A   1      42.442  29.527  29.785  1.00  0.00    -0.248 NA
ATOM     56  C   UNL A   1      40.681  31.036  30.061  1.00  0.00     0.031 C 
ATOM     57  C   UNL A   1      46.676  30.415  30.794  1.00  0.00     0.029 A 
ATOM     58  C   UNL A   1      45.347  30.160  30.494  1.00  0.00     0.049 A 
ATOM     59  H   UNL A   1      44.463  28.385  29.774  1.00  0.00     0.167 HD
ATOM     60  C   UNL A   1      42.941  30.725  30.280  1.00  0.00     0.074 A 
ATOM     61  C   UNL A   1      41.816  31.628  30.404  1.00  0.00     0.031 C 
ATOM     62  C   UNL A   1      44.218  31.047  30.604  1.00  0.00     0.037 A 
BRANCH  49  63
ATOM     63  C   UNL A   1      48.260  26.442  29.838  1.00  0.00     0.057 A 
ATOM     64  C   UNL A   1      49.219  26.639  28.835  1.00  0.00     0.134 A 
ATOM     65  C   UNL A   1      48.676  25.803  31.013  1.00  0.00     0.134 A 
ATOM     66  F   UNL A   1      48.882  27.233  27.680  1.00  0.00    -0.206 F 
ATOM     67  C   UNL A   1      50.535  26.197  28.987  1.00  0.00     0.040 A 
ATOM     68  C   UNL A   1      49.995  25.380  31.186  1.00  0.00     0.040 A 
ATOM     69  F   UNL A   1      47.810  25.588  32.015  1.00  0.00    -0.206 F 
ATOM     70  C   UNL A   1      50.927  25.572  30.168  1.00  0.00     0.006 A 
ENDBRANCH  49  63
BRANCH  50  71
ATOM     71  C   UNL A   1      38.685  29.152  29.051  1.00  0.00     0.057 A 
ATOM     72  C   UNL A   1      37.862  29.095  30.182  1.00  0.00     0.134 A 
ATOM     73  C   UNL A   1      38.107  29.591  27.854  1.00  0.00     0.134 A 
ATOM     74  F   UNL A   1      38.354  28.665  31.353  1.00  0.00    -0.206 F 
ATOM     75  C   UNL A   1      36.512  29.443  30.122  1.00  0.00     0.040 A 
ATOM     76  C   UNL A   1      36.765  29.965  27.785  1.00  0.00     0.040 A 
ATOM     77  F   UNL A   1      38.845  29.676  26.737  1.00  0.00    -0.206 F 
ATOM     78  C   UNL A   1      35.961  29.884  28.920  1.00  0.00     0.006 A 
ENDBRANCH  50  71
BRANCH  62  79
ATOM     79  C   UNL A   1      44.468  32.441  31.094  1.00  0.00     0.057 A 
ATOM     80  C   UNL A   1      44.448  32.759  32.457  1.00  0.00     0.134 A 
ATOM     81  C   UNL A   1      44.771  33.469  30.192  1.00  0.00     0.134 A 
ATOM     82  F   UNL A   1      44.151  31.822  33.370  1.00  0.00    -0.206 F 
ATOM     83  C   UNL A   1      44.702  34.056  32.906  1.00  0.00     0.040 A 
ATOM     84  C   UNL A   1      45.050  34.764  30.630  1.00  0.00     0.040 A 
ATOM     85  F   UNL A   1      44.813  33.228  28.874  1.00  0.00    -0.206 F 
ATOM     86  C   UNL A   1      45.011  35.061  31.992  1.00  0.00     0.006 A 
ENDBRANCH  62  79
ENDBRANCH  36  37
ENDBRANCH  28  31
ENDBRANCH  26  27
ENDBRANCH  25  26
ENDBRANCH  24  25
ENDBRANCH   1  24
TORSDOF 17
ENDMDL
MODEL 2
REMARK VINA RESULT:     -10.1      4.436      9.152
REMARK SMILES CC[C@H](C(=O)NCCCCCCNC(=O)c1ccc(-c2c3nc(c(-c4c(F)cccc4F)c4ccc([nH]4)c(-c4c(F)cccc4F)c4nc(c(-c5c(F)cccc5F)c5ccc2[nH]5)C=C4)C=C3)cc1)[N@H+](C)[C@H]1CC[C@H]([NH3+])CC1
REMARK SMILES IDX 9 1 8 2 7 3 6 4 4 5 5 6 3 8 2 9 1 10 70 11 71 12 72 14 73 15
REMARK SMILES IDX 78 16 74 17 77 18 75 19 76 20 10 24 11 25 12 26 13 27 14 28
REMARK SMILES IDX 15 30 16 31 17 32 69 33 18 34 68 35 19 36 20 37 21 38 62 39
REMARK SMILES IDX 22 40 67 41 61 42 63 43 23 44 66 45 60 46 59 47 24 49 50 50
REMARK SMILES IDX 33 51 49 52 34 53 37 54 48 55 64 56 35 57 36 58 47 60 65 61
REMARK SMILES IDX 38 62 25 63 26 64 31 65 27 66 28 67 30 68 32 69 29 70 51 71
REMARK SMILES IDX 52 72 57 73 53 74 54 75 56 76 58 77 55 78 39 79 40 80 45 81
REMARK SMILES IDX 41 82 42 83 44 84 46 85 43 86
REMARK H PARENT 6 7 70 13 76 21 76 22 76 23 13 29 63 48 37 59
REMARK Flexibility Score: inf
ROOT
ATOM      1  C   UNL A   1      32.292  29.961  27.182  1.00  0.00     0.002 C 
ENDROOT
BRANCH   1   2
ATOM      2  C   UNL A   1      32.695  28.572  26.679  1.00  0.00     0.021 C 
BRANCH   2   3
ATOM      3  C   UNL A   1      34.092  28.548  26.053  1.00  0.00     0.116 C 
BRANCH   3   4
ATOM      4  N   UNL A   1      33.989  28.949  24.668  1.00  0.00    -0.351 N 
ATOM      5  C   UNL A   1      33.771  28.211  23.546  1.00  0.00     0.278 C 
ATOM      6  O   UNL A   1      34.300  28.639  22.511  1.00  0.00    -0.268 OA
ATOM      7  H   UNL A   1      34.093  29.915  24.510  1.00  0.00     0.163 HD
BRANCH   5   8
ATOM      8  C   UNL A   1      32.830  26.989  23.473  1.00  0.00     0.273 C 
BRANCH   8   9
ATOM      9  C   UNL A   1      31.413  27.150  22.907  1.00  0.00     0.072 C 
ATOM     10  C   UNL A   1      30.573  28.168  23.672  1.00  0.00     0.011 C 
ENDBRANCH   8   9
BRANCH   8  11
ATOM     11  N   UNL A   1      33.449  25.751  22.892  1.00  0.00    -0.325 N 
ATOM     12  C   UNL A   1      32.856  25.459  21.585  1.00  0.00     0.333 C 
ATOM     13  H   UNL A   1      34.430  26.006  22.780  1.00  0.00     0.348 HD
BRANCH  11  14
ATOM     14  C   UNL A   1      33.679  24.567  23.754  1.00  0.00     0.184 C 
ATOM     15  C   UNL A   1      33.496  24.952  25.251  1.00  0.00     0.071 C 
ATOM     16  C   UNL A   1      35.043  23.852  23.596  1.00  0.00     0.071 C 
ATOM     17  C   UNL A   1      33.701  23.779  26.217  1.00  0.00     0.071 C 
ATOM     18  C   UNL A   1      35.179  22.655  24.541  1.00  0.00     0.071 C 
ATOM     19  C   UNL A   1      35.057  23.105  25.993  1.00  0.00     0.181 C 
BRANCH  19  20
ATOM     20  N   UNL A   1      35.234  21.963  26.886  1.00  0.00    -0.355 N 
ATOM     21  H   UNL A   1      34.618  21.205  26.594  1.00  0.00     0.344 HD
ATOM     22  H   UNL A   1      35.003  22.240  27.841  1.00  0.00     0.344 HD
ATOM     23  H   UNL A   1      36.203  21.649  26.849  1.00  0.00     0.344 HD
ENDBRANCH  19  20
ENDBRANCH  11  14
ENDBRANCH   8  11
ENDBRANCH   5   8
ENDBRANCH   3   4
ENDBRANCH   2   3
ENDBRANCH   1   2
BRANCH   1  24
ATOM     24  C   UNL A   1      31.421  30.756  26.203  1.00  0.00     0.002 C 
BRANCH  24  25
ATOM     25  C   UNL A   1      31.376  32.266  26.458  1.00  0.00     0.021 C 
BRANCH  25  26
ATOM     26  C   UNL A   1      32.568  32.809  27.241  1.00  0.00     0.116 C 
BRANCH  26  27
ATOM     27  N   UNL A   1      32.378  34.203  27.607  1.00  0.00    -0.352 N 
ATOM     28  C   UNL A   1      33.005  34.929  28.583  1.00  0.00     0.251 C 
ATOM     29  H   UNL A   1      31.706  34.693  27.079  1.00  0.00     0.163 HD
ATOM     30  O   UNL A   1      32.567  36.030  28.920  1.00  0.00    -0.269 OA
BRANCH  28  31
ATOM     31  C   UNL A   1      34.209  34.385  29.239  1.00  0.00     0.039 A 
ATOM     32  C   UNL A   1      34.069  33.667  30.429  1.00  0.00     0.014 A 
ATOM     33  C   UNL A   1      35.476  34.600  28.686  1.00  0.00     0.014 A 
ATOM     34  C   UNL A   1      35.198  33.123  31.042  1.00  0.00     0.010 A 
ATOM     35  C   UNL A   1      36.592  34.004  29.265  1.00  0.00     0.010 A 
ATOM     36  C   UNL A   1      36.465  33.269  30.453  1.00  0.00    -0.014 A 
BRANCH  36  37
ATOM     37  C   UNL A   1      37.671  32.666  31.070  1.00  0.00     0.031 A 
ATOM     38  C   UNL A   1      38.309  31.456  30.449  1.00  0.00     0.074 A 
ATOM     39  C   UNL A   1      38.150  33.170  32.224  1.00  0.00     0.049 A 
ATOM     40  N   UNL A   1      39.322  30.744  30.875  1.00  0.00    -0.248 NA
ATOM     41  C   UNL A   1      37.712  30.961  29.199  1.00  0.00     0.031 C 
ATOM     42  C   UNL A   1      37.586  34.310  32.948  1.00  0.00     0.029 A 
ATOM     43  N   UNL A   1      39.213  32.778  32.996  1.00  0.00    -0.354 N 
ATOM     44  C   UNL A   1      39.470  29.711  29.958  1.00  0.00     0.074 A 
ATOM     45  C   UNL A   1      38.417  29.861  28.978  1.00  0.00     0.031 C 
ATOM     46  C   UNL A   1      38.317  34.534  34.052  1.00  0.00     0.029 A 
ATOM     47  C   UNL A   1      39.380  33.536  34.129  1.00  0.00     0.049 A 
ATOM     48  H   UNL A   1      39.801  32.024  32.761  1.00  0.00     0.167 HD
ATOM     49  C   UNL A   1      40.412  28.739  29.927  1.00  0.00     0.037 A 
ATOM     50  C   UNL A   1      40.284  33.433  35.121  1.00  0.00     0.037 A 
ATOM     51  C   UNL A   1      41.478  28.615  30.884  1.00  0.00     0.049 A 
ATOM     52  C   UNL A   1      41.330  32.355  35.052  1.00  0.00     0.074 A 
ATOM     53  C   UNL A   1      42.525  27.710  30.898  1.00  0.00     0.029 A 
ATOM     54  N   UNL A   1      41.633  29.424  32.001  1.00  0.00    -0.354 N 
ATOM     55  N   UNL A   1      41.502  31.430  34.140  1.00  0.00    -0.248 NA
ATOM     56  C   UNL A   1      42.310  32.313  36.145  1.00  0.00     0.031 C 
ATOM     57  C   UNL A   1      43.291  27.946  32.043  1.00  0.00     0.029 A 
ATOM     58  C   UNL A   1      42.747  29.025  32.720  1.00  0.00     0.049 A 
ATOM     59  H   UNL A   1      41.040  30.170  32.245  1.00  0.00     0.167 HD
ATOM     60  C   UNL A   1      42.624  30.712  34.535  1.00  0.00     0.074 A 
ATOM     61  C   UNL A   1      43.098  31.318  35.762  1.00  0.00     0.031 C 
ATOM     62  C   UNL A   1      43.208  29.646  33.935  1.00  0.00     0.037 A 
BRANCH  49  63
ATOM     63  C   UNL A   1      40.335  27.736  28.814  1.00  0.00     0.057 A 
ATOM     64  C   UNL A   1      39.568  26.568  28.924  1.00  0.00     0.134 A 
ATOM     65  C   UNL A   1      41.003  27.958  27.603  1.00  0.00     0.134 A 
ATOM     66  F   UNL A   1      38.913  26.289  30.062  1.00  0.00    -0.206 F 
ATOM     67  C   UNL A   1      39.488  25.646  27.878  1.00  0.00     0.040 A 
ATOM     68  C   UNL A   1      40.909  27.056  26.542  1.00  0.00     0.040 A 
ATOM     69  F   UNL A   1      41.750  29.058  27.430  1.00  0.00    -0.206 F 
ATOM     70  C   UNL A   1      40.154  25.894  26.680  1.00  0.00     0.006 A 
ENDBRANCH  49  63
BRANCH  50  71
ATOM     71  C   UNL A   1      40.253  34.390  36.254  1.00  0.00     0.057 A 
ATOM     72  C   UNL A   1      40.949  35.604  36.193  1.00  0.00     0.134 A 
ATOM     73  C   UNL A   1      39.536  34.116  37.424  1.00  0.00     0.134 A 
ATOM     74  F   UNL A   1      41.669  35.914  35.104  1.00  0.00    -0.206 F 
ATOM     75  C   UNL A   1      40.948  36.502  37.261  1.00  0.00     0.040 A 
ATOM     76  C   UNL A   1      39.507  35.016  38.490  1.00  0.00     0.040 A 
ATOM     77  F   UNL A   1      38.842  32.974  37.541  1.00  0.00    -0.206 F 
ATOM     78  C   UNL A   1      40.221  36.210  38.413  1.00  0.00     0.006 A 
ENDBRANCH  50  71
BRANCH  62  79
ATOM     79  C   UNL A   1      44.440  29.088  34.582  1.00  0.00     0.057 A 
ATOM     80  C   UNL A   1      44.374  28.068  35.539  1.00  0.00     0.134 A 
ATOM     81  C   UNL A   1      45.709  29.550  34.212  1.00  0.00     0.134 A 
ATOM     82  F   UNL A   1      43.188  27.592  35.945  1.00  0.00    -0.206 F 
ATOM     83  C   UNL A   1      45.528  27.541  36.121  1.00  0.00     0.040 A 
ATOM     84  C   UNL A   1      46.871  29.014  34.770  1.00  0.00     0.040 A 
ATOM     85  F   UNL A   1      45.841  30.520  33.295  1.00  0.00    -0.206 F 
ATOM     86  C   UNL A   1      46.781  28.009  35.731  1.00  0.00     0.006 A 
ENDBRANCH  62  79
ENDBRANCH  36  37
ENDBRANCH  28  31
ENDBRANCH  26  27
ENDBRANCH  25  26
ENDBRANCH  24  25
ENDBRANCH   1  24
TORSDOF 17
ENDMDL
MODEL 3
REMARK VINA RESULT:     -10.1      1.838      6.921
REMARK SMILES CC[C@H](C(=O)NCCCCCCNC(=O)c1ccc(-c2c3nc(c(-c4c(F)cccc4F)c4ccc([nH]4)c(-c4c(F)cccc4F)c4nc(c(-c5c(F)cccc5F)c5ccc2[nH]5)C=C4)C=C3)cc1)[N@H+](C)[C@H]1CC[C@H]([NH3+])CC1
REMARK SMILES IDX 9 1 8 2 7 3 6 4 4 5 5 6 3 8 2 9 1 10 70 11 71 12 72 14 73 15
REMARK SMILES IDX 78 16 74 17 77 18 75 19 76 20 10 24 11 25 12 26 13 27 14 28
REMARK SMILES IDX 15 30 16 31 17 32 69 33 18 34 68 35 19 36 20 37 21 38 62 39
REMARK SMILES IDX 22 40 67 41 61 42 63 43 23 44 66 45 60 46 59 47 24 49 50 50
REMARK SMILES IDX 33 51 49 52 34 53 37 54 48 55 64 56 35 57 36 58 47 60 65 61
REMARK SMILES IDX 38 62 25 63 26 64 31 65 27 66 28 67 30 68 32 69 29 70 51 71
REMARK SMILES IDX 52 72 57 73 53 74 54 75 56 76 58 77 55 78 39 79 40 80 45 81
REMARK SMILES IDX 41 82 42 83 44 84 46 85 43 86
REMARK H PARENT 6 7 70 13 76 21 76 22 76 23 13 29 63 48 37 59
REMARK Flexibility Score: inf
ROOT
ATOM      1  C   UNL A   1      36.263  21.811  25.313  1.00  0.00     0.002 C 
ENDROOT
BRANCH   1   2
ATOM      2  C   UNL A   1      35.011  22.621  24.961  1.00  0.00     0.021 C 
BRANCH   2   3
ATOM      3  C   UNL A   1      34.652  23.655  26.032  1.00  0.00     0.116 C 
BRANCH   3   4
ATOM      4  N   UNL A   1      33.229  23.596  26.279  1.00  0.00    -0.351 N 
ATOM      5  C   UNL A   1      32.325  24.589  26.493  1.00  0.00     0.278 C 
ATOM      6  O   UNL A   1      31.376  24.300  27.235  1.00  0.00    -0.268 OA
ATOM      7  H   UNL A   1      32.851  22.687  26.293  1.00  0.00     0.163 HD
BRANCH   5   8
ATOM      8  C   UNL A   1      32.349  25.961  25.785  1.00  0.00     0.273 C 
BRANCH   8   9
ATOM      9  C   UNL A   1      33.444  26.978  26.130  1.00  0.00     0.072 C 
ATOM     10  C   UNL A   1      32.960  28.090  27.056  1.00  0.00     0.011 C 
ENDBRANCH   8   9
BRANCH   8  11
ATOM     11  N   UNL A   1      32.191  25.903  24.293  1.00  0.00    -0.325 N 
ATOM     12  C   UNL A   1      33.400  26.411  23.640  1.00  0.00     0.333 C 
ATOM     13  H   UNL A   1      32.086  24.907  24.104  1.00  0.00     0.348 HD
BRANCH  11  14
ATOM     14  C   UNL A   1      30.916  26.330  23.669  1.00  0.00     0.184 C 
ATOM     15  C   UNL A   1      30.999  27.829  23.255  1.00  0.00     0.071 C 
ATOM     16  C   UNL A   1      29.633  26.125  24.510  1.00  0.00     0.071 C 
ATOM     17  C   UNL A   1      29.724  28.353  22.585  1.00  0.00     0.071 C 
ATOM     18  C   UNL A   1      28.380  26.612  23.777  1.00  0.00     0.071 C 
ATOM     19  C   UNL A   1      28.492  28.099  23.458  1.00  0.00     0.181 C 
BRANCH  19  20
ATOM     20  N   UNL A   1      27.273  28.563  22.800  1.00  0.00    -0.355 N 
ATOM     21  H   UNL A   1      26.528  28.651  23.491  1.00  0.00     0.344 HD
ATOM     22  H   UNL A   1      26.996  27.891  22.085  1.00  0.00     0.344 HD
ATOM     23  H   UNL A   1      27.445  29.470  22.367  1.00  0.00     0.344 HD
ENDBRANCH  19  20
ENDBRANCH  11  14
ENDBRANCH   8  11
ENDBRANCH   5   8
ENDBRANCH   3   4
ENDBRANCH   2   3
ENDBRANCH   1   2
BRANCH   1  24
ATOM     24  C   UNL A   1      36.140  20.309  25.035  1.00  0.00     0.002 C 
BRANCH  24  25
ATOM     25  C   UNL A   1      37.472  19.575  24.857  1.00  0.00     0.021 C 
BRANCH  25  26
ATOM     26  C   UNL A   1      38.658  20.243  25.544  1.00  0.00     0.116 C 
BRANCH  26  27
ATOM     27  N   UNL A   1      39.770  19.321  25.713  1.00  0.00    -0.352 N 
ATOM     28  C   UNL A   1      41.062  19.589  26.072  1.00  0.00     0.251 C 
ATOM     29  H   UNL A   1      39.563  18.373  25.545  1.00  0.00     0.163 HD
ATOM     30  O   UNL A   1      41.937  18.730  25.943  1.00  0.00    -0.269 OA
BRANCH  28  31
ATOM     31  C   UNL A   1      41.412  20.917  26.610  1.00  0.00     0.039 A 
ATOM     32  C   UNL A   1      41.365  21.125  27.991  1.00  0.00     0.014 A 
ATOM     33  C   UNL A   1      41.770  21.959  25.749  1.00  0.00     0.014 A 
ATOM     34  C   UNL A   1      41.723  22.368  28.512  1.00  0.00     0.010 A 
ATOM     35  C   UNL A   1      42.187  23.178  26.275  1.00  0.00     0.010 A 
ATOM     36  C   UNL A   1      42.157  23.397  27.660  1.00  0.00    -0.014 A 
BRANCH  36  37
ATOM     37  C   UNL A   1      42.577  24.713  28.200  1.00  0.00     0.031 A 
ATOM     38  C   UNL A   1      41.558  25.797  28.412  1.00  0.00     0.074 A 
ATOM     39  C   UNL A   1      43.881  24.951  28.436  1.00  0.00     0.049 A 
ATOM     40  N   UNL A   1      41.735  27.033  28.806  1.00  0.00    -0.248 NA
ATOM     41  C   UNL A   1      40.157  25.458  28.113  1.00  0.00     0.031 C 
ATOM     42  C   UNL A   1      44.967  23.994  28.221  1.00  0.00     0.029 A 
ATOM     43  N   UNL A   1      44.514  26.076  28.896  1.00  0.00    -0.354 N 
ATOM     44  C   UNL A   1      40.477  27.621  28.785  1.00  0.00     0.074 A 
ATOM     45  C   UNL A   1      39.551  26.622  28.296  1.00  0.00     0.031 C 
ATOM     46  C   UNL A   1      46.132  24.570  28.562  1.00  0.00     0.029 A 
ATOM     47  C   UNL A   1      45.877  25.942  28.989  1.00  0.00     0.049 A 
ATOM     48  H   UNL A   1      44.037  26.904  29.137  1.00  0.00     0.167 HD
ATOM     49  C   UNL A   1      40.123  28.873  29.158  1.00  0.00     0.037 A 
ATOM     50  C   UNL A   1      46.816  26.828  29.369  1.00  0.00     0.037 A 
ATOM     51  C   UNL A   1      41.042  29.851  29.677  1.00  0.00     0.049 A 
ATOM     52  C   UNL A   1      46.395  28.206  29.796  1.00  0.00     0.074 A 
ATOM     53  C   UNL A   1      40.771  31.122  30.152  1.00  0.00     0.029 A 
ATOM     54  N   UNL A   1      42.412  29.666  29.787  1.00  0.00    -0.354 N 
ATOM     55  N   UNL A   1      45.192  28.725  29.840  1.00  0.00    -0.248 NA
ATOM     56  C   UNL A   1      47.460  29.119  30.233  1.00  0.00     0.031 C 
ATOM     57  C   UNL A   1      41.982  31.721  30.514  1.00  0.00     0.029 A 
ATOM     58  C   UNL A   1      43.002  30.807  30.305  1.00  0.00     0.049 A 
ATOM     59  H   UNL A   1      42.894  28.845  29.535  1.00  0.00     0.167 HD
ATOM     60  C   UNL A   1      45.352  30.014  30.333  1.00  0.00     0.074 A 
ATOM     61  C   UNL A   1      46.767  30.193  30.586  1.00  0.00     0.031 C 
ATOM     62  C   UNL A   1      44.411  30.964  30.556  1.00  0.00     0.037 A 
BRANCH  49  63
ATOM     63  C   UNL A   1      38.678  29.254  29.026  1.00  0.00     0.057 A 
ATOM     64  C   UNL A   1      38.118  29.615  27.793  1.00  0.00     0.134 A 
ATOM     65  C   UNL A   1      37.826  29.221  30.138  1.00  0.00     0.134 A 
ATOM     66  F   UNL A   1      38.883  29.679  26.693  1.00  0.00    -0.206 F 
ATOM     67  C   UNL A   1      36.769  29.952  27.676  1.00  0.00     0.040 A 
ATOM     68  C   UNL A   1      36.470  29.530  30.027  1.00  0.00     0.040 A 
ATOM     69  F   UNL A   1      38.296  28.878  31.347  1.00  0.00    -0.206 F 
ATOM     70  C   UNL A   1      35.939  29.903  28.793  1.00  0.00     0.006 A 
ENDBRANCH  49  63
BRANCH  50  71
ATOM     71  C   UNL A   1      48.247  26.433  29.384  1.00  0.00     0.057 A 
ATOM     72  C   UNL A   1      48.811  25.807  30.502  1.00  0.00     0.134 A 
ATOM     73  C   UNL A   1      49.084  26.674  28.288  1.00  0.00     0.134 A 
ATOM     74  F   UNL A   1      48.063  25.565  31.589  1.00  0.00    -0.206 F 
ATOM     75  C   UNL A   1      50.160  25.451  30.537  1.00  0.00     0.040 A 
ATOM     76  C   UNL A   1      50.429  26.302  28.302  1.00  0.00     0.040 A 
ATOM     77  F   UNL A   1      48.601  27.263  27.184  1.00  0.00    -0.206 F 
ATOM     78  C   UNL A   1      50.972  25.696  29.432  1.00  0.00     0.006 A 
ENDBRANCH  50  71
BRANCH  62  79
ATOM     79  C   UNL A   1      44.879  32.268  31.127  1.00  0.00     0.057 A 
ATOM     80  C   UNL A   1      44.975  32.477  32.508  1.00  0.00     0.134 A 
ATOM     81  C   UNL A   1      45.275  33.314  30.284  1.00  0.00     0.134 A 
ATOM     82  F   UNL A   1      44.598  31.520  33.369  1.00  0.00    -0.206 F 
ATOM     83  C   UNL A   1      45.431  33.688  33.031  1.00  0.00     0.040 A 
ATOM     84  C   UNL A   1      45.754  34.520  30.794  1.00  0.00     0.040 A 
ATOM     85  F   UNL A   1      45.214  33.174  28.951  1.00  0.00    -0.206 F 
ATOM     86  C   UNL A   1      45.829  34.712  32.173  1.00  0.00     0.006 A 
ENDBRANCH  62  79
ENDBRANCH  36  37
ENDBRANCH  28  31
ENDBRANCH  26  27
ENDBRANCH  25  26
ENDBRANCH  24  25
ENDBRANCH   1  24
TORSDOF 17
ENDMDL
