MODEL 1
REMARK VINA RESULT:     -11.7      0.000      0.000
REMARK SMILES O=C(NCCCCCCNC(=O)c1ccc(CNC(=O)c2cccnc2)o1)c1ccc(-c2c3nc(c(-c4c(F)cccc4F)c4ccc([nH]4)c(-c4c(F)cccc4F)c4nc(c(-c5c(F)cccc5F)c5ccc2[nH]5)C=C4)C=C3)cc1
REMARK SMILES IDX 7 1 6 2 5 3 4 4 3 5 1 6 2 7 28 9 29 10 81 11 30 12 80 13
REMARK SMILES IDX 31 14 32 15 33 16 74 17 34 18 79 19 73 20 75 21 35 22 78 23
REMARK SMILES IDX 72 24 71 25 36 27 62 28 45 29 61 30 46 31 49 32 60 33 76 34
REMARK SMILES IDX 47 35 48 36 59 38 77 39 50 40 37 41 38 42 43 43 39 44 40 45
REMARK SMILES IDX 42 46 44 47 41 48 63 49 64 50 69 51 65 52 66 53 68 54 70 55
REMARK SMILES IDX 67 56 51 57 52 58 57 59 53 60 54 61 56 62 58 63 55 64 8 65
REMARK SMILES IDX 9 66 10 67 11 68 12 70 13 71 14 72 27 73 15 74 16 75 17 76
REMARK SMILES IDX 18 77 19 78 20 80 21 81 22 82 26 83 23 84 25 85 24 86
REMARK H PARENT 3 8 75 26 49 37 10 69 18 79
REMARK Flexibility Score: inf
ROOT
ATOM      1  C   UNL A   1      31.763  29.213  26.770  1.00  0.00     0.002 C 
ENDROOT
BRANCH   1   2
ATOM      2  C   UNL A   1      31.598  30.424  25.845  1.00  0.00     0.002 C 
BRANCH   2   3
ATOM      3  C   UNL A   1      31.385  31.767  26.545  1.00  0.00     0.021 C 
BRANCH   3   4
ATOM      4  C   UNL A   1      32.653  32.443  27.054  1.00  0.00     0.116 C 
BRANCH   4   5
ATOM      5  N   UNL A   1      32.429  33.807  27.504  1.00  0.00    -0.352 N 
ATOM      6  O   UNL A   1      32.676  35.628  28.814  1.00  0.00    -0.269 OA
ATOM      7  C   UNL A   1      33.088  34.523  28.476  1.00  0.00     0.251 C 
ATOM      8  H   UNL A   1      31.702  34.287  27.047  1.00  0.00     0.163 HD
BRANCH   7   9
ATOM      9  C   UNL A   1      34.277  33.946  29.142  1.00  0.00     0.039 A 
ATOM     10  C   UNL A   1      35.565  34.347  28.785  1.00  0.00     0.014 A 
ATOM     11  C   UNL A   1      34.097  32.981  30.138  1.00  0.00     0.014 A 
ATOM     12  C   UNL A   1      36.667  33.677  29.305  1.00  0.00     0.010 A 
ATOM     13  C   UNL A   1      35.209  32.367  30.724  1.00  0.00     0.010 A 
ATOM     14  C   UNL A   1      36.503  32.680  30.281  1.00  0.00    -0.014 A 
BRANCH  14  15
ATOM     15  C   UNL A   1      37.704  32.009  30.841  1.00  0.00     0.031 A 
ATOM     16  C   UNL A   1      38.173  32.290  32.243  1.00  0.00     0.074 A 
ATOM     17  C   UNL A   1      38.352  31.101  30.086  1.00  0.00     0.049 A 
ATOM     18  N   UNL A   1      39.162  31.743  32.906  1.00  0.00    -0.248 NA
ATOM     19  C   UNL A   1      37.446  33.321  32.999  1.00  0.00     0.031 C 
ATOM     20  C   UNL A   1      38.004  30.753  28.706  1.00  0.00     0.029 A 
ATOM     21  N   UNL A   1      39.414  30.285  30.377  1.00  0.00    -0.354 N 
ATOM     22  C   UNL A   1      39.192  32.379  34.141  1.00  0.00     0.074 A 
ATOM     23  C   UNL A   1      38.135  33.367  34.130  1.00  0.00     0.031 C 
ATOM     24  C   UNL A   1      38.797  29.755  28.292  1.00  0.00     0.029 A 
ATOM     25  C   UNL A   1      39.743  29.429  29.354  1.00  0.00     0.049 A 
ATOM     26  H   UNL A   1      39.896  30.310  31.235  1.00  0.00     0.167 HD
ATOM     27  C   UNL A   1      40.021  32.153  35.190  1.00  0.00     0.037 A 
ATOM     28  C   UNL A   1      40.700  28.486  29.277  1.00  0.00     0.037 A 
ATOM     29  C   UNL A   1      41.056  31.151  35.209  1.00  0.00     0.049 A 
ATOM     30  C   UNL A   1      41.603  28.259  30.453  1.00  0.00     0.074 A 
ATOM     31  C   UNL A   1      41.911  30.813  36.245  1.00  0.00     0.029 A 
ATOM     32  N   UNL A   1      41.379  30.327  34.142  1.00  0.00    -0.354 N 
ATOM     33  N   UNL A   1      41.588  28.838  31.628  1.00  0.00    -0.248 NA
ATOM     34  C   UNL A   1      42.658  27.250  30.288  1.00  0.00     0.031 C 
ATOM     35  C   UNL A   1      42.777  29.812  35.791  1.00  0.00     0.029 A 
ATOM     36  C   UNL A   1      42.434  29.498  34.486  1.00  0.00     0.049 A 
ATOM     37  H   UNL A   1      40.926  30.331  33.268  1.00  0.00     0.167 HD
ATOM     38  C   UNL A   1      42.618  28.252  32.350  1.00  0.00     0.074 A 
ATOM     39  C   UNL A   1      43.226  27.260  31.485  1.00  0.00     0.031 C 
ATOM     40  C   UNL A   1      43.026  28.514  33.616  1.00  0.00     0.037 A 
BRANCH  27  41
ATOM     41  C   UNL A   1      39.857  33.021  36.403  1.00  0.00     0.057 A 
ATOM     42  C   UNL A   1      40.602  34.194  36.584  1.00  0.00     0.134 A 
ATOM     43  C   UNL A   1      38.909  32.701  37.383  1.00  0.00     0.134 A 
ATOM     44  F   UNL A   1      41.534  34.552  35.688  1.00  0.00    -0.206 F 
ATOM     45  C   UNL A   1      40.423  35.006  37.707  1.00  0.00     0.040 A 
ATOM     46  C   UNL A   1      38.706  33.515  38.499  1.00  0.00     0.040 A 
ATOM     47  F   UNL A   1      38.157  31.595  37.268  1.00  0.00    -0.206 F 
ATOM     48  C   UNL A   1      39.469  34.670  38.665  1.00  0.00     0.006 A 
ENDBRANCH  27  41
BRANCH  28  49
ATOM     49  C   UNL A   1      40.836  27.676  28.042  1.00  0.00     0.057 A 
ATOM     50  C   UNL A   1      41.623  28.118  26.973  1.00  0.00     0.134 A 
ATOM     51  C   UNL A   1      40.198  26.437  27.908  1.00  0.00     0.134 A 
ATOM     52  F   UNL A   1      42.245  29.304  27.039  1.00  0.00    -0.206 F 
ATOM     53  C   UNL A   1      41.761  27.363  25.808  1.00  0.00     0.040 A 
ATOM     54  C   UNL A   1      40.348  25.660  26.759  1.00  0.00     0.040 A 
ATOM     55  F   UNL A   1      39.437  25.956  28.902  1.00  0.00    -0.206 F 
ATOM     56  C   UNL A   1      41.128  26.126  25.703  1.00  0.00     0.006 A 
ENDBRANCH  28  49
BRANCH  40  57
ATOM     57  C   UNL A   1      44.165  27.695  34.143  1.00  0.00     0.057 A 
ATOM     58  C   UNL A   1      45.492  28.137  34.061  1.00  0.00     0.134 A 
ATOM     59  C   UNL A   1      43.930  26.456  34.752  1.00  0.00     0.134 A 
ATOM     60  F   UNL A   1      45.783  29.308  33.476  1.00  0.00    -0.206 F 
ATOM     61  C   UNL A   1      46.548  27.363  34.543  1.00  0.00     0.040 A 
ATOM     62  C   UNL A   1      44.976  25.683  35.258  1.00  0.00     0.040 A 
ATOM     63  F   UNL A   1      42.682  25.979  34.866  1.00  0.00    -0.206 F 
ATOM     64  C   UNL A   1      46.290  26.134  35.148  1.00  0.00     0.006 A 
ENDBRANCH  40  57
ENDBRANCH  14  15
ENDBRANCH   7   9
ENDBRANCH   4   5
ENDBRANCH   3   4
ENDBRANCH   2   3
ENDBRANCH   1   2
BRANCH   1  65
ATOM     65  C   UNL A   1      33.203  28.751  27.014  1.00  0.00     0.021 C 
BRANCH  65  66
ATOM     66  C   UNL A   1      33.630  27.503  26.242  1.00  0.00     0.116 C 
BRANCH  66  67
ATOM     67  N   UNL A   1      32.980  26.309  26.746  1.00  0.00    -0.349 N 
ATOM     68  C   UNL A   1      31.991  25.555  26.156  1.00  0.00     0.286 C 
ATOM     69  H   UNL A   1      33.286  25.995  27.629  1.00  0.00     0.163 HD
ATOM     70  O   UNL A   1      31.438  24.695  26.842  1.00  0.00    -0.266 OA
BRANCH  68  71
ATOM     71  C   UNL A   1      31.665  25.812  24.773  1.00  0.00     0.191 A 
ATOM     72  C   UNL A   1      32.029  25.179  23.598  1.00  0.00     0.056 A 
ATOM     73  O   UNL A   1      30.854  26.873  24.484  1.00  0.00    -0.454 OA
ATOM     74  C   UNL A   1      31.425  25.901  22.541  1.00  0.00     0.048 A 
ATOM     75  C   UNL A   1      30.729  26.936  23.129  1.00  0.00     0.124 A 
BRANCH  75  76
ATOM     76  C   UNL A   1      29.962  28.085  22.592  1.00  0.00     0.191 C 
BRANCH  76  77
ATOM     77  N   UNL A   1      28.562  27.947  22.938  1.00  0.00    -0.345 N 
ATOM     78  C   UNL A   1      27.600  28.919  23.029  1.00  0.00     0.253 C 
ATOM     79  H   UNL A   1      28.261  27.031  23.134  1.00  0.00     0.164 HD
ATOM     80  O   UNL A   1      26.484  28.650  23.461  1.00  0.00    -0.269 OA
BRANCH  78  81
ATOM     81  C   UNL A   1      27.900  30.303  22.626  1.00  0.00     0.058 A 
ATOM     82  C   UNL A   1      28.157  31.320  23.547  1.00  0.00     0.017 A 
ATOM     83  C   UNL A   1      27.962  30.604  21.274  1.00  0.00     0.124 A 
ATOM     84  C   UNL A   1      28.404  32.609  23.079  1.00  0.00     0.021 A 
ATOM     85  N   UNL A   1      28.203  31.851  20.795  1.00  0.00    -0.264 NA
ATOM     86  C   UNL A   1      28.410  32.824  21.709  1.00  0.00     0.111 A 
ENDBRANCH  78  81
ENDBRANCH  76  77
ENDBRANCH  75  76
ENDBRANCH  68  71
ENDBRANCH  66  67
ENDBRANCH  65  66
ENDBRANCH   1  65
TORSDOF 16
ENDMDL
MODEL 2
REMARK VINA RESULT:     -11.3      5.094      9.904
REMARK SMILES O=C(NCCCCCCNC(=O)c1ccc(CNC(=O)c2cccnc2)o1)c1ccc(-c2c3nc(c(-c4c(F)cccc4F)c4ccc([nH]4)c(-c4c(F)cccc4F)c4nc(c(-c5c(F)cccc5F)c5ccc2[nH]5)C=C4)C=C3)cc1
REMARK SMILES IDX 7 1 6 2 5 3 4 4 3 5 1 6 2 7 28 9 29 10 81 11 30 12 80 13
REMARK SMILES IDX 31 14 32 15 33 16 74 17 34 18 79 19 73 20 75 21 35 22 78 23
REMARK SMILES IDX 72 24 71 25 36 27 62 28 45 29 61 30 46 31 49 32 60 33 76 34
REMARK SMILES IDX 47 35 48 36 59 38 77 39 50 40 37 41 38 42 43 43 39 44 40 45
REMARK SMILES IDX 42 46 44 47 41 48 63 49 64 50 69 51 65 52 66 53 68 54 70 55
REMARK SMILES IDX 67 56 51 57 52 58 57 59 53 60 54 61 56 62 58 63 55 64 8 65
REMARK SMILES IDX 9 66 10 67 11 68 12 70 13 71 14 72 27 73 15 74 16 75 17 76
REMARK SMILES IDX 18 77 19 78 20 80 21 81 22 82 26 83 23 84 25 85 24 86
REMARK H PARENT 3 8 75 26 49 37 10 69 18 79
REMARK Flexibility Score: inf
ROOT
ATOM      1  C   UNL A   1      37.790  22.108  25.270  1.00  0.00     0.002 C 
ENDROOT
BRANCH   1   2
ATOM      2  C   UNL A   1      37.374  20.781  24.627  1.00  0.00     0.002 C 
BRANCH   2   3
ATOM      3  C   UNL A   1      38.247  19.575  24.975  1.00  0.00     0.021 C 
BRANCH   3   4
ATOM      4  C   UNL A   1      39.371  19.849  25.968  1.00  0.00     0.116 C 
BRANCH   4   5
ATOM      5  N   UNL A   1      40.454  18.884  25.883  1.00  0.00    -0.352 N 
ATOM      6  O   UNL A   1      42.591  18.163  25.798  1.00  0.00    -0.269 OA
ATOM      7  C   UNL A   1      41.807  19.077  26.033  1.00  0.00     0.251 C 
ATOM      8  H   UNL A   1      40.179  17.958  25.692  1.00  0.00     0.163 HD
BRANCH   7   9
ATOM      9  C   UNL A   1      42.324  20.401  26.444  1.00  0.00     0.039 A 
ATOM     10  C   UNL A   1      42.303  20.796  27.783  1.00  0.00     0.014 A 
ATOM     11  C   UNL A   1      42.833  21.265  25.470  1.00  0.00     0.014 A 
ATOM     12  C   UNL A   1      42.640  22.100  28.124  1.00  0.00     0.010 A 
ATOM     13  C   UNL A   1      43.254  22.551  25.827  1.00  0.00     0.010 A 
ATOM     14  C   UNL A   1      43.121  22.994  27.152  1.00  0.00    -0.014 A 
BRANCH  14  15
ATOM     15  C   UNL A   1      43.505  24.370  27.559  1.00  0.00     0.031 A 
ATOM     16  C   UNL A   1      44.933  24.836  27.481  1.00  0.00     0.074 A 
ATOM     17  C   UNL A   1      42.542  25.222  27.960  1.00  0.00     0.049 A 
ATOM     18  N   UNL A   1      45.428  26.023  27.735  1.00  0.00    -0.248 NA
ATOM     19  C   UNL A   1      45.941  23.845  27.074  1.00  0.00     0.031 C 
ATOM     20  C   UNL A   1      41.122  24.884  28.092  1.00  0.00     0.029 A 
ATOM     21  N   UNL A   1      42.601  26.548  28.300  1.00  0.00    -0.354 N 
ATOM     22  C   UNL A   1      46.800  25.914  27.545  1.00  0.00     0.074 A 
ATOM     23  C   UNL A   1      47.065  24.541  27.173  1.00  0.00     0.031 C 
ATOM     24  C   UNL A   1      40.438  25.986  28.426  1.00  0.00     0.029 A 
ATOM     25  C   UNL A   1      41.373  27.095  28.584  1.00  0.00     0.049 A 
ATOM     26  H   UNL A   1      43.441  27.060  28.338  1.00  0.00     0.167 HD
ATOM     27  C   UNL A   1      47.750  26.874  27.663  1.00  0.00     0.037 A 
ATOM     28  C   UNL A   1      41.036  28.350  28.934  1.00  0.00     0.037 A 
ATOM     29  C   UNL A   1      47.482  28.247  28.008  1.00  0.00     0.049 A 
ATOM     30  C   UNL A   1      42.108  29.391  29.057  1.00  0.00     0.074 A 
ATOM     31  C   UNL A   1      48.372  29.304  28.100  1.00  0.00     0.029 A 
ATOM     32  N   UNL A   1      46.230  28.755  28.320  1.00  0.00    -0.354 N 
ATOM     33  N   UNL A   1      43.394  29.282  28.830  1.00  0.00    -0.248 NA
ATOM     34  C   UNL A   1      41.681  30.728  29.490  1.00  0.00     0.031 C 
ATOM     35  C   UNL A   1      47.666  30.441  28.506  1.00  0.00     0.029 A 
ATOM     36  C   UNL A   1      46.327  30.102  28.627  1.00  0.00     0.049 A 
ATOM     37  H   UNL A   1      45.394  28.234  28.324  1.00  0.00     0.167 HD
ATOM     38  C   UNL A   1      43.928  30.539  29.075  1.00  0.00     0.074 A 
ATOM     39  C   UNL A   1      42.824  31.399  29.451  1.00  0.00     0.031 C 
ATOM     40  C   UNL A   1      45.219  30.945  28.997  1.00  0.00     0.037 A 
BRANCH  27  41
ATOM     41  C   UNL A   1      49.177  26.470  27.436  1.00  0.00     0.057 A 
ATOM     42  C   UNL A   1      50.004  26.044  28.483  1.00  0.00     0.134 A 
ATOM     43  C   UNL A   1      49.718  26.466  26.144  1.00  0.00     0.134 A 
ATOM     44  F   UNL A   1      49.552  26.034  29.746  1.00  0.00    -0.206 F 
ATOM     45  C   UNL A   1      51.324  25.648  28.255  1.00  0.00     0.040 A 
ATOM     46  C   UNL A   1      51.028  26.052  25.900  1.00  0.00     0.040 A 
ATOM     47  F   UNL A   1      48.978  26.856  25.094  1.00  0.00    -0.206 F 
ATOM     48  C   UNL A   1      51.837  25.645  26.960  1.00  0.00     0.006 A 
ENDBRANCH  27  41
BRANCH  28  49
ATOM     49  C   UNL A   1      39.612  28.689  29.175  1.00  0.00     0.057 A 
ATOM     50  C   UNL A   1      39.033  28.513  30.437  1.00  0.00     0.134 A 
ATOM     51  C   UNL A   1      38.803  29.208  28.158  1.00  0.00     0.134 A 
ATOM     52  F   UNL A   1      39.755  28.004  31.445  1.00  0.00    -0.206 F 
ATOM     53  C   UNL A   1      37.695  28.831  30.676  1.00  0.00     0.040 A 
ATOM     54  C   UNL A   1      37.472  29.554  28.389  1.00  0.00     0.040 A 
ATOM     55  F   UNL A   1      39.304  29.407  26.929  1.00  0.00    -0.206 F 
ATOM     56  C   UNL A   1      36.914  29.361  29.651  1.00  0.00     0.006 A 
ENDBRANCH  28  49
BRANCH  40  57
ATOM     57  C   UNL A   1      45.495  32.386  29.299  1.00  0.00     0.057 A 
ATOM     58  C   UNL A   1      45.494  33.364  28.297  1.00  0.00     0.134 A 
ATOM     59  C   UNL A   1      45.753  32.802  30.611  1.00  0.00     0.134 A 
ATOM     60  F   UNL A   1      45.269  33.027  27.019  1.00  0.00    -0.206 F 
ATOM     61  C   UNL A   1      45.765  34.703  28.585  1.00  0.00     0.040 A 
ATOM     62  C   UNL A   1      46.003  34.141  30.916  1.00  0.00     0.040 A 
ATOM     63  F   UNL A   1      45.764  31.915  31.618  1.00  0.00    -0.206 F 
ATOM     64  C   UNL A   1      46.016  35.094  29.899  1.00  0.00     0.006 A 
ENDBRANCH  40  57
ENDBRANCH  14  15
ENDBRANCH   7   9
ENDBRANCH   4   5
ENDBRANCH   3   4
ENDBRANCH   2   3
ENDBRANCH   1   2
BRANCH   1  65
ATOM     65  C   UNL A   1      37.019  23.348  24.803  1.00  0.00     0.021 C 
BRANCH  65  66
ATOM     66  C   UNL A   1      35.979  23.880  25.788  1.00  0.00     0.116 C 
BRANCH  66  67
ATOM     67  N   UNL A   1      35.525  22.851  26.702  1.00  0.00    -0.349 N 
ATOM     68  C   UNL A   1      34.383  22.086  26.634  1.00  0.00     0.286 C 
ATOM     69  H   UNL A   1      36.111  22.675  27.474  1.00  0.00     0.163 HD
ATOM     70  O   UNL A   1      34.086  21.407  27.618  1.00  0.00    -0.266 OA
BRANCH  68  71
ATOM     71  C   UNL A   1      33.606  22.118  25.417  1.00  0.00     0.191 A 
ATOM     72  C   UNL A   1      33.680  21.385  24.246  1.00  0.00     0.056 A 
ATOM     73  O   UNL A   1      32.590  23.027  25.320  1.00  0.00    -0.454 OA
ATOM     74  C   UNL A   1      32.671  21.884  23.388  1.00  0.00     0.048 A 
ATOM     75  C   UNL A   1      32.041  22.896  24.080  1.00  0.00     0.124 A 
BRANCH  75  76
ATOM     76  C   UNL A   1      30.976  23.864  23.728  1.00  0.00     0.191 C 
BRANCH  76  77
ATOM     77  N   UNL A   1      30.304  24.316  24.929  1.00  0.00    -0.345 N 
ATOM     78  C   UNL A   1      30.091  25.599  25.363  1.00  0.00     0.253 C 
ATOM     79  H   UNL A   1      29.954  23.606  25.513  1.00  0.00     0.164 HD
ATOM     80  O   UNL A   1      29.615  25.808  26.474  1.00  0.00    -0.269 OA
BRANCH  78  81
ATOM     81  C   UNL A   1      30.448  26.743  24.508  1.00  0.00     0.058 A 
ATOM     82  C   UNL A   1      31.500  27.610  24.805  1.00  0.00     0.017 A 
ATOM     83  C   UNL A   1      29.730  26.950  23.340  1.00  0.00     0.124 A 
ATOM     84  C   UNL A   1      31.751  28.686  23.955  1.00  0.00     0.021 A 
ATOM     85  N   UNL A   1      29.957  27.988  22.495  1.00  0.00    -0.264 NA
ATOM     86  C   UNL A   1      30.957  28.834  22.828  1.00  0.00     0.111 A 
ENDBRANCH  78  81
ENDBRANCH  76  77
ENDBRANCH  75  76
ENDBRANCH  68  71
ENDBRANCH  66  67
ENDBRANCH  65  66
ENDBRANCH   1  65
TORSDOF 16
ENDMDL
MODEL 3
REMARK VINA RESULT:     -11.3      1.822      3.822
REMARK SMILES O=C(NCCCCCCNC(=O)c1ccc(CNC(=O)c2cccnc2)o1)c1ccc(-c2c3nc(c(-c4c(F)cccc4F)c4ccc([nH]4)c(-c4c(F)cccc4F)c4nc(c(-c5c(F)cccc5F)c5ccc2[nH]5)C=C4)C=C3)cc1
REMARK SMILES IDX 7 1 6 2 5 3 4 4 3 5 1 6 2 7 28 9 29 10 81 11 30 12 80 13
REMARK SMILES IDX 31 14 32 15 33 16 74 17 34 18 79 19 73 20 75 21 35 22 78 23
REMARK SMILES IDX 72 24 71 25 36 27 62 28 45 29 61 30 46 31 49 32 60 33 76 34
REMARK SMILES IDX 47 35 48 36 59 38 77 39 50 40 37 41 38 42 43 43 39 44 40 45
REMARK SMILES IDX 42 46 44 47 41 48 63 49 64 50 69 51 65 52 66 53 68 54 70 55
REMARK SMILES IDX 67 56 51 57 52 58 57 59 53 60 54 61 56 62 58 63 55 64 8 65
REMARK SMILES IDX 9 66 10 67 11 68 12 70 13 71 14 72 27 73 15 74 16 75 17 76
REMARK SMILES IDX 18 77 19 78 20 80 21 81 22 82 26 83 23 84 25 85 24 86
REMARK H PARENT 3 8 75 26 49 37 10 69 18 79
REMARK Flexibility Score: inf
ROOT
ATOM      1  C   UNL A   1      32.339  29.999  27.141  1.00  0.00     0.002 C 
ENDROOT
BRANCH   1   2
ATOM      2  C   UNL A   1      31.454  30.829  26.206  1.00  0.00     0.002 C 
BRANCH   2   3
ATOM      3  C   UNL A   1      31.336  32.314  26.551  1.00  0.00     0.021 C 
BRANCH   3   4
ATOM      4  C   UNL A   1      32.646  33.005  26.909  1.00  0.00     0.116 C 
BRANCH   4   5
ATOM      5  N   UNL A   1      32.458  34.197  27.719  1.00  0.00    -0.352 N 
ATOM      6  O   UNL A   1      32.771  35.591  29.466  1.00  0.00    -0.269 OA
ATOM      7  C   UNL A   1      33.155  34.616  28.828  1.00  0.00     0.251 C 
ATOM      8  H   UNL A   1      31.727  34.791  27.431  1.00  0.00     0.163 HD
BRANCH   7   9
ATOM      9  C   UNL A   1      34.351  33.868  29.276  1.00  0.00     0.039 A 
ATOM     10  C   UNL A   1      34.231  32.759  30.115  1.00  0.00     0.014 A 
ATOM     11  C   UNL A   1      35.615  34.290  28.852  1.00  0.00     0.014 A 
ATOM     12  C   UNL A   1      35.372  32.173  30.653  1.00  0.00     0.010 A 
ATOM     13  C   UNL A   1      36.762  33.645  29.326  1.00  0.00     0.010 A 
ATOM     14  C   UNL A   1      36.651  32.608  30.265  1.00  0.00    -0.014 A 
BRANCH  14  15
ATOM     15  C   UNL A   1      37.848  31.935  30.832  1.00  0.00     0.031 A 
ATOM     16  C   UNL A   1      38.310  32.219  32.235  1.00  0.00     0.074 A 
ATOM     17  C   UNL A   1      38.496  31.022  30.083  1.00  0.00     0.049 A 
ATOM     18  N   UNL A   1      39.295  31.671  32.905  1.00  0.00    -0.248 NA
ATOM     19  C   UNL A   1      37.583  33.256  32.984  1.00  0.00     0.031 C 
ATOM     20  C   UNL A   1      38.153  30.670  28.703  1.00  0.00     0.029 A 
ATOM     21  N   UNL A   1      39.554  30.203  30.382  1.00  0.00    -0.354 N 
ATOM     22  C   UNL A   1      39.321  32.312  34.138  1.00  0.00     0.074 A 
ATOM     23  C   UNL A   1      38.268  33.303  34.119  1.00  0.00     0.031 C 
ATOM     24  C   UNL A   1      38.945  29.668  28.296  1.00  0.00     0.029 A 
ATOM     25  C   UNL A   1      39.884  29.343  29.363  1.00  0.00     0.049 A 
ATOM     26  H   UNL A   1      40.032  30.230  31.243  1.00  0.00     0.167 HD
ATOM     27  C   UNL A   1      40.145  32.087  35.191  1.00  0.00     0.037 A 
ATOM     28  C   UNL A   1      40.838  28.397  29.294  1.00  0.00     0.037 A 
ATOM     29  C   UNL A   1      41.176  31.082  35.219  1.00  0.00     0.049 A 
ATOM     30  C   UNL A   1      41.735  28.171  30.475  1.00  0.00     0.074 A 
ATOM     31  C   UNL A   1      42.025  30.745  36.259  1.00  0.00     0.029 A 
ATOM     32  N   UNL A   1      41.501  30.253  34.156  1.00  0.00    -0.354 N 
ATOM     33  N   UNL A   1      41.717  28.754  31.649  1.00  0.00    -0.248 NA
ATOM     34  C   UNL A   1      42.787  27.158  30.319  1.00  0.00     0.031 C 
ATOM     35  C   UNL A   1      42.891  29.740  35.813  1.00  0.00     0.029 A 
ATOM     36  C   UNL A   1      42.552  29.421  34.508  1.00  0.00     0.049 A 
ATOM     37  H   UNL A   1      41.052  30.255  33.280  1.00  0.00     0.167 HD
ATOM     38  C   UNL A   1      42.742  28.167  32.378  1.00  0.00     0.074 A 
ATOM     39  C   UNL A   1      43.350  27.170  31.519  1.00  0.00     0.031 C 
ATOM     40  C   UNL A   1      43.145  28.433  33.644  1.00  0.00     0.037 A 
BRANCH  27  41
ATOM     41  C   UNL A   1      39.978  32.960  36.401  1.00  0.00     0.057 A 
ATOM     42  C   UNL A   1      39.068  32.651  37.420  1.00  0.00     0.134 A 
ATOM     43  C   UNL A   1      40.771  34.103  36.568  1.00  0.00     0.134 A 
ATOM     44  F   UNL A   1      38.272  31.576  37.317  1.00  0.00    -0.206 F 
ATOM     45  C   UNL A   1      38.939  33.458  38.553  1.00  0.00     0.040 A 
ATOM     46  C   UNL A   1      40.666  34.905  37.705  1.00  0.00     0.040 A 
ATOM     47  F   UNL A   1      41.667  34.453  35.633  1.00  0.00    -0.206 F 
ATOM     48  C   UNL A   1      39.744  34.586  38.700  1.00  0.00     0.006 A 
ENDBRANCH  27  41
BRANCH  28  49
ATOM     49  C   UNL A   1      40.978  27.581  28.064  1.00  0.00     0.057 A 
ATOM     50  C   UNL A   1      40.320  26.353  27.935  1.00  0.00     0.134 A 
ATOM     51  C   UNL A   1      41.757  28.015  26.985  1.00  0.00     0.134 A 
ATOM     52  F   UNL A   1      39.573  25.878  28.942  1.00  0.00    -0.206 F 
ATOM     53  C   UNL A   1      40.442  25.578  26.780  1.00  0.00     0.040 A 
ATOM     54  C   UNL A   1      41.868  27.263  25.815  1.00  0.00     0.040 A 
ATOM     55  F   UNL A   1      42.405  29.188  27.046  1.00  0.00    -0.206 F 
ATOM     56  C   UNL A   1      41.212  26.038  25.713  1.00  0.00     0.006 A 
ENDBRANCH  28  49
BRANCH  40  57
ATOM     57  C   UNL A   1      44.279  27.612  34.179  1.00  0.00     0.057 A 
ATOM     58  C   UNL A   1      44.066  26.377  34.803  1.00  0.00     0.134 A 
ATOM     59  C   UNL A   1      45.601  28.058  34.058  1.00  0.00     0.134 A 
ATOM     60  F   UNL A   1      42.821  25.902  34.964  1.00  0.00    -0.206 F 
ATOM     61  C   UNL A   1      45.126  25.625  35.311  1.00  0.00     0.040 A 
ATOM     62  C   UNL A   1      46.671  27.305  34.541  1.00  0.00     0.040 A 
ATOM     63  F   UNL A   1      45.873  29.231  33.465  1.00  0.00    -0.206 F 
ATOM     64  C   UNL A   1      46.434  26.087  35.176  1.00  0.00     0.006 A 
ENDBRANCH  40  57
ENDBRANCH  14  15
ENDBRANCH   7   9
ENDBRANCH   4   5
ENDBRANCH   3   4
ENDBRANCH   2   3
ENDBRANCH   1   2
BRANCH   1  65
ATOM     65  C   UNL A   1      33.769  29.739  26.652  1.00  0.00     0.021 C 
BRANCH  65  66
ATOM     66  C   UNL A   1      33.953  28.473  25.816  1.00  0.00     0.116 C 
BRANCH  66  67
ATOM     67  N   UNL A   1      34.200  28.779  24.421  1.00  0.00    -0.349 N 
ATOM     68  C   UNL A   1      33.484  28.382  23.315  1.00  0.00     0.286 C 
ATOM     69  H   UNL A   1      34.986  29.345  24.240  1.00  0.00     0.163 HD
ATOM     70  O   UNL A   1      33.978  28.587  22.206  1.00  0.00    -0.266 OA
BRANCH  68  71
ATOM     71  C   UNL A   1      32.198  27.758  23.517  1.00  0.00     0.191 A 
ATOM     72  C   UNL A   1      30.934  28.278  23.735  1.00  0.00     0.056 A 
ATOM     73  O   UNL A   1      32.133  26.392  23.519  1.00  0.00    -0.454 OA
ATOM     74  C   UNL A   1      30.061  27.175  23.894  1.00  0.00     0.048 A 
ATOM     75  C   UNL A   1      30.839  26.045  23.770  1.00  0.00     0.124 A 
BRANCH  75  76
ATOM     76  C   UNL A   1      30.565  24.595  23.913  1.00  0.00     0.191 C 
BRANCH  76  77
ATOM     77  N   UNL A   1      30.283  24.281  25.299  1.00  0.00    -0.345 N 
ATOM     78  C   UNL A   1      31.114  23.733  26.242  1.00  0.00     0.253 C 
ATOM     79  H   UNL A   1      29.371  24.489  25.604  1.00  0.00     0.164 HD
ATOM     80  O   UNL A   1      30.677  23.411  27.341  1.00  0.00    -0.269 OA
BRANCH  78  81
ATOM     81  C   UNL A   1      32.537  23.508  25.939  1.00  0.00     0.058 A 
ATOM     82  C   UNL A   1      33.506  24.503  26.075  1.00  0.00     0.017 A 
ATOM     83  C   UNL A   1      32.939  22.245  25.533  1.00  0.00     0.124 A 
ATOM     84  C   UNL A   1      34.826  24.212  25.740  1.00  0.00     0.021 A 
ATOM     85  N   UNL A   1      34.219  21.936  25.203  1.00  0.00    -0.264 NA
ATOM     86  C   UNL A   1      35.130  22.930  25.308  1.00  0.00     0.111 A 
ENDBRANCH  78  81
ENDBRANCH  76  77
ENDBRANCH  75  76
ENDBRANCH  68  71
ENDBRANCH  66  67
ENDBRANCH  65  66
ENDBRANCH   1  65
TORSDOF 16
ENDMDL
