MODEL 1
REMARK VINA RESULT:      -9.2      0.000      0.000
REMARK SMILES C[C@@H](C(=O)NCCCCCCNC(=O)c1ccc(-c2c3nc(c(-c4c(F)cccc4F)c4ccc([nH]4)c(-c4c(F)cccc4F)c4nc(c(-c5c(F)cccc5F)c5ccc2[nH]5)C=C4)C=C3)cc1)c1ccc(C[C@H]2CCC[C@H]2O)cc1
REMARK SMILES IDX 7 1 6 2 5 3 3 4 4 5 2 7 1 8 69 9 70 10 81 11 71 12 80 13
REMARK SMILES IDX 72 14 73 15 74 16 75 17 78 18 76 19 77 20 79 21 8 23 9 24
REMARK SMILES IDX 10 25 11 26 12 27 13 28 14 30 15 31 16 32 68 33 17 34 67 35
REMARK SMILES IDX 18 36 19 37 20 38 61 39 21 40 66 41 60 42 62 43 22 44 65 45
REMARK SMILES IDX 59 46 58 47 23 49 49 50 32 51 48 52 33 53 36 54 47 55 63 56
REMARK SMILES IDX 34 57 35 58 46 60 64 61 37 62 24 63 25 64 30 65 26 66 27 67
REMARK SMILES IDX 29 68 31 69 28 70 50 71 51 72 56 73 52 74 53 75 55 76 57 77
REMARK SMILES IDX 54 78 38 79 39 80 44 81 40 82 41 83 43 84 45 85 42 86
REMARK H PARENT 5 6 79 22 12 29 62 48 36 59
REMARK Flexibility Score: inf
ROOT
ATOM      1  C   UNL A   1      35.661  33.678  34.271  1.00  0.00     0.021 C 
ENDROOT
BRANCH   1   2
ATOM      2  C   UNL A   1      37.033  33.941  34.898  1.00  0.00     0.116 C 
BRANCH   2   3
ATOM      3  N   UNL A   1      37.385  32.864  35.796  1.00  0.00    -0.356 N 
ATOM      4  C   UNL A   1      37.826  31.604  35.520  1.00  0.00     0.227 C 
ATOM      5  O   UNL A   1      37.829  30.801  36.453  1.00  0.00    -0.274 OA
ATOM      6  H   UNL A   1      37.292  33.072  36.755  1.00  0.00     0.163 HD
BRANCH   4   7
ATOM      7  C   UNL A   1      38.323  31.274  34.108  1.00  0.00     0.105 C 
ATOM      8  C   UNL A   1      37.280  30.538  33.257  1.00  0.00     0.023 C 
BRANCH   7   9
ATOM      9  C   UNL A   1      39.614  30.467  34.121  1.00  0.00    -0.036 A 
ATOM     10  C   UNL A   1      39.773  29.379  33.256  1.00  0.00     0.005 A 
ATOM     11  C   UNL A   1      40.640  30.764  35.030  1.00  0.00     0.005 A 
ATOM     12  C   UNL A   1      40.888  28.550  33.368  1.00  0.00     0.004 A 
ATOM     13  C   UNL A   1      41.743  29.924  35.152  1.00  0.00     0.004 A 
ATOM     14  C   UNL A   1      41.842  28.771  34.367  1.00  0.00    -0.048 A 
BRANCH  14  15
ATOM     15  C   UNL A   1      42.915  27.752  34.648  1.00  0.00     0.041 C 
BRANCH  15  16
ATOM     16  C   UNL A   1      42.470  26.275  34.671  1.00  0.00     0.022 C 
ATOM     17  C   UNL A   1      43.587  25.216  34.610  1.00  0.00     0.007 C 
ATOM     18  C   UNL A   1      41.569  25.813  35.828  1.00  0.00     0.117 C 
ATOM     19  C   UNL A   1      43.050  23.986  35.347  1.00  0.00     0.003 C 
ATOM     20  C   UNL A   1      41.595  24.295  35.679  1.00  0.00     0.032 C 
BRANCH  18  21
ATOM     21  O   UNL A   1      42.039  26.142  37.123  1.00  0.00    -0.393 OA
ATOM     22  H   UNL A   1      41.665  26.994  37.397  1.00  0.00     0.210 HD
ENDBRANCH  18  21
ENDBRANCH  15  16
ENDBRANCH  14  15
ENDBRANCH   7   9
ENDBRANCH   4   7
ENDBRANCH   2   3
ENDBRANCH   1   2
BRANCH   1  23
ATOM     23  C   UNL A   1      34.819  34.945  34.066  1.00  0.00     0.002 C 
BRANCH  23  24
ATOM     24  C   UNL A   1      34.818  35.495  32.636  1.00  0.00     0.002 C 
BRANCH  24  25
ATOM     25  C   UNL A   1      33.428  35.717  32.037  1.00  0.00     0.021 C 
BRANCH  25  26
ATOM     26  C   UNL A   1      33.436  36.333  30.644  1.00  0.00     0.116 C 
BRANCH  26  27
ATOM     27  N   UNL A   1      32.742  35.499  29.677  1.00  0.00    -0.352 N 
ATOM     28  C   UNL A   1      33.221  34.441  28.949  1.00  0.00     0.251 C 
ATOM     29  H   UNL A   1      31.797  35.727  29.523  1.00  0.00     0.163 HD
ATOM     30  O   UNL A   1      32.554  33.968  28.036  1.00  0.00    -0.269 OA
BRANCH  28  31
ATOM     31  C   UNL A   1      34.552  33.876  29.259  1.00  0.00     0.039 A 
ATOM     32  C   UNL A   1      34.648  32.869  30.222  1.00  0.00     0.014 A 
ATOM     33  C   UNL A   1      35.705  34.359  28.630  1.00  0.00     0.014 A 
ATOM     34  C   UNL A   1      35.895  32.330  30.539  1.00  0.00     0.010 A 
ATOM     35  C   UNL A   1      36.938  33.768  28.892  1.00  0.00     0.010 A 
ATOM     36  C   UNL A   1      37.049  32.769  29.868  1.00  0.00    -0.014 A 
BRANCH  36  37
ATOM     37  C   UNL A   1      38.386  32.233  30.223  1.00  0.00     0.031 A 
ATOM     38  C   UNL A   1      38.844  30.920  29.646  1.00  0.00     0.074 A 
ATOM     39  C   UNL A   1      39.172  32.903  31.088  1.00  0.00     0.049 A 
ATOM     40  N   UNL A   1      39.960  30.270  29.853  1.00  0.00    -0.248 NA
ATOM     41  C   UNL A   1      37.909  30.233  28.740  1.00  0.00     0.031 C 
ATOM     42  C   UNL A   1      38.822  34.161  31.749  1.00  0.00     0.029 A 
ATOM     43  N   UNL A   1      40.427  32.616  31.559  1.00  0.00    -0.354 N 
ATOM     44  C   UNL A   1      39.852  29.093  29.123  1.00  0.00     0.074 A 
ATOM     45  C   UNL A   1      38.540  29.091  28.513  1.00  0.00     0.031 C 
ATOM     46  C   UNL A   1      39.853  34.554  32.516  1.00  0.00     0.029 A 
ATOM     47  C   UNL A   1      40.920  33.562  32.423  1.00  0.00     0.049 A 
ATOM     48  H   UNL A   1      40.927  31.807  31.303  1.00  0.00     0.167 HD
ATOM     49  C   UNL A   1      40.770  28.112  28.952  1.00  0.00     0.037 A 
ATOM     50  C   UNL A   1      42.105  33.624  33.061  1.00  0.00     0.037 A 
ATOM     51  C   UNL A   1      42.089  28.135  29.527  1.00  0.00     0.049 A 
ATOM     52  C   UNL A   1      43.116  32.534  32.840  1.00  0.00     0.074 A 
ATOM     53  C   UNL A   1      43.119  27.225  29.362  1.00  0.00     0.029 A 
ATOM     54  N   UNL A   1      42.561  29.126  30.375  1.00  0.00    -0.354 N 
ATOM     55  N   UNL A   1      43.028  31.462  32.090  1.00  0.00    -0.248 NA
ATOM     56  C   UNL A   1      44.399  32.671  33.543  1.00  0.00     0.031 C 
ATOM     57  C   UNL A   1      44.201  27.645  30.142  1.00  0.00     0.029 A 
ATOM     58  C   UNL A   1      43.863  28.841  30.754  1.00  0.00     0.049 A 
ATOM     59  H   UNL A   1      42.048  29.914  30.664  1.00  0.00     0.167 HD
ATOM     60  C   UNL A   1      44.253  30.818  32.200  1.00  0.00     0.074 A 
ATOM     61  C   UNL A   1      45.070  31.625  33.083  1.00  0.00     0.031 C 
ATOM     62  C   UNL A   1      44.666  29.665  31.620  1.00  0.00     0.037 A 
BRANCH  49  63
ATOM     63  C   UNL A   1      40.377  26.935  28.107  1.00  0.00     0.057 A 
ATOM     64  C   UNL A   1      40.844  26.774  26.796  1.00  0.00     0.134 A 
ATOM     65  C   UNL A   1      39.535  25.939  28.618  1.00  0.00     0.134 A 
ATOM     66  F   UNL A   1      41.642  27.699  26.241  1.00  0.00    -0.206 F 
ATOM     67  C   UNL A   1      40.464  25.683  26.013  1.00  0.00     0.040 A 
ATOM     68  C   UNL A   1      39.172  24.827  27.855  1.00  0.00     0.040 A 
ATOM     69  F   UNL A   1      39.056  26.027  29.868  1.00  0.00    -0.206 F 
ATOM     70  C   UNL A   1      39.630  24.702  26.546  1.00  0.00     0.006 A 
ENDBRANCH  49  63
BRANCH  50  71
ATOM     71  C   UNL A   1      42.420  34.784  33.933  1.00  0.00     0.057 A 
ATOM     72  C   UNL A   1      42.094  34.770  35.294  1.00  0.00     0.134 A 
ATOM     73  C   UNL A   1      43.041  35.934  33.430  1.00  0.00     0.134 A 
ATOM     74  F   UNL A   1      41.483  33.703  35.829  1.00  0.00    -0.206 F 
ATOM     75  C   UNL A   1      42.351  35.864  36.119  1.00  0.00     0.040 A 
ATOM     76  C   UNL A   1      43.325  37.027  34.249  1.00  0.00     0.040 A 
ATOM     77  F   UNL A   1      43.386  36.007  32.136  1.00  0.00    -0.206 F 
ATOM     78  C   UNL A   1      42.972  36.997  35.598  1.00  0.00     0.006 A 
ENDBRANCH  50  71
BRANCH  62  79
ATOM     79  C   UNL A   1      46.082  29.237  31.878  1.00  0.00     0.057 A 
ATOM     80  C   UNL A   1      46.434  28.467  32.993  1.00  0.00     0.134 A 
ATOM     81  C   UNL A   1      47.100  29.578  30.977  1.00  0.00     0.134 A 
ATOM     82  F   UNL A   1      45.509  28.119  33.899  1.00  0.00    -0.206 F 
ATOM     83  C   UNL A   1      47.755  28.074  33.217  1.00  0.00     0.040 A 
ATOM     84  C   UNL A   1      48.418  29.167  31.176  1.00  0.00     0.040 A 
ATOM     85  F   UNL A   1      46.827  30.305  29.883  1.00  0.00    -0.206 F 
ATOM     86  C   UNL A   1      48.750  28.419  32.304  1.00  0.00     0.006 A 
ENDBRANCH  62  79
ENDBRANCH  36  37
ENDBRANCH  28  31
ENDBRANCH  26  27
ENDBRANCH  25  26
ENDBRANCH  24  25
ENDBRANCH  23  24
ENDBRANCH   1  23
TORSDOF 17
ENDMDL
MODEL 2
REMARK VINA RESULT:      -9.1      4.563     10.388
REMARK SMILES C[C@@H](C(=O)NCCCCCCNC(=O)c1ccc(-c2c3nc(c(-c4c(F)cccc4F)c4ccc([nH]4)c(-c4c(F)cccc4F)c4nc(c(-c5c(F)cccc5F)c5ccc2[nH]5)C=C4)C=C3)cc1)c1ccc(C[C@H]2CCC[C@H]2O)cc1
REMARK SMILES IDX 7 1 6 2 5 3 3 4 4 5 2 7 1 8 69 9 70 10 81 11 71 12 80 13
REMARK SMILES IDX 72 14 73 15 74 16 75 17 78 18 76 19 77 20 79 21 8 23 9 24
REMARK SMILES IDX 10 25 11 26 12 27 13 28 14 30 15 31 16 32 68 33 17 34 67 35
REMARK SMILES IDX 18 36 19 37 20 38 61 39 21 40 66 41 60 42 62 43 22 44 65 45
REMARK SMILES IDX 59 46 58 47 23 49 49 50 32 51 48 52 33 53 36 54 47 55 63 56
REMARK SMILES IDX 34 57 35 58 46 60 64 61 37 62 24 63 25 64 30 65 26 66 27 67
REMARK SMILES IDX 29 68 31 69 28 70 50 71 51 72 56 73 52 74 53 75 55 76 57 77
REMARK SMILES IDX 54 78 38 79 39 80 44 81 40 82 41 83 43 84 45 85 42 86
REMARK H PARENT 5 6 79 22 12 29 62 48 36 59
REMARK Flexibility Score: inf
ROOT
ATOM      1  C   UNL A   1      32.145  28.904  26.950  1.00  0.00     0.021 C 
ENDROOT
BRANCH   1   2
ATOM      2  C   UNL A   1      33.383  28.070  27.288  1.00  0.00     0.116 C 
BRANCH   2   3
ATOM      3  N   UNL A   1      33.936  27.487  26.085  1.00  0.00    -0.356 N 
ATOM      4  C   UNL A   1      33.486  26.444  25.332  1.00  0.00     0.227 C 
ATOM      5  O   UNL A   1      34.264  25.991  24.491  1.00  0.00    -0.274 OA
ATOM      6  H   UNL A   1      34.764  27.910  25.760  1.00  0.00     0.163 HD
BRANCH   4   7
ATOM      7  C   UNL A   1      32.057  25.929  25.538  1.00  0.00     0.105 C 
ATOM      8  C   UNL A   1      31.941  24.404  25.415  1.00  0.00     0.023 C 
BRANCH   7   9
ATOM      9  C   UNL A   1      31.062  26.582  24.588  1.00  0.00    -0.036 A 
ATOM     10  C   UNL A   1      31.496  27.537  23.663  1.00  0.00     0.005 A 
ATOM     11  C   UNL A   1      29.695  26.280  24.658  1.00  0.00     0.005 A 
ATOM     12  C   UNL A   1      30.570  28.243  22.896  1.00  0.00     0.004 A 
ATOM     13  C   UNL A   1      28.771  27.000  23.905  1.00  0.00     0.004 A 
ATOM     14  C   UNL A   1      29.197  28.035  23.067  1.00  0.00    -0.048 A 
BRANCH  14  15
ATOM     15  C   UNL A   1      28.191  28.953  22.423  1.00  0.00     0.041 C 
BRANCH  15  16
ATOM     16  C   UNL A   1      28.627  30.420  22.232  1.00  0.00     0.022 C 
ATOM     17  C   UNL A   1      28.112  31.132  20.966  1.00  0.00     0.007 C 
ATOM     18  C   UNL A   1      28.339  31.412  23.371  1.00  0.00     0.117 C 
ATOM     19  C   UNL A   1      28.019  32.619  21.321  1.00  0.00     0.003 C 
ATOM     20  C   UNL A   1      28.622  32.759  22.714  1.00  0.00     0.032 C 
BRANCH  18  21
ATOM     21  O   UNL A   1      27.002  31.416  23.840  1.00  0.00    -0.393 OA
ATOM     22  H   UNL A   1      26.396  31.518  23.089  1.00  0.00     0.210 HD
ENDBRANCH  18  21
ENDBRANCH  15  16
ENDBRANCH  14  15
ENDBRANCH   7   9
ENDBRANCH   4   7
ENDBRANCH   2   3
ENDBRANCH   1   2
BRANCH   1  23
ATOM     23  C   UNL A   1      32.437  30.111  26.047  1.00  0.00     0.002 C 
BRANCH  23  24
ATOM     24  C   UNL A   1      31.209  30.945  25.670  1.00  0.00     0.002 C 
BRANCH  24  25
ATOM     25  C   UNL A   1      31.121  32.305  26.365  1.00  0.00     0.021 C 
BRANCH  25  26
ATOM     26  C   UNL A   1      32.376  32.699  27.133  1.00  0.00     0.116 C 
BRANCH  26  27
ATOM     27  N   UNL A   1      32.342  34.089  27.552  1.00  0.00    -0.352 N 
ATOM     28  C   UNL A   1      33.095  34.721  28.509  1.00  0.00     0.251 C 
ATOM     29  H   UNL A   1      31.687  34.657  27.086  1.00  0.00     0.163 HD
ATOM     30  O   UNL A   1      32.807  35.857  28.870  1.00  0.00    -0.269 OA
BRANCH  28  31
ATOM     31  C   UNL A   1      34.252  34.027  29.113  1.00  0.00     0.039 A 
ATOM     32  C   UNL A   1      35.539  34.371  28.691  1.00  0.00     0.014 A 
ATOM     33  C   UNL A   1      34.071  33.017  30.064  1.00  0.00     0.014 A 
ATOM     34  C   UNL A   1      36.645  33.719  29.239  1.00  0.00     0.010 A 
ATOM     35  C   UNL A   1      35.177  32.422  30.664  1.00  0.00     0.010 A 
ATOM     36  C   UNL A   1      36.472  32.747  30.237  1.00  0.00    -0.014 A 
BRANCH  36  37
ATOM     37  C   UNL A   1      37.635  32.018  30.800  1.00  0.00     0.031 A 
ATOM     38  C   UNL A   1      38.121  32.341  32.188  1.00  0.00     0.074 A 
ATOM     39  C   UNL A   1      38.276  31.097  30.056  1.00  0.00     0.049 A 
ATOM     40  N   UNL A   1      39.134  31.840  32.847  1.00  0.00    -0.248 NA
ATOM     41  C   UNL A   1      37.389  33.388  32.919  1.00  0.00     0.031 C 
ATOM     42  C   UNL A   1      37.930  30.727  28.683  1.00  0.00     0.029 A 
ATOM     43  N   UNL A   1      39.356  30.304  30.353  1.00  0.00    -0.354 N 
ATOM     44  C   UNL A   1      39.173  32.524  34.056  1.00  0.00     0.074 A 
ATOM     45  C   UNL A   1      38.118  33.513  34.018  1.00  0.00     0.031 C 
ATOM     46  C   UNL A   1      38.761  29.756  28.268  1.00  0.00     0.029 A 
ATOM     47  C   UNL A   1      39.714  29.458  29.332  1.00  0.00     0.049 A 
ATOM     48  H   UNL A   1      39.829  30.339  31.215  1.00  0.00     0.167 HD
ATOM     49  C   UNL A   1      39.994  32.331  35.115  1.00  0.00     0.037 A 
ATOM     50  C   UNL A   1      40.697  28.540  29.269  1.00  0.00     0.037 A 
ATOM     51  C   UNL A   1      41.016  31.319  35.167  1.00  0.00     0.049 A 
ATOM     52  C   UNL A   1      41.584  28.329  30.465  1.00  0.00     0.074 A 
ATOM     53  C   UNL A   1      41.858  30.995  36.218  1.00  0.00     0.029 A 
ATOM     54  N   UNL A   1      41.331  30.463  34.122  1.00  0.00    -0.354 N 
ATOM     55  N   UNL A   1      41.563  28.934  31.628  1.00  0.00    -0.248 NA
ATOM     56  C   UNL A   1      42.621  27.296  30.343  1.00  0.00     0.031 C 
ATOM     57  C   UNL A   1      42.709  29.970  35.794  1.00  0.00     0.029 A 
ATOM     58  C   UNL A   1      42.365  29.621  34.497  1.00  0.00     0.049 A 
ATOM     59  H   UNL A   1      40.886  30.455  33.245  1.00  0.00     0.167 HD
ATOM     60  C   UNL A   1      42.556  28.330  32.389  1.00  0.00     0.074 A 
ATOM     61  C   UNL A   1      43.153  27.306  31.557  1.00  0.00     0.031 C 
ATOM     62  C   UNL A   1      42.936  28.597  33.663  1.00  0.00     0.037 A 
BRANCH  49  63
ATOM     63  C   UNL A   1      39.815  33.231  36.303  1.00  0.00     0.057 A 
ATOM     64  C   UNL A   1      40.531  34.428  36.442  1.00  0.00     0.134 A 
ATOM     65  C   UNL A   1      38.901  32.907  37.314  1.00  0.00     0.134 A 
ATOM     66  F   UNL A   1      41.433  34.791  35.517  1.00  0.00    -0.206 F 
ATOM     67  C   UNL A   1      40.368  35.253  37.555  1.00  0.00     0.040 A 
ATOM     68  C   UNL A   1      38.707  33.739  38.419  1.00  0.00     0.040 A 
ATOM     69  F   UNL A   1      38.178  31.779  37.243  1.00  0.00    -0.206 F 
ATOM     70  C   UNL A   1      39.449  34.912  38.545  1.00  0.00     0.006 A 
ENDBRANCH  49  63
BRANCH  50  71
ATOM     71  C   UNL A   1      40.867  27.716  28.046  1.00  0.00     0.057 A 
ATOM     72  C   UNL A   1      41.658  28.163  26.981  1.00  0.00     0.134 A 
ATOM     73  C   UNL A   1      40.238  26.473  27.905  1.00  0.00     0.134 A 
ATOM     74  F   UNL A   1      42.271  29.353  27.051  1.00  0.00    -0.206 F 
ATOM     75  C   UNL A   1      41.799  27.418  25.811  1.00  0.00     0.040 A 
ATOM     76  C   UNL A   1      40.390  25.705  26.749  1.00  0.00     0.040 A 
ATOM     77  F   UNL A   1      39.474  25.984  28.892  1.00  0.00    -0.206 F 
ATOM     78  C   UNL A   1      41.167  26.182  25.693  1.00  0.00     0.006 A 
ENDBRANCH  50  71
BRANCH  62  79
ATOM     79  C   UNL A   1      44.011  27.731  34.252  1.00  0.00     0.057 A 
ATOM     80  C   UNL A   1      45.367  28.071  34.170  1.00  0.00     0.134 A 
ATOM     81  C   UNL A   1      43.678  26.556  34.938  1.00  0.00     0.134 A 
ATOM     82  F   UNL A   1      45.752  29.178  33.517  1.00  0.00    -0.206 F 
ATOM     83  C   UNL A   1      46.356  27.258  34.726  1.00  0.00     0.040 A 
ATOM     84  C   UNL A   1      44.655  25.749  35.522  1.00  0.00     0.040 A 
ATOM     85  F   UNL A   1      42.397  26.178  35.061  1.00  0.00    -0.206 F 
ATOM     86  C   UNL A   1      46.000  26.096  35.410  1.00  0.00     0.006 A 
ENDBRANCH  62  79
ENDBRANCH  36  37
ENDBRANCH  28  31
ENDBRANCH  26  27
ENDBRANCH  25  26
ENDBRANCH  24  25
ENDBRANCH  23  24
ENDBRANCH   1  23
TORSDOF 17
ENDMDL
MODEL 3
REMARK VINA RESULT:      -9.1      5.717     11.448
REMARK SMILES C[C@@H](C(=O)NCCCCCCNC(=O)c1ccc(-c2c3nc(c(-c4c(F)cccc4F)c4ccc([nH]4)c(-c4c(F)cccc4F)c4nc(c(-c5c(F)cccc5F)c5ccc2[nH]5)C=C4)C=C3)cc1)c1ccc(C[C@H]2CCC[C@H]2O)cc1
REMARK SMILES IDX 7 1 6 2 5 3 3 4 4 5 2 7 1 8 69 9 70 10 81 11 71 12 80 13
REMARK SMILES IDX 72 14 73 15 74 16 75 17 78 18 76 19 77 20 79 21 8 23 9 24
REMARK SMILES IDX 10 25 11 26 12 27 13 28 14 30 15 31 16 32 68 33 17 34 67 35
REMARK SMILES IDX 18 36 19 37 20 38 61 39 21 40 66 41 60 42 62 43 22 44 65 45
REMARK SMILES IDX 59 46 58 47 23 49 49 50 32 51 48 52 33 53 36 54 47 55 63 56
REMARK SMILES IDX 34 57 35 58 46 60 64 61 37 62 24 63 25 64 30 65 26 66 27 67
REMARK SMILES IDX 29 68 31 69 28 70 50 71 51 72 56 73 52 74 53 75 55 76 57 77
REMARK SMILES IDX 54 78 38 79 39 80 44 81 40 82 41 83 43 84 45 85 42 86
REMARK H PARENT 5 6 79 22 12 29 62 48 36 59
REMARK Flexibility Score: inf
ROOT
ATOM      1  C   UNL A   1      36.178  23.079  25.159  1.00  0.00     0.021 C 
ENDROOT
BRANCH   1   2
ATOM      2  C   UNL A   1      35.217  24.202  24.760  1.00  0.00     0.116 C 
BRANCH   2   3
ATOM      3  N   UNL A   1      34.238  24.416  25.804  1.00  0.00    -0.356 N 
ATOM      4  C   UNL A   1      32.898  24.642  25.713  1.00  0.00     0.227 C 
ATOM      5  O   UNL A   1      32.330  25.029  26.735  1.00  0.00    -0.274 OA
ATOM      6  H   UNL A   1      34.597  24.395  26.721  1.00  0.00     0.163 HD
BRANCH   4   7
ATOM      7  C   UNL A   1      32.177  24.370  24.387  1.00  0.00     0.105 C 
ATOM      8  C   UNL A   1      30.772  24.982  24.327  1.00  0.00     0.023 C 
BRANCH   7   9
ATOM      9  C   UNL A   1      32.087  22.883  24.071  1.00  0.00    -0.036 A 
ATOM     10  C   UNL A   1      32.080  21.942  25.106  1.00  0.00     0.005 A 
ATOM     11  C   UNL A   1      32.062  22.429  22.744  1.00  0.00     0.005 A 
ATOM     12  C   UNL A   1      32.147  20.580  24.817  1.00  0.00     0.004 A 
ATOM     13  C   UNL A   1      32.148  21.069  22.459  1.00  0.00     0.004 A 
ATOM     14  C   UNL A   1      32.260  20.137  23.495  1.00  0.00    -0.048 A 
BRANCH  14  15
ATOM     15  C   UNL A   1      32.572  18.695  23.189  1.00  0.00     0.041 C 
BRANCH  15  16
ATOM     16  C   UNL A   1      33.332  17.911  24.278  1.00  0.00     0.022 C 
ATOM     17  C   UNL A   1      32.490  16.980  25.172  1.00  0.00     0.007 C 
ATOM     18  C   UNL A   1      34.526  17.046  23.843  1.00  0.00     0.117 C 
ATOM     19  C   UNL A   1      33.425  15.848  25.608  1.00  0.00     0.003 C 
ATOM     20  C   UNL A   1      34.811  16.224  25.095  1.00  0.00     0.032 C 
BRANCH  18  21
ATOM     21  O   UNL A   1      34.263  16.154  22.774  1.00  0.00    -0.393 OA
ATOM     22  H   UNL A   1      33.316  16.172  22.564  1.00  0.00     0.210 HD
ENDBRANCH  18  21
ENDBRANCH  15  16
ENDBRANCH  14  15
ENDBRANCH   7   9
ENDBRANCH   4   7
ENDBRANCH   2   3
ENDBRANCH   1   2
BRANCH   1  23
ATOM     23  C   UNL A   1      36.098  21.842  24.253  1.00  0.00     0.002 C 
BRANCH  23  24
ATOM     24  C   UNL A   1      36.070  20.501  24.992  1.00  0.00     0.002 C 
BRANCH  24  25
ATOM     25  C   UNL A   1      37.353  19.677  24.870  1.00  0.00     0.021 C 
BRANCH  25  26
ATOM     26  C   UNL A   1      38.574  20.316  25.520  1.00  0.00     0.116 C 
BRANCH  26  27
ATOM     27  N   UNL A   1      39.668  19.372  25.668  1.00  0.00    -0.352 N 
ATOM     28  C   UNL A   1      40.962  19.604  26.059  1.00  0.00     0.251 C 
ATOM     29  H   UNL A   1      39.451  18.435  25.456  1.00  0.00     0.163 HD
ATOM     30  O   UNL A   1      41.808  18.724  25.946  1.00  0.00    -0.269 OA
BRANCH  28  31
ATOM     31  C   UNL A   1      41.339  20.924  26.609  1.00  0.00     0.039 A 
ATOM     32  C   UNL A   1      41.851  21.892  25.742  1.00  0.00     0.014 A 
ATOM     33  C   UNL A   1      41.224  21.194  27.977  1.00  0.00     0.014 A 
ATOM     34  C   UNL A   1      42.226  23.140  26.242  1.00  0.00     0.010 A 
ATOM     35  C   UNL A   1      41.526  22.464  28.461  1.00  0.00     0.010 A 
ATOM     36  C   UNL A   1      42.056  23.439  27.604  1.00  0.00    -0.014 A 
BRANCH  36  37
ATOM     37  C   UNL A   1      42.487  24.747  28.157  1.00  0.00     0.031 A 
ATOM     38  C   UNL A   1      41.470  25.832  28.389  1.00  0.00     0.074 A 
ATOM     39  C   UNL A   1      43.789  24.973  28.413  1.00  0.00     0.049 A 
ATOM     40  N   UNL A   1      41.647  27.049  28.836  1.00  0.00    -0.248 NA
ATOM     41  C   UNL A   1      40.074  25.517  28.046  1.00  0.00     0.031 C 
ATOM     42  C   UNL A   1      44.875  24.019  28.186  1.00  0.00     0.029 A 
ATOM     43  N   UNL A   1      44.419  26.081  28.919  1.00  0.00    -0.354 N 
ATOM     44  C   UNL A   1      40.393  27.648  28.807  1.00  0.00     0.074 A 
ATOM     45  C   UNL A   1      39.474  26.680  28.247  1.00  0.00     0.031 C 
ATOM     46  C   UNL A   1      46.034  24.571  28.583  1.00  0.00     0.029 A 
ATOM     47  C   UNL A   1      45.776  25.925  29.062  1.00  0.00     0.049 A 
ATOM     48  H   UNL A   1      43.944  26.910  29.157  1.00  0.00     0.167 HD
ATOM     49  C   UNL A   1      40.031  28.881  29.231  1.00  0.00     0.037 A 
ATOM     50  C   UNL A   1      46.704  26.779  29.535  1.00  0.00     0.037 A 
ATOM     51  C   UNL A   1      40.939  29.827  29.825  1.00  0.00     0.049 A 
ATOM     52  C   UNL A   1      46.275  28.136  30.019  1.00  0.00     0.074 A 
ATOM     53  C   UNL A   1      40.661  31.078  30.350  1.00  0.00     0.029 A 
ATOM     54  N   UNL A   1      42.302  29.621  29.978  1.00  0.00    -0.354 N 
ATOM     55  N   UNL A   1      45.074  28.662  30.052  1.00  0.00    -0.248 NA
ATOM     56  C   UNL A   1      47.330  29.012  30.548  1.00  0.00     0.031 C 
ATOM     57  C   UNL A   1      41.864  31.645  30.784  1.00  0.00     0.029 A 
ATOM     58  C   UNL A   1      42.882  30.728  30.575  1.00  0.00     0.049 A 
ATOM     59  H   UNL A   1      42.785  28.809  29.703  1.00  0.00     0.167 HD
ATOM     60  C   UNL A   1      45.223  29.913  30.638  1.00  0.00     0.074 A 
ATOM     61  C   UNL A   1      46.629  30.062  30.952  1.00  0.00     0.031 C 
ATOM     62  C   UNL A   1      44.280  30.852  30.896  1.00  0.00     0.037 A 
BRANCH  49  63
ATOM     63  C   UNL A   1      38.591  29.274  29.070  1.00  0.00     0.057 A 
ATOM     64  C   UNL A   1      37.689  29.246  30.142  1.00  0.00     0.134 A 
ATOM     65  C   UNL A   1      38.104  29.706  27.829  1.00  0.00     0.134 A 
ATOM     66  F   UNL A   1      38.087  28.829  31.353  1.00  0.00    -0.206 F 
ATOM     67  C   UNL A   1      36.349  29.601  29.980  1.00  0.00     0.040 A 
ATOM     68  C   UNL A   1      36.772  30.093  27.662  1.00  0.00     0.040 A 
ATOM     69  F   UNL A   1      38.913  29.763  26.761  1.00  0.00    -0.206 F 
ATOM     70  C   UNL A   1      35.890  30.033  28.738  1.00  0.00     0.006 A 
ENDBRANCH  49  63
BRANCH  50  71
ATOM     71  C   UNL A   1      48.126  26.360  29.619  1.00  0.00     0.057 A 
ATOM     72  C   UNL A   1      48.621  25.723  30.763  1.00  0.00     0.134 A 
ATOM     73  C   UNL A   1      49.024  26.595  28.571  1.00  0.00     0.134 A 
ATOM     74  F   UNL A   1      47.813  25.487  31.806  1.00  0.00    -0.206 F 
ATOM     75  C   UNL A   1      49.963  25.356  30.872  1.00  0.00     0.040 A 
ATOM     76  C   UNL A   1      50.363  26.211  28.657  1.00  0.00     0.040 A 
ATOM     77  F   UNL A   1      48.609  27.194  27.444  1.00  0.00    -0.206 F 
ATOM     78  C   UNL A   1      50.838  25.596  29.815  1.00  0.00     0.006 A 
ENDBRANCH  50  71
BRANCH  62  79
ATOM     79  C   UNL A   1      44.730  32.099  31.600  1.00  0.00     0.057 A 
ATOM     80  C   UNL A   1      45.146  33.238  30.900  1.00  0.00     0.134 A 
ATOM     81  C   UNL A   1      44.715  32.167  32.999  1.00  0.00     0.134 A 
ATOM     82  F   UNL A   1      45.195  33.233  29.560  1.00  0.00    -0.206 F 
ATOM     83  C   UNL A   1      45.558  34.392  31.569  1.00  0.00     0.040 A 
ATOM     84  C   UNL A   1      45.098  33.324  33.678  1.00  0.00     0.040 A 
ATOM     85  F   UNL A   1      44.317  31.114  33.728  1.00  0.00    -0.206 F 
ATOM     86  C   UNL A   1      45.528  34.439  32.962  1.00  0.00     0.006 A 
ENDBRANCH  62  79
ENDBRANCH  36  37
ENDBRANCH  28  31
ENDBRANCH  26  27
ENDBRANCH  25  26
ENDBRANCH  24  25
ENDBRANCH  23  24
ENDBRANCH   1  23
TORSDOF 17
ENDMDL
