MODEL 1
REMARK VINA RESULT:     -12.2      0.000      0.000
REMARK SMILES Cc1nn(Cc2ccc(Cl)cc2Cl)c(C)c1NC(=O)c1c(C(=O)NCCCCCCNC(=O)c2ccc(-c3c4nc(c(-c5c(F)cccc5F)c5ccc([nH]5)c(-c5c(F)cccc5F)c5nc(c(-c6c(F)cccc6F)c6ccc3[nH]6)C=C5)C=C4)cc2)cnn1C
REMARK SMILES IDX 26 1 25 2 24 3 22 4 23 5 21 7 20 8 90 9 88 10 89 11 91 12
REMARK SMILES IDX 18 13 17 14 19 16 16 17 1 18 2 19 3 20 4 21 14 22 15 23 5 24
REMARK SMILES IDX 6 25 7 26 12 27 8 28 11 29 13 30 9 31 10 32 27 33 28 34
REMARK SMILES IDX 29 35 30 36 31 37 32 38 33 40 34 41 35 42 87 43 36 44 86 45
REMARK SMILES IDX 37 46 38 47 39 48 80 49 40 50 85 51 79 52 81 53 41 54 84 55
REMARK SMILES IDX 78 56 77 57 42 59 68 60 51 61 67 62 52 63 55 64 66 65 82 66
REMARK SMILES IDX 53 67 54 68 65 70 83 71 56 72 43 73 44 74 49 75 45 76 46 77
REMARK SMILES IDX 48 78 50 79 47 80 69 81 70 82 75 83 71 84 72 85 74 86 76 87
REMARK SMILES IDX 73 88 57 89 58 90 63 91 59 92 60 93 62 94 64 95 61 96
REMARK H PARENT 24 6 17 15 31 39 81 58 55 69
REMARK Flexibility Score: inf
ROOT
ATOM      1  C   UNL A   1      31.958  29.450  24.551  1.00  0.00     0.021 C 
ENDROOT
BRANCH   1   2
ATOM      2  C   UNL A   1      30.975  28.968  23.473  1.00  0.00     0.116 C 
BRANCH   2   3
ATOM      3  N   UNL A   1      30.163  27.817  23.839  1.00  0.00    -0.352 N 
ATOM      4  C   UNL A   1      30.425  26.461  23.840  1.00  0.00     0.255 C 
ATOM      5  O   UNL A   1      29.563  25.725  24.320  1.00  0.00    -0.269 OA
ATOM      6  H   UNL A   1      29.256  28.048  24.142  1.00  0.00     0.163 HD
BRANCH   4   7
ATOM      7  C   UNL A   1      31.651  25.924  23.273  1.00  0.00     0.090 A 
ATOM      8  C   UNL A   1      32.783  25.513  23.989  1.00  0.00     0.138 A 
ATOM      9  N   UNL A   1      33.681  25.082  23.038  1.00  0.00    -0.262 N 
ATOM     10  C   UNL A   1      32.033  25.764  21.921  1.00  0.00     0.149 A 
ATOM     11  N   UNL A   1      33.231  25.203  21.775  1.00  0.00    -0.180 NA
ATOM     12  C   UNL A   1      34.930  24.381  23.245  1.00  0.00     0.174 C 
BRANCH   8  13
ATOM     13  C   UNL A   1      33.095  25.549  25.402  1.00  0.00     0.274 C 
ATOM     14  N   UNL A   1      32.774  24.519  26.259  1.00  0.00    -0.317 N 
ATOM     15  H   UNL A   1      32.846  24.750  27.213  1.00  0.00     0.170 HD
ATOM     16  O   UNL A   1      33.658  26.527  25.899  1.00  0.00    -0.267 OA
BRANCH  14  17
ATOM     17  C   UNL A   1      32.367  23.224  26.016  1.00  0.00     0.085 A 
ATOM     18  C   UNL A   1      29.888  23.322  26.872  1.00  0.00     0.071 C 
ATOM     19  C   UNL A   1      31.062  22.689  26.222  1.00  0.00     0.083 A 
ATOM     20  N   UNL A   1      30.947  21.460  25.699  1.00  0.00    -0.175 NA
ATOM     21  N   UNL A   1      32.176  21.215  25.209  1.00  0.00    -0.263 N 
ATOM     22  C   UNL A   1      33.111  22.128  25.639  1.00  0.00     0.060 A 
ATOM     23  C   UNL A   1      34.559  21.834  25.619  1.00  0.00     0.069 C 
BRANCH  21  24
ATOM     24  C   UNL A   1      32.328  20.381  24.018  1.00  0.00     0.181 C 
BRANCH  24  25
ATOM     25  C   UNL A   1      32.571  18.929  24.312  1.00  0.00    -0.008 A 
ATOM     26  C   UNL A   1      32.632  18.534  25.656  1.00  0.00     0.009 A 
ATOM     27  C   UNL A   1      32.727  17.943  23.319  1.00  0.00     0.047 A 
ATOM     28  C   UNL A   1      32.902  17.210  25.989  1.00  0.00     0.021 A 
ATOM     29  C   UNL A   1      33.032  16.626  23.658  1.00  0.00     0.041 A 
ATOM     30  Cl  UNL A   1      32.516  18.249  21.633  1.00  0.00    -0.084 Cl
ATOM     31  C   UNL A   1      33.124  16.265  24.993  1.00  0.00     0.042 A 
ATOM     32  Cl  UNL A   1      33.518  14.638  25.377  1.00  0.00    -0.084 Cl
ENDBRANCH  24  25
ENDBRANCH  21  24
ENDBRANCH  14  17
ENDBRANCH   8  13
ENDBRANCH   4   7
ENDBRANCH   2   3
ENDBRANCH   1   2
BRANCH   1  33
ATOM     33  C   UNL A   1      31.469  30.536  25.505  1.00  0.00     0.002 C 
BRANCH  33  34
ATOM     34  C   UNL A   1      31.889  30.347  26.962  1.00  0.00     0.002 C 
BRANCH  34  35
ATOM     35  C   UNL A   1      33.107  29.440  27.192  1.00  0.00     0.021 C 
BRANCH  35  36
ATOM     36  C   UNL A   1      34.444  30.172  27.211  1.00  0.00     0.116 C 
BRANCH  36  37
ATOM     37  N   UNL A   1      34.391  31.413  27.976  1.00  0.00    -0.352 N 
ATOM     38  C   UNL A   1      35.051  31.704  29.156  1.00  0.00     0.251 C 
ATOM     39  H   UNL A   1      33.818  32.126  27.610  1.00  0.00     0.163 HD
ATOM     40  O   UNL A   1      34.644  32.565  29.916  1.00  0.00    -0.269 OA
BRANCH  38  41
ATOM     41  C   UNL A   1      36.287  30.963  29.462  1.00  0.00     0.039 A 
ATOM     42  C   UNL A   1      36.259  29.625  29.869  1.00  0.00     0.014 A 
ATOM     43  C   UNL A   1      37.493  31.648  29.337  1.00  0.00     0.014 A 
ATOM     44  C   UNL A   1      37.465  28.964  30.090  1.00  0.00     0.010 A 
ATOM     45  C   UNL A   1      38.675  30.963  29.418  1.00  0.00     0.010 A 
ATOM     46  C   UNL A   1      38.671  29.641  29.853  1.00  0.00    -0.014 A 
BRANCH  46  47
ATOM     47  C   UNL A   1      39.960  28.967  29.944  1.00  0.00     0.031 A 
ATOM     48  C   UNL A   1      40.506  28.852  31.326  1.00  0.00     0.074 A 
ATOM     49  C   UNL A   1      40.475  28.284  28.897  1.00  0.00     0.049 A 
ATOM     50  N   UNL A   1      41.596  29.368  31.789  1.00  0.00    -0.248 NA
ATOM     51  C   UNL A   1      39.679  28.196  32.352  1.00  0.00     0.031 C 
ATOM     52  C   UNL A   1      39.903  28.102  27.560  1.00  0.00     0.029 A 
ATOM     53  N   UNL A   1      41.597  27.517  28.840  1.00  0.00    -0.354 N 
ATOM     54  C   UNL A   1      41.696  28.938  33.112  1.00  0.00     0.074 A 
ATOM     55  C   UNL A   1      40.416  28.376  33.450  1.00  0.00     0.031 C 
ATOM     56  C   UNL A   1      40.574  27.130  26.903  1.00  0.00     0.029 A 
ATOM     57  C   UNL A   1      41.702  26.701  27.707  1.00  0.00     0.049 A 
ATOM     58  H   UNL A   1      42.284  27.534  29.543  1.00  0.00     0.167 HD
ATOM     59  C   UNL A   1      42.902  28.871  33.745  1.00  0.00     0.037 A 
ATOM     60  C   UNL A   1      42.652  25.749  27.488  1.00  0.00     0.037 A 
ATOM     61  C   UNL A   1      43.903  29.625  33.032  1.00  0.00     0.049 A 
ATOM     62  C   UNL A   1      43.757  26.066  28.437  1.00  0.00     0.074 A 
ATOM     63  C   UNL A   1      44.036  30.950  32.666  1.00  0.00     0.029 A 
ATOM     64  N   UNL A   1      44.781  28.928  32.238  1.00  0.00    -0.354 N 
ATOM     65  N   UNL A   1      44.561  27.081  28.280  1.00  0.00    -0.248 NA
ATOM     66  C   UNL A   1      43.686  25.529  29.792  1.00  0.00     0.031 C 
ATOM     67  C   UNL A   1      44.585  30.910  31.350  1.00  0.00     0.029 A 
ATOM     68  C   UNL A   1      44.829  29.575  31.030  1.00  0.00     0.049 A 
ATOM     69  H   UNL A   1      45.281  28.118  32.489  1.00  0.00     0.167 HD
ATOM     70  C   UNL A   1      44.761  27.574  29.560  1.00  0.00     0.074 A 
ATOM     71  C   UNL A   1      44.273  26.528  30.458  1.00  0.00     0.031 C 
ATOM     72  C   UNL A   1      45.018  28.899  29.771  1.00  0.00     0.037 A 
BRANCH  59  73
ATOM     73  C   UNL A   1      43.278  27.838  34.779  1.00  0.00     0.057 A 
ATOM     74  C   UNL A   1      43.636  28.262  36.073  1.00  0.00     0.134 A 
ATOM     75  C   UNL A   1      43.594  26.497  34.481  1.00  0.00     0.134 A 
ATOM     76  F   UNL A   1      43.394  29.518  36.478  1.00  0.00    -0.206 F 
ATOM     77  C   UNL A   1      44.337  27.442  36.966  1.00  0.00     0.040 A 
ATOM     78  C   UNL A   1      44.247  25.654  35.386  1.00  0.00     0.040 A 
ATOM     79  F   UNL A   1      43.387  25.959  33.274  1.00  0.00    -0.206 F 
ATOM     80  C   UNL A   1      44.654  26.135  36.618  1.00  0.00     0.006 A 
ENDBRANCH  59  73
BRANCH  60  81
ATOM     81  C   UNL A   1      42.696  24.522  26.639  1.00  0.00     0.057 A 
ATOM     82  C   UNL A   1      43.256  24.578  25.346  1.00  0.00     0.134 A 
ATOM     83  C   UNL A   1      42.438  23.226  27.107  1.00  0.00     0.134 A 
ATOM     84  F   UNL A   1      43.522  25.756  24.761  1.00  0.00    -0.206 F 
ATOM     85  C   UNL A   1      43.635  23.435  24.626  1.00  0.00     0.040 A 
ATOM     86  C   UNL A   1      42.793  22.072  26.387  1.00  0.00     0.040 A 
ATOM     87  F   UNL A   1      41.921  23.009  28.323  1.00  0.00    -0.206 F 
ATOM     88  C   UNL A   1      43.433  22.173  25.162  1.00  0.00     0.006 A 
ENDBRANCH  60  81
BRANCH  72  89
ATOM     89  C   UNL A   1      45.271  29.767  28.568  1.00  0.00     0.057 A 
ATOM     90  C   UNL A   1      44.263  30.445  27.863  1.00  0.00     0.134 A 
ATOM     91  C   UNL A   1      46.590  30.057  28.214  1.00  0.00     0.134 A 
ATOM     92  F   UNL A   1      42.974  30.314  28.197  1.00  0.00    -0.206 F 
ATOM     93  C   UNL A   1      44.555  31.333  26.824  1.00  0.00     0.040 A 
ATOM     94  C   UNL A   1      46.898  30.971  27.203  1.00  0.00     0.040 A 
ATOM     95  F   UNL A   1      47.610  29.494  28.882  1.00  0.00    -0.206 F 
ATOM     96  C   UNL A   1      45.879  31.604  26.496  1.00  0.00     0.006 A 
ENDBRANCH  72  89
ENDBRANCH  46  47
ENDBRANCH  38  41
ENDBRANCH  36  37
ENDBRANCH  35  36
ENDBRANCH  34  35
ENDBRANCH  33  34
ENDBRANCH   1  33
TORSDOF 17
ENDMDL
MODEL 2
REMARK VINA RESULT:     -12.1      2.548      6.476
REMARK SMILES Cc1nn(Cc2ccc(Cl)cc2Cl)c(C)c1NC(=O)c1c(C(=O)NCCCCCCNC(=O)c2ccc(-c3c4nc(c(-c5c(F)cccc5F)c5ccc([nH]5)c(-c5c(F)cccc5F)c5nc(c(-c6c(F)cccc6F)c6ccc3[nH]6)C=C5)C=C4)cc2)cnn1C
REMARK SMILES IDX 26 1 25 2 24 3 22 4 23 5 21 7 20 8 90 9 88 10 89 11 91 12
REMARK SMILES IDX 18 13 17 14 19 16 16 17 1 18 2 19 3 20 4 21 14 22 15 23 5 24
REMARK SMILES IDX 6 25 7 26 12 27 8 28 11 29 13 30 9 31 10 32 27 33 28 34
REMARK SMILES IDX 29 35 30 36 31 37 32 38 33 40 34 41 35 42 87 43 36 44 86 45
REMARK SMILES IDX 37 46 38 47 39 48 80 49 40 50 85 51 79 52 81 53 41 54 84 55
REMARK SMILES IDX 78 56 77 57 42 59 68 60 51 61 67 62 52 63 55 64 66 65 82 66
REMARK SMILES IDX 53 67 54 68 65 70 83 71 56 72 43 73 44 74 49 75 45 76 46 77
REMARK SMILES IDX 48 78 50 79 47 80 69 81 70 82 75 83 71 84 72 85 74 86 76 87
REMARK SMILES IDX 73 88 57 89 58 90 63 91 59 92 60 93 62 94 64 95 61 96
REMARK H PARENT 24 6 17 15 31 39 81 58 55 69
REMARK Flexibility Score: inf
ROOT
ATOM      1  C   UNL A   1      33.992  28.541  24.180  1.00  0.00     0.021 C 
ENDROOT
BRANCH   1   2
ATOM      2  C   UNL A   1      33.473  27.475  23.202  1.00  0.00     0.116 C 
BRANCH   2   3
ATOM      3  N   UNL A   1      32.059  27.569  22.870  1.00  0.00    -0.352 N 
ATOM      4  C   UNL A   1      30.927  27.091  23.499  1.00  0.00     0.255 C 
ATOM      5  O   UNL A   1      29.841  27.433  23.030  1.00  0.00    -0.269 OA
ATOM      6  H   UNL A   1      31.875  28.065  22.040  1.00  0.00     0.163 HD
BRANCH   4   7
ATOM      7  C   UNL A   1      31.012  26.201  24.644  1.00  0.00     0.090 A 
ATOM      8  C   UNL A   1      30.960  24.800  24.609  1.00  0.00     0.138 A 
ATOM      9  N   UNL A   1      31.078  24.397  25.921  1.00  0.00    -0.262 N 
ATOM     10  C   UNL A   1      31.077  26.499  26.025  1.00  0.00     0.149 A 
ATOM     11  N   UNL A   1      31.177  25.417  26.793  1.00  0.00    -0.180 NA
ATOM     12  C   UNL A   1      31.277  23.055  26.426  1.00  0.00     0.174 C 
BRANCH   8  13
ATOM     13  C   UNL A   1      30.759  23.870  23.518  1.00  0.00     0.274 C 
ATOM     14  N   UNL A   1      31.735  22.992  23.103  1.00  0.00    -0.317 N 
ATOM     15  H   UNL A   1      31.555  22.569  22.233  1.00  0.00     0.170 HD
ATOM     16  O   UNL A   1      29.691  23.842  22.903  1.00  0.00    -0.267 OA
BRANCH  14  17
ATOM     17  C   UNL A   1      32.921  22.602  23.689  1.00  0.00     0.085 A 
ATOM     18  C   UNL A   1      32.318  20.158  24.433  1.00  0.00     0.071 C 
ATOM     19  C   UNL A   1      33.222  21.317  24.230  1.00  0.00     0.083 A 
ATOM     20  N   UNL A   1      34.522  21.206  24.537  1.00  0.00    -0.175 NA
ATOM     21  N   UNL A   1      35.018  22.420  24.232  1.00  0.00    -0.263 N 
ATOM     22  C   UNL A   1      34.034  23.352  23.999  1.00  0.00     0.060 A 
ATOM     23  C   UNL A   1      34.294  24.804  24.091  1.00  0.00     0.069 C 
BRANCH  21  24
ATOM     24  C   UNL A   1      36.395  22.539  23.757  1.00  0.00     0.181 C 
BRANCH  24  25
ATOM     25  C   UNL A   1      37.429  22.449  24.842  1.00  0.00    -0.008 A 
ATOM     26  C   UNL A   1      37.739  23.619  25.549  1.00  0.00     0.009 A 
ATOM     27  C   UNL A   1      38.091  21.258  25.196  1.00  0.00     0.047 A 
ATOM     28  C   UNL A   1      38.723  23.606  26.534  1.00  0.00     0.021 A 
ATOM     29  C   UNL A   1      39.100  21.260  26.158  1.00  0.00     0.041 A 
ATOM     30  Cl  UNL A   1      37.700  19.716  24.528  1.00  0.00    -0.084 Cl
ATOM     31  C   UNL A   1      39.417  22.435  26.820  1.00  0.00     0.042 A 
ATOM     32  Cl  UNL A   1      40.676  22.405  27.987  1.00  0.00    -0.084 Cl
ENDBRANCH  24  25
ENDBRANCH  21  24
ENDBRANCH  14  17
ENDBRANCH   8  13
ENDBRANCH   4   7
ENDBRANCH   2   3
ENDBRANCH   1   2
BRANCH   1  33
ATOM     33  C   UNL A   1      32.957  29.454  24.830  1.00  0.00     0.002 C 
BRANCH  33  34
ATOM     34  C   UNL A   1      33.221  29.780  26.299  1.00  0.00     0.002 C 
BRANCH  34  35
ATOM     35  C   UNL A   1      34.131  28.794  27.047  1.00  0.00     0.021 C 
BRANCH  35  36
ATOM     36  C   UNL A   1      35.483  29.368  27.454  1.00  0.00     0.116 C 
BRANCH  36  37
ATOM     37  N   UNL A   1      35.488  29.867  28.825  1.00  0.00    -0.352 N 
ATOM     38  C   UNL A   1      36.414  29.597  29.818  1.00  0.00     0.251 C 
ATOM     39  H   UNL A   1      34.746  30.465  29.074  1.00  0.00     0.163 HD
ATOM     40  O   UNL A   1      36.131  29.708  30.997  1.00  0.00    -0.269 OA
BRANCH  38  41
ATOM     41  C   UNL A   1      37.773  29.197  29.410  1.00  0.00     0.039 A 
ATOM     42  C   UNL A   1      38.408  29.775  28.307  1.00  0.00     0.014 A 
ATOM     43  C   UNL A   1      38.403  28.210  30.165  1.00  0.00     0.014 A 
ATOM     44  C   UNL A   1      39.714  29.393  28.007  1.00  0.00     0.010 A 
ATOM     45  C   UNL A   1      39.728  27.938  29.955  1.00  0.00     0.010 A 
ATOM     46  C   UNL A   1      40.369  28.477  28.844  1.00  0.00    -0.014 A 
BRANCH  46  47
ATOM     47  C   UNL A   1      41.774  28.135  28.656  1.00  0.00     0.031 A 
ATOM     48  C   UNL A   1      42.011  26.854  27.932  1.00  0.00     0.074 A 
ATOM     49  C   UNL A   1      42.757  29.034  28.890  1.00  0.00     0.049 A 
ATOM     50  N   UNL A   1      42.594  25.792  28.378  1.00  0.00    -0.248 NA
ATOM     51  C   UNL A   1      41.413  26.685  26.597  1.00  0.00     0.031 C 
ATOM     52  C   UNL A   1      42.632  30.418  29.355  1.00  0.00     0.029 A 
ATOM     53  N   UNL A   1      44.094  28.921  28.668  1.00  0.00    -0.354 N 
ATOM     54  C   UNL A   1      42.616  24.887  27.317  1.00  0.00     0.074 A 
ATOM     55  C   UNL A   1      41.728  25.418  26.318  1.00  0.00     0.031 C 
ATOM     56  C   UNL A   1      43.807  31.065  29.189  1.00  0.00     0.029 A 
ATOM     57  C   UNL A   1      44.810  30.123  28.729  1.00  0.00     0.049 A 
ATOM     58  H   UNL A   1      44.526  28.059  28.477  1.00  0.00     0.167 HD
ATOM     59  C   UNL A   1      43.545  23.892  27.255  1.00  0.00     0.037 A 
ATOM     60  C   UNL A   1      46.124  30.293  28.408  1.00  0.00     0.037 A 
ATOM     61  C   UNL A   1      44.179  23.696  28.535  1.00  0.00     0.049 A 
ATOM     62  C   UNL A   1      46.716  28.925  28.427  1.00  0.00     0.074 A 
ATOM     63  C   UNL A   1      43.728  23.357  29.795  1.00  0.00     0.029 A 
ATOM     64  N   UNL A   1      45.427  24.242  28.719  1.00  0.00    -0.354 N 
ATOM     65  N   UNL A   1      46.942  28.263  29.528  1.00  0.00    -0.248 NA
ATOM     66  C   UNL A   1      46.637  28.116  27.216  1.00  0.00     0.031 C 
ATOM     67  C   UNL A   1      44.484  24.176  30.685  1.00  0.00     0.029 A 
ATOM     68  C   UNL A   1      45.403  24.898  29.922  1.00  0.00     0.049 A 
ATOM     69  H   UNL A   1      46.192  24.175  28.103  1.00  0.00     0.167 HD
ATOM     70  C   UNL A   1      46.612  26.951  29.225  1.00  0.00     0.074 A 
ATOM     71  C   UNL A   1      46.517  26.904  27.766  1.00  0.00     0.031 C 
ATOM     72  C   UNL A   1      46.149  26.102  30.189  1.00  0.00     0.037 A 
BRANCH  59  73
ATOM     73  C   UNL A   1      44.152  23.355  25.981  1.00  0.00     0.057 A 
ATOM     74  C   UNL A   1      44.088  21.973  25.720  1.00  0.00     0.134 A 
ATOM     75  C   UNL A   1      45.047  24.076  25.164  1.00  0.00     0.134 A 
ATOM     76  F   UNL A   1      43.278  21.174  26.433  1.00  0.00    -0.206 F 
ATOM     77  C   UNL A   1      44.918  21.345  24.784  1.00  0.00     0.040 A 
ATOM     78  C   UNL A   1      45.841  23.466  24.189  1.00  0.00     0.040 A 
ATOM     79  F   UNL A   1      45.279  25.383  25.330  1.00  0.00    -0.206 F 
ATOM     80  C   UNL A   1      45.806  22.092  24.021  1.00  0.00     0.006 A 
ENDBRANCH  59  73
BRANCH  60  81
ATOM     81  C   UNL A   1      46.927  31.474  27.975  1.00  0.00     0.057 A 
ATOM     82  C   UNL A   1      46.545  32.208  26.834  1.00  0.00     0.134 A 
ATOM     83  C   UNL A   1      47.921  32.083  28.755  1.00  0.00     0.134 A 
ATOM     84  F   UNL A   1      45.629  31.726  25.980  1.00  0.00    -0.206 F 
ATOM     85  C   UNL A   1      47.029  33.494  26.553  1.00  0.00     0.040 A 
ATOM     86  C   UNL A   1      48.429  33.364  28.474  1.00  0.00     0.040 A 
ATOM     87  F   UNL A   1      48.377  31.517  29.879  1.00  0.00    -0.206 F 
ATOM     88  C   UNL A   1      47.953  34.092  27.395  1.00  0.00     0.006 A 
ENDBRANCH  60  81
BRANCH  72  89
ATOM     89  C   UNL A   1      46.191  26.570  31.618  1.00  0.00     0.057 A 
ATOM     90  C   UNL A   1      45.147  27.268  32.248  1.00  0.00     0.134 A 
ATOM     91  C   UNL A   1      47.251  26.158  32.429  1.00  0.00     0.134 A 
ATOM     92  F   UNL A   1      44.041  27.614  31.580  1.00  0.00    -0.206 F 
ATOM     93  C   UNL A   1      45.181  27.579  33.610  1.00  0.00     0.040 A 
ATOM     94  C   UNL A   1      47.280  26.430  33.799  1.00  0.00     0.040 A 
ATOM     95  F   UNL A   1      48.257  25.434  31.912  1.00  0.00    -0.206 F 
ATOM     96  C   UNL A   1      46.249  27.153  34.392  1.00  0.00     0.006 A 
ENDBRANCH  72  89
ENDBRANCH  46  47
ENDBRANCH  38  41
ENDBRANCH  36  37
ENDBRANCH  35  36
ENDBRANCH  34  35
ENDBRANCH  33  34
ENDBRANCH   1  33
TORSDOF 17
ENDMDL
MODEL 3
REMARK VINA RESULT:     -11.8      1.479      2.442
REMARK SMILES Cc1nn(Cc2ccc(Cl)cc2Cl)c(C)c1NC(=O)c1c(C(=O)NCCCCCCNC(=O)c2ccc(-c3c4nc(c(-c5c(F)cccc5F)c5ccc([nH]5)c(-c5c(F)cccc5F)c5nc(c(-c6c(F)cccc6F)c6ccc3[nH]6)C=C5)C=C4)cc2)cnn1C
REMARK SMILES IDX 26 1 25 2 24 3 22 4 23 5 21 7 20 8 90 9 88 10 89 11 91 12
REMARK SMILES IDX 18 13 17 14 19 16 16 17 1 18 2 19 3 20 4 21 14 22 15 23 5 24
REMARK SMILES IDX 6 25 7 26 12 27 8 28 11 29 13 30 9 31 10 32 27 33 28 34
REMARK SMILES IDX 29 35 30 36 31 37 32 38 33 40 34 41 35 42 87 43 36 44 86 45
REMARK SMILES IDX 37 46 38 47 39 48 80 49 40 50 85 51 79 52 81 53 41 54 84 55
REMARK SMILES IDX 78 56 77 57 42 59 68 60 51 61 67 62 52 63 55 64 66 65 82 66
REMARK SMILES IDX 53 67 54 68 65 70 83 71 56 72 43 73 44 74 49 75 45 76 46 77
REMARK SMILES IDX 48 78 50 79 47 80 69 81 70 82 75 83 71 84 72 85 74 86 76 87
REMARK SMILES IDX 73 88 57 89 58 90 63 91 59 92 60 93 62 94 64 95 61 96
REMARK H PARENT 24 6 17 15 31 39 81 58 55 69
REMARK Flexibility Score: inf
ROOT
ATOM      1  C   UNL A   1      33.315  29.542  27.501  1.00  0.00     0.021 C 
ENDROOT
BRANCH   1   2
ATOM      2  C   UNL A   1      32.442  28.283  27.378  1.00  0.00     0.116 C 
BRANCH   2   3
ATOM      3  N   UNL A   1      33.115  27.105  26.851  1.00  0.00    -0.352 N 
ATOM      4  C   UNL A   1      33.535  26.770  25.580  1.00  0.00     0.255 C 
ATOM      5  O   UNL A   1      34.189  25.734  25.462  1.00  0.00    -0.269 OA
ATOM      6  H   UNL A   1      33.307  26.418  27.529  1.00  0.00     0.163 HD
BRANCH   4   7
ATOM      7  C   UNL A   1      33.195  27.587  24.427  1.00  0.00     0.090 A 
ATOM      8  C   UNL A   1      31.920  27.732  23.862  1.00  0.00     0.138 A 
ATOM      9  N   UNL A   1      32.085  28.594  22.801  1.00  0.00    -0.262 N 
ATOM     10  C   UNL A   1      34.029  28.339  23.568  1.00  0.00     0.149 A 
ATOM     11  N   UNL A   1      33.358  28.994  22.623  1.00  0.00    -0.180 NA
ATOM     12  C   UNL A   1      31.060  29.227  22.000  1.00  0.00     0.174 C 
BRANCH   8  13
ATOM     13  C   UNL A   1      30.649  27.116  24.182  1.00  0.00     0.274 C 
ATOM     14  N   UNL A   1      30.409  25.773  23.997  1.00  0.00    -0.317 N 
ATOM     15  H   UNL A   1      29.459  25.521  24.050  1.00  0.00     0.170 HD
ATOM     16  O   UNL A   1      29.716  27.790  24.625  1.00  0.00    -0.267 OA
BRANCH  14  17
ATOM     17  C   UNL A   1      31.263  24.718  23.751  1.00  0.00     0.085 A 
ATOM     18  C   UNL A   1      32.153  25.360  21.365  1.00  0.00     0.071 C 
ATOM     19  C   UNL A   1      32.101  24.551  22.608  1.00  0.00     0.083 A 
ATOM     20  N   UNL A   1      32.953  23.529  22.770  1.00  0.00    -0.175 NA
ATOM     21  N   UNL A   1      32.624  23.039  23.980  1.00  0.00    -0.263 N 
ATOM     22  C   UNL A   1      31.436  23.547  24.453  1.00  0.00     0.060 A 
ATOM     23  C   UNL A   1      30.654  22.859  25.501  1.00  0.00     0.069 C 
BRANCH  21  24
ATOM     24  C   UNL A   1      33.656  22.437  24.822  1.00  0.00     0.181 C 
BRANCH  24  25
ATOM     25  C   UNL A   1      33.844  20.964  24.605  1.00  0.00    -0.008 A 
ATOM     26  C   UNL A   1      32.765  20.236  24.083  1.00  0.00     0.009 A 
ATOM     27  C   UNL A   1      35.042  20.277  24.881  1.00  0.00     0.047 A 
ATOM     28  C   UNL A   1      32.866  18.859  23.904  1.00  0.00     0.021 A 
ATOM     29  C   UNL A   1      35.125  18.894  24.734  1.00  0.00     0.041 A 
ATOM     30  Cl  UNL A   1      36.498  21.064  25.371  1.00  0.00    -0.084 Cl
ATOM     31  C   UNL A   1      34.034  18.188  24.251  1.00  0.00     0.042 A 
ATOM     32  Cl  UNL A   1      34.164  16.483  24.097  1.00  0.00    -0.084 Cl
ENDBRANCH  24  25
ENDBRANCH  21  24
ENDBRANCH  14  17
ENDBRANCH   8  13
ENDBRANCH   4   7
ENDBRANCH   2   3
ENDBRANCH   1   2
BRANCH   1  33
ATOM     33  C   UNL A   1      34.823  29.336  27.607  1.00  0.00     0.002 C 
BRANCH  33  34
ATOM     34  C   UNL A   1      35.652  30.618  27.536  1.00  0.00     0.002 C 
BRANCH  34  35
ATOM     35  C   UNL A   1      34.868  31.928  27.704  1.00  0.00     0.021 C 
BRANCH  35  36
ATOM     36  C   UNL A   1      35.597  33.001  28.504  1.00  0.00     0.116 C 
BRANCH  36  37
ATOM     37  N   UNL A   1      35.044  33.171  29.844  1.00  0.00    -0.352 N 
ATOM     38  C   UNL A   1      35.207  32.337  30.935  1.00  0.00     0.251 C 
ATOM     39  H   UNL A   1      34.488  33.972  29.988  1.00  0.00     0.163 HD
ATOM     40  O   UNL A   1      34.407  32.328  31.854  1.00  0.00    -0.269 OA
BRANCH  38  41
ATOM     41  C   UNL A   1      36.400  31.471  30.976  1.00  0.00     0.039 A 
ATOM     42  C   UNL A   1      36.295  30.077  30.972  1.00  0.00     0.014 A 
ATOM     43  C   UNL A   1      37.643  32.097  31.025  1.00  0.00     0.014 A 
ATOM     44  C   UNL A   1      37.461  29.315  30.955  1.00  0.00     0.010 A 
ATOM     45  C   UNL A   1      38.783  31.354  30.868  1.00  0.00     0.010 A 
ATOM     46  C   UNL A   1      38.703  29.966  30.895  1.00  0.00    -0.014 A 
BRANCH  46  47
ATOM     47  C   UNL A   1      39.951  29.225  30.748  1.00  0.00     0.031 A 
ATOM     48  C   UNL A   1      40.729  29.062  32.009  1.00  0.00     0.074 A 
ATOM     49  C   UNL A   1      40.232  28.533  29.622  1.00  0.00     0.049 A 
ATOM     50  N   UNL A   1      41.910  29.514  32.271  1.00  0.00    -0.248 NA
ATOM     51  C   UNL A   1      40.066  28.433  33.163  1.00  0.00     0.031 C 
ATOM     52  C   UNL A   1      39.421  28.401  28.409  1.00  0.00     0.029 A 
ATOM     53  N   UNL A   1      41.283  27.711  29.359  1.00  0.00    -0.354 N 
ATOM     54  C   UNL A   1      42.224  29.060  33.552  1.00  0.00     0.074 A 
ATOM     55  C   UNL A   1      40.997  28.559  34.112  1.00  0.00     0.031 C 
ATOM     56  C   UNL A   1      39.910  27.406  27.636  1.00  0.00     0.029 A 
ATOM     57  C   UNL A   1      41.140  26.908  28.221  1.00  0.00     0.049 A 
ATOM     58  H   UNL A   1      42.086  27.682  29.927  1.00  0.00     0.167 HD
ATOM     59  C   UNL A   1      43.518  28.922  33.956  1.00  0.00     0.037 A 
ATOM     60  C   UNL A   1      41.984  25.912  27.829  1.00  0.00     0.037 A 
ATOM     61  C   UNL A   1      44.413  29.635  33.079  1.00  0.00     0.049 A 
ATOM     62  C   UNL A   1      43.256  26.158  28.566  1.00  0.00     0.074 A 
ATOM     63  C   UNL A   1      44.548  30.956  32.702  1.00  0.00     0.029 A 
ATOM     64  N   UNL A   1      45.096  28.906  32.136  1.00  0.00    -0.354 N 
ATOM     65  N   UNL A   1      44.071  27.133  28.272  1.00  0.00    -0.248 NA
ATOM     66  C   UNL A   1      43.401  25.605  29.907  1.00  0.00     0.031 C 
ATOM     67  C   UNL A   1      44.849  30.909  31.310  1.00  0.00     0.029 A 
ATOM     68  C   UNL A   1      44.960  29.568  30.943  1.00  0.00     0.049 A 
ATOM     69  H   UNL A   1      45.590  28.067  32.288  1.00  0.00     0.167 HD
ATOM     70  C   UNL A   1      44.524  27.596  29.497  1.00  0.00     0.074 A 
ATOM     71  C   UNL A   1      44.150  26.563  30.463  1.00  0.00     0.031 C 
ATOM     72  C   UNL A   1      44.885  28.902  29.666  1.00  0.00     0.037 A 
BRANCH  59  73
ATOM     73  C   UNL A   1      44.019  27.855  34.900  1.00  0.00     0.057 A 
ATOM     74  C   UNL A   1      44.808  28.231  36.003  1.00  0.00     0.134 A 
ATOM     75  C   UNL A   1      44.018  26.476  34.609  1.00  0.00     0.134 A 
ATOM     76  F   UNL A   1      44.898  29.517  36.380  1.00  0.00    -0.206 F 
ATOM     77  C   UNL A   1      45.606  27.319  36.703  1.00  0.00     0.040 A 
ATOM     78  C   UNL A   1      44.770  25.549  35.336  1.00  0.00     0.040 A 
ATOM     79  F   UNL A   1      43.379  25.963  33.552  1.00  0.00    -0.206 F 
ATOM     80  C   UNL A   1      45.596  25.972  36.363  1.00  0.00     0.006 A 
ENDBRANCH  59  73
BRANCH  60  81
ATOM     81  C   UNL A   1      41.809  24.697  26.979  1.00  0.00     0.057 A 
ATOM     82  C   UNL A   1      42.794  24.352  26.031  1.00  0.00     0.134 A 
ATOM     83  C   UNL A   1      40.842  23.707  27.203  1.00  0.00     0.134 A 
ATOM     84  F   UNL A   1      43.761  25.219  25.694  1.00  0.00    -0.206 F 
ATOM     85  C   UNL A   1      42.875  23.082  25.440  1.00  0.00     0.040 A 
ATOM     86  C   UNL A   1      40.899  22.438  26.602  1.00  0.00     0.040 A 
ATOM     87  F   UNL A   1      39.851  23.881  28.086  1.00  0.00    -0.206 F 
ATOM     88  C   UNL A   1      41.942  22.106  25.751  1.00  0.00     0.006 A 
ENDBRANCH  60  81
BRANCH  72  89
ATOM     89  C   UNL A   1      44.962  29.775  28.443  1.00  0.00     0.057 A 
ATOM     90  C   UNL A   1      43.883  30.519  27.939  1.00  0.00     0.134 A 
ATOM     91  C   UNL A   1      46.209  29.996  27.854  1.00  0.00     0.134 A 
ATOM     92  F   UNL A   1      42.672  30.456  28.503  1.00  0.00    -0.206 F 
ATOM     93  C   UNL A   1      44.032  31.407  26.870  1.00  0.00     0.040 A 
ATOM     94  C   UNL A   1      46.379  30.907  26.809  1.00  0.00     0.040 A 
ATOM     95  F   UNL A   1      47.299  29.366  28.320  1.00  0.00    -0.206 F 
ATOM     96  C   UNL A   1      45.287  31.609  26.305  1.00  0.00     0.006 A 
ENDBRANCH  72  89
ENDBRANCH  46  47
ENDBRANCH  38  41
ENDBRANCH  36  37
ENDBRANCH  35  36
ENDBRANCH  34  35
ENDBRANCH  33  34
ENDBRANCH   1  33
TORSDOF 17
ENDMDL
