MODEL 1
REMARK VINA RESULT:     -12.0      0.000      0.000
REMARK SMILES CS(=O)(=O)N1C[C@@H]2CN(C(=O)c3ccco3)C[C@]2(C(=O)NCCCCCCNC(=O)c2ccc(-c3c4nc(c(-c5c(F)cccc5F)c5ccc([nH]5)c(-c5c(F)cccc5F)c5nc(c(-c6c(F)cccc6F)c6ccc3[nH]6)C=C5)C=C4)cc2)C1
REMARK SMILES IDX 24 1 23 2 22 3 21 4 19 5 20 6 18 8 5 9 6 10 85 11 7 12 8 13
REMARK SMILES IDX 17 14 9 15 2 16 1 17 3 18 4 19 10 20 11 21 12 22 13 23 16 24
REMARK SMILES IDX 14 25 15 26 25 27 26 28 27 29 28 30 29 31 30 33 31 34 32 35
REMARK SMILES IDX 84 36 33 37 83 38 34 39 35 40 36 41 77 42 37 43 82 44 76 45
REMARK SMILES IDX 78 46 38 47 81 48 75 49 74 50 39 52 65 53 48 54 64 55 49 56
REMARK SMILES IDX 52 57 63 58 79 59 50 60 51 61 62 63 80 64 53 65 40 66 41 67
REMARK SMILES IDX 46 68 42 69 43 70 45 71 47 72 44 73 66 74 67 75 72 76 68 77
REMARK SMILES IDX 69 78 71 79 73 80 70 81 54 82 55 83 60 84 56 85 57 86 59 87
REMARK SMILES IDX 61 88 58 89
REMARK H PARENT 21 7 28 32 78 51 52 62
REMARK Flexibility Score: inf
ROOT
ATOM      1  C   UNL A   1      32.066  29.475  27.186  1.00  0.00     0.002 C 
ENDROOT
BRANCH   1   2
ATOM      2  C   UNL A   1      33.518  29.047  26.983  1.00  0.00     0.021 C 
BRANCH   2   3
ATOM      3  C   UNL A   1      33.720  27.998  25.891  1.00  0.00     0.116 C 
BRANCH   3   4
ATOM      4  N   UNL A   1      34.092  28.661  24.658  1.00  0.00    -0.356 N 
ATOM      5  C   UNL A   1      33.723  28.279  23.391  1.00  0.00     0.229 C 
ATOM      6  O   UNL A   1      34.397  28.664  22.435  1.00  0.00    -0.274 OA
ATOM      7  H   UNL A   1      34.661  29.461  24.735  1.00  0.00     0.163 HD
BRANCH   5   8
ATOM      8  C   UNL A   1      32.440  27.414  23.281  1.00  0.00     0.086 C 
ATOM      9  N   UNL A   1      30.305  28.683  23.132  1.00  0.00    -0.201 NA
ATOM     10  C   UNL A   1      29.942  27.291  22.998  1.00  0.00     0.108 C 
ATOM     11  C   UNL A   1      31.752  28.813  22.834  1.00  0.00     0.121 C 
ATOM     12  C   UNL A   1      31.250  26.691  22.531  1.00  0.00     0.042 C 
ATOM     13  C   UNL A   1      31.326  25.219  22.859  1.00  0.00     0.126 C 
ATOM     14  C   UNL A   1      33.410  26.282  22.635  1.00  0.00     0.138 C 
ATOM     15  N   UNL A   1      32.738  25.012  22.928  1.00  0.00    -0.334 N 
BRANCH   9  16
ATOM     16  S   UNL A   1      29.239  29.898  22.691  1.00  0.00     0.211 S 
ATOM     17  C   UNL A   1      27.646  29.117  22.863  1.00  0.00     0.176 C 
ATOM     18  O   UNL A   1      29.443  30.168  21.283  1.00  0.00    -0.213 OA
ATOM     19  O   UNL A   1      29.339  30.947  23.681  1.00  0.00    -0.213 OA
ENDBRANCH   9  16
BRANCH  15  20
ATOM     20  C   UNL A   1      33.217  23.839  23.502  1.00  0.00     0.289 C 
ATOM     21  O   UNL A   1      32.422  22.978  23.885  1.00  0.00    -0.265 OA
BRANCH  20  22
ATOM     22  C   UNL A   1      34.635  23.694  23.748  1.00  0.00     0.191 A 
ATOM     23  C   UNL A   1      35.370  24.029  24.873  1.00  0.00     0.056 A 
ATOM     24  O   UNL A   1      35.454  23.097  22.830  1.00  0.00    -0.459 OA
ATOM     25  C   UNL A   1      36.706  23.644  24.619  1.00  0.00     0.043 A 
ATOM     26  C   UNL A   1      36.698  23.050  23.378  1.00  0.00     0.196 A 
ENDBRANCH  20  22
ENDBRANCH  15  20
ENDBRANCH   5   8
ENDBRANCH   3   4
ENDBRANCH   2   3
ENDBRANCH   1   2
BRANCH   1  27
ATOM     27  C   UNL A   1      31.594  30.551  26.208  1.00  0.00     0.002 C 
BRANCH  27  28
ATOM     28  C   UNL A   1      31.435  31.949  26.814  1.00  0.00     0.021 C 
BRANCH  28  29
ATOM     29  C   UNL A   1      32.725  32.760  26.911  1.00  0.00     0.116 C 
BRANCH  29  30
ATOM     30  N   UNL A   1      32.518  34.054  27.539  1.00  0.00    -0.352 N 
ATOM     31  C   UNL A   1      33.147  34.595  28.631  1.00  0.00     0.251 C 
ATOM     32  H   UNL A   1      31.829  34.621  27.124  1.00  0.00     0.163 HD
ATOM     33  O   UNL A   1      32.731  35.630  29.140  1.00  0.00    -0.269 OA
BRANCH  31  34
ATOM     34  C   UNL A   1      34.327  33.915  29.198  1.00  0.00     0.039 A 
ATOM     35  C   UNL A   1      34.135  32.826  30.051  1.00  0.00     0.014 A 
ATOM     36  C   UNL A   1      35.619  34.359  28.897  1.00  0.00     0.014 A 
ATOM     37  C   UNL A   1      35.242  32.157  30.575  1.00  0.00     0.010 A 
ATOM     38  C   UNL A   1      36.721  33.649  29.367  1.00  0.00     0.010 A 
ATOM     39  C   UNL A   1      36.544  32.550  30.222  1.00  0.00    -0.014 A 
BRANCH  39  40
ATOM     40  C   UNL A   1      37.728  31.843  30.772  1.00  0.00     0.031 A 
ATOM     41  C   UNL A   1      38.235  32.182  32.147  1.00  0.00     0.074 A 
ATOM     42  C   UNL A   1      38.360  30.914  30.030  1.00  0.00     0.049 A 
ATOM     43  N   UNL A   1      39.265  31.695  32.794  1.00  0.00    -0.248 NA
ATOM     44  C   UNL A   1      37.500  33.221  32.886  1.00  0.00     0.031 C 
ATOM     45  C   UNL A   1      37.986  30.515  28.672  1.00  0.00     0.029 A 
ATOM     46  N   UNL A   1      39.454  30.135  30.313  1.00  0.00    -0.354 N 
ATOM     47  C   UNL A   1      39.299  32.368  34.009  1.00  0.00     0.074 A 
ATOM     48  C   UNL A   1      38.232  33.344  33.983  1.00  0.00     0.031 C 
ATOM     49  C   UNL A   1      38.816  29.545  28.253  1.00  0.00     0.029 A 
ATOM     50  C   UNL A   1      39.804  29.282  29.295  1.00  0.00     0.049 A 
ATOM     51  H   UNL A   1      39.943  30.183  31.167  1.00  0.00     0.167 HD
ATOM     52  C   UNL A   1      40.124  32.170  35.065  1.00  0.00     0.037 A 
ATOM     53  C   UNL A   1      40.810  28.390  29.211  1.00  0.00     0.037 A 
ATOM     54  C   UNL A   1      41.182  31.195  35.092  1.00  0.00     0.049 A 
ATOM     55  C   UNL A   1      41.740  28.222  30.383  1.00  0.00     0.074 A 
ATOM     56  C   UNL A   1      42.061  30.903  36.121  1.00  0.00     0.029 A 
ATOM     57  N   UNL A   1      41.507  30.353  34.039  1.00  0.00    -0.354 N 
ATOM     58  N   UNL A   1      41.728  28.826  31.546  1.00  0.00    -0.248 NA
ATOM     59  C   UNL A   1      42.819  27.235  30.233  1.00  0.00     0.031 C 
ATOM     60  C   UNL A   1      42.948  29.919  35.674  1.00  0.00     0.029 A 
ATOM     61  C   UNL A   1      42.581  29.551  34.389  1.00  0.00     0.049 A 
ATOM     62  H   UNL A   1      41.043  30.328  33.171  1.00  0.00     0.167 HD
ATOM     63  C   UNL A   1      42.763  28.260  32.281  1.00  0.00     0.074 A 
ATOM     64  C   UNL A   1      43.377  27.259  31.435  1.00  0.00     0.031 C 
ATOM     65  C   UNL A   1      43.166  28.540  33.544  1.00  0.00     0.037 A 
BRANCH  52  66
ATOM     66  C   UNL A   1      39.910  33.028  36.280  1.00  0.00     0.057 A 
ATOM     67  C   UNL A   1      40.617  34.223  36.474  1.00  0.00     0.134 A 
ATOM     68  C   UNL A   1      38.964  32.676  37.251  1.00  0.00     0.134 A 
ATOM     69  F   UNL A   1      41.548  34.614  35.590  1.00  0.00    -0.206 F 
ATOM     70  C   UNL A   1      40.415  35.019  37.604  1.00  0.00     0.040 A 
ATOM     71  C   UNL A   1      38.728  33.480  38.368  1.00  0.00     0.040 A 
ATOM     72  F   UNL A   1      38.244  31.551  37.126  1.00  0.00    -0.206 F 
ATOM     73  C   UNL A   1      39.461  34.652  38.550  1.00  0.00     0.006 A 
ENDBRANCH  52  66
BRANCH  53  74
ATOM     74  C   UNL A   1      40.985  27.565  27.988  1.00  0.00     0.057 A 
ATOM     75  C   UNL A   1      41.786  28.006  26.926  1.00  0.00     0.134 A 
ATOM     76  C   UNL A   1      40.331  26.338  27.830  1.00  0.00     0.134 A 
ATOM     77  F   UNL A   1      42.426  29.182  27.008  1.00  0.00    -0.206 F 
ATOM     78  C   UNL A   1      41.899  27.277  25.741  1.00  0.00     0.040 A 
ATOM     79  C   UNL A   1      40.460  25.582  26.663  1.00  0.00     0.040 A 
ATOM     80  F   UNL A   1      39.557  25.851  28.812  1.00  0.00    -0.206 F 
ATOM     81  C   UNL A   1      41.236  26.059  25.609  1.00  0.00     0.006 A 
ENDBRANCH  53  74
BRANCH  65  82
ATOM     82  C   UNL A   1      44.277  27.705  34.116  1.00  0.00     0.057 A 
ATOM     83  C   UNL A   1      44.043  26.483  34.760  1.00  0.00     0.134 A 
ATOM     84  C   UNL A   1      45.610  28.123  33.992  1.00  0.00     0.134 A 
ATOM     85  F   UNL A   1      42.791  26.029  34.922  1.00  0.00    -0.206 F 
ATOM     86  C   UNL A   1      45.089  25.726  35.289  1.00  0.00     0.040 A 
ATOM     87  C   UNL A   1      46.665  27.357  34.487  1.00  0.00     0.040 A 
ATOM     88  F   UNL A   1      45.908  29.277  33.376  1.00  0.00    -0.206 F 
ATOM     89  C   UNL A   1      46.406  26.159  35.147  1.00  0.00     0.006 A 
ENDBRANCH  65  82
ENDBRANCH  39  40
ENDBRANCH  31  34
ENDBRANCH  29  30
ENDBRANCH  28  29
ENDBRANCH  27  28
ENDBRANCH   1  27
TORSDOF 16
ENDMDL
MODEL 2
REMARK VINA RESULT:     -12.0      1.606      3.891
REMARK SMILES CS(=O)(=O)N1C[C@@H]2CN(C(=O)c3ccco3)C[C@]2(C(=O)NCCCCCCNC(=O)c2ccc(-c3c4nc(c(-c5c(F)cccc5F)c5ccc([nH]5)c(-c5c(F)cccc5F)c5nc(c(-c6c(F)cccc6F)c6ccc3[nH]6)C=C5)C=C4)cc2)C1
REMARK SMILES IDX 24 1 23 2 22 3 21 4 19 5 20 6 18 8 5 9 6 10 85 11 7 12 8 13
REMARK SMILES IDX 17 14 9 15 2 16 1 17 3 18 4 19 10 20 11 21 12 22 13 23 16 24
REMARK SMILES IDX 14 25 15 26 25 27 26 28 27 29 28 30 29 31 30 33 31 34 32 35
REMARK SMILES IDX 84 36 33 37 83 38 34 39 35 40 36 41 77 42 37 43 82 44 76 45
REMARK SMILES IDX 78 46 38 47 81 48 75 49 74 50 39 52 65 53 48 54 64 55 49 56
REMARK SMILES IDX 52 57 63 58 79 59 50 60 51 61 62 63 80 64 53 65 40 66 41 67
REMARK SMILES IDX 46 68 42 69 43 70 45 71 47 72 44 73 66 74 67 75 72 76 68 77
REMARK SMILES IDX 69 78 71 79 73 80 70 81 54 82 55 83 60 84 56 85 57 86 59 87
REMARK SMILES IDX 61 88 58 89
REMARK H PARENT 21 7 28 32 78 51 52 62
REMARK Flexibility Score: inf
ROOT
ATOM      1  C   UNL A   1      32.462  30.010  26.718  1.00  0.00     0.002 C 
ENDROOT
BRANCH   1   2
ATOM      2  C   UNL A   1      31.903  28.755  27.386  1.00  0.00     0.021 C 
BRANCH   2   3
ATOM      3  C   UNL A   1      32.254  27.450  26.672  1.00  0.00     0.116 C 
BRANCH   3   4
ATOM      4  N   UNL A   1      31.240  26.459  26.968  1.00  0.00    -0.356 N 
ATOM      5  C   UNL A   1      30.512  25.747  26.046  1.00  0.00     0.229 C 
ATOM      6  O   UNL A   1      29.442  25.246  26.392  1.00  0.00    -0.274 OA
ATOM      7  H   UNL A   1      31.054  26.278  27.918  1.00  0.00     0.163 HD
BRANCH   5   8
ATOM      8  C   UNL A   1      31.144  25.603  24.635  1.00  0.00     0.086 C 
ATOM      9  N   UNL A   1      32.257  23.426  24.180  1.00  0.00    -0.201 NA
ATOM     10  C   UNL A   1      32.337  24.171  22.945  1.00  0.00     0.108 C 
ATOM     11  C   UNL A   1      31.188  24.027  25.013  1.00  0.00     0.121 C 
ATOM     12  C   UNL A   1      31.199  25.151  23.121  1.00  0.00     0.042 C 
ATOM     13  C   UNL A   1      31.406  26.389  22.280  1.00  0.00     0.126 C 
ATOM     14  C   UNL A   1      30.045  26.705  24.169  1.00  0.00     0.138 C 
ATOM     15  N   UNL A   1      30.653  27.361  23.007  1.00  0.00    -0.334 N 
BRANCH   9  16
ATOM     16  S   UNL A   1      32.520  21.771  24.206  1.00  0.00     0.211 S 
ATOM     17  C   UNL A   1      31.981  21.252  22.589  1.00  0.00     0.176 C 
ATOM     18  O   UNL A   1      31.608  21.200  25.175  1.00  0.00    -0.213 OA
ATOM     19  O   UNL A   1      33.947  21.558  24.299  1.00  0.00    -0.213 OA
ENDBRANCH   9  16
BRANCH  15  20
ATOM     20  C   UNL A   1      30.836  28.709  22.713  1.00  0.00     0.289 C 
ATOM     21  O   UNL A   1      31.970  29.192  22.747  1.00  0.00    -0.265 OA
BRANCH  20  22
ATOM     22  C   UNL A   1      29.683  29.550  22.484  1.00  0.00     0.191 A 
ATOM     23  C   UNL A   1      28.948  30.299  23.388  1.00  0.00     0.056 A 
ATOM     24  O   UNL A   1      29.197  29.756  21.222  1.00  0.00    -0.459 OA
ATOM     25  C   UNL A   1      27.951  30.972  22.648  1.00  0.00     0.043 A 
ATOM     26  C   UNL A   1      28.167  30.637  21.331  1.00  0.00     0.196 A 
ENDBRANCH  20  22
ENDBRANCH  15  20
ENDBRANCH   5   8
ENDBRANCH   3   4
ENDBRANCH   2   3
ENDBRANCH   1   2
BRANCH   1  27
ATOM     27  C   UNL A   1      31.403  30.870  26.031  1.00  0.00     0.002 C 
BRANCH  27  28
ATOM     28  C   UNL A   1      31.332  32.321  26.520  1.00  0.00     0.021 C 
BRANCH  28  29
ATOM     29  C   UNL A   1      32.648  32.889  27.045  1.00  0.00     0.116 C 
BRANCH  29  30
ATOM     30  N   UNL A   1      32.478  34.191  27.667  1.00  0.00    -0.352 N 
ATOM     31  C   UNL A   1      33.143  34.730  28.739  1.00  0.00     0.251 C 
ATOM     32  H   UNL A   1      31.789  34.767  27.263  1.00  0.00     0.163 HD
ATOM     33  O   UNL A   1      32.757  35.776  29.248  1.00  0.00    -0.269 OA
BRANCH  31  34
ATOM     34  C   UNL A   1      34.324  34.034  29.284  1.00  0.00     0.039 A 
ATOM     35  C   UNL A   1      34.136  33.013  30.217  1.00  0.00     0.014 A 
ATOM     36  C   UNL A   1      35.613  34.400  28.883  1.00  0.00     0.014 A 
ATOM     37  C   UNL A   1      35.242  32.328  30.721  1.00  0.00     0.010 A 
ATOM     38  C   UNL A   1      36.710  33.671  29.337  1.00  0.00     0.010 A 
ATOM     39  C   UNL A   1      36.537  32.639  30.272  1.00  0.00    -0.014 A 
BRANCH  39  40
ATOM     40  C   UNL A   1      37.720  31.914  30.802  1.00  0.00     0.031 A 
ATOM     41  C   UNL A   1      38.239  32.227  32.179  1.00  0.00     0.074 A 
ATOM     42  C   UNL A   1      38.341  30.994  30.040  1.00  0.00     0.049 A 
ATOM     43  N   UNL A   1      39.270  31.723  32.810  1.00  0.00    -0.248 NA
ATOM     44  C   UNL A   1      37.516  33.258  32.940  1.00  0.00     0.031 C 
ATOM     45  C   UNL A   1      37.954  30.620  28.678  1.00  0.00     0.029 A 
ATOM     46  N   UNL A   1      39.432  30.203  30.302  1.00  0.00    -0.354 N 
ATOM     47  C   UNL A   1      39.317  32.375  34.036  1.00  0.00     0.074 A 
ATOM     48  C   UNL A   1      38.256  33.358  34.034  1.00  0.00     0.031 C 
ATOM     49  C   UNL A   1      38.775  29.653  28.237  1.00  0.00     0.029 A 
ATOM     50  C   UNL A   1      39.769  29.366  29.267  1.00  0.00     0.049 A 
ATOM     51  H   UNL A   1      39.926  30.234  31.153  1.00  0.00     0.167 HD
ATOM     52  C   UNL A   1      40.149  32.154  35.082  1.00  0.00     0.037 A 
ATOM     53  C   UNL A   1      40.768  28.469  29.161  1.00  0.00     0.037 A 
ATOM     54  C   UNL A   1      41.200  31.171  35.086  1.00  0.00     0.049 A 
ATOM     55  C   UNL A   1      41.705  28.275  30.323  1.00  0.00     0.074 A 
ATOM     56  C   UNL A   1      42.084  30.856  36.103  1.00  0.00     0.029 A 
ATOM     57  N   UNL A   1      41.512  30.346  34.016  1.00  0.00    -0.354 N 
ATOM     58  N   UNL A   1      41.705  28.860  31.497  1.00  0.00    -0.248 NA
ATOM     59  C   UNL A   1      42.777  27.283  30.149  1.00  0.00     0.031 C 
ATOM     60  C   UNL A   1      42.961  29.874  35.633  1.00  0.00     0.029 A 
ATOM     61  C   UNL A   1      42.583  29.531  34.345  1.00  0.00     0.049 A 
ATOM     62  H   UNL A   1      41.041  30.338  33.151  1.00  0.00     0.167 HD
ATOM     63  C   UNL A   1      42.742  28.274  32.214  1.00  0.00     0.074 A 
ATOM     64  C   UNL A   1      43.343  27.283  31.347  1.00  0.00     0.031 C 
ATOM     65  C   UNL A   1      43.156  28.530  33.479  1.00  0.00     0.037 A 
BRANCH  52  66
ATOM     66  C   UNL A   1      39.948  32.992  36.313  1.00  0.00     0.057 A 
ATOM     67  C   UNL A   1      39.023  32.637  37.305  1.00  0.00     0.134 A 
ATOM     68  C   UNL A   1      40.708  34.148  36.529  1.00  0.00     0.134 A 
ATOM     69  F   UNL A   1      38.252  31.548  37.158  1.00  0.00    -0.206 F 
ATOM     70  C   UNL A   1      38.839  33.417  38.449  1.00  0.00     0.040 A 
ATOM     71  C   UNL A   1      40.558  34.919  37.683  1.00  0.00     0.040 A 
ATOM     72  F   UNL A   1      41.618  34.544  35.626  1.00  0.00    -0.206 F 
ATOM     73  C   UNL A   1      39.615  34.557  38.644  1.00  0.00     0.006 A 
ENDBRANCH  52  66
BRANCH  53  74
ATOM     74  C   UNL A   1      40.930  27.663  27.923  1.00  0.00     0.057 A 
ATOM     75  C   UNL A   1      40.330  26.403  27.796  1.00  0.00     0.134 A 
ATOM     76  C   UNL A   1      41.716  28.110  26.854  1.00  0.00     0.134 A 
ATOM     77  F   UNL A   1      39.579  25.910  28.792  1.00  0.00    -0.206 F 
ATOM     78  C   UNL A   1      40.537  25.604  26.670  1.00  0.00     0.040 A 
ATOM     79  C   UNL A   1      41.905  27.335  25.709  1.00  0.00     0.040 A 
ATOM     80  F   UNL A   1      42.311  29.312  26.906  1.00  0.00    -0.206 F 
ATOM     81  C   UNL A   1      41.325  26.071  25.621  1.00  0.00     0.006 A 
ENDBRANCH  53  74
BRANCH  65  82
ATOM     82  C   UNL A   1      44.265  27.679  34.029  1.00  0.00     0.057 A 
ATOM     83  C   UNL A   1      44.029  26.441  34.642  1.00  0.00     0.134 A 
ATOM     84  C   UNL A   1      45.598  28.097  33.915  1.00  0.00     0.134 A 
ATOM     85  F   UNL A   1      42.776  25.986  34.793  1.00  0.00    -0.206 F 
ATOM     86  C   UNL A   1      45.073  25.668  35.151  1.00  0.00     0.040 A 
ATOM     87  C   UNL A   1      46.653  27.316  34.390  1.00  0.00     0.040 A 
ATOM     88  F   UNL A   1      45.899  29.265  33.329  1.00  0.00    -0.206 F 
ATOM     89  C   UNL A   1      46.391  26.103  35.019  1.00  0.00     0.006 A 
ENDBRANCH  65  82
ENDBRANCH  39  40
ENDBRANCH  31  34
ENDBRANCH  29  30
ENDBRANCH  28  29
ENDBRANCH  27  28
ENDBRANCH   1  27
TORSDOF 16
ENDMDL
MODEL 3
REMARK VINA RESULT:     -11.8      0.618      6.118
REMARK SMILES CS(=O)(=O)N1C[C@@H]2CN(C(=O)c3ccco3)C[C@]2(C(=O)NCCCCCCNC(=O)c2ccc(-c3c4nc(c(-c5c(F)cccc5F)c5ccc([nH]5)c(-c5c(F)cccc5F)c5nc(c(-c6c(F)cccc6F)c6ccc3[nH]6)C=C5)C=C4)cc2)C1
REMARK SMILES IDX 24 1 23 2 22 3 21 4 19 5 20 6 18 8 5 9 6 10 85 11 7 12 8 13
REMARK SMILES IDX 17 14 9 15 2 16 1 17 3 18 4 19 10 20 11 21 12 22 13 23 16 24
REMARK SMILES IDX 14 25 15 26 25 27 26 28 27 29 28 30 29 31 30 33 31 34 32 35
REMARK SMILES IDX 84 36 33 37 83 38 34 39 35 40 36 41 77 42 37 43 82 44 76 45
REMARK SMILES IDX 78 46 38 47 81 48 75 49 74 50 39 52 65 53 48 54 64 55 49 56
REMARK SMILES IDX 52 57 63 58 79 59 50 60 51 61 62 63 80 64 53 65 40 66 41 67
REMARK SMILES IDX 46 68 42 69 43 70 45 71 47 72 44 73 66 74 67 75 72 76 68 77
REMARK SMILES IDX 69 78 71 79 73 80 70 81 54 82 55 83 60 84 56 85 57 86 59 87
REMARK SMILES IDX 61 88 58 89
REMARK H PARENT 21 7 28 32 78 51 52 62
REMARK Flexibility Score: inf
ROOT
ATOM      1  C   UNL A   1      32.619  29.972  26.969  1.00  0.00     0.002 C 
ENDROOT
BRANCH   1   2
ATOM      2  C   UNL A   1      32.494  28.454  26.853  1.00  0.00     0.021 C 
BRANCH   2   3
ATOM      3  C   UNL A   1      33.635  27.784  26.088  1.00  0.00     0.116 C 
BRANCH   3   4
ATOM      4  N   UNL A   1      33.993  28.610  24.952  1.00  0.00    -0.356 N 
ATOM      5  C   UNL A   1      33.639  28.384  23.644  1.00  0.00     0.229 C 
ATOM      6  O   UNL A   1      34.306  28.905  22.749  1.00  0.00    -0.274 OA
ATOM      7  H   UNL A   1      34.541  29.408  25.134  1.00  0.00     0.163 HD
BRANCH   5   8
ATOM      8  C   UNL A   1      32.378  27.507  23.416  1.00  0.00     0.086 C 
ATOM      9  N   UNL A   1      30.245  28.757  23.138  1.00  0.00    -0.201 NA
ATOM     10  C   UNL A   1      29.911  27.364  22.942  1.00  0.00     0.108 C 
ATOM     11  C   UNL A   1      31.708  28.910  22.954  1.00  0.00     0.121 C 
ATOM     12  C   UNL A   1      31.258  26.792  22.560  1.00  0.00     0.042 C 
ATOM     13  C   UNL A   1      31.328  25.312  22.856  1.00  0.00     0.126 C 
ATOM     14  C   UNL A   1      33.409  26.404  22.816  1.00  0.00     0.138 C 
ATOM     15  N   UNL A   1      32.734  25.120  23.026  1.00  0.00    -0.334 N 
BRANCH   9  16
ATOM     16  S   UNL A   1      29.199  29.971  22.649  1.00  0.00     0.211 S 
ATOM     17  C   UNL A   1      27.600  29.189  22.751  1.00  0.00     0.176 C 
ATOM     18  O   UNL A   1      29.464  30.238  21.251  1.00  0.00    -0.213 OA
ATOM     19  O   UNL A   1      29.255  31.021  23.640  1.00  0.00    -0.213 OA
ENDBRANCH   9  16
BRANCH  15  20
ATOM     20  C   UNL A   1      33.184  23.937  23.605  1.00  0.00     0.289 C 
ATOM     21  O   UNL A   1      32.367  23.092  23.980  1.00  0.00    -0.265 OA
BRANCH  20  22
ATOM     22  C   UNL A   1      34.596  23.764  23.865  1.00  0.00     0.191 A 
ATOM     23  C   UNL A   1      35.321  24.056  25.008  1.00  0.00     0.056 A 
ATOM     24  O   UNL A   1      35.418  23.181  22.941  1.00  0.00    -0.459 OA
ATOM     25  C   UNL A   1      36.654  23.659  24.760  1.00  0.00     0.043 A 
ATOM     26  C   UNL A   1      36.654  23.099  23.504  1.00  0.00     0.196 A 
ENDBRANCH  20  22
ENDBRANCH  15  20
ENDBRANCH   5   8
ENDBRANCH   3   4
ENDBRANCH   2   3
ENDBRANCH   1   2
BRANCH   1  27
ATOM     27  C   UNL A   1      31.505  30.742  26.261  1.00  0.00     0.002 C 
BRANCH  27  28
ATOM     28  C   UNL A   1      31.410  32.226  26.630  1.00  0.00     0.021 C 
BRANCH  28  29
ATOM     29  C   UNL A   1      32.709  32.850  27.132  1.00  0.00     0.116 C 
BRANCH  29  30
ATOM     30  N   UNL A   1      32.517  34.203  27.626  1.00  0.00    -0.352 N 
ATOM     31  C   UNL A   1      33.128  34.833  28.680  1.00  0.00     0.251 C 
ATOM     32  H   UNL A   1      31.855  34.742  27.135  1.00  0.00     0.163 HD
ATOM     33  O   UNL A   1      32.723  35.922  29.073  1.00  0.00    -0.269 OA
BRANCH  31  34
ATOM     34  C   UNL A   1      34.272  34.185  29.348  1.00  0.00     0.039 A 
ATOM     35  C   UNL A   1      34.028  33.302  30.401  1.00  0.00     0.014 A 
ATOM     36  C   UNL A   1      35.582  34.459  28.942  1.00  0.00     0.014 A 
ATOM     37  C   UNL A   1      35.100  32.662  31.025  1.00  0.00     0.010 A 
ATOM     38  C   UNL A   1      36.644  33.769  29.521  1.00  0.00     0.010 A 
ATOM     39  C   UNL A   1      36.415  32.875  30.578  1.00  0.00    -0.014 A 
BRANCH  39  40
ATOM     40  C   UNL A   1      37.561  32.196  31.235  1.00  0.00     0.031 A 
ATOM     41  C   UNL A   1      38.293  31.094  30.519  1.00  0.00     0.074 A 
ATOM     42  C   UNL A   1      37.930  32.554  32.479  1.00  0.00     0.049 A 
ATOM     43  N   UNL A   1      39.301  30.365  30.931  1.00  0.00    -0.248 NA
ATOM     44  C   UNL A   1      37.816  30.749  29.171  1.00  0.00     0.031 C 
ATOM     45  C   UNL A   1      37.285  33.588  33.290  1.00  0.00     0.029 A 
ATOM     46  N   UNL A   1      38.941  32.088  33.282  1.00  0.00    -0.354 N 
ATOM     47  C   UNL A   1      39.574  29.480  29.895  1.00  0.00     0.074 A 
ATOM     48  C   UNL A   1      38.585  29.715  28.866  1.00  0.00     0.031 C 
ATOM     49  C   UNL A   1      37.934  33.698  34.461  1.00  0.00     0.029 A 
ATOM     50  C   UNL A   1      39.014  32.717  34.501  1.00  0.00     0.049 A 
ATOM     51  H   UNL A   1      39.556  31.369  33.010  1.00  0.00     0.167 HD
ATOM     52  C   UNL A   1      40.577  28.575  29.795  1.00  0.00     0.037 A 
ATOM     53  C   UNL A   1      39.857  32.523  35.533  1.00  0.00     0.037 A 
ATOM     54  C   UNL A   1      41.564  28.347  30.818  1.00  0.00     0.049 A 
ATOM     55  C   UNL A   1      40.935  31.480  35.413  1.00  0.00     0.074 A 
ATOM     56  C   UNL A   1      42.632  27.467  30.805  1.00  0.00     0.029 A 
ATOM     57  N   UNL A   1      41.601  29.002  32.039  1.00  0.00    -0.354 N 
ATOM     58  N   UNL A   1      41.216  30.688  34.407  1.00  0.00    -0.248 NA
ATOM     59  C   UNL A   1      41.824  31.312  36.572  1.00  0.00     0.031 C 
ATOM     60  C   UNL A   1      43.287  27.555  32.037  1.00  0.00     0.029 A 
ATOM     61  C   UNL A   1      42.666  28.536  32.794  1.00  0.00     0.049 A 
ATOM     62  H   UNL A   1      40.965  29.696  32.329  1.00  0.00     0.167 HD
ATOM     63  C   UNL A   1      42.340  29.966  34.792  1.00  0.00     0.074 A 
ATOM     64  C   UNL A   1      42.692  30.419  36.121  1.00  0.00     0.031 C 
ATOM     65  C   UNL A   1      43.020  29.015  34.106  1.00  0.00     0.037 A 
BRANCH  52  66
ATOM     66  C   UNL A   1      40.656  27.768  28.531  1.00  0.00     0.057 A 
ATOM     67  C   UNL A   1      39.983  26.546  28.393  1.00  0.00     0.134 A 
ATOM     68  C   UNL A   1      41.384  28.228  27.426  1.00  0.00     0.134 A 
ATOM     69  F   UNL A   1      39.277  26.038  29.416  1.00  0.00    -0.206 F 
ATOM     70  C   UNL A   1      40.056  25.797  27.216  1.00  0.00     0.040 A 
ATOM     71  C   UNL A   1      41.438  27.506  26.233  1.00  0.00     0.040 A 
ATOM     72  F   UNL A   1      42.045  29.393  27.484  1.00  0.00    -0.206 F 
ATOM     73  C   UNL A   1      40.779  26.282  26.129  1.00  0.00     0.006 A 
ENDBRANCH  52  66
BRANCH  53  74
ATOM     74  C   UNL A   1      39.740  33.344  36.767  1.00  0.00     0.057 A 
ATOM     75  C   UNL A   1      38.870  32.976  37.801  1.00  0.00     0.134 A 
ATOM     76  C   UNL A   1      40.460  34.534  36.927  1.00  0.00     0.134 A 
ATOM     77  F   UNL A   1      38.138  31.856  37.701  1.00  0.00    -0.206 F 
ATOM     78  C   UNL A   1      38.694  33.778  38.931  1.00  0.00     0.040 A 
ATOM     79  C   UNL A   1      40.318  35.329  38.065  1.00  0.00     0.040 A 
ATOM     80  F   UNL A   1      41.319  34.940  35.979  1.00  0.00    -0.206 F 
ATOM     81  C   UNL A   1      39.422  34.957  39.066  1.00  0.00     0.006 A 
ENDBRANCH  53  74
BRANCH  65  82
ATOM     82  C   UNL A   1      44.258  28.454  34.747  1.00  0.00     0.057 A 
ATOM     83  C   UNL A   1      44.237  27.295  35.534  1.00  0.00     0.134 A 
ATOM     84  C   UNL A   1      45.500  29.074  34.547  1.00  0.00     0.134 A 
ATOM     85  F   UNL A   1      43.082  26.658  35.774  1.00  0.00    -0.206 F 
ATOM     86  C   UNL A   1      45.398  26.793  36.124  1.00  0.00     0.040 A 
ATOM     87  C   UNL A   1      46.672  28.562  35.104  1.00  0.00     0.040 A 
ATOM     88  F   UNL A   1      45.596  30.181  33.794  1.00  0.00    -0.206 F 
ATOM     89  C   UNL A   1      46.621  27.424  35.905  1.00  0.00     0.006 A 
ENDBRANCH  65  82
ENDBRANCH  39  40
ENDBRANCH  31  34
ENDBRANCH  29  30
ENDBRANCH  28  29
ENDBRANCH  27  28
ENDBRANCH   1  27
TORSDOF 16
ENDMDL
