MODEL 1
REMARK VINA RESULT:     -11.1      0.000      0.000
REMARK SMILES COCc1ccccc1C(=O)N1CCC[C@@H](C(=O)NCCCCCCNC(=O)c2ccc(-c3c4nc(c(-c5c(F)cccc5F)c5ccc([nH]5)c(-c5c(F)cccc5F)c5nc(c(-c6c(F)cccc6F)c6ccc3[nH]6)C=C5)C=C4)cc2)C1
REMARK SMILES IDX 21 1 20 2 19 3 17 4 18 5 16 7 12 8 13 9 83 10 14 11 15 12
REMARK SMILES IDX 10 13 11 14 9 15 4 16 5 17 6 18 8 19 7 20 3 21 2 22 1 23
REMARK SMILES IDX 22 24 23 25 24 26 25 27 26 28 27 29 28 31 29 32 30 33 82 34
REMARK SMILES IDX 31 35 81 36 32 37 33 38 34 39 75 40 35 41 80 42 74 43 76 44
REMARK SMILES IDX 36 45 79 46 73 47 72 48 37 50 63 51 46 52 62 53 47 54 50 55
REMARK SMILES IDX 61 56 77 57 48 58 49 59 60 61 78 62 51 63 38 64 39 65 44 66
REMARK SMILES IDX 40 67 41 68 43 69 45 70 42 71 64 72 65 73 70 74 66 75 67 76
REMARK SMILES IDX 69 77 71 78 68 79 52 80 53 81 58 82 54 83 55 84 57 85 59 86
REMARK SMILES IDX 56 87
REMARK H PARENT 19 6 26 30 76 49 50 60
REMARK Flexibility Score: inf
ROOT
ATOM      1  C   UNL A   1      31.982  29.048  27.211  1.00  0.00     0.021 C 
ENDROOT
BRANCH   1   2
ATOM      2  C   UNL A   1      32.232  27.543  27.230  1.00  0.00     0.116 C 
BRANCH   2   3
ATOM      3  N   UNL A   1      31.043  26.795  26.873  1.00  0.00    -0.356 N 
ATOM      4  C   UNL A   1      30.736  26.138  25.723  1.00  0.00     0.224 C 
ATOM      5  O   UNL A   1      29.635  25.591  25.655  1.00  0.00    -0.275 OA
ATOM      6  H   UNL A   1      30.350  26.758  27.571  1.00  0.00     0.163 HD
BRANCH   4   7
ATOM      7  C   UNL A   1      31.758  26.066  24.596  1.00  0.00     0.098 C 
ATOM      8  N   UNL A   1      32.506  24.528  22.764  1.00  0.00    -0.338 N 
ATOM      9  C   UNL A   1      32.224  25.540  21.747  1.00  0.00     0.120 C 
ATOM     10  C   UNL A   1      31.741  24.648  24.005  1.00  0.00     0.133 C 
ATOM     11  C   UNL A   1      32.330  26.950  22.304  1.00  0.00     0.022 C 
ATOM     12  C   UNL A   1      31.421  27.108  23.516  1.00  0.00     0.017 C 
BRANCH   8  13
ATOM     13  C   UNL A   1      33.471  23.567  22.454  1.00  0.00     0.254 C 
ATOM     14  O   UNL A   1      33.599  23.175  21.290  1.00  0.00    -0.269 OA
BRANCH  13  15
ATOM     15  C   UNL A   1      34.366  22.910  23.466  1.00  0.00     0.045 A 
ATOM     16  C   UNL A   1      34.048  21.792  24.272  1.00  0.00    -0.010 A 
ATOM     17  C   UNL A   1      35.086  21.172  25.006  1.00  0.00     0.007 A 
ATOM     18  C   UNL A   1      36.412  21.591  24.905  1.00  0.00     0.000 A 
ATOM     19  C   UNL A   1      35.716  23.330  23.401  1.00  0.00     0.014 A 
ATOM     20  C   UNL A   1      36.729  22.673  24.102  1.00  0.00     0.001 A 
BRANCH  16  21
ATOM     21  C   UNL A   1      32.653  21.229  24.410  1.00  0.00     0.196 C 
BRANCH  21  22
ATOM     22  O   UNL A   1      32.134  20.625  23.222  1.00  0.00    -0.380 OA
ATOM     23  C   UNL A   1      32.429  19.239  23.143  1.00  0.00     0.195 C 
ENDBRANCH  21  22
ENDBRANCH  16  21
ENDBRANCH  13  15
ENDBRANCH   8  13
ENDBRANCH   4   7
ENDBRANCH   2   3
ENDBRANCH   1   2
BRANCH   1  24
ATOM     24  C   UNL A   1      32.172  29.723  25.847  1.00  0.00     0.002 C 
BRANCH  24  25
ATOM     25  C   UNL A   1      31.145  30.802  25.490  1.00  0.00     0.002 C 
BRANCH  25  26
ATOM     26  C   UNL A   1      31.023  31.951  26.490  1.00  0.00     0.021 C 
BRANCH  26  27
ATOM     27  C   UNL A   1      32.339  32.615  26.878  1.00  0.00     0.116 C 
BRANCH  27  28
ATOM     28  N   UNL A   1      32.162  33.954  27.416  1.00  0.00    -0.352 N 
ATOM     29  C   UNL A   1      32.903  34.598  28.377  1.00  0.00     0.251 C 
ATOM     30  H   UNL A   1      31.410  34.467  27.043  1.00  0.00     0.163 HD
ATOM     31  O   UNL A   1      32.543  35.687  28.817  1.00  0.00    -0.269 OA
BRANCH  29  32
ATOM     32  C   UNL A   1      34.124  33.956  28.907  1.00  0.00     0.039 A 
ATOM     33  C   UNL A   1      35.372  34.389  28.450  1.00  0.00     0.014 A 
ATOM     34  C   UNL A   1      34.036  32.946  29.869  1.00  0.00     0.014 A 
ATOM     35  C   UNL A   1      36.536  33.856  29.009  1.00  0.00     0.010 A 
ATOM     36  C   UNL A   1      35.194  32.467  30.472  1.00  0.00     0.010 A 
ATOM     37  C   UNL A   1      36.455  32.917  30.049  1.00  0.00    -0.014 A 
BRANCH  37  38
ATOM     38  C   UNL A   1      37.669  32.373  30.709  1.00  0.00     0.031 A 
ATOM     39  C   UNL A   1      38.385  31.202  30.097  1.00  0.00     0.074 A 
ATOM     40  C   UNL A   1      38.070  32.866  31.896  1.00  0.00     0.049 A 
ATOM     41  N   UNL A   1      39.363  30.482  30.585  1.00  0.00    -0.248 NA
ATOM     42  C   UNL A   1      37.918  30.766  28.772  1.00  0.00     0.031 C 
ATOM     43  C   UNL A   1      37.444  33.982  32.607  1.00  0.00     0.029 A 
ATOM     44  N   UNL A   1      39.090  32.473  32.726  1.00  0.00    -0.354 N 
ATOM     45  C   UNL A   1      39.608  29.493  29.640  1.00  0.00     0.074 A 
ATOM     46  C   UNL A   1      38.650  29.680  28.572  1.00  0.00     0.031 C 
ATOM     47  C   UNL A   1      38.100  34.190  33.761  1.00  0.00     0.029 A 
ATOM     48  C   UNL A   1      39.161  33.196  33.892  1.00  0.00     0.049 A 
ATOM     49  H   UNL A   1      39.712  31.741  32.507  1.00  0.00     0.167 HD
ATOM     50  C   UNL A   1      40.559  28.529  29.653  1.00  0.00     0.037 A 
ATOM     51  C   UNL A   1      39.978  33.061  34.955  1.00  0.00     0.037 A 
ATOM     52  C   UNL A   1      41.530  28.365  30.702  1.00  0.00     0.049 A 
ATOM     53  C   UNL A   1      41.017  31.974  34.953  1.00  0.00     0.074 A 
ATOM     54  C   UNL A   1      42.566  27.450  30.783  1.00  0.00     0.029 A 
ATOM     55  N   UNL A   1      41.586  29.138  31.853  1.00  0.00    -0.354 N 
ATOM     56  N   UNL A   1      41.268  31.073  34.034  1.00  0.00    -0.248 NA
ATOM     57  C   UNL A   1      41.887  31.884  36.134  1.00  0.00     0.031 C 
ATOM     58  C   UNL A   1      43.224  27.644  32.001  1.00  0.00     0.029 A 
ATOM     59  C   UNL A   1      42.628  28.710  32.657  1.00  0.00     0.049 A 
ATOM     60  H   UNL A   1      40.974  29.879  32.066  1.00  0.00     0.167 HD
ATOM     61  C   UNL A   1      42.345  30.336  34.508  1.00  0.00     0.074 A 
ATOM     62  C   UNL A   1      42.702  30.894  35.796  1.00  0.00     0.031 C 
ATOM     63  C   UNL A   1      42.984  29.292  33.926  1.00  0.00     0.037 A 
BRANCH  50  64
ATOM     64  C   UNL A   1      40.590  27.575  28.495  1.00  0.00     0.057 A 
ATOM     65  C   UNL A   1      39.822  26.404  28.483  1.00  0.00     0.134 A 
ATOM     66  C   UNL A   1      41.380  27.842  27.369  1.00  0.00     0.134 A 
ATOM     67  F   UNL A   1      39.054  26.082  29.535  1.00  0.00    -0.206 F 
ATOM     68  C   UNL A   1      39.861  25.516  27.406  1.00  0.00     0.040 A 
ATOM     69  C   UNL A   1      41.405  26.976  26.275  1.00  0.00     0.040 A 
ATOM     70  F   UNL A   1      42.134  28.949  27.313  1.00  0.00    -0.206 F 
ATOM     71  C   UNL A   1      40.650  25.805  26.295  1.00  0.00     0.006 A 
ENDBRANCH  50  64
BRANCH  51  72
ATOM     72  C   UNL A   1      39.859  33.993  36.105  1.00  0.00     0.057 A 
ATOM     73  C   UNL A   1      39.064  33.670  37.211  1.00  0.00     0.134 A 
ATOM     74  C   UNL A   1      40.527  35.222  36.128  1.00  0.00     0.134 A 
ATOM     75  F   UNL A   1      38.384  32.514  37.238  1.00  0.00    -0.206 F 
ATOM     76  C   UNL A   1      38.923  34.542  38.291  1.00  0.00     0.040 A 
ATOM     77  C   UNL A   1      40.414  36.095  37.211  1.00  0.00     0.040 A 
ATOM     78  F   UNL A   1      41.310  35.588  35.102  1.00  0.00    -0.206 F 
ATOM     79  C   UNL A   1      39.604  35.758  38.294  1.00  0.00     0.006 A 
ENDBRANCH  51  72
BRANCH  63  80
ATOM     80  C   UNL A   1      44.169  28.718  34.644  1.00  0.00     0.057 A 
ATOM     81  C   UNL A   1      44.050  27.633  35.521  1.00  0.00     0.134 A 
ATOM     82  C   UNL A   1      45.455  29.218  34.399  1.00  0.00     0.134 A 
ATOM     83  F   UNL A   1      42.846  27.118  35.807  1.00  0.00    -0.206 F 
ATOM     84  C   UNL A   1      45.169  27.074  36.142  1.00  0.00     0.040 A 
ATOM     85  C   UNL A   1      46.582  28.651  34.994  1.00  0.00     0.040 A 
ATOM     86  F   UNL A   1      45.636  30.250  33.562  1.00  0.00    -0.206 F 
ATOM     87  C   UNL A   1      46.440  27.578  35.870  1.00  0.00     0.006 A 
ENDBRANCH  63  80
ENDBRANCH  37  38
ENDBRANCH  29  32
ENDBRANCH  27  28
ENDBRANCH  26  27
ENDBRANCH  25  26
ENDBRANCH  24  25
ENDBRANCH   1  24
TORSDOF 17
ENDMDL
MODEL 2
REMARK VINA RESULT:     -11.1      0.688      6.198
REMARK SMILES COCc1ccccc1C(=O)N1CCC[C@@H](C(=O)NCCCCCCNC(=O)c2ccc(-c3c4nc(c(-c5c(F)cccc5F)c5ccc([nH]5)c(-c5c(F)cccc5F)c5nc(c(-c6c(F)cccc6F)c6ccc3[nH]6)C=C5)C=C4)cc2)C1
REMARK SMILES IDX 21 1 20 2 19 3 17 4 18 5 16 7 12 8 13 9 83 10 14 11 15 12
REMARK SMILES IDX 10 13 11 14 9 15 4 16 5 17 6 18 8 19 7 20 3 21 2 22 1 23
REMARK SMILES IDX 22 24 23 25 24 26 25 27 26 28 27 29 28 31 29 32 30 33 82 34
REMARK SMILES IDX 31 35 81 36 32 37 33 38 34 39 75 40 35 41 80 42 74 43 76 44
REMARK SMILES IDX 36 45 79 46 73 47 72 48 37 50 63 51 46 52 62 53 47 54 50 55
REMARK SMILES IDX 61 56 77 57 48 58 49 59 60 61 78 62 51 63 38 64 39 65 44 66
REMARK SMILES IDX 40 67 41 68 43 69 45 70 42 71 64 72 65 73 70 74 66 75 67 76
REMARK SMILES IDX 69 77 71 78 68 79 52 80 53 81 58 82 54 83 55 84 57 85 59 86
REMARK SMILES IDX 56 87
REMARK H PARENT 19 6 26 30 76 49 50 60
REMARK Flexibility Score: inf
ROOT
ATOM      1  C   UNL A   1      32.108  29.303  27.232  1.00  0.00     0.021 C 
ENDROOT
BRANCH   1   2
ATOM      2  C   UNL A   1      32.485  27.825  27.266  1.00  0.00     0.116 C 
BRANCH   2   3
ATOM      3  N   UNL A   1      31.324  26.969  27.129  1.00  0.00    -0.356 N 
ATOM      4  C   UNL A   1      30.916  26.211  26.077  1.00  0.00     0.224 C 
ATOM      5  O   UNL A   1      29.864  25.582  26.201  1.00  0.00    -0.275 OA
ATOM      6  H   UNL A   1      30.740  26.931  27.921  1.00  0.00     0.163 HD
BRANCH   4   7
ATOM      7  C   UNL A   1      31.774  26.133  24.821  1.00  0.00     0.098 C 
ATOM      8  N   UNL A   1      32.325  24.554  22.954  1.00  0.00    -0.338 N 
ATOM      9  C   UNL A   1      31.864  25.516  21.954  1.00  0.00     0.120 C 
ATOM     10  C   UNL A   1      31.734  24.694  24.285  1.00  0.00     0.133 C 
ATOM     11  C   UNL A   1      31.988  26.949  22.445  1.00  0.00     0.022 C 
ATOM     12  C   UNL A   1      31.249  27.120  23.765  1.00  0.00     0.017 C 
BRANCH   8  13
ATOM     13  C   UNL A   1      33.276  23.618  22.545  1.00  0.00     0.254 C 
ATOM     14  O   UNL A   1      33.390  23.338  21.347  1.00  0.00    -0.269 OA
BRANCH  13  15
ATOM     15  C   UNL A   1      34.172  22.856  23.481  1.00  0.00     0.045 A 
ATOM     16  C   UNL A   1      33.838  21.684  24.198  1.00  0.00    -0.010 A 
ATOM     17  C   UNL A   1      34.873  20.979  24.856  1.00  0.00     0.007 A 
ATOM     18  C   UNL A   1      36.208  21.372  24.764  1.00  0.00     0.000 A 
ATOM     19  C   UNL A   1      35.531  23.247  23.423  1.00  0.00     0.014 A 
ATOM     20  C   UNL A   1      36.539  22.509  24.046  1.00  0.00     0.001 A 
BRANCH  16  21
ATOM     21  C   UNL A   1      32.432  21.147  24.317  1.00  0.00     0.196 C 
BRANCH  21  22
ATOM     22  O   UNL A   1      32.343  19.721  24.404  1.00  0.00    -0.380 OA
ATOM     23  C   UNL A   1      32.324  19.099  23.128  1.00  0.00     0.195 C 
ENDBRANCH  21  22
ENDBRANCH  16  21
ENDBRANCH  13  15
ENDBRANCH   8  13
ENDBRANCH   4   7
ENDBRANCH   2   3
ENDBRANCH   1   2
BRANCH   1  24
ATOM     24  C   UNL A   1      31.961  29.906  25.830  1.00  0.00     0.002 C 
BRANCH  24  25
ATOM     25  C   UNL A   1      31.250  31.261  25.761  1.00  0.00     0.002 C 
BRANCH  25  26
ATOM     26  C   UNL A   1      31.389  32.141  27.003  1.00  0.00     0.021 C 
BRANCH  26  27
ATOM     27  C   UNL A   1      32.734  32.840  27.156  1.00  0.00     0.116 C 
BRANCH  27  28
ATOM     28  N   UNL A   1      32.610  34.218  27.601  1.00  0.00    -0.352 N 
ATOM     29  C   UNL A   1      33.303  34.866  28.595  1.00  0.00     0.251 C 
ATOM     30  H   UNL A   1      31.939  34.760  27.127  1.00  0.00     0.163 HD
ATOM     31  O   UNL A   1      32.988  36.003  28.937  1.00  0.00    -0.269 OA
BRANCH  29  32
ATOM     32  C   UNL A   1      34.415  34.173  29.278  1.00  0.00     0.039 A 
ATOM     33  C   UNL A   1      34.130  33.325  30.352  1.00  0.00     0.014 A 
ATOM     34  C   UNL A   1      35.733  34.342  28.843  1.00  0.00     0.014 A 
ATOM     35  C   UNL A   1      35.160  32.593  30.948  1.00  0.00     0.010 A 
ATOM     36  C   UNL A   1      36.745  33.561  29.391  1.00  0.00     0.010 A 
ATOM     37  C   UNL A   1      36.468  32.679  30.448  1.00  0.00    -0.014 A 
BRANCH  37  38
ATOM     38  C   UNL A   1      37.578  31.871  31.015  1.00  0.00     0.031 A 
ATOM     39  C   UNL A   1      38.109  32.195  32.383  1.00  0.00     0.074 A 
ATOM     40  C   UNL A   1      38.166  30.916  30.270  1.00  0.00     0.049 A 
ATOM     41  N   UNL A   1      39.163  31.720  32.997  1.00  0.00    -0.248 NA
ATOM     42  C   UNL A   1      37.371  33.210  33.151  1.00  0.00     0.031 C 
ATOM     43  C   UNL A   1      37.763  30.524  28.919  1.00  0.00     0.029 A 
ATOM     44  N   UNL A   1      39.248  30.114  30.540  1.00  0.00    -0.354 N 
ATOM     45  C   UNL A   1      39.228  32.398  34.208  1.00  0.00     0.074 A 
ATOM     46  C   UNL A   1      38.135  33.346  34.224  1.00  0.00     0.031 C 
ATOM     47  C   UNL A   1      38.580  29.551  28.482  1.00  0.00     0.029 A 
ATOM     48  C   UNL A   1      39.589  29.281  29.502  1.00  0.00     0.049 A 
ATOM     49  H   UNL A   1      39.733  30.134  31.396  1.00  0.00     0.167 HD
ATOM     50  C   UNL A   1      40.109  32.232  35.223  1.00  0.00     0.037 A 
ATOM     51  C   UNL A   1      40.611  28.413  29.380  1.00  0.00     0.037 A 
ATOM     52  C   UNL A   1      41.177  31.267  35.217  1.00  0.00     0.049 A 
ATOM     53  C   UNL A   1      41.585  28.255  30.513  1.00  0.00     0.074 A 
ATOM     54  C   UNL A   1      42.092  30.987  36.217  1.00  0.00     0.029 A 
ATOM     55  N   UNL A   1      41.470  30.423  34.156  1.00  0.00    -0.354 N 
ATOM     56  N   UNL A   1      41.611  28.870  31.672  1.00  0.00    -0.248 NA
ATOM     57  C   UNL A   1      42.672  27.283  30.326  1.00  0.00     0.031 C 
ATOM     58  C   UNL A   1      42.964  30.000  35.748  1.00  0.00     0.029 A 
ATOM     59  C   UNL A   1      42.563  29.632  34.472  1.00  0.00     0.049 A 
ATOM     60  H   UNL A   1      40.976  30.391  33.306  1.00  0.00     0.167 HD
ATOM     61  C   UNL A   1      42.690  28.335  32.363  1.00  0.00     0.074 A 
ATOM     62  C   UNL A   1      43.294  27.344  31.496  1.00  0.00     0.031 C 
ATOM     63  C   UNL A   1      43.136  28.634  33.607  1.00  0.00     0.037 A 
BRANCH  50  64
ATOM     64  C   UNL A   1      39.953  33.117  36.424  1.00  0.00     0.057 A 
ATOM     65  C   UNL A   1      40.686  34.302  36.568  1.00  0.00     0.134 A 
ATOM     66  C   UNL A   1      39.043  32.794  37.439  1.00  0.00     0.134 A 
ATOM     67  F   UNL A   1      41.584  34.664  35.639  1.00  0.00    -0.206 F 
ATOM     68  C   UNL A   1      40.542  35.118  37.691  1.00  0.00     0.040 A 
ATOM     69  C   UNL A   1      38.870  33.616  38.553  1.00  0.00     0.040 A 
ATOM     70  F   UNL A   1      38.305  31.676  37.361  1.00  0.00    -0.206 F 
ATOM     71  C   UNL A   1      39.628  34.779  38.685  1.00  0.00     0.006 A 
ENDBRANCH  50  64
BRANCH  51  72
ATOM     72  C   UNL A   1      40.756  27.609  28.139  1.00  0.00     0.057 A 
ATOM     73  C   UNL A   1      40.138  26.358  28.017  1.00  0.00     0.134 A 
ATOM     74  C   UNL A   1      41.515  28.062  27.055  1.00  0.00     0.134 A 
ATOM     75  F   UNL A   1      39.414  25.863  29.032  1.00  0.00    -0.206 F 
ATOM     76  C   UNL A   1      40.283  25.580  26.868  1.00  0.00     0.040 A 
ATOM     77  C   UNL A   1      41.649  27.304  25.890  1.00  0.00     0.040 A 
ATOM     78  F   UNL A   1      42.127  29.254  27.106  1.00  0.00    -0.206 F 
ATOM     79  C   UNL A   1      41.037  26.056  25.798  1.00  0.00     0.006 A 
ENDBRANCH  51  72
BRANCH  63  80
ATOM     80  C   UNL A   1      44.300  27.848  34.133  1.00  0.00     0.057 A 
ATOM     81  C   UNL A   1      45.617  28.313  34.030  1.00  0.00     0.134 A 
ATOM     82  C   UNL A   1      44.089  26.639  34.809  1.00  0.00     0.134 A 
ATOM     83  F   UNL A   1      45.886  29.456  33.383  1.00  0.00    -0.206 F 
ATOM     84  C   UNL A   1      46.685  27.596  34.572  1.00  0.00     0.040 A 
ATOM     85  C   UNL A   1      45.146  25.927  35.376  1.00  0.00     0.040 A 
ATOM     86  F   UNL A   1      42.850  26.144  34.948  1.00  0.00    -0.206 F 
ATOM     87  C   UNL A   1      46.449  26.404  35.255  1.00  0.00     0.006 A 
ENDBRANCH  63  80
ENDBRANCH  37  38
ENDBRANCH  29  32
ENDBRANCH  27  28
ENDBRANCH  26  27
ENDBRANCH  25  26
ENDBRANCH  24  25
ENDBRANCH   1  24
TORSDOF 17
ENDMDL
MODEL 3
REMARK VINA RESULT:     -10.9      1.243      2.210
REMARK SMILES COCc1ccccc1C(=O)N1CCC[C@@H](C(=O)NCCCCCCNC(=O)c2ccc(-c3c4nc(c(-c5c(F)cccc5F)c5ccc([nH]5)c(-c5c(F)cccc5F)c5nc(c(-c6c(F)cccc6F)c6ccc3[nH]6)C=C5)C=C4)cc2)C1
REMARK SMILES IDX 21 1 20 2 19 3 17 4 18 5 16 7 12 8 13 9 83 10 14 11 15 12
REMARK SMILES IDX 10 13 11 14 9 15 4 16 5 17 6 18 8 19 7 20 3 21 2 22 1 23
REMARK SMILES IDX 22 24 23 25 24 26 25 27 26 28 27 29 28 31 29 32 30 33 82 34
REMARK SMILES IDX 31 35 81 36 32 37 33 38 34 39 75 40 35 41 80 42 74 43 76 44
REMARK SMILES IDX 36 45 79 46 73 47 72 48 37 50 63 51 46 52 62 53 47 54 50 55
REMARK SMILES IDX 61 56 77 57 48 58 49 59 60 61 78 62 51 63 38 64 39 65 44 66
REMARK SMILES IDX 40 67 41 68 43 69 45 70 42 71 64 72 65 73 70 74 66 75 67 76
REMARK SMILES IDX 69 77 71 78 68 79 52 80 53 81 58 82 54 83 55 84 57 85 59 86
REMARK SMILES IDX 56 87
REMARK H PARENT 19 6 26 30 76 49 50 60
REMARK Flexibility Score: inf
ROOT
ATOM      1  C   UNL A   1      33.090  28.750  25.323  1.00  0.00     0.021 C 
ENDROOT
BRANCH   1   2
ATOM      2  C   UNL A   1      31.829  27.890  25.314  1.00  0.00     0.116 C 
BRANCH   2   3
ATOM      3  N   UNL A   1      31.171  27.912  24.023  1.00  0.00    -0.356 N 
ATOM      4  C   UNL A   1      31.266  27.046  22.979  1.00  0.00     0.224 C 
ATOM      5  O   UNL A   1      30.614  27.302  21.966  1.00  0.00    -0.275 OA
ATOM      6  H   UNL A   1      30.562  28.672  23.880  1.00  0.00     0.163 HD
BRANCH   4   7
ATOM      7  C   UNL A   1      32.123  25.794  23.109  1.00  0.00     0.098 C 
ATOM      8  N   UNL A   1      31.948  23.401  23.834  1.00  0.00    -0.338 N 
ATOM      9  C   UNL A   1      32.376  22.931  22.516  1.00  0.00     0.120 C 
ATOM     10  C   UNL A   1      31.319  24.722  23.860  1.00  0.00     0.133 C 
ATOM     11  C   UNL A   1      33.249  23.952  21.806  1.00  0.00     0.022 C 
ATOM     12  C   UNL A   1      32.528  25.290  21.713  1.00  0.00     0.017 C 
BRANCH   8  13
ATOM     13  C   UNL A   1      32.187  22.556  24.919  1.00  0.00     0.254 C 
ATOM     14  O   UNL A   1      31.295  22.348  25.747  1.00  0.00    -0.269 OA
BRANCH  13  15
ATOM     15  C   UNL A   1      33.506  21.893  25.200  1.00  0.00     0.045 A 
ATOM     16  C   UNL A   1      33.878  20.575  24.846  1.00  0.00    -0.010 A 
ATOM     17  C   UNL A   1      35.232  20.194  24.992  1.00  0.00     0.007 A 
ATOM     18  C   UNL A   1      36.211  21.096  25.410  1.00  0.00     0.000 A 
ATOM     19  C   UNL A   1      34.514  22.781  25.645  1.00  0.00     0.014 A 
ATOM     20  C   UNL A   1      35.852  22.392  25.739  1.00  0.00     0.001 A 
BRANCH  16  21
ATOM     21  C   UNL A   1      32.905  19.538  24.336  1.00  0.00     0.196 C 
BRANCH  21  22
ATOM     22  O   UNL A   1      32.248  18.784  25.359  1.00  0.00    -0.380 OA
ATOM     23  C   UNL A   1      32.371  17.383  25.166  1.00  0.00     0.195 C 
ENDBRANCH  21  22
ENDBRANCH  16  21
ENDBRANCH  13  15
ENDBRANCH   8  13
ENDBRANCH   4   7
ENDBRANCH   2   3
ENDBRANCH   1   2
BRANCH   1  24
ATOM     24  C   UNL A   1      33.124  29.845  26.396  1.00  0.00     0.002 C 
BRANCH  24  25
ATOM     25  C   UNL A   1      31.761  30.384  26.840  1.00  0.00     0.002 C 
BRANCH  25  26
ATOM     26  C   UNL A   1      31.592  31.901  26.751  1.00  0.00     0.021 C 
BRANCH  26  27
ATOM     27  C   UNL A   1      32.775  32.715  27.259  1.00  0.00     0.116 C 
BRANCH  27  28
ATOM     28  N   UNL A   1      32.419  34.084  27.595  1.00  0.00    -0.352 N 
ATOM     29  C   UNL A   1      32.975  34.909  28.543  1.00  0.00     0.251 C 
ATOM     30  H   UNL A   1      31.680  34.473  27.075  1.00  0.00     0.163 HD
ATOM     31  O   UNL A   1      32.472  36.001  28.794  1.00  0.00    -0.269 OA
BRANCH  29  32
ATOM     32  C   UNL A   1      34.169  34.459  29.289  1.00  0.00     0.039 A 
ATOM     33  C   UNL A   1      34.001  33.822  30.522  1.00  0.00     0.014 A 
ATOM     34  C   UNL A   1      35.450  34.647  28.760  1.00  0.00     0.014 A 
ATOM     35  C   UNL A   1      35.113  33.310  31.194  1.00  0.00     0.010 A 
ATOM     36  C   UNL A   1      36.547  34.076  29.397  1.00  0.00     0.010 A 
ATOM     37  C   UNL A   1      36.390  33.403  30.619  1.00  0.00    -0.014 A 
BRANCH  37  38
ATOM     38  C   UNL A   1      37.588  32.818  31.274  1.00  0.00     0.031 A 
ATOM     39  C   UNL A   1      38.254  31.615  30.667  1.00  0.00     0.074 A 
ATOM     40  C   UNL A   1      38.018  33.306  32.453  1.00  0.00     0.049 A 
ATOM     41  N   UNL A   1      39.207  30.863  31.153  1.00  0.00    -0.248 NA
ATOM     42  C   UNL A   1      37.758  31.185  29.350  1.00  0.00     0.031 C 
ATOM     43  C   UNL A   1      37.442  34.451  33.159  1.00  0.00     0.029 A 
ATOM     44  N   UNL A   1      39.029  32.882  33.278  1.00  0.00    -0.354 N 
ATOM     45  C   UNL A   1      39.407  29.857  30.216  1.00  0.00     0.074 A 
ATOM     46  C   UNL A   1      38.446  30.071  29.154  1.00  0.00     0.031 C 
ATOM     47  C   UNL A   1      38.115  34.644  34.305  1.00  0.00     0.029 A 
ATOM     48  C   UNL A   1      39.139  33.612  34.437  1.00  0.00     0.049 A 
ATOM     49  H   UNL A   1      39.621  32.125  33.061  1.00  0.00     0.167 HD
ATOM     50  C   UNL A   1      40.320  28.858  30.229  1.00  0.00     0.037 A 
ATOM     51  C   UNL A   1      39.959  33.455  35.493  1.00  0.00     0.037 A 
ATOM     52  C   UNL A   1      41.293  28.665  31.271  1.00  0.00     0.049 A 
ATOM     53  C   UNL A   1      40.955  32.330  35.493  1.00  0.00     0.074 A 
ATOM     54  C   UNL A   1      42.294  27.713  31.352  1.00  0.00     0.029 A 
ATOM     55  N   UNL A   1      41.388  29.446  32.414  1.00  0.00    -0.354 N 
ATOM     56  N   UNL A   1      41.164  31.411  34.580  1.00  0.00    -0.248 NA
ATOM     57  C   UNL A   1      41.832  32.217  36.668  1.00  0.00     0.031 C 
ATOM     58  C   UNL A   1      42.970  27.892  32.563  1.00  0.00     0.029 A 
ATOM     59  C   UNL A   1      42.421  28.985  33.214  1.00  0.00     0.049 A 
ATOM     60  H   UNL A   1      40.808  30.212  32.625  1.00  0.00     0.167 HD
ATOM     61  C   UNL A   1      42.216  30.638  35.052  1.00  0.00     0.074 A 
ATOM     62  C   UNL A   1      42.605  31.193  36.331  1.00  0.00     0.031 C 
ATOM     63  C   UNL A   1      42.810  29.565  34.474  1.00  0.00     0.037 A 
BRANCH  50  64
ATOM     64  C   UNL A   1      40.304  27.893  29.080  1.00  0.00     0.057 A 
ATOM     65  C   UNL A   1      41.067  28.108  27.925  1.00  0.00     0.134 A 
ATOM     66  C   UNL A   1      39.535  26.724  29.137  1.00  0.00     0.134 A 
ATOM     67  F   UNL A   1      41.816  29.214  27.799  1.00  0.00    -0.206 F 
ATOM     68  C   UNL A   1      41.042  27.210  26.856  1.00  0.00     0.040 A 
ATOM     69  C   UNL A   1      39.524  25.805  28.087  1.00  0.00     0.040 A 
ATOM     70  F   UNL A   1      38.786  26.453  30.217  1.00  0.00    -0.206 F 
ATOM     71  C   UNL A   1      40.273  26.051  26.938  1.00  0.00     0.006 A 
ENDBRANCH  50  64
BRANCH  51  72
ATOM     72  C   UNL A   1      39.886  34.401  36.636  1.00  0.00     0.057 A 
ATOM     73  C   UNL A   1      40.601  35.604  36.619  1.00  0.00     0.134 A 
ATOM     74  C   UNL A   1      39.111  34.127  37.768  1.00  0.00     0.134 A 
ATOM     75  F   UNL A   1      41.377  35.913  35.569  1.00  0.00    -0.206 F 
ATOM     76  C   UNL A   1      40.561  36.494  37.693  1.00  0.00     0.040 A 
ATOM     77  C   UNL A   1      39.043  35.018  38.841  1.00  0.00     0.040 A 
ATOM     78  F   UNL A   1      38.397  32.993  37.844  1.00  0.00    -0.206 F 
ATOM     79  C   UNL A   1      39.776  36.203  38.807  1.00  0.00     0.006 A 
ENDBRANCH  51  72
BRANCH  63  80
ATOM     80  C   UNL A   1      43.978  28.952  35.187  1.00  0.00     0.057 A 
ATOM     81  C   UNL A   1      45.297  29.332  34.913  1.00  0.00     0.134 A 
ATOM     82  C   UNL A   1      43.771  28.016  36.208  1.00  0.00     0.134 A 
ATOM     83  F   UNL A   1      45.563  30.214  33.938  1.00  0.00    -0.206 F 
ATOM     84  C   UNL A   1      46.372  28.792  35.622  1.00  0.00     0.040 A 
ATOM     85  C   UNL A   1      44.835  27.488  36.940  1.00  0.00     0.040 A 
ATOM     86  F   UNL A   1      42.530  27.616  36.525  1.00  0.00    -0.206 F 
ATOM     87  C   UNL A   1      46.140  27.874  36.646  1.00  0.00     0.006 A 
ENDBRANCH  63  80
ENDBRANCH  37  38
ENDBRANCH  29  32
ENDBRANCH  27  28
ENDBRANCH  26  27
ENDBRANCH  25  26
ENDBRANCH  24  25
ENDBRANCH   1  24
TORSDOF 17
ENDMDL
