MODEL 1
REMARK VINA RESULT:     -11.9      0.000      0.000
REMARK SMILES COc1ccc(CCN2C(=O)C[C@@H](C(=O)NCCCCCCNC(=O)c3ccc(-c4c5nc(c(-c6c(F)cccc6F)c6ccc([nH]6)c(-c6c(F)cccc6F)c6nc(c(-c7c(F)cccc7F)c7ccc4[nH]7)C=C6)C=C5)cc3)S/C2=[NH+]\c2ccc(F)cc2)cc1OC
REMARK SMILES IDX 18 1 17 2 16 3 14 4 15 5 13 7 9 8 10 9 81 10 11 11 12 12
REMARK SMILES IDX 80 13 82 14 8 16 7 17 6 18 3 19 4 20 91 21 5 22 90 23 2 24
REMARK SMILES IDX 1 25 92 26 93 27 83 28 84 29 89 30 85 31 88 32 86 33 87 34
REMARK SMILES IDX 19 35 20 36 21 37 22 38 23 39 24 40 25 42 26 43 27 44 79 45
REMARK SMILES IDX 28 46 78 47 29 48 30 49 31 50 72 51 32 52 77 53 71 54 73 55
REMARK SMILES IDX 33 56 76 57 70 58 69 59 34 61 60 62 43 63 59 64 44 65 47 66
REMARK SMILES IDX 58 67 74 68 45 69 46 70 57 72 75 73 48 74 35 75 36 76 41 77
REMARK SMILES IDX 37 78 38 79 40 80 42 81 39 82 61 83 62 84 67 85 63 86 64 87
REMARK SMILES IDX 66 88 68 89 65 90 49 91 50 92 55 93 51 94 52 95 54 96 56 97
REMARK SMILES IDX 53 98
REMARK H PARENT 16 6 82 15 23 41 73 60 47 71
REMARK Flexibility Score: inf
ROOT
ATOM      1  C   UNL A   1      39.646  19.676  26.069  1.00  0.00     0.021 C 
ENDROOT
BRANCH   1   2
ATOM      2  C   UNL A   1      38.630  20.408  25.196  1.00  0.00     0.116 C 
BRANCH   2   3
ATOM      3  N   UNL A   1      38.105  21.590  25.861  1.00  0.00    -0.355 N 
ATOM      4  C   UNL A   1      37.063  22.406  25.530  1.00  0.00     0.234 C 
ATOM      5  O   UNL A   1      36.836  23.376  26.260  1.00  0.00    -0.274 OA
ATOM      6  H   UNL A   1      38.581  21.843  26.684  1.00  0.00     0.163 HD
BRANCH   4   7
ATOM      7  C   UNL A   1      36.179  22.116  24.316  1.00  0.00     0.160 C 
ATOM      8  N   UNL A   1      33.397  22.693  23.314  1.00  0.00    -0.191 N 
ATOM      9  C   UNL A   1      34.336  23.711  23.424  1.00  0.00     0.311 C 
ATOM     10  C   UNL A   1      33.537  21.378  23.801  1.00  0.00     0.319 C 
ATOM     11  O   UNL A   1      34.050  24.908  23.325  1.00  0.00    -0.247 OA
ATOM     12  C   UNL A   1      35.792  23.390  23.620  1.00  0.00     0.153 C 
ATOM     13  S   UNL A   1      34.892  21.001  24.824  1.00  0.00    -0.024 SA
ATOM     14  N   UNL A   1      32.602  20.502  23.573  1.00  0.00    -0.235 N 
ATOM     15  H   UNL A   1      31.816  20.755  23.036  1.00  0.00     0.313 HD
BRANCH   8  16
ATOM     16  C   UNL A   1      32.012  23.060  22.926  1.00  0.00     0.251 C 
BRANCH  16  17
ATOM     17  C   UNL A   1      30.964  23.518  23.961  1.00  0.00     0.082 C 
BRANCH  17  18
ATOM     18  C   UNL A   1      31.135  24.861  24.635  1.00  0.00    -0.040 A 
ATOM     19  C   UNL A   1      31.299  27.430  25.781  1.00  0.00     0.160 A 
ATOM     20  C   UNL A   1      31.691  26.300  26.505  1.00  0.00     0.051 A 
ATOM     21  C   UNL A   1      30.860  27.300  24.462  1.00  0.00     0.160 A 
ATOM     22  C   UNL A   1      31.611  25.026  25.937  1.00  0.00     0.008 A 
ATOM     23  C   UNL A   1      30.753  26.011  23.920  1.00  0.00     0.054 A 
BRANCH  19  24
ATOM     24  O   UNL A   1      31.417  28.642  26.407  1.00  0.00    -0.493 OA
ATOM     25  C   UNL A   1      32.446  28.605  27.396  1.00  0.00     0.278 C 
ENDBRANCH  19  24
BRANCH  21  26
ATOM     26  O   UNL A   1      30.481  28.286  23.594  1.00  0.00    -0.493 OA
ATOM     27  C   UNL A   1      29.177  28.214  23.034  1.00  0.00     0.278 C 
ENDBRANCH  21  26
ENDBRANCH  17  18
ENDBRANCH  16  17
ENDBRANCH   8  16
BRANCH  14  28
ATOM     28  C   UNL A   1      32.702  19.196  24.086  1.00  0.00     0.125 A 
ATOM     29  C   UNL A   1      33.044  18.143  23.230  1.00  0.00     0.055 A 
ATOM     30  C   UNL A   1      32.518  18.940  25.452  1.00  0.00     0.055 A 
ATOM     31  C   UNL A   1      33.278  16.866  23.744  1.00  0.00     0.043 A 
ATOM     32  C   UNL A   1      32.765  17.666  25.970  1.00  0.00     0.043 A 
ATOM     33  C   UNL A   1      33.154  16.645  25.111  1.00  0.00     0.123 A 
ATOM     34  F   UNL A   1      33.423  15.431  25.609  1.00  0.00    -0.207 F 
ENDBRANCH  14  28
ENDBRANCH   4   7
ENDBRANCH   2   3
ENDBRANCH   1   2
BRANCH   1  35
ATOM     35  C   UNL A   1      40.496  20.605  26.940  1.00  0.00     0.002 C 
BRANCH  35  36
ATOM     36  C   UNL A   1      41.957  20.175  27.092  1.00  0.00     0.002 C 
BRANCH  36  37
ATOM     37  C   UNL A   1      42.927  20.855  26.123  1.00  0.00     0.021 C 
BRANCH  37  38
ATOM     38  C   UNL A   1      43.574  22.121  26.669  1.00  0.00     0.116 C 
BRANCH  38  39
ATOM     39  N   UNL A   1      44.221  22.896  25.623  1.00  0.00    -0.352 N 
ATOM     40  C   UNL A   1      44.185  24.248  25.394  1.00  0.00     0.251 C 
ATOM     41  H   UNL A   1      44.763  22.375  24.987  1.00  0.00     0.163 HD
ATOM     42  O   UNL A   1      44.616  24.713  24.347  1.00  0.00    -0.269 OA
BRANCH  40  43
ATOM     43  C   UNL A   1      43.603  25.138  26.418  1.00  0.00     0.039 A 
ATOM     44  C   UNL A   1      42.529  24.676  27.182  1.00  0.00     0.014 A 
ATOM     45  C   UNL A   1      44.116  26.422  26.622  1.00  0.00     0.014 A 
ATOM     46  C   UNL A   1      42.006  25.484  28.191  1.00  0.00     0.010 A 
ATOM     47  C   UNL A   1      43.646  27.194  27.679  1.00  0.00     0.010 A 
ATOM     48  C   UNL A   1      42.581  26.736  28.469  1.00  0.00    -0.014 A 
BRANCH  48  49
ATOM     49  C   UNL A   1      42.079  27.580  29.581  1.00  0.00     0.031 A 
ATOM     50  C   UNL A   1      42.722  27.504  30.937  1.00  0.00     0.074 A 
ATOM     51  C   UNL A   1      41.008  28.372  29.382  1.00  0.00     0.049 A 
ATOM     52  N   UNL A   1      42.387  28.114  32.045  1.00  0.00    -0.248 NA
ATOM     53  C   UNL A   1      43.879  26.605  31.072  1.00  0.00     0.031 C 
ATOM     54  C   UNL A   1      40.268  28.496  28.124  1.00  0.00     0.029 A 
ATOM     55  N   UNL A   1      40.348  29.216  30.240  1.00  0.00    -0.354 N 
ATOM     56  C   UNL A   1      43.286  27.669  33.007  1.00  0.00     0.074 A 
ATOM     57  C   UNL A   1      44.139  26.690  32.369  1.00  0.00     0.031 C 
ATOM     58  C   UNL A   1      39.271  29.380  28.286  1.00  0.00     0.029 A 
ATOM     59  C   UNL A   1      39.273  29.853  29.667  1.00  0.00     0.049 A 
ATOM     60  H   UNL A   1      40.619  29.353  31.176  1.00  0.00     0.167 HD
ATOM     61  C   UNL A   1      43.410  28.063  34.297  1.00  0.00     0.037 A 
ATOM     62  C   UNL A   1      38.382  30.711  30.199  1.00  0.00     0.037 A 
ATOM     63  C   UNL A   1      42.565  29.045  34.925  1.00  0.00     0.049 A 
ATOM     64  C   UNL A   1      38.525  31.112  31.642  1.00  0.00     0.074 A 
ATOM     65  C   UNL A   1      42.633  29.541  36.215  1.00  0.00     0.029 A 
ATOM     66  N   UNL A   1      41.495  29.677  34.309  1.00  0.00    -0.354 N 
ATOM     67  N   UNL A   1      39.420  30.732  32.521  1.00  0.00    -0.248 NA
ATOM     68  C   UNL A   1      37.538  32.068  32.162  1.00  0.00     0.031 C 
ATOM     69  C   UNL A   1      41.574  30.435  36.395  1.00  0.00     0.029 A 
ATOM     70  C   UNL A   1      40.882  30.542  35.200  1.00  0.00     0.049 A 
ATOM     71  H   UNL A   1      41.215  29.532  33.377  1.00  0.00     0.167 HD
ATOM     72  C   UNL A   1      39.123  31.424  33.689  1.00  0.00     0.074 A 
ATOM     73  C   UNL A   1      37.976  32.258  33.399  1.00  0.00     0.031 C 
ATOM     74  C   UNL A   1      39.744  31.372  34.893  1.00  0.00     0.037 A 
BRANCH  61  75
ATOM     75  C   UNL A   1      44.502  27.430  35.111  1.00  0.00     0.057 A 
ATOM     76  C   UNL A   1      45.794  27.973  35.161  1.00  0.00     0.134 A 
ATOM     77  C   UNL A   1      44.253  26.287  35.882  1.00  0.00     0.134 A 
ATOM     78  F   UNL A   1      46.103  29.059  34.440  1.00  0.00    -0.206 F 
ATOM     79  C   UNL A   1      46.805  27.384  35.924  1.00  0.00     0.040 A 
ATOM     80  C   UNL A   1      45.248  25.708  36.672  1.00  0.00     0.040 A 
ATOM     81  F   UNL A   1      43.038  25.719  35.886  1.00  0.00    -0.206 F 
ATOM     82  C   UNL A   1      46.531  26.253  36.688  1.00  0.00     0.006 A 
ENDBRANCH  61  75
BRANCH  62  83
ATOM     83  C   UNL A   1      37.282  31.256  29.363  1.00  0.00     0.057 A 
ATOM     84  C   UNL A   1      37.353  32.544  28.820  1.00  0.00     0.134 A 
ATOM     85  C   UNL A   1      36.127  30.509  29.101  1.00  0.00     0.134 A 
ATOM     86  F   UNL A   1      38.425  33.315  29.049  1.00  0.00    -0.206 F 
ATOM     87  C   UNL A   1      36.305  33.081  28.069  1.00  0.00     0.040 A 
ATOM     88  C   UNL A   1      35.085  31.021  28.327  1.00  0.00     0.040 A 
ATOM     89  F   UNL A   1      36.001  29.264  29.583  1.00  0.00    -0.206 F 
ATOM     90  C   UNL A   1      35.168  32.315  27.817  1.00  0.00     0.006 A 
ENDBRANCH  62  83
BRANCH  74  91
ATOM     91  C   UNL A   1      39.220  32.272  35.976  1.00  0.00     0.057 A 
ATOM     92  C   UNL A   1      38.276  31.836  36.913  1.00  0.00     0.134 A 
ATOM     93  C   UNL A   1      39.700  33.582  36.104  1.00  0.00     0.134 A 
ATOM     94  F   UNL A   1      37.767  30.596  36.839  1.00  0.00    -0.206 F 
ATOM     95  C   UNL A   1      37.807  32.679  37.923  1.00  0.00     0.040 A 
ATOM     96  C   UNL A   1      39.262  34.424  37.127  1.00  0.00     0.040 A 
ATOM     97  F   UNL A   1      40.614  34.060  35.246  1.00  0.00    -0.206 F 
ATOM     98  C   UNL A   1      38.306  33.974  38.035  1.00  0.00     0.006 A 
ENDBRANCH  74  91
ENDBRANCH  48  49
ENDBRANCH  40  43
ENDBRANCH  38  39
ENDBRANCH  37  38
ENDBRANCH  36  37
ENDBRANCH  35  36
ENDBRANCH   1  35
TORSDOF 19
ENDMDL
MODEL 2
REMARK VINA RESULT:     -11.8      1.362      6.023
REMARK SMILES COc1ccc(CCN2C(=O)C[C@@H](C(=O)NCCCCCCNC(=O)c3ccc(-c4c5nc(c(-c6c(F)cccc6F)c6ccc([nH]6)c(-c6c(F)cccc6F)c6nc(c(-c7c(F)cccc7F)c7ccc4[nH]7)C=C6)C=C5)cc3)S/C2=[NH+]\c2ccc(F)cc2)cc1OC
REMARK SMILES IDX 18 1 17 2 16 3 14 4 15 5 13 7 9 8 10 9 81 10 11 11 12 12
REMARK SMILES IDX 80 13 82 14 8 16 7 17 6 18 3 19 4 20 91 21 5 22 90 23 2 24
REMARK SMILES IDX 1 25 92 26 93 27 83 28 84 29 89 30 85 31 88 32 86 33 87 34
REMARK SMILES IDX 19 35 20 36 21 37 22 38 23 39 24 40 25 42 26 43 27 44 79 45
REMARK SMILES IDX 28 46 78 47 29 48 30 49 31 50 72 51 32 52 77 53 71 54 73 55
REMARK SMILES IDX 33 56 76 57 70 58 69 59 34 61 60 62 43 63 59 64 44 65 47 66
REMARK SMILES IDX 58 67 74 68 45 69 46 70 57 72 75 73 48 74 35 75 36 76 41 77
REMARK SMILES IDX 37 78 38 79 40 80 42 81 39 82 61 83 62 84 67 85 63 86 64 87
REMARK SMILES IDX 66 88 68 89 65 90 49 91 50 92 55 93 51 94 52 95 54 96 56 97
REMARK SMILES IDX 53 98
REMARK H PARENT 16 6 82 15 23 41 73 60 47 71
REMARK Flexibility Score: inf
ROOT
ATOM      1  C   UNL A   1      40.050  20.376  26.094  1.00  0.00     0.021 C 
ENDROOT
BRANCH   1   2
ATOM      2  C   UNL A   1      38.744  20.732  25.388  1.00  0.00     0.116 C 
BRANCH   2   3
ATOM      3  N   UNL A   1      38.057  21.826  26.053  1.00  0.00    -0.355 N 
ATOM      4  C   UNL A   1      36.951  22.536  25.684  1.00  0.00     0.234 C 
ATOM      5  O   UNL A   1      36.579  23.450  26.425  1.00  0.00    -0.274 OA
ATOM      6  H   UNL A   1      38.455  22.101  26.909  1.00  0.00     0.163 HD
BRANCH   4   7
ATOM      7  C   UNL A   1      36.173  22.192  24.412  1.00  0.00     0.160 C 
ATOM      8  N   UNL A   1      33.476  22.694  23.168  1.00  0.00    -0.191 N 
ATOM      9  C   UNL A   1      34.390  23.730  23.320  1.00  0.00     0.311 C 
ATOM     10  C   UNL A   1      33.592  21.398  23.708  1.00  0.00     0.319 C 
ATOM     11  O   UNL A   1      34.097  24.918  23.157  1.00  0.00    -0.247 OA
ATOM     12  C   UNL A   1      35.828  23.438  23.644  1.00  0.00     0.153 C 
ATOM     13  S   UNL A   1      34.863  21.076  24.850  1.00  0.00    -0.024 SA
ATOM     14  N   UNL A   1      32.689  20.501  23.434  1.00  0.00    -0.235 N 
ATOM     15  H   UNL A   1      31.948  20.724  22.827  1.00  0.00     0.313 HD
BRANCH   8  16
ATOM     16  C   UNL A   1      32.123  23.027  22.656  1.00  0.00     0.251 C 
BRANCH  16  17
ATOM     17  C   UNL A   1      30.997  23.535  23.581  1.00  0.00     0.082 C 
BRANCH  17  18
ATOM     18  C   UNL A   1      31.192  24.833  24.331  1.00  0.00    -0.040 A 
ATOM     19  C   UNL A   1      31.402  27.329  25.623  1.00  0.00     0.160 A 
ATOM     20  C   UNL A   1      31.771  26.152  26.281  1.00  0.00     0.051 A 
ATOM     21  C   UNL A   1      30.962  27.282  24.298  1.00  0.00     0.160 A 
ATOM     22  C   UNL A   1      31.669  24.914  25.640  1.00  0.00     0.008 A 
ATOM     23  C   UNL A   1      30.833  26.029  23.682  1.00  0.00     0.054 A 
BRANCH  19  24
ATOM     24  O   UNL A   1      31.540  28.500  26.317  1.00  0.00    -0.493 OA
ATOM     25  C   UNL A   1      31.486  28.267  27.724  1.00  0.00     0.278 C 
ENDBRANCH  19  24
BRANCH  21  26
ATOM     26  O   UNL A   1      30.603  28.324  23.487  1.00  0.00    -0.493 OA
ATOM     27  C   UNL A   1      29.280  28.338  22.969  1.00  0.00     0.278 C 
ENDBRANCH  21  26
ENDBRANCH  17  18
ENDBRANCH  16  17
ENDBRANCH   8  16
BRANCH  14  28
ATOM     28  C   UNL A   1      32.764  19.214  23.997  1.00  0.00     0.125 A 
ATOM     29  C   UNL A   1      33.131  18.129  23.193  1.00  0.00     0.055 A 
ATOM     30  C   UNL A   1      32.528  19.008  25.364  1.00  0.00     0.055 A 
ATOM     31  C   UNL A   1      33.340  16.871  23.761  1.00  0.00     0.043 A 
ATOM     32  C   UNL A   1      32.750  17.753  25.936  1.00  0.00     0.043 A 
ATOM     33  C   UNL A   1      33.165  16.700  25.129  1.00  0.00     0.123 A 
ATOM     34  F   UNL A   1      33.409  15.504  25.681  1.00  0.00    -0.207 F 
ENDBRANCH  14  28
ENDBRANCH   4   7
ENDBRANCH   2   3
ENDBRANCH   1   2
BRANCH   1  35
ATOM     35  C   UNL A   1      40.492  21.409  27.133  1.00  0.00     0.002 C 
BRANCH  35  36
ATOM     36  C   UNL A   1      41.909  21.203  27.674  1.00  0.00     0.002 C 
BRANCH  36  37
ATOM     37  C   UNL A   1      42.981  22.065  27.002  1.00  0.00     0.021 C 
BRANCH  37  38
ATOM     38  C   UNL A   1      42.844  23.558  27.273  1.00  0.00     0.116 C 
BRANCH  38  39
ATOM     39  N   UNL A   1      42.388  24.284  26.099  1.00  0.00    -0.352 N 
ATOM     40  C   UNL A   1      41.701  25.468  26.023  1.00  0.00     0.251 C 
ATOM     41  H   UNL A   1      42.605  23.865  25.234  1.00  0.00     0.163 HD
ATOM     42  O   UNL A   1      41.212  25.836  24.962  1.00  0.00    -0.269 OA
BRANCH  40  43
ATOM     43  C   UNL A   1      41.539  26.290  27.239  1.00  0.00     0.039 A 
ATOM     44  C   UNL A   1      42.381  27.389  27.426  1.00  0.00     0.014 A 
ATOM     45  C   UNL A   1      40.562  25.977  28.187  1.00  0.00     0.014 A 
ATOM     46  C   UNL A   1      42.203  28.207  28.542  1.00  0.00     0.010 A 
ATOM     47  C   UNL A   1      40.335  26.837  29.255  1.00  0.00     0.010 A 
ATOM     48  C   UNL A   1      41.158  27.957  29.447  1.00  0.00    -0.014 A 
BRANCH  48  49
ATOM     49  C   UNL A   1      40.915  28.854  30.603  1.00  0.00     0.031 A 
ATOM     50  C   UNL A   1      39.821  29.884  30.543  1.00  0.00     0.074 A 
ATOM     51  C   UNL A   1      41.716  28.779  31.683  1.00  0.00     0.049 A 
ATOM     52  N   UNL A   1      39.496  30.796  31.423  1.00  0.00    -0.248 NA
ATOM     53  C   UNL A   1      38.999  29.907  29.322  1.00  0.00     0.031 C 
ATOM     54  C   UNL A   1      42.841  27.855  31.841  1.00  0.00     0.029 A 
ATOM     55  N   UNL A   1      41.713  29.501  32.851  1.00  0.00    -0.354 N 
ATOM     56  C   UNL A   1      38.439  31.502  30.861  1.00  0.00     0.074 A 
ATOM     57  C   UNL A   1      38.220  30.957  29.540  1.00  0.00     0.031 C 
ATOM     58  C   UNL A   1      43.406  28.050  33.042  1.00  0.00     0.029 A 
ATOM     59  C   UNL A   1      42.713  29.140  33.722  1.00  0.00     0.049 A 
ATOM     60  H   UNL A   1      41.058  30.209  33.045  1.00  0.00     0.167 HD
ATOM     61  C   UNL A   1      37.699  32.495  31.408  1.00  0.00     0.037 A 
ATOM     62  C   UNL A   1      43.041  29.640  34.929  1.00  0.00     0.037 A 
ATOM     63  C   UNL A   1      37.914  33.028  32.728  1.00  0.00     0.049 A 
ATOM     64  C   UNL A   1      42.219  30.761  35.503  1.00  0.00     0.074 A 
ATOM     65  C   UNL A   1      37.195  34.008  33.390  1.00  0.00     0.029 A 
ATOM     66  N   UNL A   1      38.928  32.629  33.586  1.00  0.00    -0.354 N 
ATOM     67  N   UNL A   1      41.183  31.376  34.988  1.00  0.00    -0.248 NA
ATOM     68  C   UNL A   1      42.609  31.253  36.832  1.00  0.00     0.031 C 
ATOM     69  C   UNL A   1      37.803  34.237  34.627  1.00  0.00     0.029 A 
ATOM     70  C   UNL A   1      38.866  33.359  34.762  1.00  0.00     0.049 A 
ATOM     71  H   UNL A   1      39.592  31.930  33.388  1.00  0.00     0.167 HD
ATOM     72  C   UNL A   1      40.778  32.305  35.939  1.00  0.00     0.074 A 
ATOM     73  C   UNL A   1      41.671  32.159  37.069  1.00  0.00     0.031 C 
ATOM     74  C   UNL A   1      39.759  33.197  35.881  1.00  0.00     0.037 A 
BRANCH  61  75
ATOM     75  C   UNL A   1      36.585  33.066  30.578  1.00  0.00     0.057 A 
ATOM     76  C   UNL A   1      36.832  33.953  29.521  1.00  0.00     0.134 A 
ATOM     77  C   UNL A   1      35.253  32.700  30.813  1.00  0.00     0.134 A 
ATOM     78  F   UNL A   1      38.082  34.354  29.248  1.00  0.00    -0.206 F 
ATOM     79  C   UNL A   1      35.793  34.477  28.748  1.00  0.00     0.040 A 
ATOM     80  C   UNL A   1      34.210  33.193  30.027  1.00  0.00     0.040 A 
ATOM     81  F   UNL A   1      34.945  31.850  31.804  1.00  0.00    -0.206 F 
ATOM     82  C   UNL A   1      34.479  34.092  28.996  1.00  0.00     0.006 A 
ENDBRANCH  61  75
BRANCH  62  83
ATOM     83  C   UNL A   1      44.194  29.080  35.679  1.00  0.00     0.057 A 
ATOM     84  C   UNL A   1      45.488  29.583  35.503  1.00  0.00     0.134 A 
ATOM     85  C   UNL A   1      44.033  28.017  36.576  1.00  0.00     0.134 A 
ATOM     86  F   UNL A   1      45.711  30.588  34.644  1.00  0.00    -0.206 F 
ATOM     87  C   UNL A   1      46.585  29.033  36.171  1.00  0.00     0.040 A 
ATOM     88  C   UNL A   1      45.115  27.478  37.274  1.00  0.00     0.040 A 
ATOM     89  F   UNL A   1      42.817  27.496  36.798  1.00  0.00    -0.206 F 
ATOM     90  C   UNL A   1      46.397  27.979  37.063  1.00  0.00     0.006 A 
ENDBRANCH  62  83
BRANCH  74  91
ATOM     91  C   UNL A   1      39.531  34.058  37.091  1.00  0.00     0.057 A 
ATOM     92  C   UNL A   1      39.982  35.383  37.157  1.00  0.00     0.134 A 
ATOM     93  C   UNL A   1      38.814  33.565  38.189  1.00  0.00     0.134 A 
ATOM     94  F   UNL A   1      40.685  35.912  36.143  1.00  0.00    -0.206 F 
ATOM     95  C   UNL A   1      39.752  36.177  38.281  1.00  0.00     0.040 A 
ATOM     96  C   UNL A   1      38.552  34.359  39.306  1.00  0.00     0.040 A 
ATOM     97  F   UNL A   1      38.345  32.308  38.187  1.00  0.00    -0.206 F 
ATOM     98  C   UNL A   1      39.028  35.667  39.357  1.00  0.00     0.006 A 
ENDBRANCH  74  91
ENDBRANCH  48  49
ENDBRANCH  40  43
ENDBRANCH  38  39
ENDBRANCH  37  38
ENDBRANCH  36  37
ENDBRANCH  35  36
ENDBRANCH   1  35
TORSDOF 19
ENDMDL
MODEL 3
REMARK VINA RESULT:     -11.7      6.042      9.829
REMARK SMILES COc1ccc(CCN2C(=O)C[C@@H](C(=O)NCCCCCCNC(=O)c3ccc(-c4c5nc(c(-c6c(F)cccc6F)c6ccc([nH]6)c(-c6c(F)cccc6F)c6nc(c(-c7c(F)cccc7F)c7ccc4[nH]7)C=C6)C=C5)cc3)S/C2=[NH+]\c2ccc(F)cc2)cc1OC
REMARK SMILES IDX 18 1 17 2 16 3 14 4 15 5 13 7 9 8 10 9 81 10 11 11 12 12
REMARK SMILES IDX 80 13 82 14 8 16 7 17 6 18 3 19 4 20 91 21 5 22 90 23 2 24
REMARK SMILES IDX 1 25 92 26 93 27 83 28 84 29 89 30 85 31 88 32 86 33 87 34
REMARK SMILES IDX 19 35 20 36 21 37 22 38 23 39 24 40 25 42 26 43 27 44 79 45
REMARK SMILES IDX 28 46 78 47 29 48 30 49 31 50 72 51 32 52 77 53 71 54 73 55
REMARK SMILES IDX 33 56 76 57 70 58 69 59 34 61 60 62 43 63 59 64 44 65 47 66
REMARK SMILES IDX 58 67 74 68 45 69 46 70 57 72 75 73 48 74 35 75 36 76 41 77
REMARK SMILES IDX 37 78 38 79 40 80 42 81 39 82 61 83 62 84 67 85 63 86 64 87
REMARK SMILES IDX 66 88 68 89 65 90 49 91 50 92 55 93 51 94 52 95 54 96 56 97
REMARK SMILES IDX 53 98
REMARK H PARENT 16 6 82 15 23 41 73 60 47 71
REMARK Flexibility Score: inf
ROOT
ATOM      1  C   UNL A   1      40.026  19.383  25.828  1.00  0.00     0.021 C 
ENDROOT
BRANCH   1   2
ATOM      2  C   UNL A   1      38.795  19.980  25.151  1.00  0.00     0.116 C 
BRANCH   2   3
ATOM      3  N   UNL A   1      38.422  21.254  25.745  1.00  0.00    -0.355 N 
ATOM      4  C   UNL A   1      37.437  22.136  25.408  1.00  0.00     0.234 C 
ATOM      5  O   UNL A   1      37.346  23.176  26.067  1.00  0.00    -0.274 OA
ATOM      6  H   UNL A   1      38.971  21.524  26.515  1.00  0.00     0.163 HD
BRANCH   4   7
ATOM      7  C   UNL A   1      36.453  21.837  24.276  1.00  0.00     0.160 C 
ATOM      8  N   UNL A   1      33.569  22.323  23.556  1.00  0.00    -0.191 N 
ATOM      9  C   UNL A   1      34.475  23.376  23.603  1.00  0.00     0.311 C 
ATOM     10  C   UNL A   1      33.804  21.005  23.994  1.00  0.00     0.319 C 
ATOM     11  O   UNL A   1      34.135  24.562  23.561  1.00  0.00    -0.247 OA
ATOM     12  C   UNL A   1      35.954  23.109  23.652  1.00  0.00     0.153 C 
ATOM     13  S   UNL A   1      35.264  20.661  24.874  1.00  0.00    -0.024 SA
ATOM     14  N   UNL A   1      32.885  20.097  23.833  1.00  0.00    -0.235 N 
ATOM     15  H   UNL A   1      32.044  20.329  23.379  1.00  0.00     0.313 HD
BRANCH   8  16
ATOM     16  C   UNL A   1      32.140  22.642  23.310  1.00  0.00     0.251 C 
BRANCH  16  17
ATOM     17  C   UNL A   1      31.241  23.272  24.394  1.00  0.00     0.082 C 
BRANCH  17  18
ATOM     18  C   UNL A   1      31.074  24.774  24.429  1.00  0.00    -0.040 A 
ATOM     19  C   UNL A   1      30.877  27.576  24.659  1.00  0.00     0.160 A 
ATOM     20  C   UNL A   1      30.806  26.957  23.408  1.00  0.00     0.051 A 
ATOM     21  C   UNL A   1      31.005  26.805  25.816  1.00  0.00     0.160 A 
ATOM     22  C   UNL A   1      30.901  25.567  23.293  1.00  0.00     0.008 A 
ATOM     23  C   UNL A   1      31.135  25.416  25.680  1.00  0.00     0.054 A 
BRANCH  19  24
ATOM     24  O   UNL A   1      30.766  28.940  24.686  1.00  0.00    -0.493 OA
ATOM     25  C   UNL A   1      30.098  29.418  23.518  1.00  0.00     0.278 C 
ENDBRANCH  19  24
BRANCH  21  26
ATOM     26  O   UNL A   1      31.048  27.228  27.116  1.00  0.00    -0.493 OA
ATOM     27  C   UNL A   1      32.101  28.103  27.497  1.00  0.00     0.278 C 
ENDBRANCH  21  26
ENDBRANCH  17  18
ENDBRANCH  16  17
ENDBRANCH   8  16
BRANCH  14  28
ATOM     28  C   UNL A   1      33.084  18.785  24.301  1.00  0.00     0.125 A 
ATOM     29  C   UNL A   1      32.622  18.429  25.573  1.00  0.00     0.055 A 
ATOM     30  C   UNL A   1      33.689  17.813  23.492  1.00  0.00     0.055 A 
ATOM     31  C   UNL A   1      32.690  17.102  26.001  1.00  0.00     0.043 A 
ATOM     32  C   UNL A   1      33.745  16.482  23.913  1.00  0.00     0.043 A 
ATOM     33  C   UNL A   1      33.234  16.139  25.159  1.00  0.00     0.123 A 
ATOM     34  F   UNL A   1      33.257  14.858  25.551  1.00  0.00    -0.207 F 
ENDBRANCH  14  28
ENDBRANCH   4   7
ENDBRANCH   2   3
ENDBRANCH   1   2
BRANCH   1  35
ATOM     35  C   UNL A   1      40.628  20.277  26.915  1.00  0.00     0.002 C 
BRANCH  35  36
ATOM     36  C   UNL A   1      42.150  20.173  27.055  1.00  0.00     0.002 C 
BRANCH  36  37
ATOM     37  C   UNL A   1      42.935  20.591  25.810  1.00  0.00     0.021 C 
BRANCH  37  38
ATOM     38  C   UNL A   1      43.051  22.098  25.618  1.00  0.00     0.116 C 
BRANCH  38  39
ATOM     39  N   UNL A   1      41.805  22.782  25.922  1.00  0.00    -0.352 N 
ATOM     40  C   UNL A   1      41.605  24.064  26.368  1.00  0.00     0.251 C 
ATOM     41  H   UNL A   1      40.988  22.249  25.789  1.00  0.00     0.163 HD
ATOM     42  O   UNL A   1      40.505  24.415  26.774  1.00  0.00    -0.269 OA
BRANCH  40  43
ATOM     43  C   UNL A   1      42.735  25.013  26.371  1.00  0.00     0.039 A 
ATOM     44  C   UNL A   1      43.001  25.747  25.213  1.00  0.00     0.014 A 
ATOM     45  C   UNL A   1      43.526  25.178  27.511  1.00  0.00     0.014 A 
ATOM     46  C   UNL A   1      44.030  26.688  25.218  1.00  0.00     0.010 A 
ATOM     47  C   UNL A   1      44.498  26.172  27.539  1.00  0.00     0.010 A 
ATOM     48  C   UNL A   1      44.765  26.932  26.391  1.00  0.00    -0.014 A 
BRANCH  48  49
ATOM     49  C   UNL A   1      45.819  27.975  26.432  1.00  0.00     0.031 A 
ATOM     50  C   UNL A   1      45.443  29.422  26.584  1.00  0.00     0.074 A 
ATOM     51  C   UNL A   1      47.109  27.623  26.275  1.00  0.00     0.049 A 
ATOM     52  N   UNL A   1      46.213  30.481  26.579  1.00  0.00    -0.248 NA
ATOM     53  C   UNL A   1      44.011  29.722  26.737  1.00  0.00     0.031 C 
ATOM     54  C   UNL A   1      47.596  26.256  26.072  1.00  0.00     0.029 A 
ATOM     55  N   UNL A   1      48.249  28.387  26.252  1.00  0.00    -0.354 N 
ATOM     56  C   UNL A   1      45.360  31.568  26.723  1.00  0.00     0.074 A 
ATOM     57  C   UNL A   1      44.011  31.048  26.746  1.00  0.00     0.031 C 
ATOM     58  C   UNL A   1      48.933  26.277  25.966  1.00  0.00     0.029 A 
ATOM     59  C   UNL A   1      49.396  27.659  26.051  1.00  0.00     0.049 A 
ATOM     60  H   UNL A   1      48.244  29.364  26.369  1.00  0.00     0.167 HD
ATOM     61  C   UNL A   1      45.674  32.879  26.853  1.00  0.00     0.037 A 
ATOM     62  C   UNL A   1      50.677  28.060  25.935  1.00  0.00     0.037 A 
ATOM     63  C   UNL A   1      47.019  33.391  26.839  1.00  0.00     0.049 A 
ATOM     64  C   UNL A   1      50.997  29.525  26.057  1.00  0.00     0.074 A 
ATOM     65  C   UNL A   1      47.446  34.698  27.002  1.00  0.00     0.029 A 
ATOM     66  N   UNL A   1      48.156  32.621  26.646  1.00  0.00    -0.354 N 
ATOM     67  N   UNL A   1      50.186  30.535  26.257  1.00  0.00    -0.248 NA
ATOM     68  C   UNL A   1      52.412  29.904  25.945  1.00  0.00     0.031 C 
ATOM     69  C   UNL A   1      48.836  34.725  26.857  1.00  0.00     0.029 A 
ATOM     70  C   UNL A   1      49.282  33.428  26.663  1.00  0.00     0.049 A 
ATOM     71  H   UNL A   1      48.162  31.645  26.516  1.00  0.00     0.167 HD
ATOM     72  C   UNL A   1      50.993  31.664  26.325  1.00  0.00     0.074 A 
ATOM     73  C   UNL A   1      52.358  31.210  26.161  1.00  0.00     0.031 C 
ATOM     74  C   UNL A   1      50.636  32.959  26.506  1.00  0.00     0.037 A 
BRANCH  61  75
ATOM     75  C   UNL A   1      44.540  33.848  27.026  1.00  0.00     0.057 A 
ATOM     76  C   UNL A   1      43.884  34.421  25.927  1.00  0.00     0.134 A 
ATOM     77  C   UNL A   1      44.074  34.189  28.302  1.00  0.00     0.134 A 
ATOM     78  F   UNL A   1      44.286  34.147  24.678  1.00  0.00    -0.206 F 
ATOM     79  C   UNL A   1      42.827  35.318  26.092  1.00  0.00     0.040 A 
ATOM     80  C   UNL A   1      42.998  35.061  28.479  1.00  0.00     0.040 A 
ATOM     81  F   UNL A   1      44.651  33.674  29.399  1.00  0.00    -0.206 F 
ATOM     82  C   UNL A   1      42.376  35.634  27.371  1.00  0.00     0.006 A 
ENDBRANCH  61  75
BRANCH  62  83
ATOM     83  C   UNL A   1      51.752  27.063  25.700  1.00  0.00     0.057 A 
ATOM     84  C   UNL A   1      52.427  26.458  26.766  1.00  0.00     0.134 A 
ATOM     85  C   UNL A   1      52.142  26.704  24.404  1.00  0.00     0.134 A 
ATOM     86  F   UNL A   1      52.112  26.773  28.030  1.00  0.00    -0.206 F 
ATOM     87  C   UNL A   1      53.469  25.553  26.554  1.00  0.00     0.040 A 
ATOM     88  C   UNL A   1      53.161  25.778  24.177  1.00  0.00     0.040 A 
ATOM     89  F   UNL A   1      51.528  27.239  23.338  1.00  0.00    -0.206 F 
ATOM     90  C   UNL A   1      53.834  25.207  25.254  1.00  0.00     0.006 A 
ENDBRANCH  62  83
BRANCH  74  91
ATOM     91  C   UNL A   1      51.742  33.974  26.576  1.00  0.00     0.057 A 
ATOM     92  C   UNL A   1      52.363  34.314  27.785  1.00  0.00     0.134 A 
ATOM     93  C   UNL A   1      52.216  34.588  25.410  1.00  0.00     0.134 A 
ATOM     94  F   UNL A   1      51.947  33.770  28.940  1.00  0.00    -0.206 F 
ATOM     95  C   UNL A   1      53.398  35.249  27.834  1.00  0.00     0.040 A 
ATOM     96  C   UNL A   1      53.271  35.501  25.444  1.00  0.00     0.040 A 
ATOM     97  F   UNL A   1      51.673  34.300  24.218  1.00  0.00    -0.206 F 
ATOM     98  C   UNL A   1      53.860  35.840  26.660  1.00  0.00     0.006 A 
ENDBRANCH  74  91
ENDBRANCH  48  49
ENDBRANCH  40  43
ENDBRANCH  38  39
ENDBRANCH  37  38
ENDBRANCH  36  37
ENDBRANCH  35  36
ENDBRANCH   1  35
TORSDOF 19
ENDMDL
