MODEL 1
REMARK VINA RESULT:     -11.6      0.000      0.000
REMARK SMILES N#C/C(=C\c1ccc(-c2cc(C(=O)NCCCCCCNC(=O)c3ccc(-c4c5nc(c(-c6c(F)cccc6F)c6ccc([nH]6)c(-c6c(F)cccc6F)c6nc(c(-c7c(F)cccc7F)c7ccc4[nH]7)C=C6)C=C5)cc3)ccc2Cl)o1)C(=O)N1CCOCC1
REMARK SMILES IDX 17 1 16 2 15 3 14 4 12 5 13 6 11 8 9 9 10 10 80 11 79 12
REMARK SMILES IDX 81 13 78 14 8 15 5 16 6 17 82 18 7 19 4 20 3 21 2 22 1 23
REMARK SMILES IDX 83 24 84 25 85 26 86 27 90 28 87 29 89 30 88 31 18 32 19 33
REMARK SMILES IDX 20 34 21 35 22 36 23 38 24 39 25 40 77 41 26 42 76 43 27 44
REMARK SMILES IDX 28 45 29 46 70 47 30 48 75 49 69 50 71 51 31 52 74 53 68 54
REMARK SMILES IDX 67 55 32 57 58 58 41 59 57 60 42 61 45 62 56 63 72 64 43 65
REMARK SMILES IDX 44 66 55 68 73 69 46 70 33 71 34 72 39 73 35 74 36 75 38 76
REMARK SMILES IDX 40 77 37 78 59 79 60 80 65 81 61 82 62 83 64 84 66 85 63 86
REMARK SMILES IDX 47 87 48 88 53 89 49 90 50 91 52 92 54 93 51 94
REMARK H PARENT 14 7 21 37 71 56 45 67
REMARK Flexibility Score: inf
ROOT
ATOM      1  C   UNL A   1      40.171  22.245  26.221  1.00  0.00     0.002 C 
ENDROOT
BRANCH   1   2
ATOM      2  C   UNL A   1      39.609  23.318  27.166  1.00  0.00     0.021 C 
BRANCH   2   3
ATOM      3  C   UNL A   1      38.343  23.989  26.626  1.00  0.00     0.116 C 
BRANCH   3   4
ATOM      4  N   UNL A   1      38.052  23.508  25.291  1.00  0.00    -0.352 N 
ATOM      5  C   UNL A   1      36.915  23.098  24.649  1.00  0.00     0.251 C 
ATOM      6  O   UNL A   1      37.049  22.725  23.482  1.00  0.00    -0.269 OA
ATOM      7  H   UNL A   1      38.851  23.464  24.718  1.00  0.00     0.163 HD
BRANCH   5   8
ATOM      8  C   UNL A   1      35.543  23.114  25.242  1.00  0.00     0.040 A 
ATOM      9  C   UNL A   1      33.247  23.973  25.024  1.00  0.00     0.037 A 
ATOM     10  C   UNL A   1      34.563  23.851  24.543  1.00  0.00     0.027 A 
ATOM     11  C   UNL A   1      32.914  23.355  26.237  1.00  0.00     0.052 A 
ATOM     12  C   UNL A   1      33.864  22.594  26.919  1.00  0.00     0.022 A 
ATOM     13  Cl  UNL A   1      31.334  23.451  26.936  1.00  0.00    -0.084 Cl
ATOM     14  C   UNL A   1      35.156  22.447  26.405  1.00  0.00     0.015 A 
BRANCH   9  15
ATOM     15  C   UNL A   1      32.280  24.765  24.284  1.00  0.00     0.136 A 
ATOM     16  C   UNL A   1      31.023  26.576  23.968  1.00  0.00     0.129 A 
ATOM     17  C   UNL A   1      30.944  25.777  22.828  1.00  0.00     0.051 A 
ATOM     18  O   UNL A   1      31.885  25.944  24.844  1.00  0.00    -0.457 OA
ATOM     19  C   UNL A   1      31.686  24.602  23.057  1.00  0.00     0.051 A 
BRANCH  16  20
ATOM     20  C   UNL A   1      30.393  27.829  24.267  1.00  0.00     0.072 C 
ATOM     21  C   UNL A   1      31.023  29.027  24.170  1.00  0.00     0.121 C 
BRANCH  21  22
ATOM     22  C   UNL A   1      32.318  28.977  23.376  1.00  0.00     0.105 C 
ATOM     23  N   UNL A   1      33.393  28.936  22.717  1.00  0.00    -0.192 NA
ENDBRANCH  21  22
BRANCH  21  24
ATOM     24  C   UNL A   1      30.308  30.314  24.372  1.00  0.00     0.264 C 
ATOM     25  O   UNL A   1      30.774  31.122  25.174  1.00  0.00    -0.268 OA
ATOM     26  N   UNL A   1      29.185  30.607  23.613  1.00  0.00    -0.333 N 
ATOM     27  C   UNL A   1      28.285  29.689  22.894  1.00  0.00     0.148 C 
ATOM     28  C   UNL A   1      28.795  32.011  23.448  1.00  0.00     0.148 C 
ATOM     29  C   UNL A   1      28.184  30.092  21.413  1.00  0.00     0.181 C 
ATOM     30  C   UNL A   1      28.733  32.338  21.951  1.00  0.00     0.181 C 
ATOM     31  O   UNL A   1      27.803  31.471  21.276  1.00  0.00    -0.378 OA
ENDBRANCH  21  24
ENDBRANCH  16  20
ENDBRANCH   9  15
ENDBRANCH   5   8
ENDBRANCH   3   4
ENDBRANCH   2   3
ENDBRANCH   1   2
BRANCH   1  32
ATOM     32  C   UNL A   1      40.996  21.149  26.908  1.00  0.00     0.002 C 
BRANCH  32  33
ATOM     33  C   UNL A   1      41.401  19.983  26.002  1.00  0.00     0.021 C 
BRANCH  33  34
ATOM     34  C   UNL A   1      42.651  19.242  26.465  1.00  0.00     0.116 C 
BRANCH  34  35
ATOM     35  N   UNL A   1      43.465  18.810  25.339  1.00  0.00    -0.352 N 
ATOM     36  C   UNL A   1      44.250  19.556  24.497  1.00  0.00     0.251 C 
ATOM     37  H   UNL A   1      43.450  17.842  25.154  1.00  0.00     0.163 HD
ATOM     38  O   UNL A   1      44.673  19.076  23.452  1.00  0.00    -0.269 OA
BRANCH  36  39
ATOM     39  C   UNL A   1      44.575  20.953  24.853  1.00  0.00     0.039 A 
ATOM     40  C   UNL A   1      44.299  21.968  23.935  1.00  0.00     0.014 A 
ATOM     41  C   UNL A   1      45.150  21.254  26.090  1.00  0.00     0.014 A 
ATOM     42  C   UNL A   1      44.538  23.297  24.288  1.00  0.00     0.010 A 
ATOM     43  C   UNL A   1      45.322  22.582  26.467  1.00  0.00     0.010 A 
ATOM     44  C   UNL A   1      45.012  23.617  25.572  1.00  0.00    -0.014 A 
BRANCH  44  45
ATOM     45  C   UNL A   1      45.174  25.028  26.005  1.00  0.00     0.031 A 
ATOM     46  C   UNL A   1      46.532  25.671  25.989  1.00  0.00     0.074 A 
ATOM     47  C   UNL A   1      44.108  25.703  26.477  1.00  0.00     0.049 A 
ATOM     48  N   UNL A   1      46.893  26.851  26.426  1.00  0.00    -0.248 NA
ATOM     49  C   UNL A   1      47.636  24.876  25.426  1.00  0.00     0.031 C 
ATOM     50  C   UNL A   1      42.746  25.174  26.576  1.00  0.00     0.029 A 
ATOM     51  N   UNL A   1      44.005  26.976  26.979  1.00  0.00    -0.354 N 
ATOM     52  C   UNL A   1      48.258  26.941  26.189  1.00  0.00     0.074 A 
ATOM     53  C   UNL A   1      48.675  25.675  25.627  1.00  0.00     0.031 C 
ATOM     54  C   UNL A   1      41.943  26.118  27.095  1.00  0.00     0.029 A 
ATOM     55  C   UNL A   1      42.740  27.299  27.408  1.00  0.00     0.049 A 
ATOM     56  H   UNL A   1      44.765  27.600  27.026  1.00  0.00     0.167 HD
ATOM     57  C   UNL A   1      49.083  27.995  26.394  1.00  0.00     0.037 A 
ATOM     58  C   UNL A   1      42.279  28.413  28.007  1.00  0.00     0.037 A 
ATOM     59  C   UNL A   1      48.663  29.256  26.945  1.00  0.00     0.049 A 
ATOM     60  C   UNL A   1      43.231  29.549  28.272  1.00  0.00     0.074 A 
ATOM     61  C   UNL A   1      49.420  30.393  27.168  1.00  0.00     0.029 A 
ATOM     62  N   UNL A   1      47.372  29.546  27.360  1.00  0.00    -0.354 N 
ATOM     63  N   UNL A   1      44.509  29.639  27.991  1.00  0.00    -0.248 NA
ATOM     64  C   UNL A   1      42.679  30.738  28.937  1.00  0.00     0.031 C 
ATOM     65  C   UNL A   1      48.597  31.357  27.757  1.00  0.00     0.029 A 
ATOM     66  C   UNL A   1      47.316  30.838  27.857  1.00  0.00     0.049 A 
ATOM     67  H   UNL A   1      46.609  28.927  27.308  1.00  0.00     0.167 HD
ATOM     68  C   UNL A   1      44.903  30.901  28.418  1.00  0.00     0.074 A 
ATOM     69  C   UNL A   1      43.727  31.548  28.957  1.00  0.00     0.031 C 
ATOM     70  C   UNL A   1      46.132  31.471  28.374  1.00  0.00     0.037 A 
BRANCH  57  71
ATOM     71  C   UNL A   1      50.523  27.839  26.000  1.00  0.00     0.057 A 
ATOM     72  C   UNL A   1      51.507  27.512  26.943  1.00  0.00     0.134 A 
ATOM     73  C   UNL A   1      50.921  27.949  24.662  1.00  0.00     0.134 A 
ATOM     74  F   UNL A   1      51.193  27.402  28.242  1.00  0.00    -0.206 F 
ATOM     75  C   UNL A   1      52.838  27.316  26.572  1.00  0.00     0.040 A 
ATOM     76  C   UNL A   1      52.244  27.729  24.275  1.00  0.00     0.040 A 
ATOM     77  F   UNL A   1      50.029  28.253  23.708  1.00  0.00    -0.206 F 
ATOM     78  C   UNL A   1      53.208  27.414  25.231  1.00  0.00     0.006 A 
ENDBRANCH  57  71
BRANCH  58  79
ATOM     79  C   UNL A   1      40.854  28.517  28.417  1.00  0.00     0.057 A 
ATOM     80  C   UNL A   1      39.875  28.979  27.528  1.00  0.00     0.134 A 
ATOM     81  C   UNL A   1      40.444  28.204  29.718  1.00  0.00     0.134 A 
ATOM     82  F   UNL A   1      40.207  29.314  26.272  1.00  0.00    -0.206 F 
ATOM     83  C   UNL A   1      38.551  29.163  27.928  1.00  0.00     0.040 A 
ATOM     84  C   UNL A   1      39.117  28.352  30.124  1.00  0.00     0.040 A 
ATOM     85  F   UNL A   1      41.329  27.747  30.617  1.00  0.00    -0.206 F 
ATOM     86  C   UNL A   1      38.168  28.847  29.231  1.00  0.00     0.006 A 
ENDBRANCH  58  79
BRANCH  70  87
ATOM     87  C   UNL A   1      46.259  32.875  28.889  1.00  0.00     0.057 A 
ATOM     88  C   UNL A   1      46.597  33.144  30.222  1.00  0.00     0.134 A 
ATOM     89  C   UNL A   1      46.089  33.969  28.031  1.00  0.00     0.134 A 
ATOM     90  F   UNL A   1      46.759  32.142  31.098  1.00  0.00    -0.206 F 
ATOM     91  C   UNL A   1      46.743  34.452  30.686  1.00  0.00     0.040 A 
ATOM     92  C   UNL A   1      46.259  35.280  28.476  1.00  0.00     0.040 A 
ATOM     93  F   UNL A   1      45.773  33.779  26.741  1.00  0.00    -0.206 F 
ATOM     94  C   UNL A   1      46.582  35.523  29.810  1.00  0.00     0.006 A 
ENDBRANCH  70  87
ENDBRANCH  44  45
ENDBRANCH  36  39
ENDBRANCH  34  35
ENDBRANCH  33  34
ENDBRANCH  32  33
ENDBRANCH   1  32
TORSDOF 17
ENDMDL
MODEL 2
REMARK VINA RESULT:     -11.5      4.555     10.804
REMARK SMILES N#C/C(=C\c1ccc(-c2cc(C(=O)NCCCCCCNC(=O)c3ccc(-c4c5nc(c(-c6c(F)cccc6F)c6ccc([nH]6)c(-c6c(F)cccc6F)c6nc(c(-c7c(F)cccc7F)c7ccc4[nH]7)C=C6)C=C5)cc3)ccc2Cl)o1)C(=O)N1CCOCC1
REMARK SMILES IDX 17 1 16 2 15 3 14 4 12 5 13 6 11 8 9 9 10 10 80 11 79 12
REMARK SMILES IDX 81 13 78 14 8 15 5 16 6 17 82 18 7 19 4 20 3 21 2 22 1 23
REMARK SMILES IDX 83 24 84 25 85 26 86 27 90 28 87 29 89 30 88 31 18 32 19 33
REMARK SMILES IDX 20 34 21 35 22 36 23 38 24 39 25 40 77 41 26 42 76 43 27 44
REMARK SMILES IDX 28 45 29 46 70 47 30 48 75 49 69 50 71 51 31 52 74 53 68 54
REMARK SMILES IDX 67 55 32 57 58 58 41 59 57 60 42 61 45 62 56 63 72 64 43 65
REMARK SMILES IDX 44 66 55 68 73 69 46 70 33 71 34 72 39 73 35 74 36 75 38 76
REMARK SMILES IDX 40 77 37 78 59 79 60 80 65 81 61 82 62 83 64 84 66 85 63 86
REMARK SMILES IDX 47 87 48 88 53 89 49 90 50 91 52 92 54 93 51 94
REMARK H PARENT 14 7 21 37 71 56 45 67
REMARK Flexibility Score: inf
ROOT
ATOM      1  C   UNL A   1      37.793  33.169  30.734  1.00  0.00     0.002 C 
ENDROOT
BRANCH   1   2
ATOM      2  C   UNL A   1      36.588  33.647  29.911  1.00  0.00     0.021 C 
BRANCH   2   3
ATOM      3  C   UNL A   1      36.751  33.401  28.409  1.00  0.00     0.116 C 
BRANCH   3   4
ATOM      4  N   UNL A   1      35.810  32.395  27.962  1.00  0.00    -0.352 N 
ATOM      5  C   UNL A   1      35.761  31.029  28.037  1.00  0.00     0.251 C 
ATOM      6  O   UNL A   1      34.786  30.486  27.515  1.00  0.00    -0.269 OA
ATOM      7  H   UNL A   1      35.031  32.780  27.499  1.00  0.00     0.163 HD
BRANCH   5   8
ATOM      8  C   UNL A   1      36.768  30.173  28.735  1.00  0.00     0.040 A 
ATOM      9  C   UNL A   1      38.923  29.001  28.537  1.00  0.00     0.037 A 
ATOM     10  C   UNL A   1      37.925  29.834  28.001  1.00  0.00     0.027 A 
ATOM     11  C   UNL A   1      38.748  28.488  29.829  1.00  0.00     0.052 A 
ATOM     12  C   UNL A   1      37.627  28.844  30.578  1.00  0.00     0.022 A 
ATOM     13  Cl  UNL A   1      39.898  27.438  30.585  1.00  0.00    -0.084 Cl
ATOM     14  C   UNL A   1      36.664  29.708  30.047  1.00  0.00     0.015 A 
BRANCH   9  15
ATOM     15  C   UNL A   1      40.083  28.657  27.733  1.00  0.00     0.136 A 
ATOM     16  C   UNL A   1      41.264  27.285  26.435  1.00  0.00     0.129 A 
ATOM     17  C   UNL A   1      41.886  28.533  26.443  1.00  0.00     0.051 A 
ATOM     18  O   UNL A   1      40.128  27.396  27.216  1.00  0.00    -0.457 OA
ATOM     19  C   UNL A   1      41.174  29.379  27.316  1.00  0.00     0.051 A 
BRANCH  16  20
ATOM     20  C   UNL A   1      41.633  26.070  25.770  1.00  0.00     0.072 C 
ATOM     21  C   UNL A   1      42.501  25.165  26.290  1.00  0.00     0.121 C 
BRANCH  21  22
ATOM     22  C   UNL A   1      42.766  25.351  27.775  1.00  0.00     0.105 C 
ATOM     23  N   UNL A   1      42.986  25.506  29.007  1.00  0.00    -0.192 NA
ENDBRANCH  21  22
BRANCH  21  24
ATOM     24  C   UNL A   1      42.771  23.861  25.631  1.00  0.00     0.264 C 
ATOM     25  O   UNL A   1      43.697  23.795  24.822  1.00  0.00    -0.268 OA
ATOM     26  N   UNL A   1      42.033  22.742  25.984  1.00  0.00    -0.333 N 
ATOM     27  C   UNL A   1      40.708  22.668  26.623  1.00  0.00     0.148 C 
ATOM     28  C   UNL A   1      42.603  21.416  25.729  1.00  0.00     0.148 C 
ATOM     29  C   UNL A   1      40.779  21.812  27.899  1.00  0.00     0.181 C 
ATOM     30  C   UNL A   1      42.655  20.633  27.047  1.00  0.00     0.181 C 
ATOM     31  O   UNL A   1      41.342  20.519  27.626  1.00  0.00    -0.378 OA
ENDBRANCH  21  24
ENDBRANCH  16  20
ENDBRANCH   9  15
ENDBRANCH   5   8
ENDBRANCH   3   4
ENDBRANCH   2   3
ENDBRANCH   1   2
BRANCH   1  32
ATOM     32  C   UNL A   1      38.283  34.161  31.798  1.00  0.00     0.002 C 
BRANCH  32  33
ATOM     33  C   UNL A   1      37.226  34.579  32.824  1.00  0.00     0.021 C 
BRANCH  33  34
ATOM     34  C   UNL A   1      36.426  33.416  33.401  1.00  0.00     0.116 C 
BRANCH  34  35
ATOM     35  N   UNL A   1      36.639  33.280  34.835  1.00  0.00    -0.352 N 
ATOM     36  C   UNL A   1      37.521  32.474  35.510  1.00  0.00     0.251 C 
ATOM     37  H   UNL A   1      36.068  33.848  35.401  1.00  0.00     0.163 HD
ATOM     38  O   UNL A   1      37.402  32.297  36.716  1.00  0.00    -0.269 OA
BRANCH  36  39
ATOM     39  C   UNL A   1      38.610  31.806  34.768  1.00  0.00     0.039 A 
ATOM     40  C   UNL A   1      38.288  30.824  33.828  1.00  0.00     0.014 A 
ATOM     41  C   UNL A   1      39.943  32.150  35.004  1.00  0.00     0.014 A 
ATOM     42  C   UNL A   1      39.305  30.236  33.074  1.00  0.00     0.010 A 
ATOM     43  C   UNL A   1      40.947  31.614  34.203  1.00  0.00     0.010 A 
ATOM     44  C   UNL A   1      40.637  30.656  33.227  1.00  0.00    -0.014 A 
BRANCH  44  45
ATOM     45  C   UNL A   1      41.719  30.121  32.362  1.00  0.00     0.031 A 
ATOM     46  C   UNL A   1      42.387  28.820  32.709  1.00  0.00     0.074 A 
ATOM     47  C   UNL A   1      42.142  30.842  31.306  1.00  0.00     0.049 A 
ATOM     48  N   UNL A   1      43.416  28.243  32.142  1.00  0.00    -0.248 NA
ATOM     49  C   UNL A   1      41.842  28.079  33.858  1.00  0.00     0.031 C 
ATOM     50  C   UNL A   1      41.596  32.135  30.890  1.00  0.00     0.029 A 
ATOM     51  N   UNL A   1      43.142  30.598  30.398  1.00  0.00    -0.354 N 
ATOM     52  C   UNL A   1      43.638  27.075  32.860  1.00  0.00     0.074 A 
ATOM     53  C   UNL A   1      42.677  27.054  33.942  1.00  0.00     0.031 C 
ATOM     54  C   UNL A   1      42.260  32.565  29.803  1.00  0.00     0.029 A 
ATOM     55  C   UNL A   1      43.306  31.602  29.475  1.00  0.00     0.049 A 
ATOM     56  H   UNL A   1      43.690  29.780  30.406  1.00  0.00     0.167 HD
ATOM     57  C   UNL A   1      44.541  26.095  32.620  1.00  0.00     0.037 A 
ATOM     58  C   UNL A   1      44.212  31.743  28.489  1.00  0.00     0.037 A 
ATOM     59  C   UNL A   1      45.489  26.115  31.538  1.00  0.00     0.049 A 
ATOM     60  C   UNL A   1      45.240  30.662  28.280  1.00  0.00     0.074 A 
ATOM     61  C   UNL A   1      46.429  25.158  31.198  1.00  0.00     0.029 A 
ATOM     62  N   UNL A   1      45.619  27.147  30.620  1.00  0.00    -0.354 N 
ATOM     63  N   UNL A   1      45.401  29.537  28.934  1.00  0.00    -0.248 NA
ATOM     64  C   UNL A   1      46.211  30.870  27.197  1.00  0.00     0.031 C 
ATOM     65  C   UNL A   1      47.155  25.628  30.101  1.00  0.00     0.029 A 
ATOM     66  C   UNL A   1      46.636  26.858  29.727  1.00  0.00     0.049 A 
ATOM     67  H   UNL A   1      45.069  27.963  30.606  1.00  0.00     0.167 HD
ATOM     68  C   UNL A   1      46.469  28.894  28.324  1.00  0.00     0.074 A 
ATOM     69  C   UNL A   1      46.905  29.742  27.236  1.00  0.00     0.031 C 
ATOM     70  C   UNL A   1      47.044  27.708  28.639  1.00  0.00     0.037 A 
BRANCH  57  71
ATOM     71  C   UNL A   1      44.535  24.904  33.533  1.00  0.00     0.057 A 
ATOM     72  C   UNL A   1      45.019  24.986  34.845  1.00  0.00     0.134 A 
ATOM     73  C   UNL A   1      43.981  23.685  33.124  1.00  0.00     0.134 A 
ATOM     74  F   UNL A   1      45.572  26.123  35.295  1.00  0.00    -0.206 F 
ATOM     75  C   UNL A   1      44.968  23.894  35.713  1.00  0.00     0.040 A 
ATOM     76  C   UNL A   1      43.899  22.594  33.991  1.00  0.00     0.040 A 
ATOM     77  F   UNL A   1      43.492  23.539  31.883  1.00  0.00    -0.206 F 
ATOM     78  C   UNL A   1      44.396  22.696  35.289  1.00  0.00     0.006 A 
ENDBRANCH  57  71
BRANCH  58  79
ATOM     79  C   UNL A   1      44.211  32.955  27.628  1.00  0.00     0.057 A 
ATOM     80  C   UNL A   1      44.599  34.203  28.131  1.00  0.00     0.134 A 
ATOM     81  C   UNL A   1      43.777  32.905  26.298  1.00  0.00     0.134 A 
ATOM     82  F   UNL A   1      45.007  34.321  29.404  1.00  0.00    -0.206 F 
ATOM     83  C   UNL A   1      44.519  35.361  27.357  1.00  0.00     0.040 A 
ATOM     84  C   UNL A   1      43.722  34.050  25.502  1.00  0.00     0.040 A 
ATOM     85  F   UNL A   1      43.401  31.740  25.750  1.00  0.00    -0.206 F 
ATOM     86  C   UNL A   1      44.080  35.286  26.037  1.00  0.00     0.006 A 
ENDBRANCH  58  79
BRANCH  70  87
ATOM     87  C   UNL A   1      48.182  27.242  27.778  1.00  0.00     0.057 A 
ATOM     88  C   UNL A   1      47.964  26.566  26.570  1.00  0.00     0.134 A 
ATOM     89  C   UNL A   1      49.508  27.515  28.138  1.00  0.00     0.134 A 
ATOM     90  F   UNL A   1      46.719  26.261  26.176  1.00  0.00    -0.206 F 
ATOM     91  C   UNL A   1      49.027  26.163  25.761  1.00  0.00     0.040 A 
ATOM     92  C   UNL A   1      50.577  27.142  27.323  1.00  0.00     0.040 A 
ATOM     93  F   UNL A   1      49.784  28.166  29.278  1.00  0.00    -0.206 F 
ATOM     94  C   UNL A   1      50.337  26.458  26.133  1.00  0.00     0.006 A 
ENDBRANCH  70  87
ENDBRANCH  44  45
ENDBRANCH  36  39
ENDBRANCH  34  35
ENDBRANCH  33  34
ENDBRANCH  32  33
ENDBRANCH   1  32
TORSDOF 17
ENDMDL
MODEL 3
REMARK VINA RESULT:     -11.3      5.304     11.249
REMARK SMILES N#C/C(=C\c1ccc(-c2cc(C(=O)NCCCCCCNC(=O)c3ccc(-c4c5nc(c(-c6c(F)cccc6F)c6ccc([nH]6)c(-c6c(F)cccc6F)c6nc(c(-c7c(F)cccc7F)c7ccc4[nH]7)C=C6)C=C5)cc3)ccc2Cl)o1)C(=O)N1CCOCC1
REMARK SMILES IDX 17 1 16 2 15 3 14 4 12 5 13 6 11 8 9 9 10 10 80 11 79 12
REMARK SMILES IDX 81 13 78 14 8 15 5 16 6 17 82 18 7 19 4 20 3 21 2 22 1 23
REMARK SMILES IDX 83 24 84 25 85 26 86 27 90 28 87 29 89 30 88 31 18 32 19 33
REMARK SMILES IDX 20 34 21 35 22 36 23 38 24 39 25 40 77 41 26 42 76 43 27 44
REMARK SMILES IDX 28 45 29 46 70 47 30 48 75 49 69 50 71 51 31 52 74 53 68 54
REMARK SMILES IDX 67 55 32 57 58 58 41 59 57 60 42 61 45 62 56 63 72 64 43 65
REMARK SMILES IDX 44 66 55 68 73 69 46 70 33 71 34 72 39 73 35 74 36 75 38 76
REMARK SMILES IDX 40 77 37 78 59 79 60 80 65 81 61 82 62 83 64 84 66 85 63 86
REMARK SMILES IDX 47 87 48 88 53 89 49 90 50 91 52 92 54 93 51 94
REMARK H PARENT 14 7 21 37 71 56 45 67
REMARK Flexibility Score: inf
ROOT
ATOM      1  C   UNL A   1      32.974  29.846  27.150  1.00  0.00     0.002 C 
ENDROOT
BRANCH   1   2
ATOM      2  C   UNL A   1      33.668  29.255  25.913  1.00  0.00     0.021 C 
BRANCH   2   3
ATOM      3  C   UNL A   1      32.746  29.160  24.695  1.00  0.00     0.116 C 
BRANCH   3   4
ATOM      4  N   UNL A   1      33.530  29.068  23.480  1.00  0.00    -0.352 N 
ATOM      5  C   UNL A   1      33.830  28.056  22.610  1.00  0.00     0.251 C 
ATOM      6  O   UNL A   1      34.564  28.346  21.664  1.00  0.00    -0.269 OA
ATOM      7  H   UNL A   1      33.938  29.926  23.224  1.00  0.00     0.163 HD
BRANCH   5   8
ATOM      8  C   UNL A   1      33.302  26.661  22.704  1.00  0.00     0.040 A 
ATOM      9  C   UNL A   1      33.450  24.509  23.890  1.00  0.00     0.037 A 
ATOM     10  C   UNL A   1      33.838  25.852  23.729  1.00  0.00     0.027 A 
ATOM     11  C   UNL A   1      32.517  23.967  22.996  1.00  0.00     0.052 A 
ATOM     12  C   UNL A   1      31.954  24.766  22.001  1.00  0.00     0.022 A 
ATOM     13  Cl  UNL A   1      31.979  22.324  23.085  1.00  0.00    -0.084 Cl
ATOM     14  C   UNL A   1      32.319  26.110  21.881  1.00  0.00     0.015 A 
BRANCH   9  15
ATOM     15  C   UNL A   1      34.048  23.708  24.943  1.00  0.00     0.136 A 
ATOM     16  C   UNL A   1      35.548  22.258  25.726  1.00  0.00     0.129 A 
ATOM     17  C   UNL A   1      34.824  22.771  26.802  1.00  0.00     0.051 A 
ATOM     18  O   UNL A   1      35.071  22.879  24.586  1.00  0.00    -0.457 OA
ATOM     19  C   UNL A   1      33.834  23.637  26.297  1.00  0.00     0.051 A 
BRANCH  16  20
ATOM     20  C   UNL A   1      36.606  21.290  25.698  1.00  0.00     0.072 C 
ATOM     21  C   UNL A   1      37.920  21.619  25.614  1.00  0.00     0.121 C 
BRANCH  21  22
ATOM     22  C   UNL A   1      38.208  23.079  25.922  1.00  0.00     0.105 C 
ATOM     23  N   UNL A   1      38.447  24.291  26.176  1.00  0.00    -0.192 NA
ENDBRANCH  21  22
BRANCH  21  24
ATOM     24  C   UNL A   1      38.996  20.599  25.708  1.00  0.00     0.264 C 
ATOM     25  O   UNL A   1      38.868  19.553  25.071  1.00  0.00    -0.268 OA
ATOM     26  N   UNL A   1      40.140  20.867  26.444  1.00  0.00    -0.333 N 
ATOM     27  C   UNL A   1      40.340  21.846  27.526  1.00  0.00     0.148 C 
ATOM     28  C   UNL A   1      41.363  20.117  26.139  1.00  0.00     0.148 C 
ATOM     29  C   UNL A   1      41.521  22.774  27.194  1.00  0.00     0.181 C 
ATOM     30  C   UNL A   1      42.485  21.109  25.804  1.00  0.00     0.181 C 
ATOM     31  O   UNL A   1      42.707  22.019  26.896  1.00  0.00    -0.378 OA
ENDBRANCH  21  24
ENDBRANCH  16  20
ENDBRANCH   9  15
ENDBRANCH   5   8
ENDBRANCH   3   4
ENDBRANCH   2   3
ENDBRANCH   1   2
BRANCH   1  32
ATOM     32  C   UNL A   1      31.592  30.456  26.884  1.00  0.00     0.002 C 
BRANCH  32  33
ATOM     33  C   UNL A   1      31.577  31.980  26.738  1.00  0.00     0.021 C 
BRANCH  33  34
ATOM     34  C   UNL A   1      32.784  32.675  27.360  1.00  0.00     0.116 C 
BRANCH  34  35
ATOM     35  N   UNL A   1      32.512  34.079  27.632  1.00  0.00    -0.352 N 
ATOM     36  C   UNL A   1      33.032  34.892  28.607  1.00  0.00     0.251 C 
ATOM     37  H   UNL A   1      31.861  34.506  27.029  1.00  0.00     0.163 HD
ATOM     38  O   UNL A   1      32.516  35.975  28.853  1.00  0.00    -0.269 OA
BRANCH  36  39
ATOM     39  C   UNL A   1      34.215  34.446  29.371  1.00  0.00     0.039 A 
ATOM     40  C   UNL A   1      34.030  33.852  30.622  1.00  0.00     0.014 A 
ATOM     41  C   UNL A   1      35.501  34.617  28.851  1.00  0.00     0.014 A 
ATOM     42  C   UNL A   1      35.136  33.365  31.321  1.00  0.00     0.010 A 
ATOM     43  C   UNL A   1      36.593  34.069  29.517  1.00  0.00     0.010 A 
ATOM     44  C   UNL A   1      36.420  33.433  30.755  1.00  0.00    -0.014 A 
BRANCH  44  45
ATOM     45  C   UNL A   1      37.595  32.829  31.433  1.00  0.00     0.031 A 
ATOM     46  C   UNL A   1      38.349  31.706  30.779  1.00  0.00     0.074 A 
ATOM     47  C   UNL A   1      37.936  33.248  32.668  1.00  0.00     0.049 A 
ATOM     48  N   UNL A   1      39.330  30.982  31.254  1.00  0.00    -0.248 NA
ATOM     49  C   UNL A   1      37.932  31.332  29.417  1.00  0.00     0.031 C 
ATOM     50  C   UNL A   1      37.259  34.305  33.421  1.00  0.00     0.029 A 
ATOM     51  N   UNL A   1      38.930  32.824  33.514  1.00  0.00    -0.354 N 
ATOM     52  C   UNL A   1      39.648  30.073  30.254  1.00  0.00     0.074 A 
ATOM     53  C   UNL A   1      38.718  30.294  29.168  1.00  0.00     0.031 C 
ATOM     54  C   UNL A   1      37.863  34.454  34.612  1.00  0.00     0.029 A 
ATOM     55  C   UNL A   1      38.938  33.474  34.725  1.00  0.00     0.049 A 
ATOM     56  H   UNL A   1      39.577  32.120  33.277  1.00  0.00     0.167 HD
ATOM     57  C   UNL A   1      40.646  29.158  30.231  1.00  0.00     0.037 A 
ATOM     58  C   UNL A   1      39.709  33.286  35.812  1.00  0.00     0.037 A 
ATOM     59  C   UNL A   1      41.575  28.946  31.309  1.00  0.00     0.049 A 
ATOM     60  C   UNL A   1      40.776  32.223  35.777  1.00  0.00     0.074 A 
ATOM     61  C   UNL A   1      42.636  28.059  31.370  1.00  0.00     0.029 A 
ATOM     62  N   UNL A   1      41.555  29.630  32.515  1.00  0.00    -0.354 N 
ATOM     63  N   UNL A   1      41.100  31.410  34.802  1.00  0.00    -0.248 NA
ATOM     64  C   UNL A   1      41.583  32.053  36.994  1.00  0.00     0.031 C 
ATOM     65  C   UNL A   1      43.231  28.176  32.629  1.00  0.00     0.029 A 
ATOM     66  C   UNL A   1      42.572  29.170  33.334  1.00  0.00     0.049 A 
ATOM     67  H   UNL A   1      40.913  30.337  32.753  1.00  0.00     0.167 HD
ATOM     68  C   UNL A   1      42.164  30.654  35.277  1.00  0.00     0.074 A 
ATOM     69  C   UNL A   1      42.444  31.119  36.618  1.00  0.00     0.031 C 
ATOM     70  C   UNL A   1      42.846  29.658  34.661  1.00  0.00     0.037 A 
BRANCH  57  71
ATOM     71  C   UNL A   1      40.800  28.327  28.990  1.00  0.00     0.057 A 
ATOM     72  C   UNL A   1      40.115  27.115  28.833  1.00  0.00     0.134 A 
ATOM     73  C   UNL A   1      41.585  28.770  27.918  1.00  0.00     0.134 A 
ATOM     74  F   UNL A   1      39.354  26.630  29.826  1.00  0.00    -0.206 F 
ATOM     75  C   UNL A   1      40.216  26.365  27.659  1.00  0.00     0.040 A 
ATOM     76  C   UNL A   1      41.672  28.042  26.730  1.00  0.00     0.040 A 
ATOM     77  F   UNL A   1      42.262  29.924  28.000  1.00  0.00    -0.206 F 
ATOM     78  C   UNL A   1      40.989  26.835  26.599  1.00  0.00     0.006 A 
ENDBRANCH  57  71
BRANCH  58  79
ATOM     79  C   UNL A   1      39.503  34.103  37.037  1.00  0.00     0.057 A 
ATOM     80  C   UNL A   1      40.113  35.354  37.185  1.00  0.00     0.134 A 
ATOM     81  C   UNL A   1      38.732  33.633  38.106  1.00  0.00     0.134 A 
ATOM     82  F   UNL A   1      40.879  35.853  36.204  1.00  0.00    -0.206 F 
ATOM     83  C   UNL A   1      39.996  36.091  38.365  1.00  0.00     0.040 A 
ATOM     84  C   UNL A   1      38.579  34.372  39.280  1.00  0.00     0.040 A 
ATOM     85  F   UNL A   1      38.112  32.446  38.026  1.00  0.00    -0.206 F 
ATOM     86  C   UNL A   1      39.225  35.599  39.417  1.00  0.00     0.006 A 
ENDBRANCH  58  79
BRANCH  70  87
ATOM     87  C   UNL A   1      43.981  29.029  35.415  1.00  0.00     0.057 A 
ATOM     88  C   UNL A   1      45.288  29.527  35.332  1.00  0.00     0.134 A 
ATOM     89  C   UNL A   1      43.754  27.943  36.271  1.00  0.00     0.134 A 
ATOM     90  F   UNL A   1      45.574  30.555  34.519  1.00  0.00    -0.206 F 
ATOM     91  C   UNL A   1      46.332  28.955  36.060  1.00  0.00     0.040 A 
ATOM     92  C   UNL A   1      44.785  27.382  37.026  1.00  0.00     0.040 A 
ATOM     93  F   UNL A   1      42.525  27.425  36.403  1.00  0.00    -0.206 F 
ATOM     94  C   UNL A   1      46.080  27.885  36.916  1.00  0.00     0.006 A 
ENDBRANCH  70  87
ENDBRANCH  44  45
ENDBRANCH  36  39
ENDBRANCH  34  35
ENDBRANCH  33  34
ENDBRANCH  32  33
ENDBRANCH   1  32
TORSDOF 17
ENDMDL
