MODEL 1
REMARK VINA RESULT:      -9.8      0.000      0.000
REMARK SMILES C[C@@H]([NH2+]CC(C)(C)C(=O)NCCCCCCNC(=O)c1ccc(-c2c3nc(c(-c4c(F)cccc4F)c4ccc([nH]4)c(-c4c(F)cccc4F)c4nc(c(-c5c(F)cccc5F)c5ccc2[nH]5)C=C4)C=C3)cc1)C1CC1
REMARK SMILES IDX 12 1 11 2 10 3 8 4 9 5 5 7 6 8 7 9 4 10 3 11 2 14 1 15 74 16
REMARK SMILES IDX 75 17 76 18 13 19 14 20 15 21 16 22 17 23 18 24 19 26 20 27
REMARK SMILES IDX 21 28 73 29 22 30 72 31 23 32 24 33 25 34 66 35 26 36 71 37
REMARK SMILES IDX 65 38 67 39 27 40 70 41 64 42 63 43 28 45 54 46 37 47 53 48
REMARK SMILES IDX 38 49 41 50 52 51 68 52 39 53 40 54 51 56 69 57 42 58 29 59
REMARK SMILES IDX 30 60 35 61 31 62 32 63 34 64 36 65 33 66 55 67 56 68 61 69
REMARK SMILES IDX 57 70 58 71 60 72 62 73 59 74 43 75 44 76 49 77 45 78 46 79
REMARK SMILES IDX 48 80 50 81 47 82
REMARK H PARENT 10 6 3 12 3 13 17 25 67 44 41 55
REMARK Flexibility Score: inf
ROOT
ATOM      1  C   UNL A   1      32.438  28.671  27.241  1.00  0.00     0.021 C 
ENDROOT
BRANCH   1   2
ATOM      2  C   UNL A   1      31.747  27.885  26.124  1.00  0.00     0.116 C 
BRANCH   2   3
ATOM      3  N   UNL A   1      32.662  26.913  25.568  1.00  0.00    -0.355 N 
ATOM      4  C   UNL A   1      32.750  26.539  24.262  1.00  0.00     0.231 C 
ATOM      5  O   UNL A   1      32.715  25.327  24.041  1.00  0.00    -0.274 OA
ATOM      6  H   UNL A   1      33.283  26.478  26.196  1.00  0.00     0.163 HD
BRANCH   4   7
ATOM      7  C   UNL A   1      32.852  27.582  23.138  1.00  0.00     0.092 C 
ATOM      8  C   UNL A   1      33.615  27.091  21.895  1.00  0.00     0.027 C 
ATOM      9  C   UNL A   1      33.540  28.829  23.729  1.00  0.00     0.027 C 
BRANCH   7  10
ATOM     10  C   UNL A   1      31.407  28.007  22.711  1.00  0.00     0.277 C 
BRANCH  10  11
ATOM     11  N   UNL A   1      30.919  29.363  23.029  1.00  0.00    -0.343 N 
ATOM     12  H   UNL A   1      31.530  29.752  23.747  1.00  0.00     0.346 HD
ATOM     13  H   UNL A   1      30.931  29.869  22.143  1.00  0.00     0.346 HD
BRANCH  11  14
ATOM     14  C   UNL A   1      29.535  29.466  23.517  1.00  0.00     0.182 C 
ATOM     15  C   UNL A   1      28.817  28.156  23.174  1.00  0.00     0.075 C 
BRANCH  14  16
ATOM     16  C   UNL A   1      28.840  30.680  22.934  1.00  0.00     0.047 C 
ATOM     17  C   UNL A   1      27.631  31.372  23.530  1.00  0.00     0.010 C 
ATOM     18  C   UNL A   1      28.985  32.001  23.659  1.00  0.00     0.010 C 
ENDBRANCH  14  16
ENDBRANCH  11  14
ENDBRANCH  10  11
ENDBRANCH   7  10
ENDBRANCH   4   7
ENDBRANCH   2   3
ENDBRANCH   1   2
BRANCH   1  19
ATOM     19  C   UNL A   1      32.607  30.167  26.943  1.00  0.00     0.002 C 
BRANCH  19  20
ATOM     20  C   UNL A   1      31.353  30.864  26.406  1.00  0.00     0.002 C 
BRANCH  20  21
ATOM     21  C   UNL A   1      31.313  32.376  26.632  1.00  0.00     0.021 C 
BRANCH  21  22
ATOM     22  C   UNL A   1      32.664  33.001  26.956  1.00  0.00     0.116 C 
BRANCH  22  23
ATOM     23  N   UNL A   1      32.528  34.236  27.708  1.00  0.00    -0.352 N 
ATOM     24  C   UNL A   1      33.210  34.644  28.824  1.00  0.00     0.251 C 
ATOM     25  H   UNL A   1      31.853  34.868  27.370  1.00  0.00     0.163 HD
ATOM     26  O   UNL A   1      32.836  35.634  29.452  1.00  0.00    -0.269 OA
BRANCH  24  27
ATOM     27  C   UNL A   1      34.384  33.879  29.288  1.00  0.00     0.039 A 
ATOM     28  C   UNL A   1      35.662  34.341  28.964  1.00  0.00     0.014 A 
ATOM     29  C   UNL A   1      34.228  32.708  30.039  1.00  0.00     0.014 A 
ATOM     30  C   UNL A   1      36.783  33.656  29.432  1.00  0.00     0.010 A 
ATOM     31  C   UNL A   1      35.346  32.070  30.568  1.00  0.00     0.010 A 
ATOM     32  C   UNL A   1      36.635  32.532  30.263  1.00  0.00    -0.014 A 
BRANCH  32  33
ATOM     33  C   UNL A   1      37.821  31.831  30.813  1.00  0.00     0.031 A 
ATOM     34  C   UNL A   1      38.356  32.192  32.170  1.00  0.00     0.074 A 
ATOM     35  C   UNL A   1      38.447  30.901  30.066  1.00  0.00     0.049 A 
ATOM     36  N   UNL A   1      39.395  31.710  32.805  1.00  0.00    -0.248 NA
ATOM     37  C   UNL A   1      37.648  33.254  32.901  1.00  0.00     0.031 C 
ATOM     38  C   UNL A   1      38.059  30.502  28.712  1.00  0.00     0.029 A 
ATOM     39  N   UNL A   1      39.546  30.126  30.338  1.00  0.00    -0.354 N 
ATOM     40  C   UNL A   1      39.470  32.417  33.998  1.00  0.00     0.074 A 
ATOM     41  C   UNL A   1      38.409  33.399  33.976  1.00  0.00     0.031 C 
ATOM     42  C   UNL A   1      38.890  29.539  28.283  1.00  0.00     0.029 A 
ATOM     43  C   UNL A   1      39.888  29.277  29.314  1.00  0.00     0.049 A 
ATOM     44  H   UNL A   1      40.043  30.175  31.187  1.00  0.00     0.167 HD
ATOM     45  C   UNL A   1      40.332  32.247  35.029  1.00  0.00     0.037 A 
ATOM     46  C   UNL A   1      40.895  28.388  29.217  1.00  0.00     0.037 A 
ATOM     47  C   UNL A   1      41.373  31.254  35.057  1.00  0.00     0.049 A 
ATOM     48  C   UNL A   1      41.835  28.214  30.377  1.00  0.00     0.074 A 
ATOM     49  C   UNL A   1      42.255  30.957  36.083  1.00  0.00     0.029 A 
ATOM     50  N   UNL A   1      41.680  30.399  34.008  1.00  0.00    -0.354 N 
ATOM     51  N   UNL A   1      41.845  28.834  31.533  1.00  0.00    -0.248 NA
ATOM     52  C   UNL A   1      42.895  27.209  30.224  1.00  0.00     0.031 C 
ATOM     53  C   UNL A   1      43.126  29.957  35.634  1.00  0.00     0.029 A 
ATOM     54  C   UNL A   1      42.753  29.593  34.350  1.00  0.00     0.049 A 
ATOM     55  H   UNL A   1      41.204  30.371  33.146  1.00  0.00     0.167 HD
ATOM     56  C   UNL A   1      42.895  28.278  32.253  1.00  0.00     0.074 A 
ATOM     57  C   UNL A   1      43.485  27.259  31.410  1.00  0.00     0.031 C 
ATOM     58  C   UNL A   1      43.331  28.584  33.499  1.00  0.00     0.037 A 
BRANCH  45  59
ATOM     59  C   UNL A   1      40.181  33.158  36.214  1.00  0.00     0.057 A 
ATOM     60  C   UNL A   1      40.922  34.341  36.339  1.00  0.00     0.134 A 
ATOM     61  C   UNL A   1      39.264  32.862  37.231  1.00  0.00     0.134 A 
ATOM     62  F   UNL A   1      41.827  34.678  35.407  1.00  0.00    -0.206 F 
ATOM     63  C   UNL A   1      40.780  35.180  37.446  1.00  0.00     0.040 A 
ATOM     64  C   UNL A   1      39.091  33.709  38.328  1.00  0.00     0.040 A 
ATOM     65  F   UNL A   1      38.516  31.750  37.173  1.00  0.00    -0.206 F 
ATOM     66  C   UNL A   1      39.856  34.867  38.442  1.00  0.00     0.006 A 
ENDBRANCH  45  59
BRANCH  46  67
ATOM     67  C   UNL A   1      41.049  27.577  27.984  1.00  0.00     0.057 A 
ATOM     68  C   UNL A   1      40.457  26.314  27.870  1.00  0.00     0.134 A 
ATOM     69  C   UNL A   1      41.789  28.042  26.890  1.00  0.00     0.134 A 
ATOM     70  F   UNL A   1      39.749  25.807  28.891  1.00  0.00    -0.206 F 
ATOM     71  C   UNL A   1      40.608  25.535  26.722  1.00  0.00     0.040 A 
ATOM     72  C   UNL A   1      41.928  27.286  25.725  1.00  0.00     0.040 A 
ATOM     73  F   UNL A   1      42.374  29.248  26.933  1.00  0.00    -0.206 F 
ATOM     74  C   UNL A   1      41.342  26.025  25.643  1.00  0.00     0.006 A 
ENDBRANCH  46  67
BRANCH  58  75
ATOM     75  C   UNL A   1      44.484  27.786  34.036  1.00  0.00     0.057 A 
ATOM     76  C   UNL A   1      45.811  28.216  33.897  1.00  0.00     0.134 A 
ATOM     77  C   UNL A   1      44.263  26.586  34.724  1.00  0.00     0.134 A 
ATOM     78  F   UNL A   1      46.093  29.350  33.237  1.00  0.00    -0.206 F 
ATOM     79  C   UNL A   1      46.876  27.465  34.396  1.00  0.00     0.040 A 
ATOM     80  C   UNL A   1      45.318  25.843  35.254  1.00  0.00     0.040 A 
ATOM     81  F   UNL A   1      43.016  26.123  34.902  1.00  0.00    -0.206 F 
ATOM     82  C   UNL A   1      46.630  26.278  35.084  1.00  0.00     0.006 A 
ENDBRANCH  58  75
ENDBRANCH  32  33
ENDBRANCH  24  27
ENDBRANCH  22  23
ENDBRANCH  21  22
ENDBRANCH  20  21
ENDBRANCH  19  20
ENDBRANCH   1  19
TORSDOF 17
ENDMDL
MODEL 2
REMARK VINA RESULT:      -9.8      4.394      9.275
REMARK SMILES C[C@@H]([NH2+]CC(C)(C)C(=O)NCCCCCCNC(=O)c1ccc(-c2c3nc(c(-c4c(F)cccc4F)c4ccc([nH]4)c(-c4c(F)cccc4F)c4nc(c(-c5c(F)cccc5F)c5ccc2[nH]5)C=C4)C=C3)cc1)C1CC1
REMARK SMILES IDX 12 1 11 2 10 3 8 4 9 5 5 7 6 8 7 9 4 10 3 11 2 14 1 15 74 16
REMARK SMILES IDX 75 17 76 18 13 19 14 20 15 21 16 22 17 23 18 24 19 26 20 27
REMARK SMILES IDX 21 28 73 29 22 30 72 31 23 32 24 33 25 34 66 35 26 36 71 37
REMARK SMILES IDX 65 38 67 39 27 40 70 41 64 42 63 43 28 45 54 46 37 47 53 48
REMARK SMILES IDX 38 49 41 50 52 51 68 52 39 53 40 54 51 56 69 57 42 58 29 59
REMARK SMILES IDX 30 60 35 61 31 62 32 63 34 64 36 65 33 66 55 67 56 68 61 69
REMARK SMILES IDX 57 70 58 71 60 72 62 73 59 74 43 75 44 76 49 77 45 78 46 79
REMARK SMILES IDX 48 80 50 81 47 82
REMARK H PARENT 10 6 3 12 3 13 17 25 67 44 41 55
REMARK Flexibility Score: inf
ROOT
ATOM      1  C   UNL A   1      37.219  22.997  25.085  1.00  0.00     0.021 C 
ENDROOT
BRANCH   1   2
ATOM      2  C   UNL A   1      36.205  23.878  25.820  1.00  0.00     0.116 C 
BRANCH   2   3
ATOM      3  N   UNL A   1      35.164  23.055  26.396  1.00  0.00    -0.355 N 
ATOM      4  C   UNL A   1      33.833  23.336  26.424  1.00  0.00     0.231 C 
ATOM      5  O   UNL A   1      33.285  23.258  27.525  1.00  0.00    -0.274 OA
ATOM      6  H   UNL A   1      35.447  22.207  26.809  1.00  0.00     0.163 HD
BRANCH   4   7
ATOM      7  C   UNL A   1      33.079  23.758  25.153  1.00  0.00     0.092 C 
ATOM      8  C   UNL A   1      32.996  22.658  24.080  1.00  0.00     0.027 C 
ATOM      9  C   UNL A   1      33.792  25.003  24.587  1.00  0.00     0.027 C 
BRANCH   7  10
ATOM     10  C   UNL A   1      31.627  24.192  25.547  1.00  0.00     0.277 C 
BRANCH  10  11
ATOM     11  N   UNL A   1      31.428  25.272  26.533  1.00  0.00    -0.343 N 
ATOM     12  H   UNL A   1      30.979  24.863  27.353  1.00  0.00     0.346 HD
ATOM     13  H   UNL A   1      32.358  25.653  26.706  1.00  0.00     0.346 HD
BRANCH  11  14
ATOM     14  C   UNL A   1      30.612  26.416  26.100  1.00  0.00     0.182 C 
ATOM     15  C   UNL A   1      30.156  26.150  24.661  1.00  0.00     0.075 C 
BRANCH  14  16
ATOM     16  C   UNL A   1      31.379  27.715  26.235  1.00  0.00     0.047 C 
ATOM     17  C   UNL A   1      31.648  28.447  27.535  1.00  0.00     0.010 C 
ATOM     18  C   UNL A   1      32.749  27.671  26.880  1.00  0.00     0.010 C 
ENDBRANCH  14  16
ENDBRANCH  11  14
ENDBRANCH  10  11
ENDBRANCH   7  10
ENDBRANCH   4   7
ENDBRANCH   2   3
ENDBRANCH   1   2
BRANCH   1  19
ATOM     19  C   UNL A   1      36.586  21.859  24.271  1.00  0.00     0.002 C 
BRANCH  19  20
ATOM     20  C   UNL A   1      36.661  20.477  24.926  1.00  0.00     0.002 C 
BRANCH  20  21
ATOM     21  C   UNL A   1      38.008  19.768  24.775  1.00  0.00     0.021 C 
BRANCH  21  22
ATOM     22  C   UNL A   1      39.028  20.116  25.852  1.00  0.00     0.116 C 
BRANCH  22  23
ATOM     23  N   UNL A   1      40.176  19.226  25.824  1.00  0.00    -0.352 N 
ATOM     24  C   UNL A   1      41.494  19.515  26.061  1.00  0.00     0.251 C 
ATOM     25  H   UNL A   1      39.981  18.286  25.604  1.00  0.00     0.163 HD
ATOM     26  O   UNL A   1      42.366  18.685  25.804  1.00  0.00    -0.269 OA
BRANCH  24  27
ATOM     27  C   UNL A   1      41.872  20.835  26.604  1.00  0.00     0.039 A 
ATOM     28  C   UNL A   1      42.300  21.830  25.723  1.00  0.00     0.014 A 
ATOM     29  C   UNL A   1      41.806  21.091  27.978  1.00  0.00     0.014 A 
ATOM     30  C   UNL A   1      42.617  23.096  26.214  1.00  0.00     0.010 A 
ATOM     31  C   UNL A   1      42.048  22.375  28.456  1.00  0.00     0.010 A 
ATOM     32  C   UNL A   1      42.466  23.389  27.580  1.00  0.00    -0.014 A 
BRANCH  32  33
ATOM     33  C   UNL A   1      42.745  24.749  28.103  1.00  0.00     0.031 A 
ATOM     34  C   UNL A   1      44.138  25.134  28.514  1.00  0.00     0.074 A 
ATOM     35  C   UNL A   1      41.730  25.622  28.254  1.00  0.00     0.049 A 
ATOM     36  N   UNL A   1      44.569  26.264  29.017  1.00  0.00    -0.248 NA
ATOM     37  C   UNL A   1      45.180  24.107  28.367  1.00  0.00     0.031 C 
ATOM     38  C   UNL A   1      40.325  25.349  27.944  1.00  0.00     0.029 A 
ATOM     39  N   UNL A   1      41.724  26.915  28.712  1.00  0.00    -0.354 N 
ATOM     40  C   UNL A   1      45.925  26.078  29.256  1.00  0.00     0.074 A 
ATOM     41  C   UNL A   1      46.233  24.711  28.898  1.00  0.00     0.031 C 
ATOM     42  C   UNL A   1      39.599  26.449  28.195  1.00  0.00     0.029 A 
ATOM     43  C   UNL A   1      40.477  27.491  28.716  1.00  0.00     0.049 A 
ATOM     44  H   UNL A   1      42.536  27.386  29.010  1.00  0.00     0.167 HD
ATOM     45  C   UNL A   1      46.834  26.972  29.711  1.00  0.00     0.037 A 
ATOM     46  C   UNL A   1      40.085  28.722  29.097  1.00  0.00     0.037 A 
ATOM     47  C   UNL A   1      46.528  28.338  30.046  1.00  0.00     0.049 A 
ATOM     48  C   UNL A   1      41.115  29.699  29.594  1.00  0.00     0.074 A 
ATOM     49  C   UNL A   1      47.391  29.342  30.451  1.00  0.00     0.029 A 
ATOM     50  N   UNL A   1      45.255  28.891  30.022  1.00  0.00    -0.354 N 
ATOM     51  N   UNL A   1      42.408  29.534  29.739  1.00  0.00    -0.248 NA
ATOM     52  C   UNL A   1      40.632  31.035  29.967  1.00  0.00     0.031 C 
ATOM     53  C   UNL A   1      46.633  30.487  30.719  1.00  0.00     0.029 A 
ATOM     54  C   UNL A   1      45.306  30.214  30.430  1.00  0.00     0.049 A 
ATOM     55  H   UNL A   1      44.437  28.414  29.754  1.00  0.00     0.167 HD
ATOM     56  C   UNL A   1      42.896  30.751  30.198  1.00  0.00     0.074 A 
ATOM     57  C   UNL A   1      41.762  31.648  30.287  1.00  0.00     0.031 C 
ATOM     58  C   UNL A   1      44.168  31.095  30.516  1.00  0.00     0.037 A 
BRANCH  45  59
ATOM     59  C   UNL A   1      48.251  26.497  29.873  1.00  0.00     0.057 A 
ATOM     60  C   UNL A   1      48.719  25.956  31.078  1.00  0.00     0.134 A 
ATOM     61  C   UNL A   1      49.151  26.557  28.801  1.00  0.00     0.134 A 
ATOM     62  F   UNL A   1      47.912  25.880  32.148  1.00  0.00    -0.206 F 
ATOM     63  C   UNL A   1      50.038  25.522  31.221  1.00  0.00     0.040 A 
ATOM     64  C   UNL A   1      50.464  26.098  28.923  1.00  0.00     0.040 A 
ATOM     65  F   UNL A   1      48.769  27.057  27.617  1.00  0.00    -0.206 F 
ATOM     66  C   UNL A   1      50.913  25.587  30.139  1.00  0.00     0.006 A 
ENDBRANCH  45  59
BRANCH  46  67
ATOM     67  C   UNL A   1      38.655  29.107  28.999  1.00  0.00     0.057 A 
ATOM     68  C   UNL A   1      37.805  29.017  30.107  1.00  0.00     0.134 A 
ATOM     69  C   UNL A   1      38.104  29.573  27.800  1.00  0.00     0.134 A 
ATOM     70  F   UNL A   1      38.271  28.561  31.280  1.00  0.00    -0.206 F 
ATOM     71  C   UNL A   1      36.455  29.360  30.023  1.00  0.00     0.040 A 
ATOM     72  C   UNL A   1      36.761  29.944  27.707  1.00  0.00     0.040 A 
ATOM     73  F   UNL A   1      38.868  29.691  26.704  1.00  0.00    -0.206 F 
ATOM     74  C   UNL A   1      35.931  29.830  28.820  1.00  0.00     0.006 A 
ENDBRANCH  46  67
BRANCH  58  75
ATOM     75  C   UNL A   1      44.404  32.509  30.963  1.00  0.00     0.057 A 
ATOM     76  C   UNL A   1      44.670  33.539  30.051  1.00  0.00     0.134 A 
ATOM     77  C   UNL A   1      44.340  32.848  32.320  1.00  0.00     0.134 A 
ATOM     78  F   UNL A   1      44.759  33.279  28.737  1.00  0.00    -0.206 F 
ATOM     79  C   UNL A   1      44.893  34.849  30.477  1.00  0.00     0.040 A 
ATOM     80  C   UNL A   1      44.530  34.160  32.755  1.00  0.00     0.040 A 
ATOM     81  F   UNL A   1      44.079  31.911  33.245  1.00  0.00    -0.206 F 
ATOM     82  C   UNL A   1      44.816  35.164  31.833  1.00  0.00     0.006 A 
ENDBRANCH  58  75
ENDBRANCH  32  33
ENDBRANCH  24  27
ENDBRANCH  22  23
ENDBRANCH  21  22
ENDBRANCH  20  21
ENDBRANCH  19  20
ENDBRANCH   1  19
TORSDOF 17
ENDMDL
MODEL 3
REMARK VINA RESULT:      -9.7      0.622      6.464
REMARK SMILES C[C@@H]([NH2+]CC(C)(C)C(=O)NCCCCCCNC(=O)c1ccc(-c2c3nc(c(-c4c(F)cccc4F)c4ccc([nH]4)c(-c4c(F)cccc4F)c4nc(c(-c5c(F)cccc5F)c5ccc2[nH]5)C=C4)C=C3)cc1)C1CC1
REMARK SMILES IDX 12 1 11 2 10 3 8 4 9 5 5 7 6 8 7 9 4 10 3 11 2 14 1 15 74 16
REMARK SMILES IDX 75 17 76 18 13 19 14 20 15 21 16 22 17 23 18 24 19 26 20 27
REMARK SMILES IDX 21 28 73 29 22 30 72 31 23 32 24 33 25 34 66 35 26 36 71 37
REMARK SMILES IDX 65 38 67 39 27 40 70 41 64 42 63 43 28 45 54 46 37 47 53 48
REMARK SMILES IDX 38 49 41 50 52 51 68 52 39 53 40 54 51 56 69 57 42 58 29 59
REMARK SMILES IDX 30 60 35 61 31 62 32 63 34 64 36 65 33 66 55 67 56 68 61 69
REMARK SMILES IDX 57 70 58 71 60 72 62 73 59 74 43 75 44 76 49 77 45 78 46 79
REMARK SMILES IDX 48 80 50 81 47 82
REMARK H PARENT 10 6 3 12 3 13 17 25 67 44 41 55
REMARK Flexibility Score: inf
ROOT
ATOM      1  C   UNL A   1      32.515  28.805  27.107  1.00  0.00     0.021 C 
ENDROOT
BRANCH   1   2
ATOM      2  C   UNL A   1      31.727  27.988  26.079  1.00  0.00     0.116 C 
BRANCH   2   3
ATOM      3  N   UNL A   1      32.569  26.950  25.527  1.00  0.00    -0.355 N 
ATOM      4  C   UNL A   1      32.562  26.502  24.241  1.00  0.00     0.231 C 
ATOM      5  O   UNL A   1      32.467  25.283  24.092  1.00  0.00    -0.274 OA
ATOM      6  H   UNL A   1      33.209  26.524  26.141  1.00  0.00     0.163 HD
BRANCH   4   7
ATOM      7  C   UNL A   1      32.637  27.479  23.056  1.00  0.00     0.092 C 
ATOM      8  C   UNL A   1      33.302  26.890  21.801  1.00  0.00     0.027 C 
ATOM      9  C   UNL A   1      33.408  28.724  23.535  1.00  0.00     0.027 C 
BRANCH   7  10
ATOM     10  C   UNL A   1      31.187  27.942  22.691  1.00  0.00     0.277 C 
BRANCH  10  11
ATOM     11  N   UNL A   1      30.774  29.334  22.955  1.00  0.00    -0.343 N 
ATOM     12  H   UNL A   1      31.413  29.720  23.652  1.00  0.00     0.346 HD
ATOM     13  H   UNL A   1      30.805  29.801  22.048  1.00  0.00     0.346 HD
BRANCH  11  14
ATOM     14  C   UNL A   1      29.403  29.532  23.448  1.00  0.00     0.182 C 
ATOM     15  C   UNL A   1      28.603  28.263  23.133  1.00  0.00     0.075 C 
BRANCH  14  16
ATOM     16  C   UNL A   1      28.781  30.776  22.847  1.00  0.00     0.047 C 
ATOM     17  C   UNL A   1      27.658  31.585  23.465  1.00  0.00     0.010 C 
ATOM     18  C   UNL A   1      29.062  32.106  23.513  1.00  0.00     0.010 C 
ENDBRANCH  14  16
ENDBRANCH  11  14
ENDBRANCH  10  11
ENDBRANCH   7  10
ENDBRANCH   4   7
ENDBRANCH   2   3
ENDBRANCH   1   2
BRANCH   1  19
ATOM     19  C   UNL A   1      32.684  30.284  26.735  1.00  0.00     0.002 C 
BRANCH  19  20
ATOM     20  C   UNL A   1      31.408  30.979  26.252  1.00  0.00     0.002 C 
BRANCH  20  21
ATOM     21  C   UNL A   1      31.362  32.487  26.507  1.00  0.00     0.021 C 
BRANCH  21  22
ATOM     22  C   UNL A   1      32.691  33.094  26.937  1.00  0.00     0.116 C 
BRANCH  22  23
ATOM     23  N   UNL A   1      32.515  34.360  27.626  1.00  0.00    -0.352 N 
ATOM     24  C   UNL A   1      33.126  34.812  28.767  1.00  0.00     0.251 C 
ATOM     25  H   UNL A   1      31.869  34.981  27.218  1.00  0.00     0.163 HD
ATOM     26  O   UNL A   1      32.718  35.829  29.327  1.00  0.00    -0.269 OA
BRANCH  24  27
ATOM     27  C   UNL A   1      34.261  34.061  29.339  1.00  0.00     0.039 A 
ATOM     28  C   UNL A   1      35.561  34.472  29.039  1.00  0.00     0.014 A 
ATOM     29  C   UNL A   1      34.046  32.954  30.168  1.00  0.00     0.014 A 
ATOM     30  C   UNL A   1      36.645  33.803  29.607  1.00  0.00     0.010 A 
ATOM     31  C   UNL A   1      35.124  32.337  30.793  1.00  0.00     0.010 A 
ATOM     32  C   UNL A   1      36.436  32.749  30.512  1.00  0.00    -0.014 A 
BRANCH  32  33
ATOM     33  C   UNL A   1      37.580  32.068  31.167  1.00  0.00     0.031 A 
ATOM     34  C   UNL A   1      38.329  30.980  30.449  1.00  0.00     0.074 A 
ATOM     35  C   UNL A   1      37.914  32.398  32.429  1.00  0.00     0.049 A 
ATOM     36  N   UNL A   1      39.335  30.254  30.868  1.00  0.00    -0.248 NA
ATOM     37  C   UNL A   1      37.870  30.643  29.094  1.00  0.00     0.031 C 
ATOM     38  C   UNL A   1      37.229  33.398  33.252  1.00  0.00     0.029 A 
ATOM     39  N   UNL A   1      38.910  31.923  33.244  1.00  0.00    -0.354 N 
ATOM     40  C   UNL A   1      39.619  29.370  29.835  1.00  0.00     0.074 A 
ATOM     41  C   UNL A   1      38.644  29.610  28.793  1.00  0.00     0.031 C 
ATOM     42  C   UNL A   1      37.842  33.480  34.443  1.00  0.00     0.029 A 
ATOM     43  C   UNL A   1      38.938  32.517  34.482  1.00  0.00     0.049 A 
ATOM     44  H   UNL A   1      39.545  31.222  32.968  1.00  0.00     0.167 HD
ATOM     45  C   UNL A   1      40.616  28.457  29.752  1.00  0.00     0.037 A 
ATOM     46  C   UNL A   1      39.755  32.308  35.533  1.00  0.00     0.037 A 
ATOM     47  C   UNL A   1      41.597  28.237  30.781  1.00  0.00     0.049 A 
ATOM     48  C   UNL A   1      40.857  31.293  35.414  1.00  0.00     0.074 A 
ATOM     49  C   UNL A   1      42.687  27.383  30.765  1.00  0.00     0.029 A 
ATOM     50  N   UNL A   1      41.604  28.869  32.016  1.00  0.00    -0.354 N 
ATOM     51  N   UNL A   1      41.164  30.520  34.400  1.00  0.00    -0.248 NA
ATOM     52  C   UNL A   1      41.734  31.130  36.581  1.00  0.00     0.031 C 
ATOM     53  C   UNL A   1      43.323  27.463  32.010  1.00  0.00     0.029 A 
ATOM     54  C   UNL A   1      42.662  28.406  32.781  1.00  0.00     0.049 A 
ATOM     55  H   UNL A   1      40.952  29.547  32.307  1.00  0.00     0.167 HD
ATOM     56  C   UNL A   1      42.282  29.797  34.798  1.00  0.00     0.074 A 
ATOM     57  C   UNL A   1      42.609  30.239  36.137  1.00  0.00     0.031 C 
ATOM     58  C   UNL A   1      42.974  28.854  34.115  1.00  0.00     0.037 A 
BRANCH  45  59
ATOM     59  C   UNL A   1      40.693  27.628  28.501  1.00  0.00     0.057 A 
ATOM     60  C   UNL A   1      40.001  26.417  28.371  1.00  0.00     0.134 A 
ATOM     61  C   UNL A   1      41.448  28.060  27.403  1.00  0.00     0.134 A 
ATOM     62  F   UNL A   1      39.269  25.939  29.389  1.00  0.00    -0.206 F 
ATOM     63  C   UNL A   1      40.082  25.650  27.207  1.00  0.00     0.040 A 
ATOM     64  C   UNL A   1      41.512  27.317  26.223  1.00  0.00     0.040 A 
ATOM     65  F   UNL A   1      42.130  29.214  27.456  1.00  0.00    -0.206 F 
ATOM     66  C   UNL A   1      40.835  26.103  26.126  1.00  0.00     0.006 A 
ENDBRANCH  45  59
BRANCH  46  67
ATOM     67  C   UNL A   1      39.575  33.096  36.778  1.00  0.00     0.057 A 
ATOM     68  C   UNL A   1      38.651  32.704  37.754  1.00  0.00     0.134 A 
ATOM     69  C   UNL A   1      40.319  34.256  37.024  1.00  0.00     0.134 A 
ATOM     70  F   UNL A   1      37.896  31.611  37.568  1.00  0.00    -0.206 F 
ATOM     71  C   UNL A   1      38.461  33.445  38.921  1.00  0.00     0.040 A 
ATOM     72  C   UNL A   1      40.159  34.993  38.198  1.00  0.00     0.040 A 
ATOM     73  F   UNL A   1      41.227  34.679  36.132  1.00  0.00    -0.206 F 
ATOM     74  C   UNL A   1      39.221  34.592  39.147  1.00  0.00     0.006 A 
ENDBRANCH  46  67
BRANCH  58  75
ATOM     75  C   UNL A   1      44.172  28.257  34.795  1.00  0.00     0.057 A 
ATOM     76  C   UNL A   1      44.086  27.078  35.548  1.00  0.00     0.134 A 
ATOM     77  C   UNL A   1      45.433  28.855  34.675  1.00  0.00     0.134 A 
ATOM     78  F   UNL A   1      42.905  26.462  35.714  1.00  0.00    -0.206 F 
ATOM     79  C   UNL A   1      45.204  26.533  36.180  1.00  0.00     0.040 A 
ATOM     80  C   UNL A   1      46.564  28.303  35.277  1.00  0.00     0.040 A 
ATOM     81  F   UNL A   1      45.587  29.981  33.960  1.00  0.00    -0.206 F 
ATOM     82  C   UNL A   1      46.450  27.143  36.040  1.00  0.00     0.006 A 
ENDBRANCH  58  75
ENDBRANCH  32  33
ENDBRANCH  24  27
ENDBRANCH  22  23
ENDBRANCH  21  22
ENDBRANCH  20  21
ENDBRANCH  19  20
ENDBRANCH   1  19
TORSDOF 17
ENDMDL
