MODEL 1
REMARK VINA RESULT:     -11.7      0.000      0.000
REMARK SMILES C[C@H](C(=O)NCCCCCCNC(=O)c1ccc(-c2c3nc(c(-c4c(F)cccc4F)c4ccc([nH]4)c(-c4c(F)cccc4F)c4nc(c(-c5c(F)cccc5F)c5ccc2[nH]5)C=C4)C=C3)cc1)c1ccc(-c2ccccc2)c(F)c1
REMARK SMILES IDX 8 1 7 2 6 3 5 4 3 5 4 6 2 8 1 9 69 10 70 11 81 12 71 13
REMARK SMILES IDX 79 14 72 15 80 16 73 17 74 18 78 19 75 20 77 21 76 22 9 23
REMARK SMILES IDX 10 24 11 25 12 26 13 27 14 29 15 30 16 31 68 32 17 33 67 34
REMARK SMILES IDX 18 35 19 36 20 37 61 38 21 39 66 40 60 41 62 42 22 43 65 44
REMARK SMILES IDX 59 45 58 46 23 48 49 49 32 50 48 51 33 52 36 53 47 54 63 55
REMARK SMILES IDX 34 56 35 57 46 59 64 60 37 61 24 62 25 63 30 64 26 65 27 66
REMARK SMILES IDX 29 67 31 68 28 69 50 70 51 71 56 72 52 73 53 74 55 75 57 76
REMARK SMILES IDX 54 77 38 78 39 79 44 80 40 81 41 82 43 83 45 84 42 85
REMARK H PARENT 5 7 12 28 62 47 36 58
REMARK Flexibility Score: inf
ROOT
ATOM      1  C   UNL A   1      36.642  21.837  25.274  1.00  0.00     0.002 C 
ENDROOT
BRANCH   1   2
ATOM      2  C   UNL A   1      36.431  22.803  24.103  1.00  0.00     0.021 C 
BRANCH   2   3
ATOM      3  C   UNL A   1      35.432  23.939  24.316  1.00  0.00     0.116 C 
BRANCH   3   4
ATOM      4  N   UNL A   1      34.731  24.359  23.119  1.00  0.00    -0.356 N 
ATOM      5  C   UNL A   1      33.400  24.549  22.896  1.00  0.00     0.227 C 
ATOM      6  O   UNL A   1      33.104  25.176  21.871  1.00  0.00    -0.274 OA
ATOM      7  H   UNL A   1      35.310  24.536  22.342  1.00  0.00     0.163 HD
BRANCH   5   8
ATOM      8  C   UNL A   1      32.279  23.923  23.744  1.00  0.00     0.105 C 
ATOM      9  C   UNL A   1      30.953  24.398  23.126  1.00  0.00     0.023 C 
BRANCH   8  10
ATOM     10  C   UNL A   1      32.355  22.427  24.030  1.00  0.00    -0.033 A 
ATOM     11  C   UNL A   1      32.157  21.466  23.029  1.00  0.00     0.005 A 
ATOM     12  C   UNL A   1      32.610  21.955  25.321  1.00  0.00     0.044 A 
ATOM     13  C   UNL A   1      32.365  20.104  23.278  1.00  0.00     0.012 A 
ATOM     14  C   UNL A   1      32.874  20.598  25.551  1.00  0.00     0.131 A 
ATOM     15  C   UNL A   1      32.803  19.638  24.530  1.00  0.00     0.017 A 
ATOM     16  F   UNL A   1      33.278  20.262  26.785  1.00  0.00    -0.206 F 
BRANCH  15  17
ATOM     17  C   UNL A   1      33.209  18.221  24.712  1.00  0.00    -0.015 A 
ATOM     18  C   UNL A   1      34.348  17.703  24.056  1.00  0.00     0.009 A 
ATOM     19  C   UNL A   1      32.516  17.342  25.560  1.00  0.00     0.009 A 
ATOM     20  C   UNL A   1      34.764  16.379  24.230  1.00  0.00     0.001 A 
ATOM     21  C   UNL A   1      32.938  16.020  25.751  1.00  0.00     0.001 A 
ATOM     22  C   UNL A   1      34.059  15.539  25.083  1.00  0.00     0.000 A 
ENDBRANCH  15  17
ENDBRANCH   8  10
ENDBRANCH   5   8
ENDBRANCH   3   4
ENDBRANCH   2   3
ENDBRANCH   1   2
BRANCH   1  23
ATOM     23  C   UNL A   1      36.436  20.345  25.001  1.00  0.00     0.002 C 
BRANCH  23  24
ATOM     24  C   UNL A   1      37.685  19.459  24.986  1.00  0.00     0.021 C 
BRANCH  24  25
ATOM     25  C   UNL A   1      38.905  19.971  25.751  1.00  0.00     0.116 C 
BRANCH  25  26
ATOM     26  N   UNL A   1      40.026  19.049  25.751  1.00  0.00    -0.352 N 
ATOM     27  C   UNL A   1      41.350  19.257  26.043  1.00  0.00     0.251 C 
ATOM     28  H   UNL A   1      39.801  18.124  25.500  1.00  0.00     0.163 HD
ATOM     29  O   UNL A   1      42.145  18.322  25.918  1.00  0.00    -0.269 OA
BRANCH  27  30
ATOM     30  C   UNL A   1      41.861  20.584  26.469  1.00  0.00     0.039 A 
ATOM     31  C   UNL A   1      42.179  21.515  25.473  1.00  0.00     0.014 A 
ATOM     32  C   UNL A   1      42.070  20.916  27.810  1.00  0.00     0.014 A 
ATOM     33  C   UNL A   1      42.641  22.788  25.821  1.00  0.00     0.010 A 
ATOM     34  C   UNL A   1      42.474  22.208  28.159  1.00  0.00     0.010 A 
ATOM     35  C   UNL A   1      42.759  23.159  27.168  1.00  0.00    -0.014 A 
BRANCH  35  36
ATOM     36  C   UNL A   1      43.156  24.544  27.536  1.00  0.00     0.031 A 
ATOM     37  C   UNL A   1      44.595  24.979  27.482  1.00  0.00     0.074 A 
ATOM     38  C   UNL A   1      42.212  25.414  27.948  1.00  0.00     0.049 A 
ATOM     39  N   UNL A   1      45.117  26.146  27.766  1.00  0.00    -0.248 NA
ATOM     40  C   UNL A   1      45.580  23.965  27.075  1.00  0.00     0.031 C 
ATOM     41  C   UNL A   1      40.788  25.107  28.099  1.00  0.00     0.029 A 
ATOM     42  N   UNL A   1      42.308  26.733  28.318  1.00  0.00    -0.354 N 
ATOM     43  C   UNL A   1      46.485  26.010  27.569  1.00  0.00     0.074 A 
ATOM     44  C   UNL A   1      46.720  24.632  27.192  1.00  0.00     0.031 C 
ATOM     45  C   UNL A   1      40.142  26.210  28.508  1.00  0.00     0.029 A 
ATOM     46  C   UNL A   1      41.104  27.294  28.672  1.00  0.00     0.049 A 
ATOM     47  H   UNL A   1      43.158  27.230  28.328  1.00  0.00     0.167 HD
ATOM     48  C   UNL A   1      47.455  26.952  27.668  1.00  0.00     0.037 A 
ATOM     49  C   UNL A   1      40.809  28.542  29.082  1.00  0.00     0.037 A 
ATOM     50  C   UNL A   1      47.225  28.326  28.032  1.00  0.00     0.049 A 
ATOM     51  C   UNL A   1      41.901  29.570  29.170  1.00  0.00     0.074 A 
ATOM     52  C   UNL A   1      48.144  29.359  28.127  1.00  0.00     0.029 A 
ATOM     53  N   UNL A   1      45.989  28.862  28.358  1.00  0.00    -0.354 N 
ATOM     54  N   UNL A   1      43.182  29.439  28.923  1.00  0.00    -0.248 NA
ATOM     55  C   UNL A   1      41.504  30.925  29.581  1.00  0.00     0.031 C 
ATOM     56  C   UNL A   1      47.467  30.513  28.539  1.00  0.00     0.029 A 
ATOM     57  C   UNL A   1      46.122  30.207  28.664  1.00  0.00     0.049 A 
ATOM     58  H   UNL A   1      45.142  28.361  28.370  1.00  0.00     0.167 HD
ATOM     59  C   UNL A   1      43.739  30.693  29.131  1.00  0.00     0.074 A 
ATOM     60  C   UNL A   1      42.654  31.578  29.501  1.00  0.00     0.031 C 
ATOM     61  C   UNL A   1      45.034  31.077  29.031  1.00  0.00     0.037 A 
BRANCH  48  62
ATOM     62  C   UNL A   1      48.861  26.529  27.359  1.00  0.00     0.057 A 
ATOM     63  C   UNL A   1      49.715  26.046  28.358  1.00  0.00     0.134 A 
ATOM     64  C   UNL A   1      49.350  26.555  26.047  1.00  0.00     0.134 A 
ATOM     65  F   UNL A   1      49.311  26.004  29.636  1.00  0.00    -0.206 F 
ATOM     66  C   UNL A   1      51.013  25.621  28.067  1.00  0.00     0.040 A 
ATOM     67  C   UNL A   1      50.638  26.111  25.740  1.00  0.00     0.040 A 
ATOM     68  F   UNL A   1      48.581  27.000  25.042  1.00  0.00    -0.206 F 
ATOM     69  C   UNL A   1      51.474  25.646  26.752  1.00  0.00     0.006 A 
ENDBRANCH  48  62
BRANCH  49  70
ATOM     70  C   UNL A   1      39.409  28.900  29.421  1.00  0.00     0.057 A 
ATOM     71  C   UNL A   1      38.899  28.690  30.707  1.00  0.00     0.134 A 
ATOM     72  C   UNL A   1      38.544  29.440  28.463  1.00  0.00     0.134 A 
ATOM     73  F   UNL A   1      39.674  28.155  31.662  1.00  0.00    -0.206 F 
ATOM     74  C   UNL A   1      37.572  28.985  31.024  1.00  0.00     0.040 A 
ATOM     75  C   UNL A   1      37.222  29.763  28.771  1.00  0.00     0.040 A 
ATOM     76  F   UNL A   1      38.975  29.670  27.213  1.00  0.00    -0.206 F 
ATOM     77  C   UNL A   1      36.730  29.527  30.054  1.00  0.00     0.006 A 
ENDBRANCH  49  70
BRANCH  61  78
ATOM     78  C   UNL A   1      45.341  32.519  29.307  1.00  0.00     0.057 A 
ATOM     79  C   UNL A   1      45.705  32.961  30.586  1.00  0.00     0.134 A 
ATOM     80  C   UNL A   1      45.284  33.471  28.283  1.00  0.00     0.134 A 
ATOM     81  F   UNL A   1      45.764  32.101  31.612  1.00  0.00    -0.206 F 
ATOM     82  C   UNL A   1      45.974  34.307  30.841  1.00  0.00     0.040 A 
ATOM     83  C   UNL A   1      45.574  34.816  28.521  1.00  0.00     0.040 A 
ATOM     84  F   UNL A   1      44.948  33.111  27.035  1.00  0.00    -0.206 F 
ATOM     85  C   UNL A   1      45.913  35.238  29.805  1.00  0.00     0.006 A 
ENDBRANCH  61  78
ENDBRANCH  35  36
ENDBRANCH  27  30
ENDBRANCH  25  26
ENDBRANCH  24  25
ENDBRANCH  23  24
ENDBRANCH   1  23
TORSDOF 15
ENDMDL
MODEL 2
REMARK VINA RESULT:     -11.7      0.440      6.236
REMARK SMILES C[C@H](C(=O)NCCCCCCNC(=O)c1ccc(-c2c3nc(c(-c4c(F)cccc4F)c4ccc([nH]4)c(-c4c(F)cccc4F)c4nc(c(-c5c(F)cccc5F)c5ccc2[nH]5)C=C4)C=C3)cc1)c1ccc(-c2ccccc2)c(F)c1
REMARK SMILES IDX 8 1 7 2 6 3 5 4 3 5 4 6 2 8 1 9 69 10 70 11 81 12 71 13
REMARK SMILES IDX 79 14 72 15 80 16 73 17 74 18 78 19 75 20 77 21 76 22 9 23
REMARK SMILES IDX 10 24 11 25 12 26 13 27 14 29 15 30 16 31 68 32 17 33 67 34
REMARK SMILES IDX 18 35 19 36 20 37 61 38 21 39 66 40 60 41 62 42 22 43 65 44
REMARK SMILES IDX 59 45 58 46 23 48 49 49 32 50 48 51 33 52 36 53 47 54 63 55
REMARK SMILES IDX 34 56 35 57 46 59 64 60 37 61 24 62 25 63 30 64 26 65 27 66
REMARK SMILES IDX 29 67 31 68 28 69 50 70 51 71 56 72 52 73 53 74 55 75 57 76
REMARK SMILES IDX 54 77 38 78 39 79 44 80 40 81 41 82 43 83 45 84 42 85
REMARK H PARENT 5 7 12 28 62 47 36 58
REMARK Flexibility Score: inf
ROOT
ATOM      1  C   UNL A   1      36.556  21.883  25.636  1.00  0.00     0.002 C 
ENDROOT
BRANCH   1   2
ATOM      2  C   UNL A   1      36.751  23.272  25.019  1.00  0.00     0.021 C 
BRANCH   2   3
ATOM      3  C   UNL A   1      35.525  24.183  24.964  1.00  0.00     0.116 C 
BRANCH   3   4
ATOM      4  N   UNL A   1      35.035  24.455  23.628  1.00  0.00    -0.356 N 
ATOM      5  C   UNL A   1      33.759  24.550  23.158  1.00  0.00     0.227 C 
ATOM      6  O   UNL A   1      33.627  25.066  22.041  1.00  0.00    -0.274 OA
ATOM      7  H   UNL A   1      35.736  24.595  22.951  1.00  0.00     0.163 HD
BRANCH   5   8
ATOM      8  C   UNL A   1      32.529  23.939  23.853  1.00  0.00     0.105 C 
ATOM      9  C   UNL A   1      31.301  24.432  23.070  1.00  0.00     0.023 C 
BRANCH   8  10
ATOM     10  C   UNL A   1      32.547  22.443  24.145  1.00  0.00    -0.033 A 
ATOM     11  C   UNL A   1      32.284  21.488  23.154  1.00  0.00     0.005 A 
ATOM     12  C   UNL A   1      32.811  21.966  25.432  1.00  0.00     0.044 A 
ATOM     13  C   UNL A   1      32.439  20.119  23.405  1.00  0.00     0.012 A 
ATOM     14  C   UNL A   1      33.022  20.600  25.662  1.00  0.00     0.131 A 
ATOM     15  C   UNL A   1      32.886  19.639  24.648  1.00  0.00     0.017 A 
ATOM     16  F   UNL A   1      33.440  20.251  26.889  1.00  0.00    -0.206 F 
BRANCH  15  17
ATOM     17  C   UNL A   1      33.234  18.207  24.828  1.00  0.00    -0.015 A 
ATOM     18  C   UNL A   1      34.500  17.716  24.443  1.00  0.00     0.009 A 
ATOM     19  C   UNL A   1      32.351  17.285  25.414  1.00  0.00     0.009 A 
ATOM     20  C   UNL A   1      34.861  16.376  24.623  1.00  0.00     0.001 A 
ATOM     21  C   UNL A   1      32.714  15.946  25.613  1.00  0.00     0.001 A 
ATOM     22  C   UNL A   1      33.966  15.492  25.214  1.00  0.00     0.000 A 
ENDBRANCH  15  17
ENDBRANCH   8  10
ENDBRANCH   5   8
ENDBRANCH   3   4
ENDBRANCH   2   3
ENDBRANCH   1   2
BRANCH   1  23
ATOM     23  C   UNL A   1      36.632  20.678  24.695  1.00  0.00     0.002 C 
BRANCH  23  24
ATOM     24  C   UNL A   1      37.718  19.637  24.981  1.00  0.00     0.021 C 
BRANCH  24  25
ATOM     25  C   UNL A   1      38.943  20.112  25.759  1.00  0.00     0.116 C 
BRANCH  25  26
ATOM     26  N   UNL A   1      40.031  19.150  25.785  1.00  0.00    -0.352 N 
ATOM     27  C   UNL A   1      41.358  19.314  26.088  1.00  0.00     0.251 C 
ATOM     28  H   UNL A   1      39.774  18.230  25.545  1.00  0.00     0.163 HD
ATOM     29  O   UNL A   1      42.120  18.350  25.986  1.00  0.00    -0.269 OA
BRANCH  27  30
ATOM     30  C   UNL A   1      41.912  20.628  26.500  1.00  0.00     0.039 A 
ATOM     31  C   UNL A   1      42.268  21.535  25.495  1.00  0.00     0.014 A 
ATOM     32  C   UNL A   1      42.125  20.970  27.839  1.00  0.00     0.014 A 
ATOM     33  C   UNL A   1      42.772  22.795  25.829  1.00  0.00     0.010 A 
ATOM     34  C   UNL A   1      42.571  22.252  28.174  1.00  0.00     0.010 A 
ATOM     35  C   UNL A   1      42.896  23.180  27.173  1.00  0.00    -0.014 A 
BRANCH  35  36
ATOM     36  C   UNL A   1      43.337  24.555  27.526  1.00  0.00     0.031 A 
ATOM     37  C   UNL A   1      42.343  25.606  27.941  1.00  0.00     0.074 A 
ATOM     38  C   UNL A   1      44.645  24.869  27.449  1.00  0.00     0.049 A 
ATOM     39  N   UNL A   1      42.554  26.853  28.283  1.00  0.00    -0.248 NA
ATOM     40  C   UNL A   1      40.927  25.211  27.954  1.00  0.00     0.031 C 
ATOM     41  C   UNL A   1      45.707  23.962  27.009  1.00  0.00     0.029 A 
ATOM     42  N   UNL A   1      45.306  26.039  27.735  1.00  0.00    -0.354 N 
ATOM     43  C   UNL A   1      41.302  27.389  28.556  1.00  0.00     0.074 A 
ATOM     44  C   UNL A   1      40.331  26.348  28.288  1.00  0.00     0.031 C 
ATOM     45  C   UNL A   1      46.886  24.600  27.074  1.00  0.00     0.029 A 
ATOM     46  C   UNL A   1      46.664  25.966  27.537  1.00  0.00     0.049 A 
ATOM     47  H   UNL A   1      44.850  26.851  28.052  1.00  0.00     0.167 HD
ATOM     48  C   UNL A   1      40.990  28.627  29.011  1.00  0.00     0.037 A 
ATOM     49  C   UNL A   1      47.623  26.896  27.709  1.00  0.00     0.037 A 
ATOM     50  C   UNL A   1      41.951  29.661  29.290  1.00  0.00     0.049 A 
ATOM     51  C   UNL A   1      47.251  28.256  28.228  1.00  0.00     0.074 A 
ATOM     52  C   UNL A   1      41.728  30.936  29.784  1.00  0.00     0.029 A 
ATOM     53  N   UNL A   1      43.319  29.541  29.102  1.00  0.00    -0.354 N 
ATOM     54  N   UNL A   1      46.067  28.727  28.536  1.00  0.00    -0.248 NA
ATOM     55  C   UNL A   1      48.351  29.209  28.437  1.00  0.00     0.031 C 
ATOM     56  C   UNL A   1      42.960  31.597  29.867  1.00  0.00     0.029 A 
ATOM     57  C   UNL A   1      43.952  30.721  29.460  1.00  0.00     0.049 A 
ATOM     58  H   UNL A   1      43.774  28.737  28.763  1.00  0.00     0.167 HD
ATOM     59  C   UNL A   1      46.281  30.021  28.990  1.00  0.00     0.074 A 
ATOM     60  C   UNL A   1      47.709  30.254  28.940  1.00  0.00     0.031 C 
ATOM     61  C   UNL A   1      45.375  30.939  29.405  1.00  0.00     0.037 A 
BRANCH  48  62
ATOM     62  C   UNL A   1      39.540  28.926  29.257  1.00  0.00     0.057 A 
ATOM     63  C   UNL A   1      38.704  29.382  28.229  1.00  0.00     0.134 A 
ATOM     64  C   UNL A   1      38.961  28.709  30.513  1.00  0.00     0.134 A 
ATOM     65  F   UNL A   1      39.198  29.620  27.006  1.00  0.00    -0.206 F 
ATOM     66  C   UNL A   1      37.347  29.629  28.447  1.00  0.00     0.040 A 
ATOM     67  C   UNL A   1      37.600  28.930  30.737  1.00  0.00     0.040 A 
ATOM     68  F   UNL A   1      39.704  28.266  31.538  1.00  0.00    -0.206 F 
ATOM     69  C   UNL A   1      36.790  29.396  29.703  1.00  0.00     0.006 A 
ENDBRANCH  48  62
BRANCH  49  70
ATOM     70  C   UNL A   1      49.038  26.565  27.409  1.00  0.00     0.057 A 
ATOM     71  C   UNL A   1      49.568  26.746  26.126  1.00  0.00     0.134 A 
ATOM     72  C   UNL A   1      49.888  26.043  28.391  1.00  0.00     0.134 A 
ATOM     73  F   UNL A   1      48.797  27.223  25.139  1.00  0.00    -0.206 F 
ATOM     74  C   UNL A   1      50.886  26.401  25.825  1.00  0.00     0.040 A 
ATOM     75  C   UNL A   1      51.214  25.716  28.110  1.00  0.00     0.040 A 
ATOM     76  F   UNL A   1      49.440  25.851  29.641  1.00  0.00    -0.206 F 
ATOM     77  C   UNL A   1      51.715  25.886  26.821  1.00  0.00     0.006 A 
ENDBRANCH  49  70
BRANCH  61  78
ATOM     78  C   UNL A   1      45.907  32.268  29.854  1.00  0.00     0.057 A 
ATOM     79  C   UNL A   1      46.289  32.495  31.183  1.00  0.00     0.134 A 
ATOM     80  C   UNL A   1      46.048  33.325  28.949  1.00  0.00     0.134 A 
ATOM     81  F   UNL A   1      46.164  31.527  32.102  1.00  0.00    -0.206 F 
ATOM     82  C   UNL A   1      46.768  33.738  31.600  1.00  0.00     0.040 A 
ATOM     83  C   UNL A   1      46.549  34.565  29.348  1.00  0.00     0.040 A 
ATOM     84  F   UNL A   1      45.707  33.170  27.660  1.00  0.00    -0.206 F 
ATOM     85  C   UNL A   1      46.904  34.776  30.679  1.00  0.00     0.006 A 
ENDBRANCH  61  78
ENDBRANCH  35  36
ENDBRANCH  27  30
ENDBRANCH  25  26
ENDBRANCH  24  25
ENDBRANCH  23  24
ENDBRANCH   1  23
TORSDOF 15
ENDMDL
MODEL 3
REMARK VINA RESULT:     -11.6      1.143      1.825
REMARK SMILES C[C@H](C(=O)NCCCCCCNC(=O)c1ccc(-c2c3nc(c(-c4c(F)cccc4F)c4ccc([nH]4)c(-c4c(F)cccc4F)c4nc(c(-c5c(F)cccc5F)c5ccc2[nH]5)C=C4)C=C3)cc1)c1ccc(-c2ccccc2)c(F)c1
REMARK SMILES IDX 8 1 7 2 6 3 5 4 3 5 4 6 2 8 1 9 69 10 70 11 81 12 71 13
REMARK SMILES IDX 79 14 72 15 80 16 73 17 74 18 78 19 75 20 77 21 76 22 9 23
REMARK SMILES IDX 10 24 11 25 12 26 13 27 14 29 15 30 16 31 68 32 17 33 67 34
REMARK SMILES IDX 18 35 19 36 20 37 61 38 21 39 66 40 60 41 62 42 22 43 65 44
REMARK SMILES IDX 59 45 58 46 23 48 49 49 32 50 48 51 33 52 36 53 47 54 63 55
REMARK SMILES IDX 34 56 35 57 46 59 64 60 37 61 24 62 25 63 30 64 26 65 27 66
REMARK SMILES IDX 29 67 31 68 28 69 50 70 51 71 56 72 52 73 53 74 55 75 57 76
REMARK SMILES IDX 54 77 38 78 39 79 44 80 40 81 41 82 43 83 45 84 42 85
REMARK H PARENT 5 7 12 28 62 47 36 58
REMARK Flexibility Score: inf
ROOT
ATOM      1  C   UNL A   1      36.855  22.209  25.521  1.00  0.00     0.002 C 
ENDROOT
BRANCH   1   2
ATOM      2  C   UNL A   1      36.789  23.581  24.841  1.00  0.00     0.021 C 
BRANCH   2   3
ATOM      3  C   UNL A   1      35.432  24.282  24.830  1.00  0.00     0.116 C 
BRANCH   3   4
ATOM      4  N   UNL A   1      34.915  24.577  23.508  1.00  0.00    -0.356 N 
ATOM      5  C   UNL A   1      33.630  24.671  23.063  1.00  0.00     0.227 C 
ATOM      6  O   UNL A   1      33.476  25.208  21.958  1.00  0.00    -0.274 OA
ATOM      7  H   UNL A   1      35.604  24.734  22.821  1.00  0.00     0.163 HD
BRANCH   5   8
ATOM      8  C   UNL A   1      32.418  24.039  23.767  1.00  0.00     0.105 C 
ATOM      9  C   UNL A   1      31.177  24.490  22.979  1.00  0.00     0.023 C 
BRANCH   8  10
ATOM     10  C   UNL A   1      32.474  22.548  24.078  1.00  0.00    -0.033 A 
ATOM     11  C   UNL A   1      32.224  21.574  23.103  1.00  0.00     0.005 A 
ATOM     12  C   UNL A   1      32.763  22.094  25.370  1.00  0.00     0.044 A 
ATOM     13  C   UNL A   1      32.414  20.212  23.371  1.00  0.00     0.012 A 
ATOM     14  C   UNL A   1      33.007  20.737  25.615  1.00  0.00     0.131 A 
ATOM     15  C   UNL A   1      32.884  19.760  24.615  1.00  0.00     0.017 A 
ATOM     16  F   UNL A   1      33.446  20.415  26.842  1.00  0.00    -0.206 F 
BRANCH  15  17
ATOM     17  C   UNL A   1      33.268  18.338  24.811  1.00  0.00    -0.015 A 
ATOM     18  C   UNL A   1      34.543  17.873  24.422  1.00  0.00     0.009 A 
ATOM     19  C   UNL A   1      32.413  17.403  25.415  1.00  0.00     0.009 A 
ATOM     20  C   UNL A   1      34.937  16.544  24.616  1.00  0.00     0.001 A 
ATOM     21  C   UNL A   1      32.809  16.077  25.628  1.00  0.00     0.001 A 
ATOM     22  C   UNL A   1      34.069  15.647  25.225  1.00  0.00     0.000 A 
ENDBRANCH  15  17
ENDBRANCH   8  10
ENDBRANCH   5   8
ENDBRANCH   3   4
ENDBRANCH   2   3
ENDBRANCH   1   2
BRANCH   1  23
ATOM     23  C   UNL A   1      36.726  20.974  24.626  1.00  0.00     0.002 C 
BRANCH  23  24
ATOM     24  C   UNL A   1      37.785  19.880  24.789  1.00  0.00     0.021 C 
BRANCH  24  25
ATOM     25  C   UNL A   1      38.815  20.074  25.900  1.00  0.00     0.116 C 
BRANCH  25  26
ATOM     26  N   UNL A   1      40.009  19.264  25.742  1.00  0.00    -0.352 N 
ATOM     27  C   UNL A   1      41.322  19.549  26.016  1.00  0.00     0.251 C 
ATOM     28  H   UNL A   1      39.850  18.362  25.380  1.00  0.00     0.163 HD
ATOM     29  O   UNL A   1      42.186  18.712  25.743  1.00  0.00    -0.269 OA
BRANCH  27  30
ATOM     30  C   UNL A   1      41.738  20.850  26.596  1.00  0.00     0.039 A 
ATOM     31  C   UNL A   1      42.031  21.898  25.714  1.00  0.00     0.014 A 
ATOM     32  C   UNL A   1      41.883  21.051  27.971  1.00  0.00     0.014 A 
ATOM     33  C   UNL A   1      42.403  23.151  26.209  1.00  0.00     0.010 A 
ATOM     34  C   UNL A   1      42.197  22.320  28.467  1.00  0.00     0.010 A 
ATOM     35  C   UNL A   1      42.457  23.384  27.592  1.00  0.00    -0.014 A 
BRANCH  35  36
ATOM     36  C   UNL A   1      42.756  24.743  28.116  1.00  0.00     0.031 A 
ATOM     37  C   UNL A   1      44.164  25.144  28.468  1.00  0.00     0.074 A 
ATOM     38  C   UNL A   1      41.748  25.617  28.301  1.00  0.00     0.049 A 
ATOM     39  N   UNL A   1      44.604  26.287  28.934  1.00  0.00    -0.248 NA
ATOM     40  C   UNL A   1      45.209  24.126  28.290  1.00  0.00     0.031 C 
ATOM     41  C   UNL A   1      40.332  25.338  28.052  1.00  0.00     0.029 A 
ATOM     42  N   UNL A   1      41.757  26.917  28.744  1.00  0.00    -0.354 N 
ATOM     43  C   UNL A   1      45.973  26.126  29.102  1.00  0.00     0.074 A 
ATOM     44  C   UNL A   1      46.284  24.760  28.738  1.00  0.00     0.031 C 
ATOM     45  C   UNL A   1      39.613  26.439  28.326  1.00  0.00     0.029 A 
ATOM     46  C   UNL A   1      40.510  27.492  28.790  1.00  0.00     0.049 A 
ATOM     47  H   UNL A   1      42.579  27.392  29.003  1.00  0.00     0.167 HD
ATOM     48  C   UNL A   1      46.892  27.039  29.500  1.00  0.00     0.037 A 
ATOM     49  C   UNL A   1      40.130  28.729  29.164  1.00  0.00     0.037 A 
ATOM     50  C   UNL A   1      46.591  28.403  29.853  1.00  0.00     0.049 A 
ATOM     51  C   UNL A   1      41.172  29.726  29.587  1.00  0.00     0.074 A 
ATOM     52  C   UNL A   1      47.463  29.408  30.237  1.00  0.00     0.029 A 
ATOM     53  N   UNL A   1      45.319  28.954  29.862  1.00  0.00    -0.354 N 
ATOM     54  N   UNL A   1      42.470  29.574  29.685  1.00  0.00    -0.248 NA
ATOM     55  C   UNL A   1      40.695  31.071  29.940  1.00  0.00     0.031 C 
ATOM     56  C   UNL A   1      46.714  30.560  30.507  1.00  0.00     0.029 A 
ATOM     57  C   UNL A   1      45.381  30.282  30.255  1.00  0.00     0.049 A 
ATOM     58  H   UNL A   1      44.494  28.473  29.625  1.00  0.00     0.167 HD
ATOM     59  C   UNL A   1      42.966  30.805  30.092  1.00  0.00     0.074 A 
ATOM     60  C   UNL A   1      41.833  31.699  30.200  1.00  0.00     0.031 C 
ATOM     61  C   UNL A   1      44.246  31.161  30.359  1.00  0.00     0.037 A 
BRANCH  48  62
ATOM     62  C   UNL A   1      48.325  26.596  29.558  1.00  0.00     0.057 A 
ATOM     63  C   UNL A   1      48.847  25.956  30.689  1.00  0.00     0.134 A 
ATOM     64  C   UNL A   1      49.176  26.762  28.458  1.00  0.00     0.134 A 
ATOM     65  F   UNL A   1      48.088  25.775  31.779  1.00  0.00    -0.206 F 
ATOM     66  C   UNL A   1      50.170  25.513  30.732  1.00  0.00     0.040 A 
ATOM     67  C   UNL A   1      50.495  26.302  28.480  1.00  0.00     0.040 A 
ATOM     68  F   UNL A   1      48.737  27.361  27.341  1.00  0.00    -0.206 F 
ATOM     69  C   UNL A   1      50.996  25.680  29.621  1.00  0.00     0.006 A 
ENDBRANCH  48  62
BRANCH  49  70
ATOM     70  C   UNL A   1      38.695  29.105  29.133  1.00  0.00     0.057 A 
ATOM     71  C   UNL A   1      38.098  29.592  27.965  1.00  0.00     0.134 A 
ATOM     72  C   UNL A   1      37.893  29.005  30.275  1.00  0.00     0.134 A 
ATOM     73  F   UNL A   1      38.822  29.730  26.844  1.00  0.00    -0.206 F 
ATOM     74  C   UNL A   1      36.760  29.986  27.938  1.00  0.00     0.040 A 
ATOM     75  C   UNL A   1      36.547  29.372  30.257  1.00  0.00     0.040 A 
ATOM     76  F   UNL A   1      38.405  28.540  31.425  1.00  0.00    -0.206 F 
ATOM     77  C   UNL A   1      35.979  29.873  29.087  1.00  0.00     0.006 A 
ENDBRANCH  49  70
BRANCH  61  78
ATOM     78  C   UNL A   1      44.485  32.582  30.773  1.00  0.00     0.057 A 
ATOM     79  C   UNL A   1      44.736  33.590  29.833  1.00  0.00     0.134 A 
ATOM     80  C   UNL A   1      44.453  32.949  32.124  1.00  0.00     0.134 A 
ATOM     81  F   UNL A   1      44.793  33.301  28.525  1.00  0.00    -0.206 F 
ATOM     82  C   UNL A   1      44.974  34.909  30.225  1.00  0.00     0.040 A 
ATOM     83  C   UNL A   1      44.666  34.269  32.526  1.00  0.00     0.040 A 
ATOM     84  F   UNL A   1      44.211  32.032  33.074  1.00  0.00    -0.206 F 
ATOM     85  C   UNL A   1      44.934  35.251  31.576  1.00  0.00     0.006 A 
ENDBRANCH  61  78
ENDBRANCH  35  36
ENDBRANCH  27  30
ENDBRANCH  25  26
ENDBRANCH  24  25
ENDBRANCH  23  24
ENDBRANCH   1  23
TORSDOF 15
ENDMDL
