MODEL 1
REMARK VINA RESULT:     -12.0      0.000      0.000
REMARK SMILES COc1cccc(C(=O)N2[C@@H](C(=O)NCCCCCCNC(=O)c3ccc(-c4c5nc(c(-c6c(F)cccc6F)c6ccc([nH]6)c(-c6c(F)cccc6F)c6nc(c(-c7c(F)cccc7F)c7ccc4[nH]7)C=C6)C=C5)cc3)CS[C@@H]2c2ccccc2Cl)c1
REMARK SMILES IDX 17 1 16 2 15 3 14 4 12 5 13 6 11 8 10 9 80 10 78 11 79 12
REMARK SMILES IDX 8 13 9 14 7 15 3 16 4 17 88 18 5 19 6 20 2 21 1 22 81 23
REMARK SMILES IDX 82 24 86 25 83 26 85 27 87 28 84 29 18 30 19 31 20 32 21 33
REMARK SMILES IDX 22 34 23 36 24 37 25 38 77 39 26 40 76 41 27 42 28 43 29 44
REMARK SMILES IDX 70 45 30 46 75 47 69 48 71 49 31 50 74 51 68 52 67 53 32 55
REMARK SMILES IDX 58 56 41 57 57 58 42 59 45 60 56 61 72 62 43 63 44 64 55 66
REMARK SMILES IDX 73 67 46 68 33 69 34 70 39 71 35 72 36 73 38 74 40 75 37 76
REMARK SMILES IDX 59 77 60 78 65 79 61 80 62 81 64 82 66 83 63 84 47 85 48 86
REMARK SMILES IDX 53 87 49 88 50 89 52 90 54 91 51 92
REMARK H PARENT 14 7 21 35 71 54 45 65
REMARK Flexibility Score: inf
ROOT
ATOM      1  C   UNL A   1      32.514  29.748  27.248  1.00  0.00     0.002 C 
ENDROOT
BRANCH   1   2
ATOM      2  C   UNL A   1      32.016  28.332  27.540  1.00  0.00     0.021 C 
BRANCH   2   3
ATOM      3  C   UNL A   1      31.479  27.579  26.323  1.00  0.00     0.116 C 
BRANCH   3   4
ATOM      4  N   UNL A   1      30.567  26.515  26.719  1.00  0.00    -0.354 N 
ATOM      5  C   UNL A   1      30.700  25.160  26.579  1.00  0.00     0.243 C 
ATOM      6  O   UNL A   1      29.709  24.457  26.791  1.00  0.00    -0.273 OA
ATOM      7  H   UNL A   1      29.734  26.814  27.149  1.00  0.00     0.163 HD
BRANCH   5   8
ATOM      8  C   UNL A   1      32.040  24.568  26.099  1.00  0.00     0.186 C 
ATOM      9  N   UNL A   1      31.877  23.776  24.867  1.00  0.00    -0.310 N 
ATOM     10  C   UNL A   1      32.651  22.552  24.811  1.00  0.00     0.176 C 
ATOM     11  C   UNL A   1      32.589  23.649  27.206  1.00  0.00     0.107 C 
ATOM     12  S   UNL A   1      32.519  21.963  26.547  1.00  0.00    -0.129 SA
BRANCH   9  13
ATOM     13  C   UNL A   1      31.209  24.280  23.772  1.00  0.00     0.255 C 
ATOM     14  O   UNL A   1      30.452  23.598  23.086  1.00  0.00    -0.269 OA
BRANCH  13  15
ATOM     15  C   UNL A   1      31.570  25.656  23.293  1.00  0.00     0.043 A 
ATOM     16  C   UNL A   1      31.005  27.888  22.507  1.00  0.00     0.119 A 
ATOM     17  C   UNL A   1      32.347  28.258  22.614  1.00  0.00     0.046 A 
ATOM     18  C   UNL A   1      30.614  26.593  22.865  1.00  0.00     0.060 A 
ATOM     19  C   UNL A   1      33.299  27.350  23.070  1.00  0.00     0.005 A 
ATOM     20  C   UNL A   1      32.912  26.052  23.402  1.00  0.00     0.014 A 
BRANCH  16  21
ATOM     21  O   UNL A   1      30.182  28.882  22.052  1.00  0.00    -0.497 OA
ATOM     22  C   UNL A   1      29.713  29.826  23.006  1.00  0.00     0.278 C 
ENDBRANCH  16  21
ENDBRANCH  13  15
ENDBRANCH   9  13
BRANCH  10  23
ATOM     23  C   UNL A   1      34.131  22.585  24.394  1.00  0.00     0.003 A 
ATOM     24  C   UNL A   1      35.050  22.257  25.430  1.00  0.00     0.008 A 
ATOM     25  C   UNL A   1      34.706  22.915  23.151  1.00  0.00     0.047 A 
ATOM     26  C   UNL A   1      36.437  22.318  25.265  1.00  0.00     0.001 A 
ATOM     27  C   UNL A   1      36.106  22.968  22.991  1.00  0.00     0.021 A 
ATOM     28  Cl  UNL A   1      33.854  23.287  21.704  1.00  0.00    -0.084 Cl
ATOM     29  C   UNL A   1      36.968  22.685  24.042  1.00  0.00     0.002 A 
ENDBRANCH  10  23
ENDBRANCH   5   8
ENDBRANCH   3   4
ENDBRANCH   2   3
ENDBRANCH   1   2
BRANCH   1  30
ATOM     30  C   UNL A   1      31.691  30.534  26.227  1.00  0.00     0.002 C 
BRANCH  30  31
ATOM     31  C   UNL A   1      31.488  32.019  26.541  1.00  0.00     0.021 C 
BRANCH  31  32
ATOM     32  C   UNL A   1      32.625  32.692  27.306  1.00  0.00     0.116 C 
BRANCH  32  33
ATOM     33  N   UNL A   1      32.351  34.088  27.605  1.00  0.00    -0.352 N 
ATOM     34  C   UNL A   1      32.954  34.928  28.507  1.00  0.00     0.251 C 
ATOM     35  H   UNL A   1      31.621  34.492  27.082  1.00  0.00     0.163 HD
ATOM     36  O   UNL A   1      32.487  36.045  28.720  1.00  0.00    -0.269 OA
BRANCH  34  37
ATOM     37  C   UNL A   1      34.150  34.482  29.251  1.00  0.00     0.039 A 
ATOM     38  C   UNL A   1      33.982  33.949  30.532  1.00  0.00     0.014 A 
ATOM     39  C   UNL A   1      35.428  34.590  28.694  1.00  0.00     0.014 A 
ATOM     40  C   UNL A   1      35.087  33.452  31.225  1.00  0.00     0.010 A 
ATOM     41  C   UNL A   1      36.521  34.044  29.362  1.00  0.00     0.010 A 
ATOM     42  C   UNL A   1      36.358  33.461  30.629  1.00  0.00    -0.014 A 
BRANCH  42  43
ATOM     43  C   UNL A   1      37.522  32.829  31.295  1.00  0.00     0.031 A 
ATOM     44  C   UNL A   1      38.178  31.620  30.696  1.00  0.00     0.074 A 
ATOM     45  C   UNL A   1      37.938  33.301  32.486  1.00  0.00     0.049 A 
ATOM     46  N   UNL A   1      39.146  30.882  31.178  1.00  0.00    -0.248 NA
ATOM     47  C   UNL A   1      37.665  31.168  29.394  1.00  0.00     0.031 C 
ATOM     48  C   UNL A   1      37.359  34.448  33.189  1.00  0.00     0.029 A 
ATOM     49  N   UNL A   1      38.934  32.866  33.321  1.00  0.00    -0.354 N 
ATOM     50  C   UNL A   1      39.349  29.872  30.247  1.00  0.00     0.074 A 
ATOM     51  C   UNL A   1      38.378  30.070  29.191  1.00  0.00     0.031 C 
ATOM     52  C   UNL A   1      38.022  34.634  34.342  1.00  0.00     0.029 A 
ATOM     53  C   UNL A   1      39.044  33.600  34.475  1.00  0.00     0.049 A 
ATOM     54  H   UNL A   1      39.517  32.100  33.113  1.00  0.00     0.167 HD
ATOM     55  C   UNL A   1      40.270  28.879  30.265  1.00  0.00     0.037 A 
ATOM     56  C   UNL A   1      39.865  33.451  35.531  1.00  0.00     0.037 A 
ATOM     57  C   UNL A   1      41.250  28.697  31.303  1.00  0.00     0.049 A 
ATOM     58  C   UNL A   1      40.856  32.324  35.542  1.00  0.00     0.074 A 
ATOM     59  C   UNL A   1      42.280  27.776  31.366  1.00  0.00     0.029 A 
ATOM     60  N   UNL A   1      41.312  29.448  32.468  1.00  0.00    -0.354 N 
ATOM     61  N   UNL A   1      41.079  31.413  34.627  1.00  0.00    -0.248 NA
ATOM     62  C   UNL A   1      41.701  32.198  36.738  1.00  0.00     0.031 C 
ATOM     63  C   UNL A   1      42.944  27.943  32.588  1.00  0.00     0.029 A 
ATOM     64  C   UNL A   1      42.345  28.989  33.271  1.00  0.00     0.049 A 
ATOM     65  H   UNL A   1      40.712  30.196  32.691  1.00  0.00     0.167 HD
ATOM     66  C   UNL A   1      42.095  30.612  35.129  1.00  0.00     0.074 A 
ATOM     67  C   UNL A   1      42.455  31.153  36.424  1.00  0.00     0.031 C 
ATOM     68  C   UNL A   1      42.678  29.526  34.565  1.00  0.00     0.037 A 
BRANCH  55  69
ATOM     69  C   UNL A   1      40.256  27.912  29.120  1.00  0.00     0.057 A 
ATOM     70  C   UNL A   1      41.001  28.137  27.956  1.00  0.00     0.134 A 
ATOM     71  C   UNL A   1      39.500  26.735  29.189  1.00  0.00     0.134 A 
ATOM     72  F   UNL A   1      41.737  29.251  27.825  1.00  0.00    -0.206 F 
ATOM     73  C   UNL A   1      40.975  27.238  26.888  1.00  0.00     0.040 A 
ATOM     74  C   UNL A   1      39.483  25.818  28.136  1.00  0.00     0.040 A 
ATOM     75  F   UNL A   1      38.767  26.459  30.278  1.00  0.00    -0.206 F 
ATOM     76  C   UNL A   1      40.217  26.072  26.979  1.00  0.00     0.006 A 
ENDBRANCH  55  69
BRANCH  56  77
ATOM     77  C   UNL A   1      39.789  34.405  36.662  1.00  0.00     0.057 A 
ATOM     78  C   UNL A   1      39.006  34.122  37.786  1.00  0.00     0.134 A 
ATOM     79  C   UNL A   1      40.507  35.606  36.657  1.00  0.00     0.134 A 
ATOM     80  F   UNL A   1      38.282  32.995  37.836  1.00  0.00    -0.206 F 
ATOM     81  C   UNL A   1      38.935  35.002  38.866  1.00  0.00     0.040 A 
ATOM     82  C   UNL A   1      40.460  36.488  37.738  1.00  0.00     0.040 A 
ATOM     83  F   UNL A   1      41.279  35.930  35.609  1.00  0.00    -0.206 F 
ATOM     84  C   UNL A   1      39.669  36.187  38.846  1.00  0.00     0.006 A 
ENDBRANCH  56  77
BRANCH  68  85
ATOM     85  C   UNL A   1      43.762  28.853  35.350  1.00  0.00     0.057 A 
ATOM     86  C   UNL A   1      43.476  27.831  36.263  1.00  0.00     0.134 A 
ATOM     87  C   UNL A   1      45.104  29.204  35.168  1.00  0.00     0.134 A 
ATOM     88  F   UNL A   1      42.206  27.461  36.494  1.00  0.00    -0.206 F 
ATOM     89  C   UNL A   1      44.487  27.192  36.981  1.00  0.00     0.040 A 
ATOM     90  C   UNL A   1      46.126  28.560  35.865  1.00  0.00     0.040 A 
ATOM     91  F   UNL A   1      45.444  30.172  34.304  1.00  0.00    -0.206 F 
ATOM     92  C   UNL A   1      45.818  27.552  36.778  1.00  0.00     0.006 A 
ENDBRANCH  68  85
ENDBRANCH  42  43
ENDBRANCH  34  37
ENDBRANCH  32  33
ENDBRANCH  31  32
ENDBRANCH  30  31
ENDBRANCH   1  30
TORSDOF 17
ENDMDL
MODEL 2
REMARK VINA RESULT:     -11.9      4.091      8.345
REMARK SMILES COc1cccc(C(=O)N2[C@@H](C(=O)NCCCCCCNC(=O)c3ccc(-c4c5nc(c(-c6c(F)cccc6F)c6ccc([nH]6)c(-c6c(F)cccc6F)c6nc(c(-c7c(F)cccc7F)c7ccc4[nH]7)C=C6)C=C5)cc3)CS[C@@H]2c2ccccc2Cl)c1
REMARK SMILES IDX 17 1 16 2 15 3 14 4 12 5 13 6 11 8 10 9 80 10 78 11 79 12
REMARK SMILES IDX 8 13 9 14 7 15 3 16 4 17 88 18 5 19 6 20 2 21 1 22 81 23
REMARK SMILES IDX 82 24 86 25 83 26 85 27 87 28 84 29 18 30 19 31 20 32 21 33
REMARK SMILES IDX 22 34 23 36 24 37 25 38 77 39 26 40 76 41 27 42 28 43 29 44
REMARK SMILES IDX 70 45 30 46 75 47 69 48 71 49 31 50 74 51 68 52 67 53 32 55
REMARK SMILES IDX 58 56 41 57 57 58 42 59 45 60 56 61 72 62 43 63 44 64 55 66
REMARK SMILES IDX 73 67 46 68 33 69 34 70 39 71 35 72 36 73 38 74 40 75 37 76
REMARK SMILES IDX 59 77 60 78 65 79 61 80 62 81 64 82 66 83 63 84 47 85 48 86
REMARK SMILES IDX 53 87 49 88 50 89 52 90 54 91 51 92
REMARK H PARENT 14 7 21 35 71 54 45 65
REMARK Flexibility Score: inf
ROOT
ATOM      1  C   UNL A   1      30.642  26.558  25.835  1.00  0.00     0.002 C 
ENDROOT
BRANCH   1   2
ATOM      2  C   UNL A   1      31.256  26.470  24.438  1.00  0.00     0.021 C 
BRANCH   2   3
ATOM      3  C   UNL A   1      31.093  25.115  23.751  1.00  0.00     0.116 C 
BRANCH   3   4
ATOM      4  N   UNL A   1      30.467  24.144  24.637  1.00  0.00    -0.354 N 
ATOM      5  C   UNL A   1      31.046  23.190  25.429  1.00  0.00     0.243 C 
ATOM      6  O   UNL A   1      30.315  22.335  25.934  1.00  0.00    -0.273 OA
ATOM      7  H   UNL A   1      29.484  24.179  24.672  1.00  0.00     0.163 HD
BRANCH   5   8
ATOM      8  C   UNL A   1      32.578  23.169  25.604  1.00  0.00     0.186 C 
ATOM      9  N   UNL A   1      33.157  21.878  25.193  1.00  0.00    -0.310 N 
ATOM     10  C   UNL A   1      34.221  21.378  26.041  1.00  0.00     0.176 C 
ATOM     11  C   UNL A   1      32.900  23.401  27.092  1.00  0.00     0.107 C 
ATOM     12  S   UNL A   1      33.605  21.850  27.707  1.00  0.00    -0.129 SA
BRANCH   9  13
ATOM     13  C   UNL A   1      32.853  21.310  23.974  1.00  0.00     0.255 C 
ATOM     14  O   UNL A   1      32.440  21.967  23.023  1.00  0.00    -0.269 OA
BRANCH  13  15
ATOM     15  C   UNL A   1      32.846  19.813  23.871  1.00  0.00     0.043 A 
ATOM     16  C   UNL A   1      32.949  17.580  24.832  1.00  0.00     0.119 A 
ATOM     17  C   UNL A   1      32.608  17.038  23.591  1.00  0.00     0.046 A 
ATOM     18  C   UNL A   1      33.048  18.969  24.976  1.00  0.00     0.060 A 
ATOM     19  C   UNL A   1      32.371  17.865  22.496  1.00  0.00     0.005 A 
ATOM     20  C   UNL A   1      32.496  19.247  22.635  1.00  0.00     0.014 A 
BRANCH  16  21
ATOM     21  O   UNL A   1      33.148  16.651  25.816  1.00  0.00    -0.497 OA
ATOM     22  C   UNL A   1      32.885  15.292  25.490  1.00  0.00     0.278 C 
ENDBRANCH  16  21
ENDBRANCH  13  15
ENDBRANCH   9  13
BRANCH  10  23
ATOM     23  C   UNL A   1      35.661  21.889  25.865  1.00  0.00     0.003 A 
ATOM     24  C   UNL A   1      35.857  23.252  26.225  1.00  0.00     0.008 A 
ATOM     25  C   UNL A   1      36.799  21.216  25.381  1.00  0.00     0.047 A 
ATOM     26  C   UNL A   1      37.076  23.916  26.053  1.00  0.00     0.001 A 
ATOM     27  C   UNL A   1      38.026  21.892  25.215  1.00  0.00     0.021 A 
ATOM     28  Cl  UNL A   1      36.886  19.558  24.934  1.00  0.00    -0.084 Cl
ATOM     29  C   UNL A   1      38.163  23.236  25.536  1.00  0.00     0.002 A 
ENDBRANCH  10  23
ENDBRANCH   5   8
ENDBRANCH   3   4
ENDBRANCH   2   3
ENDBRANCH   1   2
BRANCH   1  30
ATOM     30  C   UNL A   1      31.497  27.272  26.883  1.00  0.00     0.002 C 
BRANCH  30  31
ATOM     31  C   UNL A   1      32.487  28.305  26.339  1.00  0.00     0.021 C 
BRANCH  31  32
ATOM     32  C   UNL A   1      33.675  28.619  27.245  1.00  0.00     0.116 C 
BRANCH  32  33
ATOM     33  N   UNL A   1      33.691  30.003  27.691  1.00  0.00    -0.352 N 
ATOM     34  C   UNL A   1      34.688  30.715  28.309  1.00  0.00     0.251 C 
ATOM     35  H   UNL A   1      32.862  30.505  27.523  1.00  0.00     0.163 HD
ATOM     36  O   UNL A   1      34.464  31.844  28.741  1.00  0.00    -0.269 OA
BRANCH  34  37
ATOM     37  C   UNL A   1      36.026  30.116  28.488  1.00  0.00     0.039 A 
ATOM     38  C   UNL A   1      36.932  30.171  27.425  1.00  0.00     0.014 A 
ATOM     39  C   UNL A   1      36.388  29.503  29.691  1.00  0.00     0.014 A 
ATOM     40  C   UNL A   1      38.228  29.681  27.593  1.00  0.00     0.010 A 
ATOM     41  C   UNL A   1      37.697  29.064  29.876  1.00  0.00     0.010 A 
ATOM     42  C   UNL A   1      38.630  29.159  28.833  1.00  0.00    -0.014 A 
BRANCH  42  43
ATOM     43  C   UNL A   1      40.034  28.745  29.071  1.00  0.00     0.031 A 
ATOM     44  C   UNL A   1      41.020  29.703  29.672  1.00  0.00     0.074 A 
ATOM     45  C   UNL A   1      40.440  27.525  28.669  1.00  0.00     0.049 A 
ATOM     46  N   UNL A   1      42.303  29.550  29.873  1.00  0.00    -0.248 NA
ATOM     47  C   UNL A   1      40.495  31.015  30.085  1.00  0.00     0.031 C 
ATOM     48  C   UNL A   1      39.587  26.516  28.039  1.00  0.00     0.029 A 
ATOM     49  N   UNL A   1      41.676  26.933  28.719  1.00  0.00    -0.354 N 
ATOM     50  C   UNL A   1      42.745  30.748  30.419  1.00  0.00     0.074 A 
ATOM     51  C   UNL A   1      41.599  31.630  30.485  1.00  0.00     0.031 C 
ATOM     52  C   UNL A   1      40.323  25.424  27.775  1.00  0.00     0.029 A 
ATOM     53  C   UNL A   1      41.702  25.670  28.182  1.00  0.00     0.049 A 
ATOM     54  H   UNL A   1      42.469  27.372  29.103  1.00  0.00     0.167 HD
ATOM     55  C   UNL A   1      43.990  31.076  30.843  1.00  0.00     0.037 A 
ATOM     56  C   UNL A   1      42.726  24.811  28.022  1.00  0.00     0.037 A 
ATOM     57  C   UNL A   1      45.123  30.189  30.799  1.00  0.00     0.049 A 
ATOM     58  C   UNL A   1      44.102  25.209  28.469  1.00  0.00     0.074 A 
ATOM     59  C   UNL A   1      46.401  30.399  31.284  1.00  0.00     0.029 A 
ATOM     60  N   UNL A   1      45.114  28.927  30.226  1.00  0.00    -0.354 N 
ATOM     61  N   UNL A   1      44.493  26.321  29.042  1.00  0.00    -0.248 NA
ATOM     62  C   UNL A   1      45.180  24.238  28.237  1.00  0.00     0.031 C 
ATOM     63  C   UNL A   1      47.179  29.278  30.970  1.00  0.00     0.029 A 
ATOM     64  C   UNL A   1      46.375  28.358  30.317  1.00  0.00     0.049 A 
ATOM     65  H   UNL A   1      44.329  28.498  29.815  1.00  0.00     0.167 HD
ATOM     66  C   UNL A   1      45.859  26.181  29.248  1.00  0.00     0.074 A 
ATOM     67  C   UNL A   1      46.226  24.870  28.752  1.00  0.00     0.031 C 
ATOM     68  C   UNL A   1      46.728  27.061  29.801  1.00  0.00     0.037 A 
BRANCH  55  69
ATOM     69  C   UNL A   1      44.184  32.458  31.389  1.00  0.00     0.057 A 
ATOM     70  C   UNL A   1      44.010  32.744  32.749  1.00  0.00     0.134 A 
ATOM     71  C   UNL A   1      44.565  33.511  30.549  1.00  0.00     0.134 A 
ATOM     72  F   UNL A   1      43.635  31.780  33.603  1.00  0.00    -0.206 F 
ATOM     73  C   UNL A   1      44.183  34.035  33.250  1.00  0.00     0.040 A 
ATOM     74  C   UNL A   1      44.761  34.802  31.042  1.00  0.00     0.040 A 
ATOM     75  F   UNL A   1      44.752  33.302  29.236  1.00  0.00    -0.206 F 
ATOM     76  C   UNL A   1      44.563  35.068  32.395  1.00  0.00     0.006 A 
ENDBRANCH  55  69
BRANCH  56  77
ATOM     77  C   UNL A   1      42.480  23.481  27.418  1.00  0.00     0.057 A 
ATOM     78  C   UNL A   1      42.130  22.385  28.216  1.00  0.00     0.134 A 
ATOM     79  C   UNL A   1      42.567  23.275  26.037  1.00  0.00     0.134 A 
ATOM     80  F   UNL A   1      42.051  22.521  29.548  1.00  0.00    -0.206 F 
ATOM     81  C   UNL A   1      41.880  21.130  27.663  1.00  0.00     0.040 A 
ATOM     82  C   UNL A   1      42.302  22.028  25.467  1.00  0.00     0.040 A 
ATOM     83  F   UNL A   1      42.893  24.288  25.220  1.00  0.00    -0.206 F 
ATOM     84  C   UNL A   1      41.959  20.951  26.283  1.00  0.00     0.006 A 
ENDBRANCH  56  77
BRANCH  68  85
ATOM     85  C   UNL A   1      48.161  26.632  29.895  1.00  0.00     0.057 A 
ATOM     86  C   UNL A   1      49.095  26.986  28.914  1.00  0.00     0.134 A 
ATOM     87  C   UNL A   1      48.618  25.887  30.988  1.00  0.00     0.134 A 
ATOM     88  F   UNL A   1      48.714  27.686  27.833  1.00  0.00    -0.206 F 
ATOM     89  C   UNL A   1      50.433  26.601  29.010  1.00  0.00     0.040 A 
ATOM     90  C   UNL A   1      49.957  25.513  31.105  1.00  0.00     0.040 A 
ATOM     91  F   UNL A   1      47.773  25.520  31.963  1.00  0.00    -0.206 F 
ATOM     92  C   UNL A   1      50.868  25.868  30.112  1.00  0.00     0.006 A 
ENDBRANCH  68  85
ENDBRANCH  42  43
ENDBRANCH  34  37
ENDBRANCH  32  33
ENDBRANCH  31  32
ENDBRANCH  30  31
ENDBRANCH   1  30
TORSDOF 17
ENDMDL
MODEL 3
REMARK VINA RESULT:     -11.8      2.135      7.213
REMARK SMILES COc1cccc(C(=O)N2[C@@H](C(=O)NCCCCCCNC(=O)c3ccc(-c4c5nc(c(-c6c(F)cccc6F)c6ccc([nH]6)c(-c6c(F)cccc6F)c6nc(c(-c7c(F)cccc7F)c7ccc4[nH]7)C=C6)C=C5)cc3)CS[C@@H]2c2ccccc2Cl)c1
REMARK SMILES IDX 17 1 16 2 15 3 14 4 12 5 13 6 11 8 10 9 80 10 78 11 79 12
REMARK SMILES IDX 8 13 9 14 7 15 3 16 4 17 88 18 5 19 6 20 2 21 1 22 81 23
REMARK SMILES IDX 82 24 86 25 83 26 85 27 87 28 84 29 18 30 19 31 20 32 21 33
REMARK SMILES IDX 22 34 23 36 24 37 25 38 77 39 26 40 76 41 27 42 28 43 29 44
REMARK SMILES IDX 70 45 30 46 75 47 69 48 71 49 31 50 74 51 68 52 67 53 32 55
REMARK SMILES IDX 58 56 41 57 57 58 42 59 45 60 56 61 72 62 43 63 44 64 55 66
REMARK SMILES IDX 73 67 46 68 33 69 34 70 39 71 35 72 36 73 38 74 40 75 37 76
REMARK SMILES IDX 59 77 60 78 65 79 61 80 62 81 64 82 66 83 63 84 47 85 48 86
REMARK SMILES IDX 53 87 49 88 50 89 52 90 54 91 51 92
REMARK H PARENT 14 7 21 35 71 54 45 65
REMARK Flexibility Score: inf
ROOT
ATOM      1  C   UNL A   1      34.323  32.612  28.920  1.00  0.00     0.002 C 
ENDROOT
BRANCH   1   2
ATOM      2  C   UNL A   1      34.493  31.746  27.671  1.00  0.00     0.021 C 
BRANCH   2   3
ATOM      3  C   UNL A   1      33.503  30.588  27.555  1.00  0.00     0.116 C 
BRANCH   3   4
ATOM      4  N   UNL A   1      34.175  29.352  27.182  1.00  0.00    -0.354 N 
ATOM      5  C   UNL A   1      33.827  28.425  26.238  1.00  0.00     0.243 C 
ATOM      6  O   UNL A   1      34.426  27.346  26.238  1.00  0.00    -0.273 OA
ATOM      7  H   UNL A   1      34.999  29.154  27.682  1.00  0.00     0.163 HD
BRANCH   5   8
ATOM      8  C   UNL A   1      32.669  28.722  25.264  1.00  0.00     0.186 C 
ATOM      9  N   UNL A   1      31.843  27.527  25.017  1.00  0.00    -0.310 N 
ATOM     10  C   UNL A   1      31.404  27.348  23.648  1.00  0.00     0.176 C 
ATOM     11  C   UNL A   1      33.268  29.190  23.925  1.00  0.00     0.107 C 
ATOM     12  S   UNL A   1      32.895  27.891  22.720  1.00  0.00    -0.129 SA
BRANCH   9  13
ATOM     13  C   UNL A   1      31.350  26.767  26.058  1.00  0.00     0.255 C 
ATOM     14  O   UNL A   1      30.947  27.263  27.106  1.00  0.00    -0.269 OA
BRANCH  13  15
ATOM     15  C   UNL A   1      31.493  25.276  25.976  1.00  0.00     0.043 A 
ATOM     16  C   UNL A   1      32.801  23.240  25.725  1.00  0.00     0.119 A 
ATOM     17  C   UNL A   1      31.673  22.483  26.049  1.00  0.00     0.046 A 
ATOM     18  C   UNL A   1      32.715  24.637  25.708  1.00  0.00     0.060 A 
ATOM     19  C   UNL A   1      30.465  23.105  26.351  1.00  0.00     0.005 A 
ATOM     20  C   UNL A   1      30.373  24.496  26.308  1.00  0.00     0.014 A 
BRANCH  16  21
ATOM     21  O   UNL A   1      33.919  22.498  25.457  1.00  0.00    -0.497 OA
ATOM     22  C   UNL A   1      33.798  21.084  25.553  1.00  0.00     0.278 C 
ENDBRANCH  16  21
ENDBRANCH  13  15
ENDBRANCH   9  13
BRANCH  10  23
ATOM     23  C   UNL A   1      30.172  28.103  23.121  1.00  0.00     0.003 A 
ATOM     24  C   UNL A   1      30.468  29.255  22.339  1.00  0.00     0.008 A 
ATOM     25  C   UNL A   1      28.803  27.836  23.319  1.00  0.00     0.047 A 
ATOM     26  C   UNL A   1      29.481  30.115  21.848  1.00  0.00     0.001 A 
ATOM     27  C   UNL A   1      27.814  28.705  22.816  1.00  0.00     0.021 A 
ATOM     28  Cl  UNL A   1      28.142  26.488  24.158  1.00  0.00    -0.084 Cl
ATOM     29  C   UNL A   1      28.147  29.845  22.096  1.00  0.00     0.002 A 
ENDBRANCH  10  23
ENDBRANCH   5   8
ENDBRANCH   3   4
ENDBRANCH   2   3
ENDBRANCH   1   2
BRANCH   1  30
ATOM     30  C   UNL A   1      34.389  34.121  28.685  1.00  0.00     0.002 C 
BRANCH  30  31
ATOM     31  C   UNL A   1      33.075  34.882  28.886  1.00  0.00     0.021 C 
BRANCH  31  32
ATOM     32  C   UNL A   1      33.204  36.261  29.528  1.00  0.00     0.116 C 
BRANCH  32  33
ATOM     33  N   UNL A   1      32.463  36.372  30.774  1.00  0.00    -0.352 N 
ATOM     34  C   UNL A   1      32.676  35.755  31.981  1.00  0.00     0.251 C 
ATOM     35  H   UNL A   1      31.692  36.982  30.748  1.00  0.00     0.163 HD
ATOM     36  O   UNL A   1      31.853  35.867  32.887  1.00  0.00    -0.269 OA
BRANCH  34  37
ATOM     37  C   UNL A   1      33.881  34.926  32.188  1.00  0.00     0.039 A 
ATOM     38  C   UNL A   1      35.137  35.532  32.087  1.00  0.00     0.014 A 
ATOM     39  C   UNL A   1      33.779  33.562  32.477  1.00  0.00     0.014 A 
ATOM     40  C   UNL A   1      36.288  34.789  32.352  1.00  0.00     0.010 A 
ATOM     41  C   UNL A   1      34.923  32.835  32.795  1.00  0.00     0.010 A 
ATOM     42  C   UNL A   1      36.186  33.445  32.746  1.00  0.00    -0.014 A 
BRANCH  42  43
ATOM     43  C   UNL A   1      37.385  32.671  33.149  1.00  0.00     0.031 A 
ATOM     44  C   UNL A   1      38.099  32.987  34.431  1.00  0.00     0.074 A 
ATOM     45  C   UNL A   1      37.877  31.733  32.318  1.00  0.00     0.049 A 
ATOM     46  N   UNL A   1      39.209  32.481  34.904  1.00  0.00    -0.248 NA
ATOM     47  C   UNL A   1      37.497  34.024  35.283  1.00  0.00     0.031 C 
ATOM     48  C   UNL A   1      37.294  31.359  31.027  1.00  0.00     0.029 A 
ATOM     49  N   UNL A   1      38.986  30.935  32.427  1.00  0.00    -0.354 N 
ATOM     50  C   UNL A   1      39.447  33.145  36.099  1.00  0.00     0.074 A 
ATOM     51  C   UNL A   1      38.386  34.117  36.261  1.00  0.00     0.031 C 
ATOM     52  C   UNL A   1      38.044  30.392  30.473  1.00  0.00     0.029 A 
ATOM     53  C   UNL A   1      39.176  30.107  31.349  1.00  0.00     0.049 A 
ATOM     54  H   UNL A   1      39.589  30.952  33.205  1.00  0.00     0.167 HD
ATOM     55  C   UNL A   1      40.450  32.951  36.989  1.00  0.00     0.037 A 
ATOM     56  C   UNL A   1      40.159  29.227  31.087  1.00  0.00     0.037 A 
ATOM     57  C   UNL A   1      41.491  31.968  36.840  1.00  0.00     0.049 A 
ATOM     58  C   UNL A   1      41.277  29.052  32.072  1.00  0.00     0.074 A 
ATOM     59  C   UNL A   1      42.499  31.636  37.727  1.00  0.00     0.029 A 
ATOM     60  N   UNL A   1      41.662  31.166  35.721  1.00  0.00    -0.354 N 
ATOM     61  N   UNL A   1      41.457  29.642  33.229  1.00  0.00    -0.248 NA
ATOM     62  C   UNL A   1      42.336  28.098  31.711  1.00  0.00     0.031 C 
ATOM     63  C   UNL A   1      43.305  30.660  37.130  1.00  0.00     0.029 A 
ATOM     64  C   UNL A   1      42.779  30.361  35.884  1.00  0.00     0.049 A 
ATOM     65  H   UNL A   1      41.077  31.167  34.930  1.00  0.00     0.167 HD
ATOM     66  C   UNL A   1      42.640  29.126  33.738  1.00  0.00     0.074 A 
ATOM     67  C   UNL A   1      43.129  28.164  32.772  1.00  0.00     0.031 C 
ATOM     68  C   UNL A   1      43.263  29.423  34.904  1.00  0.00     0.037 A 
BRANCH  55  69
ATOM     69  C   UNL A   1      40.465  33.827  38.205  1.00  0.00     0.057 A 
ATOM     70  C   UNL A   1      39.707  33.522  39.342  1.00  0.00     0.134 A 
ATOM     71  C   UNL A   1      41.259  34.980  38.245  1.00  0.00     0.134 A 
ATOM     72  F   UNL A   1      38.918  32.437  39.362  1.00  0.00    -0.206 F 
ATOM     73  C   UNL A   1      39.716  34.348  40.468  1.00  0.00     0.040 A 
ATOM     74  C   UNL A   1      41.293  35.802  39.373  1.00  0.00     0.040 A 
ATOM     75  F   UNL A   1      42.011  35.326  37.190  1.00  0.00    -0.206 F 
ATOM     76  C   UNL A   1      40.515  35.490  40.486  1.00  0.00     0.006 A 
ENDBRANCH  55  69
BRANCH  56  77
ATOM     77  C   UNL A   1      40.120  28.433  29.836  1.00  0.00     0.057 A 
ATOM     78  C   UNL A   1      39.376  27.250  29.762  1.00  0.00     0.134 A 
ATOM     79  C   UNL A   1      40.803  28.843  28.685  1.00  0.00     0.134 A 
ATOM     80  F   UNL A   1      38.717  26.800  30.839  1.00  0.00    -0.206 F 
ATOM     81  C   UNL A   1      39.315  26.499  28.589  1.00  0.00     0.040 A 
ATOM     82  C   UNL A   1      40.738  28.110  27.499  1.00  0.00     0.040 A 
ATOM     83  F   UNL A   1      41.529  29.971  28.694  1.00  0.00    -0.206 F 
ATOM     84  C   UNL A   1      39.993  26.933  27.450  1.00  0.00     0.006 A 
ENDBRANCH  56  77
BRANCH  68  85
ATOM     85  C   UNL A   1      44.543  28.699  35.194  1.00  0.00     0.057 A 
ATOM     86  C   UNL A   1      45.784  29.240  34.837  1.00  0.00     0.134 A 
ATOM     87  C   UNL A   1      44.537  27.470  35.863  1.00  0.00     0.134 A 
ATOM     88  F   UNL A   1      45.854  30.408  34.179  1.00  0.00    -0.206 F 
ATOM     89  C   UNL A   1      46.977  28.573  35.123  1.00  0.00     0.040 A 
ATOM     90  C   UNL A   1      45.723  26.804  36.171  1.00  0.00     0.040 A 
ATOM     91  F   UNL A   1      43.380  26.902  36.235  1.00  0.00    -0.206 F 
ATOM     92  C   UNL A   1      46.948  27.354  35.798  1.00  0.00     0.006 A 
ENDBRANCH  68  85
ENDBRANCH  42  43
ENDBRANCH  34  37
ENDBRANCH  32  33
ENDBRANCH  31  32
ENDBRANCH  30  31
ENDBRANCH   1  30
TORSDOF 17
ENDMDL
