MODEL 1
REMARK VINA RESULT:     -11.5      0.000      0.000
REMARK SMILES Cc1n[nH]c(C(=O)Nc2cc(C(=O)NCCCCCCNC(=O)c3ccc(-c4c5nc(c(-c6c(F)cccc6F)c6ccc([nH]6)c(-c6c(F)cccc6F)c6nc(c(-c7c(F)cccc7F)c7ccc4[nH]7)C=C6)C=C5)cc3)[nH]n2)n1
REMARK SMILES IDX 17 1 16 2 15 3 14 4 12 5 13 6 11 8 9 9 10 10 79 11 78 12
REMARK SMILES IDX 8 14 6 15 7 16 5 18 1 19 2 20 3 21 80 22 4 23 18 25 19 26
REMARK SMILES IDX 20 27 21 28 22 29 23 31 24 32 25 33 77 34 26 35 76 36 27 37
REMARK SMILES IDX 28 38 29 39 70 40 30 41 75 42 69 43 71 44 31 45 74 46 68 47
REMARK SMILES IDX 67 48 32 50 58 51 41 52 57 53 42 54 45 55 56 56 72 57 43 58
REMARK SMILES IDX 44 59 55 61 73 62 46 63 33 64 34 65 39 66 35 67 36 68 38 69
REMARK SMILES IDX 40 70 37 71 59 72 60 73 65 74 61 75 62 76 64 77 66 78 63 79
REMARK SMILES IDX 47 80 48 81 53 82 49 83 50 84 52 85 54 86 51 87
REMARK H PARENT 14 7 78 13 8 17 4 24 21 30 71 49 45 60
REMARK Flexibility Score: inf
ROOT
ATOM      1  C   UNL A   1      40.568  20.268  26.730  1.00  0.00     0.002 C 
ENDROOT
BRANCH   1   2
ATOM      2  C   UNL A   1      40.325  21.661  26.136  1.00  0.00     0.021 C 
BRANCH   2   3
ATOM      3  C   UNL A   1      38.900  22.162  26.359  1.00  0.00     0.116 C 
BRANCH   3   4
ATOM      4  N   UNL A   1      38.319  22.632  25.115  1.00  0.00    -0.351 N 
ATOM      5  C   UNL A   1      37.023  22.882  24.742  1.00  0.00     0.269 C 
ATOM      6  O   UNL A   1      36.827  23.331  23.623  1.00  0.00    -0.268 OA
ATOM      7  H   UNL A   1      38.980  22.804  24.405  1.00  0.00     0.163 HD
BRANCH   5   8
ATOM      8  C   UNL A   1      35.942  22.712  25.678  1.00  0.00     0.125 A 
ATOM      9  C   UNL A   1      34.015  22.550  26.749  1.00  0.00     0.155 A 
ATOM     10  C   UNL A   1      34.842  23.451  26.051  1.00  0.00     0.082 A 
ATOM     11  N   UNL A   1      34.679  21.452  27.092  1.00  0.00    -0.157 NA
ATOM     12  N   UNL A   1      35.857  21.578  26.450  1.00  0.00    -0.271 N 
ATOM     13  H   UNL A   1      36.587  20.922  26.527  1.00  0.00     0.190 HD
BRANCH   9  14
ATOM     14  N   UNL A   1      32.681  22.683  27.017  1.00  0.00    -0.302 N 
ATOM     15  C   UNL A   1      31.627  22.539  26.132  1.00  0.00     0.294 C 
ATOM     16  O   UNL A   1      30.558  23.072  26.436  1.00  0.00    -0.265 OA
ATOM     17  H   UNL A   1      32.443  22.906  27.947  1.00  0.00     0.172 HD
BRANCH  15  18
ATOM     18  C   UNL A   1      31.772  21.659  24.972  1.00  0.00     0.214 A 
ATOM     19  C   UNL A   1      32.525  18.585  23.365  1.00  0.00     0.092 C 
ATOM     20  C   UNL A   1      32.163  19.968  23.742  1.00  0.00     0.148 A 
ATOM     21  N   UNL A   1      32.153  20.973  22.861  1.00  0.00    -0.159 NA
ATOM     22  N   UNL A   1      31.888  20.340  25.032  1.00  0.00    -0.207 NA
ATOM     23  N   UNL A   1      31.978  22.028  23.670  1.00  0.00    -0.255 N 
ATOM     24  H   UNL A   1      31.996  22.964  23.362  1.00  0.00     0.192 HD
ENDBRANCH  15  18
ENDBRANCH   9  14
ENDBRANCH   5   8
ENDBRANCH   3   4
ENDBRANCH   2   3
ENDBRANCH   1   2
BRANCH   1  25
ATOM     25  C   UNL A   1      42.045  19.878  26.906  1.00  0.00     0.002 C 
BRANCH  25  26
ATOM     26  C   UNL A   1      42.500  18.609  26.170  1.00  0.00     0.021 C 
BRANCH  26  27
ATOM     27  C   UNL A   1      44.011  18.437  26.131  1.00  0.00     0.116 C 
BRANCH  27  28
ATOM     28  N   UNL A   1      44.534  18.517  24.769  1.00  0.00    -0.352 N 
ATOM     29  C   UNL A   1      44.635  19.617  23.948  1.00  0.00     0.251 C 
ATOM     30  H   UNL A   1      44.856  17.669  24.387  1.00  0.00     0.163 HD
ATOM     31  O   UNL A   1      44.725  19.482  22.733  1.00  0.00    -0.269 OA
BRANCH  29  32
ATOM     32  C   UNL A   1      44.642  20.965  24.544  1.00  0.00     0.039 A 
ATOM     33  C   UNL A   1      43.633  21.883  24.241  1.00  0.00     0.014 A 
ATOM     34  C   UNL A   1      45.680  21.309  25.408  1.00  0.00     0.014 A 
ATOM     35  C   UNL A   1      43.638  23.121  24.875  1.00  0.00     0.010 A 
ATOM     36  C   UNL A   1      45.615  22.475  26.131  1.00  0.00     0.010 A 
ATOM     37  C   UNL A   1      44.621  23.401  25.839  1.00  0.00    -0.014 A 
BRANCH  37  38
ATOM     38  C   UNL A   1      44.513  24.586  26.683  1.00  0.00     0.031 A 
ATOM     39  C   UNL A   1      45.617  25.558  26.476  1.00  0.00     0.074 A 
ATOM     40  C   UNL A   1      43.420  24.884  27.419  1.00  0.00     0.049 A 
ATOM     41  N   UNL A   1      46.551  25.854  27.314  1.00  0.00    -0.248 NA
ATOM     42  C   UNL A   1      45.814  26.141  25.137  1.00  0.00     0.031 C 
ATOM     43  C   UNL A   1      42.157  24.144  27.498  1.00  0.00     0.029 A 
ATOM     44  N   UNL A   1      43.163  25.984  28.180  1.00  0.00    -0.354 N 
ATOM     45  C   UNL A   1      47.310  26.847  26.703  1.00  0.00     0.074 A 
ATOM     46  C   UNL A   1      46.951  26.820  25.310  1.00  0.00     0.031 C 
ATOM     47  C   UNL A   1      41.208  24.924  28.060  1.00  0.00     0.029 A 
ATOM     48  C   UNL A   1      41.820  26.161  28.513  1.00  0.00     0.049 A 
ATOM     49  H   UNL A   1      43.868  26.605  28.474  1.00  0.00     0.167 HD
ATOM     50  C   UNL A   1      47.934  27.791  27.460  1.00  0.00     0.037 A 
ATOM     51  C   UNL A   1      41.254  27.252  29.092  1.00  0.00     0.037 A 
ATOM     52  C   UNL A   1      48.020  27.365  28.840  1.00  0.00     0.049 A 
ATOM     53  C   UNL A   1      42.347  28.006  29.756  1.00  0.00     0.074 A 
ATOM     54  C   UNL A   1      48.517  26.247  29.484  1.00  0.00     0.029 A 
ATOM     55  N   UNL A   1      47.176  27.967  29.743  1.00  0.00    -0.354 N 
ATOM     56  N   UNL A   1      42.968  27.584  30.820  1.00  0.00    -0.248 NA
ATOM     57  C   UNL A   1      43.061  28.999  28.967  1.00  0.00     0.031 C 
ATOM     58  C   UNL A   1      47.575  25.969  30.519  1.00  0.00     0.029 A 
ATOM     59  C   UNL A   1      46.615  26.980  30.510  1.00  0.00     0.049 A 
ATOM     60  H   UNL A   1      47.006  28.933  29.824  1.00  0.00     0.167 HD
ATOM     61  C   UNL A   1      44.301  27.869  30.573  1.00  0.00     0.074 A 
ATOM     62  C   UNL A   1      44.289  28.829  29.469  1.00  0.00     0.031 C 
ATOM     63  C   UNL A   1      45.290  27.070  31.071  1.00  0.00     0.037 A 
BRANCH  50  64
ATOM     64  C   UNL A   1      48.046  29.251  27.074  1.00  0.00     0.057 A 
ATOM     65  C   UNL A   1      49.277  29.905  27.279  1.00  0.00     0.134 A 
ATOM     66  C   UNL A   1      46.952  30.108  26.838  1.00  0.00     0.134 A 
ATOM     67  F   UNL A   1      50.399  29.205  27.506  1.00  0.00    -0.206 F 
ATOM     68  C   UNL A   1      49.383  31.297  27.372  1.00  0.00     0.040 A 
ATOM     69  C   UNL A   1      47.059  31.501  26.877  1.00  0.00     0.040 A 
ATOM     70  F   UNL A   1      45.704  29.663  26.661  1.00  0.00    -0.206 F 
ATOM     71  C   UNL A   1      48.266  32.100  27.187  1.00  0.00     0.006 A 
ENDBRANCH  50  64
BRANCH  51  72
ATOM     72  C   UNL A   1      39.893  27.827  28.937  1.00  0.00     0.057 A 
ATOM     73  C   UNL A   1      39.031  27.950  30.041  1.00  0.00     0.134 A 
ATOM     74  C   UNL A   1      39.507  28.530  27.785  1.00  0.00     0.134 A 
ATOM     75  F   UNL A   1      39.315  27.341  31.202  1.00  0.00    -0.206 F 
ATOM     76  C   UNL A   1      37.888  28.761  30.016  1.00  0.00     0.040 A 
ATOM     77  C   UNL A   1      38.362  29.337  27.742  1.00  0.00     0.040 A 
ATOM     78  F   UNL A   1      40.270  28.536  26.682  1.00  0.00    -0.206 F 
ATOM     79  C   UNL A   1      37.559  29.473  28.867  1.00  0.00     0.006 A 
ENDBRANCH  51  72
BRANCH  63  80
ATOM     80  C   UNL A   1      44.924  26.056  32.117  1.00  0.00     0.057 A 
ATOM     81  C   UNL A   1      44.526  24.737  31.845  1.00  0.00     0.134 A 
ATOM     82  C   UNL A   1      45.118  26.391  33.460  1.00  0.00     0.134 A 
ATOM     83  F   UNL A   1      44.410  24.287  30.590  1.00  0.00    -0.206 F 
ATOM     84  C   UNL A   1      44.285  23.815  32.868  1.00  0.00     0.040 A 
ATOM     85  C   UNL A   1      44.916  25.469  34.489  1.00  0.00     0.040 A 
ATOM     86  F   UNL A   1      45.552  27.617  33.795  1.00  0.00    -0.206 F 
ATOM     87  C   UNL A   1      44.485  24.179  34.196  1.00  0.00     0.006 A 
ENDBRANCH  63  80
ENDBRANCH  37  38
ENDBRANCH  29  32
ENDBRANCH  27  28
ENDBRANCH  26  27
ENDBRANCH  25  26
ENDBRANCH   1  25
TORSDOF 15
ENDMDL
MODEL 2
REMARK VINA RESULT:     -11.4      0.904      1.272
REMARK SMILES Cc1n[nH]c(C(=O)Nc2cc(C(=O)NCCCCCCNC(=O)c3ccc(-c4c5nc(c(-c6c(F)cccc6F)c6ccc([nH]6)c(-c6c(F)cccc6F)c6nc(c(-c7c(F)cccc7F)c7ccc4[nH]7)C=C6)C=C5)cc3)[nH]n2)n1
REMARK SMILES IDX 17 1 16 2 15 3 14 4 12 5 13 6 11 8 9 9 10 10 79 11 78 12
REMARK SMILES IDX 8 14 6 15 7 16 5 18 1 19 2 20 3 21 80 22 4 23 18 25 19 26
REMARK SMILES IDX 20 27 21 28 22 29 23 31 24 32 25 33 77 34 26 35 76 36 27 37
REMARK SMILES IDX 28 38 29 39 70 40 30 41 75 42 69 43 71 44 31 45 74 46 68 47
REMARK SMILES IDX 67 48 32 50 58 51 41 52 57 53 42 54 45 55 56 56 72 57 43 58
REMARK SMILES IDX 44 59 55 61 73 62 46 63 33 64 34 65 39 66 35 67 36 68 38 69
REMARK SMILES IDX 40 70 37 71 59 72 60 73 65 74 61 75 62 76 64 77 66 78 63 79
REMARK SMILES IDX 47 80 48 81 53 82 49 83 50 84 52 85 54 86 51 87
REMARK H PARENT 14 7 78 13 8 17 4 24 21 30 71 49 45 60
REMARK Flexibility Score: inf
ROOT
ATOM      1  C   UNL A   1      40.543  20.306  26.776  1.00  0.00     0.002 C 
ENDROOT
BRANCH   1   2
ATOM      2  C   UNL A   1      40.163  21.642  26.127  1.00  0.00     0.021 C 
BRANCH   2   3
ATOM      3  C   UNL A   1      38.666  21.933  26.197  1.00  0.00     0.116 C 
BRANCH   3   4
ATOM      4  N   UNL A   1      38.145  22.271  24.886  1.00  0.00    -0.351 N 
ATOM      5  C   UNL A   1      36.881  22.213  24.355  1.00  0.00     0.269 C 
ATOM      6  O   UNL A   1      36.721  22.620  23.214  1.00  0.00    -0.268 OA
ATOM      7  H   UNL A   1      38.828  22.604  24.258  1.00  0.00     0.163 HD
BRANCH   5   8
ATOM      8  C   UNL A   1      35.766  21.780  25.156  1.00  0.00     0.125 A 
ATOM      9  C   UNL A   1      33.888  21.539  26.298  1.00  0.00     0.155 A 
ATOM     10  C   UNL A   1      35.082  22.283  26.241  1.00  0.00     0.082 A 
ATOM     11  N   UNL A   1      33.966  20.443  25.552  1.00  0.00    -0.157 NA
ATOM     12  N   UNL A   1      35.125  20.595  24.881  1.00  0.00    -0.271 N 
ATOM     13  H   UNL A   1      35.479  19.923  24.254  1.00  0.00     0.190 HD
BRANCH   9  14
ATOM     14  N   UNL A   1      32.735  21.866  26.955  1.00  0.00    -0.302 N 
ATOM     15  C   UNL A   1      31.895  22.935  26.698  1.00  0.00     0.294 C 
ATOM     16  O   UNL A   1      31.149  23.299  27.609  1.00  0.00    -0.265 OA
ATOM     17  H   UNL A   1      32.472  21.273  27.697  1.00  0.00     0.172 HD
BRANCH  15  18
ATOM     18  C   UNL A   1      31.818  23.484  25.343  1.00  0.00     0.214 A 
ATOM     19  C   UNL A   1      31.016  25.973  22.943  1.00  0.00     0.092 C 
ATOM     20  C   UNL A   1      31.440  24.771  23.692  1.00  0.00     0.148 A 
ATOM     21  N   UNL A   1      31.633  23.588  23.101  1.00  0.00    -0.159 NA
ATOM     22  N   UNL A   1      31.592  24.758  25.054  1.00  0.00    -0.207 NA
ATOM     23  N   UNL A   1      31.795  22.787  24.164  1.00  0.00    -0.255 N 
ATOM     24  H   UNL A   1      31.887  21.808  24.105  1.00  0.00     0.192 HD
ENDBRANCH  15  18
ENDBRANCH   9  14
ENDBRANCH   5   8
ENDBRANCH   3   4
ENDBRANCH   2   3
ENDBRANCH   1   2
BRANCH   1  25
ATOM     25  C   UNL A   1      42.051  20.006  26.827  1.00  0.00     0.002 C 
BRANCH  25  26
ATOM     26  C   UNL A   1      42.498  18.685  26.182  1.00  0.00     0.021 C 
BRANCH  26  27
ATOM     27  C   UNL A   1      44.008  18.507  26.148  1.00  0.00     0.116 C 
BRANCH  27  28
ATOM     28  N   UNL A   1      44.536  18.593  24.788  1.00  0.00    -0.352 N 
ATOM     29  C   UNL A   1      44.641  19.697  23.973  1.00  0.00     0.251 C 
ATOM     30  H   UNL A   1      44.860  17.747  24.403  1.00  0.00     0.163 HD
ATOM     31  O   UNL A   1      44.735  19.568  22.758  1.00  0.00    -0.269 OA
BRANCH  29  32
ATOM     32  C   UNL A   1      44.647  21.042  24.576  1.00  0.00     0.039 A 
ATOM     33  C   UNL A   1      43.649  21.969  24.259  1.00  0.00     0.014 A 
ATOM     34  C   UNL A   1      45.672  21.375  25.459  1.00  0.00     0.014 A 
ATOM     35  C   UNL A   1      43.652  23.203  24.899  1.00  0.00     0.010 A 
ATOM     36  C   UNL A   1      45.601  22.537  26.187  1.00  0.00     0.010 A 
ATOM     37  C   UNL A   1      44.618  23.472  25.883  1.00  0.00    -0.014 A 
BRANCH  37  38
ATOM     38  C   UNL A   1      44.503  24.653  26.730  1.00  0.00     0.031 A 
ATOM     39  C   UNL A   1      45.582  25.649  26.501  1.00  0.00     0.074 A 
ATOM     40  C   UNL A   1      43.420  24.927  27.489  1.00  0.00     0.049 A 
ATOM     41  N   UNL A   1      46.527  25.964  27.320  1.00  0.00    -0.248 NA
ATOM     42  C   UNL A   1      45.739  26.237  25.159  1.00  0.00     0.031 C 
ATOM     43  C   UNL A   1      42.175  24.161  27.593  1.00  0.00     0.029 A 
ATOM     44  N   UNL A   1      43.156  26.021  28.257  1.00  0.00    -0.354 N 
ATOM     45  C   UNL A   1      47.252  26.972  26.695  1.00  0.00     0.074 A 
ATOM     46  C   UNL A   1      46.865  26.940  25.309  1.00  0.00     0.031 C 
ATOM     47  C   UNL A   1      41.221  24.921  28.176  1.00  0.00     0.029 A 
ATOM     48  C   UNL A   1      41.817  26.169  28.618  1.00  0.00     0.049 A 
ATOM     49  H   UNL A   1      43.854  26.656  28.537  1.00  0.00     0.167 HD
ATOM     50  C   UNL A   1      47.872  27.929  27.440  1.00  0.00     0.037 A 
ATOM     51  C   UNL A   1      41.241  27.248  29.211  1.00  0.00     0.037 A 
ATOM     52  C   UNL A   1      47.995  27.503  28.817  1.00  0.00     0.049 A 
ATOM     53  C   UNL A   1      42.331  28.024  29.852  1.00  0.00     0.074 A 
ATOM     54  C   UNL A   1      48.529  26.395  29.449  1.00  0.00     0.029 A 
ATOM     55  N   UNL A   1      47.159  28.087  29.738  1.00  0.00    -0.354 N 
ATOM     56  N   UNL A   1      42.983  27.614  30.903  1.00  0.00    -0.248 NA
ATOM     57  C   UNL A   1      43.008  29.033  29.051  1.00  0.00     0.031 C 
ATOM     58  C   UNL A   1      47.615  26.097  30.503  1.00  0.00     0.029 A 
ATOM     59  C   UNL A   1      46.635  27.087  30.515  1.00  0.00     0.049 A 
ATOM     60  H   UNL A   1      46.970  29.049  29.825  1.00  0.00     0.167 HD
ATOM     61  C   UNL A   1      44.304  27.927  30.628  1.00  0.00     0.074 A 
ATOM     62  C   UNL A   1      44.249  28.888  29.526  1.00  0.00     0.031 C 
ATOM     63  C   UNL A   1      45.320  27.149  31.104  1.00  0.00     0.037 A 
BRANCH  50  64
ATOM     64  C   UNL A   1      47.945  29.391  27.053  1.00  0.00     0.057 A 
ATOM     65  C   UNL A   1      49.165  30.071  27.237  1.00  0.00     0.134 A 
ATOM     66  C   UNL A   1      46.829  30.225  26.839  1.00  0.00     0.134 A 
ATOM     67  F   UNL A   1      50.306  29.396  27.441  1.00  0.00    -0.206 F 
ATOM     68  C   UNL A   1      49.243  31.466  27.329  1.00  0.00     0.040 A 
ATOM     69  C   UNL A   1      46.906  31.620  26.878  1.00  0.00     0.040 A 
ATOM     70  F   UNL A   1      45.588  29.753  26.685  1.00  0.00    -0.206 F 
ATOM     71  C   UNL A   1      48.106  32.244  27.166  1.00  0.00     0.006 A 
ENDBRANCH  50  64
BRANCH  51  72
ATOM     72  C   UNL A   1      39.865  27.794  29.085  1.00  0.00     0.057 A 
ATOM     73  C   UNL A   1      39.046  27.958  30.217  1.00  0.00     0.134 A 
ATOM     74  C   UNL A   1      39.419  28.434  27.917  1.00  0.00     0.134 A 
ATOM     75  F   UNL A   1      39.389  27.412  31.393  1.00  0.00    -0.206 F 
ATOM     76  C   UNL A   1      37.890  28.751  30.200  1.00  0.00     0.040 A 
ATOM     77  C   UNL A   1      38.261  29.220  27.883  1.00  0.00     0.040 A 
ATOM     78  F   UNL A   1      40.136  28.397  26.785  1.00  0.00    -0.206 F 
ATOM     79  C   UNL A   1      37.502  29.400  29.033  1.00  0.00     0.006 A 
ENDBRANCH  51  72
BRANCH  63  80
ATOM     80  C   UNL A   1      44.997  26.126  32.156  1.00  0.00     0.057 A 
ATOM     81  C   UNL A   1      44.552  24.821  31.891  1.00  0.00     0.134 A 
ATOM     82  C   UNL A   1      45.284  26.435  33.489  1.00  0.00     0.134 A 
ATOM     83  F   UNL A   1      44.347  24.395  30.639  1.00  0.00    -0.206 F 
ATOM     84  C   UNL A   1      44.355  23.888  32.913  1.00  0.00     0.040 A 
ATOM     85  C   UNL A   1      45.126  25.501  34.515  1.00  0.00     0.040 A 
ATOM     86  F   UNL A   1      45.767  27.645  33.814  1.00  0.00    -0.206 F 
ATOM     87  C   UNL A   1      44.647  24.226  34.231  1.00  0.00     0.006 A 
ENDBRANCH  63  80
ENDBRANCH  37  38
ENDBRANCH  29  32
ENDBRANCH  27  28
ENDBRANCH  26  27
ENDBRANCH  25  26
ENDBRANCH   1  25
TORSDOF 15
ENDMDL
MODEL 3
REMARK VINA RESULT:     -11.0      2.544      7.516
REMARK SMILES Cc1n[nH]c(C(=O)Nc2cc(C(=O)NCCCCCCNC(=O)c3ccc(-c4c5nc(c(-c6c(F)cccc6F)c6ccc([nH]6)c(-c6c(F)cccc6F)c6nc(c(-c7c(F)cccc7F)c7ccc4[nH]7)C=C6)C=C5)cc3)[nH]n2)n1
REMARK SMILES IDX 17 1 16 2 15 3 14 4 12 5 13 6 11 8 9 9 10 10 79 11 78 12
REMARK SMILES IDX 8 14 6 15 7 16 5 18 1 19 2 20 3 21 80 22 4 23 18 25 19 26
REMARK SMILES IDX 20 27 21 28 22 29 23 31 24 32 25 33 77 34 26 35 76 36 27 37
REMARK SMILES IDX 28 38 29 39 70 40 30 41 75 42 69 43 71 44 31 45 74 46 68 47
REMARK SMILES IDX 67 48 32 50 58 51 41 52 57 53 42 54 45 55 56 56 72 57 43 58
REMARK SMILES IDX 44 59 55 61 73 62 46 63 33 64 34 65 39 66 35 67 36 68 38 69
REMARK SMILES IDX 40 70 37 71 59 72 60 73 65 74 61 75 62 76 64 77 66 78 63 79
REMARK SMILES IDX 47 80 48 81 53 82 49 83 50 84 52 85 54 86 51 87
REMARK H PARENT 14 7 78 13 8 17 4 24 21 30 71 49 45 60
REMARK Flexibility Score: inf
ROOT
ATOM      1  C   UNL A   1      33.263  26.810  25.642  1.00  0.00     0.002 C 
ENDROOT
BRANCH   1   2
ATOM      2  C   UNL A   1      32.032  26.498  26.502  1.00  0.00     0.021 C 
BRANCH   2   3
ATOM      3  C   UNL A   1      30.927  25.790  25.723  1.00  0.00     0.116 C 
BRANCH   3   4
ATOM      4  N   UNL A   1      30.224  24.845  26.571  1.00  0.00    -0.351 N 
ATOM      5  C   UNL A   1      30.398  23.503  26.794  1.00  0.00     0.269 C 
ATOM      6  O   UNL A   1      29.677  22.963  27.619  1.00  0.00    -0.268 OA
ATOM      7  H   UNL A   1      29.482  25.243  27.082  1.00  0.00     0.163 HD
BRANCH   5   8
ATOM      8  C   UNL A   1      31.463  22.782  26.147  1.00  0.00     0.125 A 
ATOM      9  C   UNL A   1      33.020  21.359  25.485  1.00  0.00     0.155 A 
ATOM     10  C   UNL A   1      32.636  22.187  26.557  1.00  0.00     0.082 A 
ATOM     11  N   UNL A   1      32.358  21.666  24.375  1.00  0.00    -0.157 NA
ATOM     12  N   UNL A   1      31.430  22.549  24.793  1.00  0.00    -0.271 N 
ATOM     13  H   UNL A   1      30.790  22.987  24.187  1.00  0.00     0.190 HD
BRANCH   9  14
ATOM     14  N   UNL A   1      33.899  20.311  25.516  1.00  0.00    -0.302 N 
ATOM     15  C   UNL A   1      35.184  20.277  25.004  1.00  0.00     0.294 C 
ATOM     16  O   UNL A   1      35.668  19.168  24.768  1.00  0.00    -0.265 OA
ATOM     17  H   UNL A   1      33.582  19.488  25.954  1.00  0.00     0.172 HD
BRANCH  15  18
ATOM     18  C   UNL A   1      35.956  21.516  24.905  1.00  0.00     0.214 A 
ATOM     19  C   UNL A   1      38.146  24.026  26.132  1.00  0.00     0.092 C 
ATOM     20  C   UNL A   1      37.226  23.160  25.364  1.00  0.00     0.148 A 
ATOM     21  N   UNL A   1      36.574  23.589  24.279  1.00  0.00    -0.159 NA
ATOM     22  N   UNL A   1      36.911  21.882  25.748  1.00  0.00    -0.207 NA
ATOM     23  N   UNL A   1      35.734  22.568  24.057  1.00  0.00    -0.255 N 
ATOM     24  H   UNL A   1      35.035  22.573  23.362  1.00  0.00     0.192 HD
ENDBRANCH  15  18
ENDBRANCH   9  14
ENDBRANCH   5   8
ENDBRANCH   3   4
ENDBRANCH   2   3
ENDBRANCH   1   2
BRANCH   1  25
ATOM     25  C   UNL A   1      33.617  28.301  25.518  1.00  0.00     0.002 C 
BRANCH  25  26
ATOM     26  C   UNL A   1      33.808  29.061  26.839  1.00  0.00     0.021 C 
BRANCH  26  27
ATOM     27  C   UNL A   1      35.258  29.133  27.294  1.00  0.00     0.116 C 
BRANCH  27  28
ATOM     28  N   UNL A   1      35.401  29.875  28.545  1.00  0.00    -0.352 N 
ATOM     29  C   UNL A   1      36.383  29.769  29.503  1.00  0.00     0.251 C 
ATOM     30  H   UNL A   1      34.697  30.539  28.728  1.00  0.00     0.163 HD
ATOM     31  O   UNL A   1      36.182  30.155  30.649  1.00  0.00    -0.269 OA
BRANCH  29  32
ATOM     32  C   UNL A   1      37.689  29.192  29.136  1.00  0.00     0.039 A 
ATOM     33  C   UNL A   1      38.384  29.656  28.015  1.00  0.00     0.014 A 
ATOM     34  C   UNL A   1      38.213  28.167  29.923  1.00  0.00     0.014 A 
ATOM     35  C   UNL A   1      39.643  29.133  27.741  1.00  0.00     0.010 A 
ATOM     36  C   UNL A   1      39.506  27.746  29.731  1.00  0.00     0.010 A 
ATOM     37  C   UNL A   1      40.209  28.194  28.619  1.00  0.00    -0.014 A 
BRANCH  37  38
ATOM     38  C   UNL A   1      41.610  27.808  28.488  1.00  0.00     0.031 A 
ATOM     39  C   UNL A   1      41.804  26.543  27.733  1.00  0.00     0.074 A 
ATOM     40  C   UNL A   1      42.642  28.614  28.820  1.00  0.00     0.049 A 
ATOM     41  N   UNL A   1      42.222  25.419  28.207  1.00  0.00    -0.248 NA
ATOM     42  C   UNL A   1      41.321  26.459  26.344  1.00  0.00     0.031 C 
ATOM     43  C   UNL A   1      42.587  29.990  29.321  1.00  0.00     0.029 A 
ATOM     44  N   UNL A   1      43.981  28.409  28.676  1.00  0.00    -0.354 N 
ATOM     45  C   UNL A   1      42.295  24.552  27.122  1.00  0.00     0.074 A 
ATOM     46  C   UNL A   1      41.532  25.169  26.069  1.00  0.00     0.031 C 
ATOM     47  C   UNL A   1      43.805  30.563  29.212  1.00  0.00     0.029 A 
ATOM     48  C   UNL A   1      44.760  29.561  28.773  1.00  0.00     0.049 A 
ATOM     49  H   UNL A   1      44.369  27.518  28.518  1.00  0.00     0.167 HD
ATOM     50  C   UNL A   1      43.227  23.560  27.103  1.00  0.00     0.037 A 
ATOM     51  C   UNL A   1      46.083  29.684  28.487  1.00  0.00     0.037 A 
ATOM     52  C   UNL A   1      43.752  23.327  28.431  1.00  0.00     0.049 A 
ATOM     53  C   UNL A   1      46.666  28.320  28.535  1.00  0.00     0.074 A 
ATOM     54  C   UNL A   1      43.192  23.038  29.662  1.00  0.00     0.029 A 
ATOM     55  N   UNL A   1      45.021  23.782  28.700  1.00  0.00    -0.354 N 
ATOM     56  N   UNL A   1      46.819  27.643  29.638  1.00  0.00    -0.248 NA
ATOM     57  C   UNL A   1      46.644  27.529  27.314  1.00  0.00     0.031 C 
ATOM     58  C   UNL A   1      43.950  23.800  30.600  1.00  0.00     0.029 A 
ATOM     59  C   UNL A   1      44.982  24.431  29.907  1.00  0.00     0.049 A 
ATOM     60  H   UNL A   1      45.814  23.664  28.130  1.00  0.00     0.167 HD
ATOM     61  C   UNL A   1      46.424  26.358  29.306  1.00  0.00     0.074 A 
ATOM     62  C   UNL A   1      46.425  26.322  27.843  1.00  0.00     0.031 C 
ATOM     63  C   UNL A   1      45.836  25.546  30.234  1.00  0.00     0.037 A 
BRANCH  50  64
ATOM     64  C   UNL A   1      43.987  23.131  25.865  1.00  0.00     0.057 A 
ATOM     65  C   UNL A   1      44.109  21.754  25.599  1.00  0.00     0.134 A 
ATOM     66  C   UNL A   1      44.865  23.957  25.133  1.00  0.00     0.134 A 
ATOM     67  F   UNL A   1      43.326  20.860  26.222  1.00  0.00    -0.206 F 
ATOM     68  C   UNL A   1      45.110  21.233  24.770  1.00  0.00     0.040 A 
ATOM     69  C   UNL A   1      45.833  23.449  24.263  1.00  0.00     0.040 A 
ATOM     70  F   UNL A   1      44.914  25.283  25.287  1.00  0.00    -0.206 F 
ATOM     71  C   UNL A   1      45.988  22.083  24.112  1.00  0.00     0.006 A 
ENDBRANCH  50  64
BRANCH  51  72
ATOM     72  C   UNL A   1      46.849  30.840  27.954  1.00  0.00     0.057 A 
ATOM     73  C   UNL A   1      46.383  31.565  26.842  1.00  0.00     0.134 A 
ATOM     74  C   UNL A   1      47.891  31.443  28.677  1.00  0.00     0.134 A 
ATOM     75  F   UNL A   1      45.373  31.096  26.094  1.00  0.00    -0.206 F 
ATOM     76  C   UNL A   1      46.885  32.830  26.505  1.00  0.00     0.040 A 
ATOM     77  C   UNL A   1      48.408  32.701  28.346  1.00  0.00     0.040 A 
ATOM     78  F   UNL A   1      48.388  30.878  29.786  1.00  0.00    -0.206 F 
ATOM     79  C   UNL A   1      47.891  33.411  27.270  1.00  0.00     0.006 A 
ENDBRANCH  51  72
BRANCH  63  80
ATOM     80  C   UNL A   1      45.886  25.964  31.676  1.00  0.00     0.057 A 
ATOM     81  C   UNL A   1      46.997  25.795  32.517  1.00  0.00     0.134 A 
ATOM     82  C   UNL A   1      44.811  26.693  32.192  1.00  0.00     0.134 A 
ATOM     83  F   UNL A   1      48.116  25.201  32.086  1.00  0.00    -0.206 F 
ATOM     84  C   UNL A   1      47.012  26.287  33.826  1.00  0.00     0.040 A 
ATOM     85  C   UNL A   1      44.827  27.221  33.484  1.00  0.00     0.040 A 
ATOM     86  F   UNL A   1      43.735  26.944  31.427  1.00  0.00    -0.206 F 
ATOM     87  C   UNL A   1      45.925  27.008  34.312  1.00  0.00     0.006 A 
ENDBRANCH  63  80
ENDBRANCH  37  38
ENDBRANCH  29  32
ENDBRANCH  27  28
ENDBRANCH  26  27
ENDBRANCH  25  26
ENDBRANCH   1  25
TORSDOF 15
ENDMDL
