MODEL 1
REMARK VINA RESULT:     -11.6      0.000      0.000
REMARK SMILES COC(=O)c1ccc(Cl)c(-c2ccc(F)cc2C(=O)NCCCCCCNC(=O)c2ccc(-c3c4nc(c(-c5c(F)cccc5F)c5ccc([nH]5)c(-c5c(F)cccc5F)c5nc(c(-c6c(F)cccc6F)c6ccc3[nH]6)C=C5)C=C4)cc2)c1
REMARK SMILES IDX 23 1 22 2 21 3 20 4 18 5 19 6 17 8 11 9 12 10 13 11 16 12
REMARK SMILES IDX 14 13 15 14 10 15 5 16 6 17 84 18 7 19 8 20 9 21 3 22 4 23
REMARK SMILES IDX 2 24 1 25 24 26 25 27 26 28 27 29 28 30 29 32 30 33 31 34
REMARK SMILES IDX 83 35 32 36 82 37 33 38 34 39 35 40 76 41 36 42 81 43 75 44
REMARK SMILES IDX 77 45 37 46 80 47 74 48 73 49 38 51 64 52 47 53 63 54 48 55
REMARK SMILES IDX 51 56 62 57 78 58 49 59 50 60 61 62 79 63 52 64 39 65 40 66
REMARK SMILES IDX 45 67 41 68 42 69 44 70 46 71 43 72 65 73 66 74 71 75 67 76
REMARK SMILES IDX 68 77 70 78 72 79 69 80 53 81 54 82 59 83 55 84 56 85 58 86
REMARK SMILES IDX 60 87 57 88
REMARK H PARENT 20 7 27 31 77 50 51 61
REMARK Flexibility Score: inf
ROOT
ATOM      1  C   UNL A   1      30.552  26.169  25.899  1.00  0.00     0.002 C 
ENDROOT
BRANCH   1   2
ATOM      2  C   UNL A   1      30.813  24.660  25.996  1.00  0.00     0.021 C 
BRANCH   2   3
ATOM      3  C   UNL A   1      32.261  24.184  26.052  1.00  0.00     0.116 C 
BRANCH   3   4
ATOM      4  N   UNL A   1      32.520  23.048  26.897  1.00  0.00    -0.352 N 
ATOM      5  C   UNL A   1      33.632  22.247  26.998  1.00  0.00     0.252 C 
ATOM      6  O   UNL A   1      33.635  21.395  27.887  1.00  0.00    -0.269 OA
ATOM      7  H   UNL A   1      31.780  22.804  27.500  1.00  0.00     0.163 HD
BRANCH   5   8
ATOM      8  C   UNL A   1      34.803  22.280  26.065  1.00  0.00     0.050 A 
ATOM      9  C   UNL A   1      34.971  21.552  24.859  1.00  0.00    -0.004 A 
ATOM     10  C   UNL A   1      36.100  21.855  24.053  1.00  0.00     0.012 A 
ATOM     11  C   UNL A   1      37.034  22.821  24.418  1.00  0.00     0.040 A 
ATOM     12  C   UNL A   1      35.753  23.266  26.409  1.00  0.00     0.053 A 
ATOM     13  C   UNL A   1      36.850  23.521  25.597  1.00  0.00     0.124 A 
ATOM     14  F   UNL A   1      37.730  24.467  25.944  1.00  0.00    -0.207 F 
BRANCH   9  15
ATOM     15  C   UNL A   1      34.039  20.532  24.340  1.00  0.00     0.002 A 
ATOM     16  C   UNL A   1      33.487  18.178  24.008  1.00  0.00     0.060 A 
ATOM     17  C   UNL A   1      32.352  18.525  23.268  1.00  0.00     0.017 A 
ATOM     18  C   UNL A   1      34.300  19.170  24.576  1.00  0.00     0.026 A 
ATOM     19  C   UNL A   1      32.050  19.869  23.061  1.00  0.00     0.022 A 
ATOM     20  C   UNL A   1      32.889  20.863  23.578  1.00  0.00     0.048 A 
ATOM     21  Cl  UNL A   1      32.505  22.497  23.142  1.00  0.00    -0.084 Cl
BRANCH  16  22
ATOM     22  C   UNL A   1      33.937  16.771  24.121  1.00  0.00     0.337 C 
ATOM     23  O   UNL A   1      34.256  16.078  23.182  1.00  0.00    -0.246 OA
BRANCH  22  24
ATOM     24  O   UNL A   1      33.769  16.387  25.413  1.00  0.00    -0.465 OA
ATOM     25  C   UNL A   1      32.590  15.616  25.650  1.00  0.00     0.282 C 
ENDBRANCH  22  24
ENDBRANCH  16  22
ENDBRANCH   9  15
ENDBRANCH   5   8
ENDBRANCH   3   4
ENDBRANCH   2   3
ENDBRANCH   1   2
BRANCH   1  26
ATOM     26  C   UNL A   1      31.742  27.135  25.904  1.00  0.00     0.002 C 
BRANCH  26  27
ATOM     27  C   UNL A   1      32.073  27.867  27.206  1.00  0.00     0.021 C 
BRANCH  27  28
ATOM     28  C   UNL A   1      33.479  28.431  27.360  1.00  0.00     0.116 C 
BRANCH  28  29
ATOM     29  N   UNL A   1      33.487  29.844  27.688  1.00  0.00    -0.352 N 
ATOM     30  C   UNL A   1      34.469  30.652  28.208  1.00  0.00     0.251 C 
ATOM     31  H   UNL A   1      32.637  30.306  27.507  1.00  0.00     0.163 HD
ATOM     32  O   UNL A   1      34.168  31.797  28.543  1.00  0.00    -0.269 OA
BRANCH  30  33
ATOM     33  C   UNL A   1      35.873  30.196  28.396  1.00  0.00     0.039 A 
ATOM     34  C   UNL A   1      36.236  29.687  29.651  1.00  0.00     0.014 A 
ATOM     35  C   UNL A   1      36.857  30.335  27.414  1.00  0.00     0.014 A 
ATOM     36  C   UNL A   1      37.555  29.291  29.906  1.00  0.00     0.010 A 
ATOM     37  C   UNL A   1      38.157  29.873  27.644  1.00  0.00     0.010 A 
ATOM     38  C   UNL A   1      38.525  29.358  28.896  1.00  0.00    -0.014 A 
BRANCH  38  39
ATOM     39  C   UNL A   1      39.927  28.923  29.145  1.00  0.00     0.031 A 
ATOM     40  C   UNL A   1      40.907  29.845  29.821  1.00  0.00     0.074 A 
ATOM     41  C   UNL A   1      40.341  27.710  28.727  1.00  0.00     0.049 A 
ATOM     42  N   UNL A   1      42.182  29.665  30.061  1.00  0.00    -0.248 NA
ATOM     43  C   UNL A   1      40.392  31.148  30.268  1.00  0.00     0.031 C 
ATOM     44  C   UNL A   1      39.509  26.725  28.037  1.00  0.00     0.029 A 
ATOM     45  N   UNL A   1      41.570  27.102  28.819  1.00  0.00    -0.354 N 
ATOM     46  C   UNL A   1      42.624  30.836  30.666  1.00  0.00     0.074 A 
ATOM     47  C   UNL A   1      41.490  31.733  30.722  1.00  0.00     0.031 C 
ATOM     48  C   UNL A   1      40.242  25.630  27.784  1.00  0.00     0.029 A 
ATOM     49  C   UNL A   1      41.605  25.846  28.263  1.00  0.00     0.049 A 
ATOM     50  H   UNL A   1      42.350  27.526  29.241  1.00  0.00     0.167 HD
ATOM     51  C   UNL A   1      43.855  31.131  31.147  1.00  0.00     0.037 A 
ATOM     52  C   UNL A   1      42.619  24.967  28.145  1.00  0.00     0.037 A 
ATOM     53  C   UNL A   1      44.975  30.227  31.133  1.00  0.00     0.049 A 
ATOM     54  C   UNL A   1      43.976  25.312  28.687  1.00  0.00     0.074 A 
ATOM     55  C   UNL A   1      46.239  30.417  31.665  1.00  0.00     0.029 A 
ATOM     56  N   UNL A   1      44.967  28.965  30.562  1.00  0.00    -0.354 N 
ATOM     57  N   UNL A   1      44.365  26.407  29.294  1.00  0.00    -0.248 NA
ATOM     58  C   UNL A   1      45.034  24.303  28.533  1.00  0.00     0.031 C 
ATOM     59  C   UNL A   1      47.009  29.284  31.381  1.00  0.00     0.029 A 
ATOM     60  C   UNL A   1      46.212  28.373  30.709  1.00  0.00     0.049 A 
ATOM     61  H   UNL A   1      44.193  28.550  30.119  1.00  0.00     0.167 HD
ATOM     62  C   UNL A   1      45.704  26.215  29.605  1.00  0.00     0.074 A 
ATOM     63  C   UNL A   1      46.060  24.892  29.132  1.00  0.00     0.031 C 
ATOM     64  C   UNL A   1      46.559  27.060  30.230  1.00  0.00     0.037 A 
BRANCH  51  65
ATOM     65  C   UNL A   1      44.061  32.493  31.742  1.00  0.00     0.057 A 
ATOM     66  C   UNL A   1      43.674  32.761  33.061  1.00  0.00     0.134 A 
ATOM     67  C   UNL A   1      44.588  33.554  30.994  1.00  0.00     0.134 A 
ATOM     68  F   UNL A   1      43.154  31.792  33.829  1.00  0.00    -0.206 F 
ATOM     69  C   UNL A   1      43.801  34.037  33.614  1.00  0.00     0.040 A 
ATOM     70  C   UNL A   1      44.743  34.827  31.544  1.00  0.00     0.040 A 
ATOM     71  F   UNL A   1      44.986  33.360  29.728  1.00  0.00    -0.206 F 
ATOM     72  C   UNL A   1      44.341  35.073  32.856  1.00  0.00     0.006 A 
ENDBRANCH  51  65
BRANCH  52  73
ATOM     73  C   UNL A   1      42.369  23.653  27.500  1.00  0.00     0.057 A 
ATOM     74  C   UNL A   1      42.075  22.513  28.257  1.00  0.00     0.134 A 
ATOM     75  C   UNL A   1      42.464  23.505  26.113  1.00  0.00     0.134 A 
ATOM     76  F   UNL A   1      41.977  22.592  29.592  1.00  0.00    -0.206 F 
ATOM     77  C   UNL A   1      41.904  21.265  27.656  1.00  0.00     0.040 A 
ATOM     78  C   UNL A   1      42.276  22.266  25.498  1.00  0.00     0.040 A 
ATOM     79  F   UNL A   1      42.725  24.568  25.338  1.00  0.00    -0.206 F 
ATOM     80  C   UNL A   1      42.004  21.140  26.272  1.00  0.00     0.006 A 
ENDBRANCH  52  73
BRANCH  64  81
ATOM     81  C   UNL A   1      47.965  26.590  30.452  1.00  0.00     0.057 A 
ATOM     82  C   UNL A   1      48.937  26.741  29.453  1.00  0.00     0.134 A 
ATOM     83  C   UNL A   1      48.338  25.917  31.621  1.00  0.00     0.134 A 
ATOM     84  F   UNL A   1      48.641  27.368  28.306  1.00  0.00    -0.206 F 
ATOM     85  C   UNL A   1      50.225  26.227  29.605  1.00  0.00     0.040 A 
ATOM     86  C   UNL A   1      49.629  25.416  31.794  1.00  0.00     0.040 A 
ATOM     87  F   UNL A   1      47.457  25.749  32.619  1.00  0.00    -0.206 F 
ATOM     88  C   UNL A   1      50.574  25.563  30.780  1.00  0.00     0.006 A 
ENDBRANCH  64  81
ENDBRANCH  38  39
ENDBRANCH  30  33
ENDBRANCH  28  29
ENDBRANCH  27  28
ENDBRANCH  26  27
ENDBRANCH   1  26
TORSDOF 16
ENDMDL
MODEL 2
REMARK VINA RESULT:     -11.6      3.746      5.690
REMARK SMILES COC(=O)c1ccc(Cl)c(-c2ccc(F)cc2C(=O)NCCCCCCNC(=O)c2ccc(-c3c4nc(c(-c5c(F)cccc5F)c5ccc([nH]5)c(-c5c(F)cccc5F)c5nc(c(-c6c(F)cccc6F)c6ccc3[nH]6)C=C5)C=C4)cc2)c1
REMARK SMILES IDX 23 1 22 2 21 3 20 4 18 5 19 6 17 8 11 9 12 10 13 11 16 12
REMARK SMILES IDX 14 13 15 14 10 15 5 16 6 17 84 18 7 19 8 20 9 21 3 22 4 23
REMARK SMILES IDX 2 24 1 25 24 26 25 27 26 28 27 29 28 30 29 32 30 33 31 34
REMARK SMILES IDX 83 35 32 36 82 37 33 38 34 39 35 40 76 41 36 42 81 43 75 44
REMARK SMILES IDX 77 45 37 46 80 47 74 48 73 49 38 51 64 52 47 53 63 54 48 55
REMARK SMILES IDX 51 56 62 57 78 58 49 59 50 60 61 62 79 63 52 64 39 65 40 66
REMARK SMILES IDX 45 67 41 68 42 69 44 70 46 71 43 72 65 73 66 74 71 75 67 76
REMARK SMILES IDX 68 77 70 78 72 79 69 80 53 81 54 82 59 83 55 84 56 85 58 86
REMARK SMILES IDX 60 87 57 88
REMARK H PARENT 20 7 27 31 77 50 51 61
REMARK Flexibility Score: inf
ROOT
ATOM      1  C   UNL A   1      33.296  30.076  27.075  1.00  0.00     0.002 C 
ENDROOT
BRANCH   1   2
ATOM      2  C   UNL A   1      33.719  28.614  27.272  1.00  0.00     0.021 C 
BRANCH   2   3
ATOM      3  C   UNL A   1      33.307  27.598  26.212  1.00  0.00     0.116 C 
BRANCH   3   4
ATOM      4  N   UNL A   1      33.844  27.808  24.892  1.00  0.00    -0.352 N 
ATOM      5  C   UNL A   1      33.209  28.089  23.707  1.00  0.00     0.252 C 
ATOM      6  O   UNL A   1      33.920  28.329  22.729  1.00  0.00    -0.269 OA
ATOM      7  H   UNL A   1      34.824  27.738  24.830  1.00  0.00     0.163 HD
BRANCH   5   8
ATOM      8  C   UNL A   1      31.728  28.049  23.493  1.00  0.00     0.050 A 
ATOM      9  C   UNL A   1      30.876  26.915  23.532  1.00  0.00    -0.004 A 
ATOM     10  C   UNL A   1      29.476  27.134  23.451  1.00  0.00     0.012 A 
ATOM     11  C   UNL A   1      28.931  28.409  23.324  1.00  0.00     0.040 A 
ATOM     12  C   UNL A   1      31.153  29.334  23.381  1.00  0.00     0.053 A 
ATOM     13  C   UNL A   1      29.778  29.501  23.292  1.00  0.00     0.124 A 
ATOM     14  F   UNL A   1      29.262  30.732  23.194  1.00  0.00    -0.207 F 
BRANCH   9  15
ATOM     15  C   UNL A   1      31.321  25.518  23.699  1.00  0.00     0.002 A 
ATOM     16  C   UNL A   1      31.604  23.571  25.143  1.00  0.00     0.060 A 
ATOM     17  C   UNL A   1      32.258  22.879  24.120  1.00  0.00     0.017 A 
ATOM     18  C   UNL A   1      31.100  24.862  24.924  1.00  0.00     0.026 A 
ATOM     19  C   UNL A   1      32.446  23.493  22.884  1.00  0.00     0.022 A 
ATOM     20  C   UNL A   1      31.996  24.802  22.678  1.00  0.00     0.048 A 
ATOM     21  Cl  UNL A   1      32.408  25.526  21.157  1.00  0.00    -0.084 Cl
BRANCH  16  22
ATOM     22  C   UNL A   1      31.519  23.023  26.517  1.00  0.00     0.337 C 
ATOM     23  O   UNL A   1      30.792  23.455  27.382  1.00  0.00    -0.246 OA
BRANCH  22  24
ATOM     24  O   UNL A   1      32.495  22.088  26.649  1.00  0.00    -0.465 OA
ATOM     25  C   UNL A   1      33.351  22.285  27.776  1.00  0.00     0.282 C 
ENDBRANCH  22  24
ENDBRANCH  16  22
ENDBRANCH   9  15
ENDBRANCH   5   8
ENDBRANCH   3   4
ENDBRANCH   2   3
ENDBRANCH   1   2
BRANCH   1  26
ATOM     26  C   UNL A   1      31.806  30.408  26.926  1.00  0.00     0.002 C 
BRANCH  26  27
ATOM     27  C   UNL A   1      31.390  31.879  26.937  1.00  0.00     0.021 C 
BRANCH  27  28
ATOM     28  C   UNL A   1      32.450  32.916  26.590  1.00  0.00     0.116 C 
BRANCH  28  29
ATOM     29  N   UNL A   1      32.348  34.117  27.395  1.00  0.00    -0.352 N 
ATOM     30  C   UNL A   1      33.047  34.532  28.504  1.00  0.00     0.251 C 
ATOM     31  H   UNL A   1      31.655  34.749  27.095  1.00  0.00     0.163 HD
ATOM     32  O   UNL A   1      32.657  35.535  29.100  1.00  0.00    -0.269 OA
BRANCH  30  33
ATOM     33  C   UNL A   1      34.242  33.812  29.018  1.00  0.00     0.039 A 
ATOM     34  C   UNL A   1      34.033  32.684  29.825  1.00  0.00     0.014 A 
ATOM     35  C   UNL A   1      35.549  34.259  28.811  1.00  0.00     0.014 A 
ATOM     36  C   UNL A   1      35.117  31.995  30.383  1.00  0.00     0.010 A 
ATOM     37  C   UNL A   1      36.635  33.530  29.308  1.00  0.00     0.010 A 
ATOM     38  C   UNL A   1      36.432  32.397  30.111  1.00  0.00    -0.014 A 
BRANCH  38  39
ATOM     39  C   UNL A   1      37.596  31.664  30.680  1.00  0.00     0.031 A 
ATOM     40  C   UNL A   1      38.058  31.935  32.087  1.00  0.00     0.074 A 
ATOM     41  C   UNL A   1      38.271  30.777  29.922  1.00  0.00     0.049 A 
ATOM     42  N   UNL A   1      39.090  31.445  32.729  1.00  0.00    -0.248 NA
ATOM     43  C   UNL A   1      37.271  32.900  32.870  1.00  0.00     0.031 C 
ATOM     44  C   UNL A   1      37.951  30.434  28.537  1.00  0.00     0.029 A 
ATOM     45  N   UNL A   1      39.371  30.007  30.211  1.00  0.00    -0.354 N 
ATOM     46  C   UNL A   1      39.087  32.055  33.977  1.00  0.00     0.074 A 
ATOM     47  C   UNL A   1      37.974  32.980  33.990  1.00  0.00     0.031 C 
ATOM     48  C   UNL A   1      38.820  29.509  28.101  1.00  0.00     0.029 A 
ATOM     49  C   UNL A   1      39.781  29.218  29.163  1.00  0.00     0.049 A 
ATOM     50  H   UNL A   1      39.824  30.019  31.084  1.00  0.00     0.167 HD
ATOM     51  C   UNL A   1      39.922  31.852  35.024  1.00  0.00     0.037 A 
ATOM     52  C   UNL A   1      40.815  28.360  29.062  1.00  0.00     0.037 A 
ATOM     53  C   UNL A   1      41.004  30.902  35.033  1.00  0.00     0.049 A 
ATOM     54  C   UNL A   1      41.727  28.147  30.235  1.00  0.00     0.074 A 
ATOM     55  C   UNL A   1      41.854  30.579  36.076  1.00  0.00     0.029 A 
ATOM     56  N   UNL A   1      41.382  30.123  33.951  1.00  0.00    -0.354 N 
ATOM     57  N   UNL A   1      41.684  28.701  31.422  1.00  0.00    -0.248 NA
ATOM     58  C   UNL A   1      42.829  27.190  30.059  1.00  0.00     0.031 C 
ATOM     59  C   UNL A   1      42.774  29.631  35.614  1.00  0.00     0.029 A 
ATOM     60  C   UNL A   1      42.469  29.336  34.296  1.00  0.00     0.049 A 
ATOM     61  H   UNL A   1      40.944  30.128  33.071  1.00  0.00     0.167 HD
ATOM     62  C   UNL A   1      42.741  28.152  32.137  1.00  0.00     0.074 A 
ATOM     63  C   UNL A   1      43.401  27.211  31.256  1.00  0.00     0.031 C 
ATOM     64  C   UNL A   1      43.124  28.406  33.412  1.00  0.00     0.037 A 
BRANCH  51  65
ATOM     65  C   UNL A   1      39.697  32.669  36.262  1.00  0.00     0.057 A 
ATOM     66  C   UNL A   1      38.732  32.287  37.204  1.00  0.00     0.134 A 
ATOM     67  C   UNL A   1      40.391  33.863  36.496  1.00  0.00     0.134 A 
ATOM     68  F   UNL A   1      38.025  31.160  37.036  1.00  0.00    -0.206 F 
ATOM     69  C   UNL A   1      38.465  33.065  38.331  1.00  0.00     0.040 A 
ATOM     70  C   UNL A   1      40.150  34.636  37.632  1.00  0.00     0.040 A 
ATOM     71  F   UNL A   1      41.334  34.279  35.637  1.00  0.00    -0.206 F 
ATOM     72  C   UNL A   1      39.178  34.242  38.550  1.00  0.00     0.006 A 
ENDBRANCH  51  65
BRANCH  52  73
ATOM     73  C   UNL A   1      41.019  27.616  27.794  1.00  0.00     0.057 A 
ATOM     74  C   UNL A   1      40.478  26.339  27.601  1.00  0.00     0.134 A 
ATOM     75  C   UNL A   1      41.799  28.153  26.764  1.00  0.00     0.134 A 
ATOM     76  F   UNL A   1      39.727  25.770  28.555  1.00  0.00    -0.206 F 
ATOM     77  C   UNL A   1      40.724  25.613  26.435  1.00  0.00     0.040 A 
ATOM     78  C   UNL A   1      42.037  27.445  25.585  1.00  0.00     0.040 A 
ATOM     79  F   UNL A   1      42.326  29.379  26.888  1.00  0.00    -0.206 F 
ATOM     80  C   UNL A   1      41.506  26.166  25.423  1.00  0.00     0.006 A 
ENDBRANCH  52  73
BRANCH  64  81
ATOM     81  C   UNL A   1      44.308  27.656  33.945  1.00  0.00     0.057 A 
ATOM     82  C   UNL A   1      44.143  26.422  34.587  1.00  0.00     0.134 A 
ATOM     83  C   UNL A   1      45.600  28.192  33.893  1.00  0.00     0.134 A 
ATOM     84  F   UNL A   1      42.929  25.860  34.679  1.00  0.00    -0.206 F 
ATOM     85  C   UNL A   1      45.220  25.754  35.172  1.00  0.00     0.040 A 
ATOM     86  C   UNL A   1      46.689  27.524  34.455  1.00  0.00     0.040 A 
ATOM     87  F   UNL A   1      45.825  29.366  33.282  1.00  0.00    -0.206 F 
ATOM     88  C   UNL A   1      46.498  26.306  35.105  1.00  0.00     0.006 A 
ENDBRANCH  64  81
ENDBRANCH  38  39
ENDBRANCH  30  33
ENDBRANCH  28  29
ENDBRANCH  27  28
ENDBRANCH  26  27
ENDBRANCH   1  26
TORSDOF 16
ENDMDL
MODEL 3
REMARK VINA RESULT:     -11.5      2.083      3.309
REMARK SMILES COC(=O)c1ccc(Cl)c(-c2ccc(F)cc2C(=O)NCCCCCCNC(=O)c2ccc(-c3c4nc(c(-c5c(F)cccc5F)c5ccc([nH]5)c(-c5c(F)cccc5F)c5nc(c(-c6c(F)cccc6F)c6ccc3[nH]6)C=C5)C=C4)cc2)c1
REMARK SMILES IDX 23 1 22 2 21 3 20 4 18 5 19 6 17 8 11 9 12 10 13 11 16 12
REMARK SMILES IDX 14 13 15 14 10 15 5 16 6 17 84 18 7 19 8 20 9 21 3 22 4 23
REMARK SMILES IDX 2 24 1 25 24 26 25 27 26 28 27 29 28 30 29 32 30 33 31 34
REMARK SMILES IDX 83 35 32 36 82 37 33 38 34 39 35 40 76 41 36 42 81 43 75 44
REMARK SMILES IDX 77 45 37 46 80 47 74 48 73 49 38 51 64 52 47 53 63 54 48 55
REMARK SMILES IDX 51 56 62 57 78 58 49 59 50 60 61 62 79 63 52 64 39 65 40 66
REMARK SMILES IDX 45 67 41 68 42 69 44 70 46 71 43 72 65 73 66 74 71 75 67 76
REMARK SMILES IDX 68 77 70 78 72 79 69 80 53 81 54 82 59 83 55 84 56 85 58 86
REMARK SMILES IDX 60 87 57 88
REMARK H PARENT 20 7 27 31 77 50 51 61
REMARK Flexibility Score: inf
ROOT
ATOM      1  C   UNL A   1      32.401  25.903  26.489  1.00  0.00     0.002 C 
ENDROOT
BRANCH   1   2
ATOM      2  C   UNL A   1      33.685  25.473  25.768  1.00  0.00     0.021 C 
BRANCH   2   3
ATOM      3  C   UNL A   1      34.313  24.138  26.154  1.00  0.00     0.116 C 
BRANCH   3   4
ATOM      4  N   UNL A   1      35.410  23.695  25.334  1.00  0.00    -0.352 N 
ATOM      5  C   UNL A   1      35.523  22.600  24.514  1.00  0.00     0.252 C 
ATOM      6  O   UNL A   1      36.547  22.508  23.833  1.00  0.00    -0.269 OA
ATOM      7  H   UNL A   1      36.209  24.270  25.368  1.00  0.00     0.163 HD
BRANCH   5   8
ATOM      8  C   UNL A   1      34.539  21.474  24.440  1.00  0.00     0.050 A 
ATOM      9  C   UNL A   1      33.198  21.524  23.979  1.00  0.00    -0.004 A 
ATOM     10  C   UNL A   1      32.493  20.298  23.855  1.00  0.00     0.012 A 
ATOM     11  C   UNL A   1      33.072  19.074  24.182  1.00  0.00     0.040 A 
ATOM     12  C   UNL A   1      35.111  20.221  24.750  1.00  0.00     0.053 A 
ATOM     13  C   UNL A   1      34.380  19.047  24.626  1.00  0.00     0.124 A 
ATOM     14  F   UNL A   1      34.952  17.873  24.920  1.00  0.00    -0.207 F 
BRANCH   9  15
ATOM     15  C   UNL A   1      32.481  22.746  23.567  1.00  0.00     0.002 A 
ATOM     16  C   UNL A   1      32.378  24.736  22.157  1.00  0.00     0.060 A 
ATOM     17  C   UNL A   1      31.217  25.165  22.808  1.00  0.00     0.017 A 
ATOM     18  C   UNL A   1      32.981  23.517  22.501  1.00  0.00     0.026 A 
ATOM     19  C   UNL A   1      30.680  24.393  23.836  1.00  0.00     0.022 A 
ATOM     20  C   UNL A   1      31.310  23.204  24.222  1.00  0.00     0.048 A 
ATOM     21  Cl  UNL A   1      30.645  22.395  25.604  1.00  0.00    -0.084 Cl
BRANCH  16  22
ATOM     22  C   UNL A   1      33.073  25.594  21.171  1.00  0.00     0.337 C 
ATOM     23  O   UNL A   1      32.900  25.540  19.975  1.00  0.00    -0.246 OA
BRANCH  22  24
ATOM     24  O   UNL A   1      34.019  26.306  21.837  1.00  0.00    -0.465 OA
ATOM     25  C   UNL A   1      33.654  27.661  22.109  1.00  0.00     0.282 C 
ENDBRANCH  22  24
ENDBRANCH  16  22
ENDBRANCH   9  15
ENDBRANCH   5   8
ENDBRANCH   3   4
ENDBRANCH   2   3
ENDBRANCH   1   2
BRANCH   1  26
ATOM     26  C   UNL A   1      31.788  27.273  26.171  1.00  0.00     0.002 C 
BRANCH  26  27
ATOM     27  C   UNL A   1      32.733  28.460  25.978  1.00  0.00     0.021 C 
BRANCH  27  28
ATOM     28  C   UNL A   1      33.846  28.648  27.000  1.00  0.00     0.116 C 
BRANCH  28  29
ATOM     29  N   UNL A   1      33.810  29.948  27.640  1.00  0.00    -0.352 N 
ATOM     30  C   UNL A   1      34.759  30.637  28.356  1.00  0.00     0.251 C 
ATOM     31  H   UNL A   1      32.952  30.422  27.546  1.00  0.00     0.163 HD
ATOM     32  O   UNL A   1      34.422  31.670  28.934  1.00  0.00    -0.269 OA
BRANCH  30  33
ATOM     33  C   UNL A   1      36.170  30.179  28.473  1.00  0.00     0.039 A 
ATOM     34  C   UNL A   1      36.568  29.576  29.675  1.00  0.00     0.014 A 
ATOM     35  C   UNL A   1      37.129  30.405  27.482  1.00  0.00     0.014 A 
ATOM     36  C   UNL A   1      37.895  29.172  29.865  1.00  0.00     0.010 A 
ATOM     37  C   UNL A   1      38.437  29.937  27.642  1.00  0.00     0.010 A 
ATOM     38  C   UNL A   1      38.840  29.327  28.841  1.00  0.00    -0.014 A 
BRANCH  38  39
ATOM     39  C   UNL A   1      40.250  28.885  29.020  1.00  0.00     0.031 A 
ATOM     40  C   UNL A   1      41.272  29.811  29.626  1.00  0.00     0.074 A 
ATOM     41  C   UNL A   1      40.632  27.662  28.602  1.00  0.00     0.049 A 
ATOM     42  N   UNL A   1      42.557  29.626  29.799  1.00  0.00    -0.248 NA
ATOM     43  C   UNL A   1      40.790  31.125  30.077  1.00  0.00     0.031 C 
ATOM     44  C   UNL A   1      39.756  26.672  27.976  1.00  0.00     0.029 A 
ATOM     45  N   UNL A   1      41.859  27.046  28.637  1.00  0.00    -0.354 N 
ATOM     46  C   UNL A   1      43.039  30.803  30.357  1.00  0.00     0.074 A 
ATOM     47  C   UNL A   1      41.916  31.710  30.459  1.00  0.00     0.031 C 
ATOM     48  C   UNL A   1      40.467  25.566  27.704  1.00  0.00     0.029 A 
ATOM     49  C   UNL A   1      41.856  25.780  28.103  1.00  0.00     0.049 A 
ATOM     50  H   UNL A   1      42.665  27.471  29.009  1.00  0.00     0.167 HD
ATOM     51  C   UNL A   1      44.297  31.097  30.765  1.00  0.00     0.037 A 
ATOM     52  C   UNL A   1      42.856  24.891  27.946  1.00  0.00     0.037 A 
ATOM     53  C   UNL A   1      45.408  30.184  30.706  1.00  0.00     0.049 A 
ATOM     54  C   UNL A   1      44.243  25.236  28.407  1.00  0.00     0.074 A 
ATOM     55  C   UNL A   1      46.701  30.373  31.165  1.00  0.00     0.029 A 
ATOM     56  N   UNL A   1      45.360  28.912  30.159  1.00  0.00    -0.354 N 
ATOM     57  N   UNL A   1      44.671  26.337  28.972  1.00  0.00    -0.248 NA
ATOM     58  C   UNL A   1      45.283  24.215  28.213  1.00  0.00     0.031 C 
ATOM     59  C   UNL A   1      47.446  29.229  30.860  1.00  0.00     0.029 A 
ATOM     60  C   UNL A   1      46.606  28.314  30.248  1.00  0.00     0.049 A 
ATOM     61  H   UNL A   1      44.560  28.496  29.767  1.00  0.00     0.167 HD
ATOM     62  C   UNL A   1      46.025  26.140  29.213  1.00  0.00     0.074 A 
ATOM     63  C   UNL A   1      46.345  24.807  28.744  1.00  0.00     0.031 C 
ATOM     64  C   UNL A   1      46.919  26.989  29.775  1.00  0.00     0.037 A 
BRANCH  51  65
ATOM     65  C   UNL A   1      44.544  32.467  31.323  1.00  0.00     0.057 A 
ATOM     66  C   UNL A   1      44.331  32.734  32.682  1.00  0.00     0.134 A 
ATOM     67  C   UNL A   1      44.938  33.537  30.509  1.00  0.00     0.134 A 
ATOM     68  F   UNL A   1      43.945  31.756  33.516  1.00  0.00    -0.206 F 
ATOM     69  C   UNL A   1      44.497  34.015  33.210  1.00  0.00     0.040 A 
ATOM     70  C   UNL A   1      45.131  34.817  31.030  1.00  0.00     0.040 A 
ATOM     71  F   UNL A   1      45.167  33.346  29.202  1.00  0.00    -0.206 F 
ATOM     72  C   UNL A   1      44.902  35.061  32.383  1.00  0.00     0.006 A 
ENDBRANCH  51  65
BRANCH  52  73
ATOM     73  C   UNL A   1      42.561  23.569  27.339  1.00  0.00     0.057 A 
ATOM     74  C   UNL A   1      42.223  22.463  28.128  1.00  0.00     0.134 A 
ATOM     75  C   UNL A   1      42.657  23.375  25.957  1.00  0.00     0.134 A 
ATOM     76  F   UNL A   1      42.123  22.586  29.460  1.00  0.00    -0.206 F 
ATOM     77  C   UNL A   1      42.011  21.204  27.564  1.00  0.00     0.040 A 
ATOM     78  C   UNL A   1      42.428  22.126  25.379  1.00  0.00     0.040 A 
ATOM     79  F   UNL A   1      42.959  24.404  25.152  1.00  0.00    -0.206 F 
ATOM     80  C   UNL A   1      42.113  21.034  26.185  1.00  0.00     0.006 A 
ENDBRANCH  52  73
BRANCH  64  81
ATOM     81  C   UNL A   1      48.331  26.512  29.927  1.00  0.00     0.057 A 
ATOM     82  C   UNL A   1      48.745  25.862  31.097  1.00  0.00     0.134 A 
ATOM     83  C   UNL A   1      49.301  26.766  28.950  1.00  0.00     0.134 A 
ATOM     84  F   UNL A   1      47.867  25.598  32.076  1.00  0.00    -0.206 F 
ATOM     85  C   UNL A   1      50.076  25.494  31.296  1.00  0.00     0.040 A 
ATOM     86  C   UNL A   1      50.631  26.383  29.127  1.00  0.00     0.040 A 
ATOM     87  F   UNL A   1      48.966  27.375  27.802  1.00  0.00    -0.206 F 
ATOM     88  C   UNL A   1      51.024  25.754  30.307  1.00  0.00     0.006 A 
ENDBRANCH  64  81
ENDBRANCH  38  39
ENDBRANCH  30  33
ENDBRANCH  28  29
ENDBRANCH  27  28
ENDBRANCH  26  27
ENDBRANCH   1  26
TORSDOF 16
ENDMDL
