MODEL 1
REMARK VINA RESULT:     -12.3      0.000      0.000
REMARK SMILES C[NH+]1CCC2(CC1)OC[C@H](C(=O)NCCCCCCNC(=O)c1ccc(-c3c4nc(c(-c5c(F)cccc5F)c5ccc([nH]5)c(-c5c(F)cccc5F)c5nc(c(-c6c(F)cccc6F)c6ccc3[nH]6)C=C5)C=C4)cc1)N2C(=O)c1cc(C(F)(F)F)cc(C(F)(F)F)c1
REMARK SMILES IDX 16 1 15 2 14 3 13 4 11 5 12 6 10 8 1 9 2 10 3 11 7 12 4 14
REMARK SMILES IDX 6 15 5 16 8 17 77 18 9 19 78 20 79 21 80 22 81 23 93 24
REMARK SMILES IDX 82 25 88 26 87 27 83 28 84 29 85 30 86 31 89 32 90 33 91 34
REMARK SMILES IDX 92 35 17 36 18 37 19 38 20 39 21 40 22 42 23 43 24 44 76 45
REMARK SMILES IDX 25 46 75 47 26 48 27 49 28 50 69 51 29 52 74 53 68 54 70 55
REMARK SMILES IDX 30 56 73 57 67 58 66 59 31 61 57 62 40 63 56 64 41 65 44 66
REMARK SMILES IDX 55 67 71 68 42 69 43 70 54 72 72 73 45 74 32 75 33 76 38 77
REMARK SMILES IDX 34 78 35 79 37 80 39 81 36 82 58 83 59 84 64 85 60 86 61 87
REMARK SMILES IDX 63 88 65 89 62 90 46 91 47 92 52 93 48 94 49 95 51 96 53 97
REMARK SMILES IDX 50 98
REMARK H PARENT 13 7 2 13 20 41 70 60 44 71
REMARK Flexibility Score: inf
ROOT
ATOM      1  C   UNL A   1      31.532  26.127  26.499  1.00  0.00     0.002 C 
ENDROOT
BRANCH   1   2
ATOM      2  C   UNL A   1      30.090  25.838  26.064  1.00  0.00     0.021 C 
BRANCH   2   3
ATOM      3  C   UNL A   1      29.756  26.114  24.605  1.00  0.00     0.116 C 
BRANCH   3   4
ATOM      4  N   UNL A   1      30.486  27.122  23.875  1.00  0.00    -0.354 N 
ATOM      5  C   UNL A   1      31.149  27.016  22.674  1.00  0.00     0.245 C 
ATOM      6  O   UNL A   1      31.289  28.087  22.065  1.00  0.00    -0.273 OA
ATOM      7  H   UNL A   1      30.514  28.011  24.297  1.00  0.00     0.163 HD
BRANCH   5   8
ATOM      8  C   UNL A   1      31.713  25.686  22.038  1.00  0.00     0.203 C 
ATOM      9  C   UNL A   1      37.088  23.969  24.852  1.00  0.00     0.332 C 
ATOM     10  N   UNL A   1      35.693  23.564  24.884  1.00  0.00    -0.337 N 
ATOM     11  C   UNL A   1      34.790  24.615  25.279  1.00  0.00     0.267 C 
ATOM     12  C   UNL A   1      35.258  22.761  23.749  1.00  0.00     0.267 C 
ATOM     13  H   UNL A   1      35.641  22.898  25.655  1.00  0.00     0.347 HD
ATOM     14  C   UNL A   1      34.227  25.430  24.147  1.00  0.00     0.120 C 
ATOM     15  C   UNL A   1      34.622  23.493  22.564  1.00  0.00     0.120 C 
ATOM     16  C   UNL A   1      33.734  24.699  22.899  1.00  0.00     0.155 C 
ATOM     17  O   UNL A   1      34.026  25.613  21.778  1.00  0.00    -0.352 OA
ATOM     18  N   UNL A   1      32.261  24.598  22.864  1.00  0.00    -0.295 N 
ATOM     19  C   UNL A   1      32.821  25.904  21.051  1.00  0.00     0.198 C 
BRANCH  18  20
ATOM     20  C   UNL A   1      31.379  23.632  23.336  1.00  0.00     0.256 C 
ATOM     21  O   UNL A   1      30.176  23.634  23.084  1.00  0.00    -0.269 OA
BRANCH  20  22
ATOM     22  C   UNL A   1      31.852  22.503  24.156  1.00  0.00     0.041 A 
ATOM     23  C   UNL A   1      31.964  21.221  23.605  1.00  0.00     0.027 A 
ATOM     24  C   UNL A   1      32.130  22.712  25.505  1.00  0.00     0.027 A 
ATOM     25  C   UNL A   1      32.483  20.164  24.379  1.00  0.00     0.057 A 
ATOM     26  C   UNL A   1      32.748  21.704  26.263  1.00  0.00     0.057 A 
ATOM     27  C   UNL A   1      32.904  20.429  25.695  1.00  0.00     0.026 A 
BRANCH  25  28
ATOM     28  C   UNL A   1      32.625  18.779  23.790  1.00  0.00     0.416 C 
ATOM     29  F   UNL A   1      31.911  17.846  24.475  1.00  0.00    -0.166 F 
ATOM     30  F   UNL A   1      32.196  18.717  22.500  1.00  0.00    -0.166 F 
ATOM     31  F   UNL A   1      33.912  18.331  23.775  1.00  0.00    -0.166 F 
ENDBRANCH  25  28
BRANCH  26  32
ATOM     32  C   UNL A   1      33.351  22.009  27.618  1.00  0.00     0.416 C 
ATOM     33  F   UNL A   1      34.443  21.249  27.893  1.00  0.00    -0.166 F 
ATOM     34  F   UNL A   1      33.765  23.305  27.714  1.00  0.00    -0.166 F 
ATOM     35  F   UNL A   1      32.486  21.820  28.653  1.00  0.00    -0.166 F 
ENDBRANCH  26  32
ENDBRANCH  20  22
ENDBRANCH  18  20
ENDBRANCH   5   8
ENDBRANCH   3   4
ENDBRANCH   2   3
ENDBRANCH   1   2
BRANCH   1  36
ATOM     36  C   UNL A   1      31.911  27.574  26.854  1.00  0.00     0.002 C 
BRANCH  36  37
ATOM     37  C   UNL A   1      33.398  27.912  27.004  1.00  0.00     0.021 C 
BRANCH  37  38
ATOM     38  C   UNL A   1      33.937  29.036  26.126  1.00  0.00     0.116 C 
BRANCH  38  39
ATOM     39  N   UNL A   1      33.734  30.356  26.698  1.00  0.00    -0.352 N 
ATOM     40  C   UNL A   1      34.453  31.033  27.645  1.00  0.00     0.251 C 
ATOM     41  H   UNL A   1      32.953  30.841  26.347  1.00  0.00     0.163 HD
ATOM     42  O   UNL A   1      34.024  32.110  28.074  1.00  0.00    -0.269 OA
BRANCH  40  43
ATOM     43  C   UNL A   1      35.723  30.497  28.182  1.00  0.00     0.039 A 
ATOM     44  C   UNL A   1      35.684  29.715  29.341  1.00  0.00     0.014 A 
ATOM     45  C   UNL A   1      36.952  30.794  27.587  1.00  0.00     0.014 A 
ATOM     46  C   UNL A   1      36.866  29.194  29.874  1.00  0.00     0.010 A 
ATOM     47  C   UNL A   1      38.122  30.214  28.077  1.00  0.00     0.010 A 
ATOM     48  C   UNL A   1      38.093  29.416  29.232  1.00  0.00    -0.014 A 
BRANCH  48  49
ATOM     49  C   UNL A   1      39.358  28.846  29.767  1.00  0.00     0.031 A 
ATOM     50  C   UNL A   1      40.007  29.456  30.981  1.00  0.00     0.074 A 
ATOM     51  C   UNL A   1      39.950  27.816  29.133  1.00  0.00     0.049 A 
ATOM     52  N   UNL A   1      41.145  29.153  31.552  1.00  0.00    -0.248 NA
ATOM     53  C   UNL A   1      39.293  30.572  31.624  1.00  0.00     0.031 C 
ATOM     54  C   UNL A   1      39.442  27.157  27.928  1.00  0.00     0.029 A 
ATOM     55  N   UNL A   1      41.116  27.146  29.409  1.00  0.00    -0.354 N 
ATOM     56  C   UNL A   1      41.288  30.046  32.608  1.00  0.00     0.074 A 
ATOM     57  C   UNL A   1      40.151  30.938  32.563  1.00  0.00     0.031 C 
ATOM     58  C   UNL A   1      40.279  26.167  27.582  1.00  0.00     0.029 A 
ATOM     59  C   UNL A   1      41.403  26.144  28.512  1.00  0.00     0.049 A 
ATOM     60  H   UNL A   1      41.693  27.364  30.176  1.00  0.00     0.167 HD
ATOM     61  C   UNL A   1      42.265  30.102  33.544  1.00  0.00     0.037 A 
ATOM     62  C   UNL A   1      42.456  25.308  28.445  1.00  0.00     0.037 A 
ATOM     63  C   UNL A   1      43.384  29.197  33.601  1.00  0.00     0.049 A 
ATOM     64  C   UNL A   1      43.537  25.403  29.488  1.00  0.00     0.074 A 
ATOM     65  C   UNL A   1      44.403  29.144  34.535  1.00  0.00     0.029 A 
ATOM     66  N   UNL A   1      43.629  28.186  32.684  1.00  0.00    -0.354 N 
ATOM     67  N   UNL A   1      43.630  26.217  30.512  1.00  0.00    -0.248 NA
ATOM     68  C   UNL A   1      44.657  24.458  29.369  1.00  0.00     0.031 C 
ATOM     69  C   UNL A   1      45.290  28.130  34.159  1.00  0.00     0.029 A 
ATOM     70  C   UNL A   1      44.793  27.515  33.020  1.00  0.00     0.049 A 
ATOM     71  H   UNL A   1      43.059  27.976  31.908  1.00  0.00     0.167 HD
ATOM     72  C   UNL A   1      44.795  25.857  31.179  1.00  0.00     0.074 A 
ATOM     73  C   UNL A   1      45.367  24.745  30.450  1.00  0.00     0.031 C 
ATOM     74  C   UNL A   1      45.341  26.397  32.295  1.00  0.00     0.037 A 
BRANCH  61  75
ATOM     75  C   UNL A   1      42.164  31.174  34.591  1.00  0.00     0.057 A 
ATOM     76  C   UNL A   1      42.787  32.420  34.435  1.00  0.00     0.134 A 
ATOM     77  C   UNL A   1      41.403  30.976  35.750  1.00  0.00     0.134 A 
ATOM     78  F   UNL A   1      43.541  32.673  33.355  1.00  0.00    -0.206 F 
ATOM     79  C   UNL A   1      42.678  33.419  35.404  1.00  0.00     0.040 A 
ATOM     80  C   UNL A   1      41.262  31.977  36.712  1.00  0.00     0.040 A 
ATOM     81  F   UNL A   1      40.773  29.810  35.961  1.00  0.00    -0.206 F 
ATOM     82  C   UNL A   1      41.906  33.202  36.544  1.00  0.00     0.006 A 
ENDBRANCH  61  75
BRANCH  62  83
ATOM     83  C   UNL A   1      42.538  24.291  27.365  1.00  0.00     0.057 A 
ATOM     84  C   UNL A   1      42.071  22.986  27.563  1.00  0.00     0.134 A 
ATOM     85  C   UNL A   1      43.109  24.588  26.121  1.00  0.00     0.134 A 
ATOM     86  F   UNL A   1      41.531  22.635  28.739  1.00  0.00    -0.206 F 
ATOM     87  C   UNL A   1      42.195  22.006  26.577  1.00  0.00     0.040 A 
ATOM     88  C   UNL A   1      43.213  23.625  25.116  1.00  0.00     0.040 A 
ATOM     89  F   UNL A   1      43.568  25.821  25.863  1.00  0.00    -0.206 F 
ATOM     90  C   UNL A   1      42.764  22.326  25.347  1.00  0.00     0.006 A 
ENDBRANCH  62  83
BRANCH  74  91
ATOM     91  C   UNL A   1      46.591  25.761  32.831  1.00  0.00     0.057 A 
ATOM     92  C   UNL A   1      47.866  26.146  32.401  1.00  0.00     0.134 A 
ATOM     93  C   UNL A   1      46.514  24.772  33.821  1.00  0.00     0.134 A 
ATOM     94  F   UNL A   1      48.008  27.080  31.446  1.00  0.00    -0.206 F 
ATOM     95  C   UNL A   1      49.020  25.554  32.916  1.00  0.00     0.040 A 
ATOM     96  C   UNL A   1      47.661  24.193  34.366  1.00  0.00     0.040 A 
ATOM     97  F   UNL A   1      45.324  24.362  34.285  1.00  0.00    -0.206 F 
ATOM     98  C   UNL A   1      48.918  24.580  33.908  1.00  0.00     0.006 A 
ENDBRANCH  74  91
ENDBRANCH  48  49
ENDBRANCH  40  43
ENDBRANCH  38  39
ENDBRANCH  37  38
ENDBRANCH  36  37
ENDBRANCH   1  36
TORSDOF 17
ENDMDL
MODEL 2
REMARK VINA RESULT:     -12.2      4.925      9.306
REMARK SMILES C[NH+]1CCC2(CC1)OC[C@H](C(=O)NCCCCCCNC(=O)c1ccc(-c3c4nc(c(-c5c(F)cccc5F)c5ccc([nH]5)c(-c5c(F)cccc5F)c5nc(c(-c6c(F)cccc6F)c6ccc3[nH]6)C=C5)C=C4)cc1)N2C(=O)c1cc(C(F)(F)F)cc(C(F)(F)F)c1
REMARK SMILES IDX 16 1 15 2 14 3 13 4 11 5 12 6 10 8 1 9 2 10 3 11 7 12 4 14
REMARK SMILES IDX 6 15 5 16 8 17 77 18 9 19 78 20 79 21 80 22 81 23 93 24
REMARK SMILES IDX 82 25 88 26 87 27 83 28 84 29 85 30 86 31 89 32 90 33 91 34
REMARK SMILES IDX 92 35 17 36 18 37 19 38 20 39 21 40 22 42 23 43 24 44 76 45
REMARK SMILES IDX 25 46 75 47 26 48 27 49 28 50 69 51 29 52 74 53 68 54 70 55
REMARK SMILES IDX 30 56 73 57 67 58 66 59 31 61 57 62 40 63 56 64 41 65 44 66
REMARK SMILES IDX 55 67 71 68 42 69 43 70 54 72 72 73 45 74 32 75 33 76 38 77
REMARK SMILES IDX 34 78 35 79 37 80 39 81 36 82 58 83 59 84 64 85 60 86 61 87
REMARK SMILES IDX 63 88 65 89 62 90 46 91 47 92 52 93 48 94 49 95 51 96 53 97
REMARK SMILES IDX 50 98
REMARK H PARENT 13 7 2 13 20 41 70 60 44 71
REMARK Flexibility Score: inf
ROOT
ATOM      1  C   UNL A   1      40.726  21.668  26.171  1.00  0.00     0.002 C 
ENDROOT
BRANCH   1   2
ATOM      2  C   UNL A   1      39.357  20.979  26.107  1.00  0.00     0.021 C 
BRANCH   2   3
ATOM      3  C   UNL A   1      38.296  21.661  25.256  1.00  0.00     0.116 C 
BRANCH   3   4
ATOM      4  N   UNL A   1      37.826  22.979  25.606  1.00  0.00    -0.354 N 
ATOM      5  C   UNL A   1      36.566  23.517  25.473  1.00  0.00     0.245 C 
ATOM      6  O   UNL A   1      36.325  24.461  26.240  1.00  0.00    -0.273 OA
ATOM      7  H   UNL A   1      38.504  23.579  25.994  1.00  0.00     0.163 HD
BRANCH   5   8
ATOM      8  C   UNL A   1      35.452  23.036  24.464  1.00  0.00     0.203 C 
ATOM      9  C   UNL A   1      29.797  22.954  27.253  1.00  0.00     0.332 C 
ATOM     10  N   UNL A   1      30.513  23.809  26.321  1.00  0.00    -0.337 N 
ATOM     11  C   UNL A   1      31.745  24.340  26.846  1.00  0.00     0.267 C 
ATOM     12  C   UNL A   1      30.581  23.311  24.953  1.00  0.00     0.267 C 
ATOM     13  H   UNL A   1      29.917  24.631  26.224  1.00  0.00     0.347 HD
ATOM     14  C   UNL A   1      32.967  23.508  26.570  1.00  0.00     0.120 C 
ATOM     15  C   UNL A   1      31.813  22.494  24.556  1.00  0.00     0.120 C 
ATOM     16  C   UNL A   1      33.151  22.930  25.167  1.00  0.00     0.155 C 
ATOM     17  O   UNL A   1      33.829  21.635  25.372  1.00  0.00    -0.352 OA
ATOM     18  N   UNL A   1      34.139  23.696  24.380  1.00  0.00    -0.295 N 
ATOM     19  C   UNL A   1      35.059  21.599  24.629  1.00  0.00     0.198 C 
BRANCH  18  20
ATOM     20  C   UNL A   1      34.011  24.782  23.521  1.00  0.00     0.256 C 
ATOM     21  O   UNL A   1      34.413  24.778  22.361  1.00  0.00    -0.269 OA
BRANCH  20  22
ATOM     22  C   UNL A   1      33.337  26.019  23.953  1.00  0.00     0.041 A 
ATOM     23  C   UNL A   1      32.108  26.393  23.395  1.00  0.00     0.027 A 
ATOM     24  C   UNL A   1      33.964  26.847  24.881  1.00  0.00     0.027 A 
ATOM     25  C   UNL A   1      31.440  27.541  23.865  1.00  0.00     0.057 A 
ATOM     26  C   UNL A   1      33.272  27.934  25.441  1.00  0.00     0.057 A 
ATOM     27  C   UNL A   1      32.018  28.281  24.913  1.00  0.00     0.026 A 
BRANCH  25  28
ATOM     28  C   UNL A   1      30.105  27.945  23.283  1.00  0.00     0.416 C 
ATOM     29  F   UNL A   1      30.191  28.285  21.970  1.00  0.00    -0.166 F 
ATOM     30  F   UNL A   1      29.183  26.947  23.359  1.00  0.00    -0.166 F 
ATOM     31  F   UNL A   1      29.546  29.016  23.913  1.00  0.00    -0.166 F 
ENDBRANCH  25  28
BRANCH  26  32
ATOM     32  C   UNL A   1      33.800  28.643  26.670  1.00  0.00     0.416 C 
ATOM     33  F   UNL A   1      33.180  28.250  27.813  1.00  0.00    -0.166 F 
ATOM     34  F   UNL A   1      35.129  28.406  26.866  1.00  0.00    -0.166 F 
ATOM     35  F   UNL A   1      33.671  29.997  26.613  1.00  0.00    -0.166 F 
ENDBRANCH  26  32
ENDBRANCH  20  22
ENDBRANCH  18  20
ENDBRANCH   5   8
ENDBRANCH   3   4
ENDBRANCH   2   3
ENDBRANCH   1   2
BRANCH   1  36
ATOM     36  C   UNL A   1      41.953  20.818  26.539  1.00  0.00     0.002 C 
BRANCH  36  37
ATOM     37  C   UNL A   1      42.011  19.376  26.023  1.00  0.00     0.021 C 
BRANCH  37  38
ATOM     38  C   UNL A   1      43.337  18.642  26.188  1.00  0.00     0.116 C 
BRANCH  38  39
ATOM     39  N   UNL A   1      44.058  18.477  24.937  1.00  0.00    -0.352 N 
ATOM     40  C   UNL A   1      44.719  19.395  24.165  1.00  0.00     0.251 C 
ATOM     41  H   UNL A   1      44.073  17.557  24.588  1.00  0.00     0.163 HD
ATOM     42  O   UNL A   1      45.164  19.050  23.065  1.00  0.00    -0.269 OA
BRANCH  40  43
ATOM     43  C   UNL A   1      44.895  20.795  24.610  1.00  0.00     0.039 A 
ATOM     44  C   UNL A   1      44.508  21.826  23.748  1.00  0.00     0.014 A 
ATOM     45  C   UNL A   1      45.481  21.104  25.840  1.00  0.00     0.014 A 
ATOM     46  C   UNL A   1      44.662  23.159  24.136  1.00  0.00     0.010 A 
ATOM     47  C   UNL A   1      45.567  22.432  26.258  1.00  0.00     0.010 A 
ATOM     48  C   UNL A   1      45.169  23.474  25.406  1.00  0.00    -0.014 A 
BRANCH  48  49
ATOM     49  C   UNL A   1      45.313  24.886  25.851  1.00  0.00     0.031 A 
ATOM     50  C   UNL A   1      46.660  25.557  25.806  1.00  0.00     0.074 A 
ATOM     51  C   UNL A   1      44.248  25.547  26.343  1.00  0.00     0.049 A 
ATOM     52  N   UNL A   1      47.005  26.751  26.218  1.00  0.00    -0.248 NA
ATOM     53  C   UNL A   1      47.773  24.772  25.245  1.00  0.00     0.031 C 
ATOM     54  C   UNL A   1      42.896  24.999  26.472  1.00  0.00     0.029 A 
ATOM     55  N   UNL A   1      44.135  26.823  26.836  1.00  0.00    -0.354 N 
ATOM     56  C   UNL A   1      48.371  26.854  25.980  1.00  0.00     0.074 A 
ATOM     57  C   UNL A   1      48.802  25.582  25.441  1.00  0.00     0.031 C 
ATOM     58  C   UNL A   1      42.088  25.938  26.988  1.00  0.00     0.029 A 
ATOM     59  C   UNL A   1      42.868  27.140  27.265  1.00  0.00     0.049 A 
ATOM     60  H   UNL A   1      44.892  27.452  26.879  1.00  0.00     0.167 HD
ATOM     61  C   UNL A   1      49.187  27.918  26.169  1.00  0.00     0.037 A 
ATOM     62  C   UNL A   1      42.393  28.268  27.825  1.00  0.00     0.037 A 
ATOM     63  C   UNL A   1      48.750  29.190  26.683  1.00  0.00     0.049 A 
ATOM     64  C   UNL A   1      43.325  29.430  28.041  1.00  0.00     0.074 A 
ATOM     65  C   UNL A   1      49.491  30.344  26.871  1.00  0.00     0.029 A 
ATOM     66  N   UNL A   1      47.456  29.475  27.091  1.00  0.00    -0.354 N 
ATOM     67  N   UNL A   1      44.602  29.530  27.760  1.00  0.00    -0.248 NA
ATOM     68  C   UNL A   1      42.748  30.638  28.647  1.00  0.00     0.031 C 
ATOM     69  C   UNL A   1      48.655  31.313  27.434  1.00  0.00     0.029 A 
ATOM     70  C   UNL A   1      47.381  30.781  27.546  1.00  0.00     0.049 A 
ATOM     71  H   UNL A   1      46.702  28.842  27.061  1.00  0.00     0.167 HD
ATOM     72  C   UNL A   1      44.969  30.822  28.117  1.00  0.00     0.074 A 
ATOM     73  C   UNL A   1      43.779  31.469  28.625  1.00  0.00     0.031 C 
ATOM     74  C   UNL A   1      46.183  31.418  28.032  1.00  0.00     0.037 A 
BRANCH  61  75
ATOM     75  C   UNL A   1      50.636  27.755  25.811  1.00  0.00     0.057 A 
ATOM     76  C   UNL A   1      51.094  27.912  24.496  1.00  0.00     0.134 A 
ATOM     77  C   UNL A   1      51.592  27.480  26.797  1.00  0.00     0.134 A 
ATOM     78  F   UNL A   1      50.231  28.165  23.501  1.00  0.00    -0.206 F 
ATOM     79  C   UNL A   1      52.445  27.775  24.170  1.00  0.00     0.040 A 
ATOM     80  C   UNL A   1      52.949  27.370  26.489  1.00  0.00     0.040 A 
ATOM     81  F   UNL A   1      51.225  27.326  28.079  1.00  0.00    -0.206 F 
ATOM     82  C   UNL A   1      53.379  27.510  25.171  1.00  0.00     0.006 A 
ENDBRANCH  61  75
BRANCH  62  83
ATOM     83  C   UNL A   1      40.961  28.369  28.207  1.00  0.00     0.057 A 
ATOM     84  C   UNL A   1      40.014  28.904  27.324  1.00  0.00     0.134 A 
ATOM     85  C   UNL A   1      40.507  27.964  29.468  1.00  0.00     0.134 A 
ATOM     86  F   UNL A   1      40.389  29.328  26.109  1.00  0.00    -0.206 F 
ATOM     87  C   UNL A   1      38.676  29.059  27.691  1.00  0.00     0.040 A 
ATOM     88  C   UNL A   1      39.167  28.086  29.838  1.00  0.00     0.040 A 
ATOM     89  F   UNL A   1      41.361  27.436  30.357  1.00  0.00    -0.206 F 
ATOM     90  C   UNL A   1      38.248  28.645  28.951  1.00  0.00     0.006 A 
ENDBRANCH  62  83
BRANCH  74  91
ATOM     91  C   UNL A   1      46.275  32.859  28.444  1.00  0.00     0.057 A 
ATOM     92  C   UNL A   1      46.591  33.240  29.754  1.00  0.00     0.134 A 
ATOM     93  C   UNL A   1      46.082  33.879  27.503  1.00  0.00     0.134 A 
ATOM     94  F   UNL A   1      46.776  32.312  30.705  1.00  0.00    -0.206 F 
ATOM     95  C   UNL A   1      46.685  34.584  30.120  1.00  0.00     0.040 A 
ATOM     96  C   UNL A   1      46.204  35.225  27.849  1.00  0.00     0.040 A 
ATOM     97  F   UNL A   1      45.787  33.583  26.228  1.00  0.00    -0.206 F 
ATOM     98  C   UNL A   1      46.499  35.580  29.163  1.00  0.00     0.006 A 
ENDBRANCH  74  91
ENDBRANCH  48  49
ENDBRANCH  40  43
ENDBRANCH  38  39
ENDBRANCH  37  38
ENDBRANCH  36  37
ENDBRANCH   1  36
TORSDOF 17
ENDMDL
MODEL 3
REMARK VINA RESULT:     -12.2      4.915      9.411
REMARK SMILES C[NH+]1CCC2(CC1)OC[C@H](C(=O)NCCCCCCNC(=O)c1ccc(-c3c4nc(c(-c5c(F)cccc5F)c5ccc([nH]5)c(-c5c(F)cccc5F)c5nc(c(-c6c(F)cccc6F)c6ccc3[nH]6)C=C5)C=C4)cc1)N2C(=O)c1cc(C(F)(F)F)cc(C(F)(F)F)c1
REMARK SMILES IDX 16 1 15 2 14 3 13 4 11 5 12 6 10 8 1 9 2 10 3 11 7 12 4 14
REMARK SMILES IDX 6 15 5 16 8 17 77 18 9 19 78 20 79 21 80 22 81 23 93 24
REMARK SMILES IDX 82 25 88 26 87 27 83 28 84 29 85 30 86 31 89 32 90 33 91 34
REMARK SMILES IDX 92 35 17 36 18 37 19 38 20 39 21 40 22 42 23 43 24 44 76 45
REMARK SMILES IDX 25 46 75 47 26 48 27 49 28 50 69 51 29 52 74 53 68 54 70 55
REMARK SMILES IDX 30 56 73 57 67 58 66 59 31 61 57 62 40 63 56 64 41 65 44 66
REMARK SMILES IDX 55 67 71 68 42 69 43 70 54 72 72 73 45 74 32 75 33 76 38 77
REMARK SMILES IDX 34 78 35 79 37 80 39 81 36 82 58 83 59 84 64 85 60 86 61 87
REMARK SMILES IDX 63 88 65 89 62 90 46 91 47 92 52 93 48 94 49 95 51 96 53 97
REMARK SMILES IDX 50 98
REMARK H PARENT 13 7 2 13 20 41 70 60 44 71
REMARK Flexibility Score: inf
ROOT
ATOM      1  C   UNL A   1      40.688  21.760  26.270  1.00  0.00     0.002 C 
ENDROOT
BRANCH   1   2
ATOM      2  C   UNL A   1      39.344  21.033  26.130  1.00  0.00     0.021 C 
BRANCH   2   3
ATOM      3  C   UNL A   1      38.287  21.724  25.280  1.00  0.00     0.116 C 
BRANCH   3   4
ATOM      4  N   UNL A   1      37.827  23.045  25.633  1.00  0.00    -0.354 N 
ATOM      5  C   UNL A   1      36.581  23.605  25.465  1.00  0.00     0.245 C 
ATOM      6  O   UNL A   1      36.327  24.541  26.237  1.00  0.00    -0.273 OA
ATOM      7  H   UNL A   1      38.499  23.628  26.053  1.00  0.00     0.163 HD
BRANCH   5   8
ATOM      8  C   UNL A   1      35.495  23.156  24.411  1.00  0.00     0.203 C 
ATOM      9  C   UNL A   1      29.820  22.677  27.119  1.00  0.00     0.332 C 
ATOM     10  N   UNL A   1      30.513  23.621  26.258  1.00  0.00    -0.337 N 
ATOM     11  C   UNL A   1      31.720  24.158  26.833  1.00  0.00     0.267 C 
ATOM     12  C   UNL A   1      30.612  23.221  24.860  1.00  0.00     0.267 C 
ATOM     13  H   UNL A   1      29.888  24.426  26.210  1.00  0.00     0.347 HD
ATOM     14  C   UNL A   1      32.973  23.391  26.514  1.00  0.00     0.120 C 
ATOM     15  C   UNL A   1      31.877  22.479  24.422  1.00  0.00     0.120 C 
ATOM     16  C   UNL A   1      33.192  22.919  25.077  1.00  0.00     0.155 C 
ATOM     17  O   UNL A   1      33.915  21.637  25.200  1.00  0.00    -0.352 OA
ATOM     18  N   UNL A   1      34.159  23.772  24.357  1.00  0.00    -0.295 N 
ATOM     19  C   UNL A   1      35.152  21.697  24.472  1.00  0.00     0.198 C 
BRANCH  18  20
ATOM     20  C   UNL A   1      33.999  24.911  23.575  1.00  0.00     0.256 C 
ATOM     21  O   UNL A   1      34.394  24.994  22.414  1.00  0.00    -0.269 OA
BRANCH  20  22
ATOM     22  C   UNL A   1      33.299  26.099  24.092  1.00  0.00     0.041 A 
ATOM     23  C   UNL A   1      33.857  26.861  25.126  1.00  0.00     0.027 A 
ATOM     24  C   UNL A   1      32.044  26.424  23.584  1.00  0.00     0.027 A 
ATOM     25  C   UNL A   1      33.212  28.034  25.565  1.00  0.00     0.057 A 
ATOM     26  C   UNL A   1      31.435  27.643  23.927  1.00  0.00     0.057 A 
ATOM     27  C   UNL A   1      32.020  28.431  24.932  1.00  0.00     0.026 A 
BRANCH  25  28
ATOM     28  C   UNL A   1      33.814  28.874  26.668  1.00  0.00     0.416 C 
ATOM     29  F   UNL A   1      33.206  28.672  27.867  1.00  0.00    -0.166 F 
ATOM     30  F   UNL A   1      35.135  28.608  26.861  1.00  0.00    -0.166 F 
ATOM     31  F   UNL A   1      33.736  30.213  26.427  1.00  0.00    -0.166 F 
ENDBRANCH  25  28
BRANCH  26  32
ATOM     32  C   UNL A   1      30.246  28.165  23.151  1.00  0.00     0.416 C 
ATOM     33  F   UNL A   1      30.277  27.816  21.838  1.00  0.00    -0.166 F 
ATOM     34  F   UNL A   1      29.066  27.684  23.637  1.00  0.00    -0.166 F 
ATOM     35  F   UNL A   1      30.131  29.522  23.181  1.00  0.00    -0.166 F 
ENDBRANCH  26  32
ENDBRANCH  20  22
ENDBRANCH  18  20
ENDBRANCH   5   8
ENDBRANCH   3   4
ENDBRANCH   2   3
ENDBRANCH   1   2
BRANCH   1  36
ATOM     36  C   UNL A   1      41.957  20.915  26.467  1.00  0.00     0.002 C 
BRANCH  36  37
ATOM     37  C   UNL A   1      42.018  19.540  25.793  1.00  0.00     0.021 C 
BRANCH  37  38
ATOM     38  C   UNL A   1      43.277  18.714  26.034  1.00  0.00     0.116 C 
BRANCH  38  39
ATOM     39  N   UNL A   1      44.085  18.543  24.839  1.00  0.00    -0.352 N 
ATOM     40  C   UNL A   1      44.818  19.453  24.125  1.00  0.00     0.251 C 
ATOM     41  H   UNL A   1      44.109  17.625  24.486  1.00  0.00     0.163 HD
ATOM     42  O   UNL A   1      45.337  19.107  23.059  1.00  0.00    -0.269 OA
BRANCH  40  43
ATOM     43  C   UNL A   1      44.987  20.846  24.592  1.00  0.00     0.039 A 
ATOM     44  C   UNL A   1      44.534  21.887  23.774  1.00  0.00     0.014 A 
ATOM     45  C   UNL A   1      45.626  21.142  25.798  1.00  0.00     0.014 A 
ATOM     46  C   UNL A   1      44.679  23.215  24.184  1.00  0.00     0.010 A 
ATOM     47  C   UNL A   1      45.705  22.463  26.241  1.00  0.00     0.010 A 
ATOM     48  C   UNL A   1      45.242  23.514  25.434  1.00  0.00    -0.014 A 
BRANCH  48  49
ATOM     49  C   UNL A   1      45.378  24.918  25.902  1.00  0.00     0.031 A 
ATOM     50  C   UNL A   1      46.719  25.602  25.859  1.00  0.00     0.074 A 
ATOM     51  C   UNL A   1      44.311  25.561  26.415  1.00  0.00     0.049 A 
ATOM     52  N   UNL A   1      47.057  26.791  26.289  1.00  0.00    -0.248 NA
ATOM     53  C   UNL A   1      47.834  24.837  25.275  1.00  0.00     0.031 C 
ATOM     54  C   UNL A   1      42.965  24.999  26.544  1.00  0.00     0.029 A 
ATOM     55  N   UNL A   1      44.192  26.828  26.931  1.00  0.00    -0.354 N 
ATOM     56  C   UNL A   1      48.420  26.910  26.042  1.00  0.00     0.074 A 
ATOM     57  C   UNL A   1      48.858  25.652  25.478  1.00  0.00     0.031 C 
ATOM     58  C   UNL A   1      42.153  25.923  27.083  1.00  0.00     0.029 A 
ATOM     59  C   UNL A   1      42.925  27.126  27.375  1.00  0.00     0.049 A 
ATOM     60  H   UNL A   1      44.943  27.462  26.979  1.00  0.00     0.167 HD
ATOM     61  C   UNL A   1      49.228  27.977  26.244  1.00  0.00     0.037 A 
ATOM     62  C   UNL A   1      42.445  28.239  27.959  1.00  0.00     0.037 A 
ATOM     63  C   UNL A   1      48.785  29.236  26.784  1.00  0.00     0.049 A 
ATOM     64  C   UNL A   1      43.369  29.406  28.189  1.00  0.00     0.074 A 
ATOM     65  C   UNL A   1      49.518  30.393  26.986  1.00  0.00     0.029 A 
ATOM     66  N   UNL A   1      47.492  29.503  27.207  1.00  0.00    -0.354 N 
ATOM     67  N   UNL A   1      44.643  29.522  27.900  1.00  0.00    -0.248 NA
ATOM     68  C   UNL A   1      42.787  30.598  28.821  1.00  0.00     0.031 C 
ATOM     69  C   UNL A   1      48.679  31.345  27.573  1.00  0.00     0.029 A 
ATOM     70  C   UNL A   1      47.409  30.800  27.686  1.00  0.00     0.049 A 
ATOM     71  H   UNL A   1      46.743  28.864  27.171  1.00  0.00     0.167 HD
ATOM     72  C   UNL A   1      45.002  30.811  28.277  1.00  0.00     0.074 A 
ATOM     73  C   UNL A   1      43.811  31.438  28.806  1.00  0.00     0.031 C 
ATOM     74  C   UNL A   1      46.211  31.418  28.192  1.00  0.00     0.037 A 
BRANCH  61  75
ATOM     75  C   UNL A   1      50.676  27.834  25.871  1.00  0.00     0.057 A 
ATOM     76  C   UNL A   1      51.659  27.535  26.826  1.00  0.00     0.134 A 
ATOM     77  C   UNL A   1      51.089  27.953  24.538  1.00  0.00     0.134 A 
ATOM     78  F   UNL A   1      51.334  27.418  28.122  1.00  0.00    -0.206 F 
ATOM     79  C   UNL A   1      53.001  27.388  26.472  1.00  0.00     0.040 A 
ATOM     80  C   UNL A   1      52.424  27.778  24.168  1.00  0.00     0.040 A 
ATOM     81  F   UNL A   1      50.200  28.230  23.571  1.00  0.00    -0.206 F 
ATOM     82  C   UNL A   1      53.386  27.502  25.137  1.00  0.00     0.006 A 
ENDBRANCH  61  75
BRANCH  62  83
ATOM     83  C   UNL A   1      41.015  28.322  28.354  1.00  0.00     0.057 A 
ATOM     84  C   UNL A   1      40.050  28.824  27.473  1.00  0.00     0.134 A 
ATOM     85  C   UNL A   1      40.582  27.931  29.627  1.00  0.00     0.134 A 
ATOM     86  F   UNL A   1      40.405  29.234  26.246  1.00  0.00    -0.206 F 
ATOM     87  C   UNL A   1      38.713  28.962  27.851  1.00  0.00     0.040 A 
ATOM     88  C   UNL A   1      39.244  28.035  30.008  1.00  0.00     0.040 A 
ATOM     89  F   UNL A   1      41.454  27.434  30.516  1.00  0.00    -0.206 F 
ATOM     90  C   UNL A   1      38.306  28.562  29.122  1.00  0.00     0.006 A 
ENDBRANCH  62  83
BRANCH  74  91
ATOM     91  C   UNL A   1      46.294  32.852  28.629  1.00  0.00     0.057 A 
ATOM     92  C   UNL A   1      46.063  33.914  27.746  1.00  0.00     0.134 A 
ATOM     93  C   UNL A   1      46.573  33.171  29.965  1.00  0.00     0.134 A 
ATOM     94  F   UNL A   1      45.802  33.677  26.451  1.00  0.00    -0.206 F 
ATOM     95  C   UNL A   1      46.131  35.243  28.169  1.00  0.00     0.040 A 
ATOM     96  C   UNL A   1      46.615  34.494  30.407  1.00  0.00     0.040 A 
ATOM     97  F   UNL A   1      46.795  32.202  30.865  1.00  0.00    -0.206 F 
ATOM     98  C   UNL A   1      46.400  35.534  29.506  1.00  0.00     0.006 A 
ENDBRANCH  74  91
ENDBRANCH  48  49
ENDBRANCH  40  43
ENDBRANCH  38  39
ENDBRANCH  37  38
ENDBRANCH  36  37
ENDBRANCH   1  36
TORSDOF 17
ENDMDL
