MODEL 1
REMARK VINA RESULT:     -11.7      0.000      0.000
REMARK SMILES C[C@@H](C(=O)NCCCCCCNC(=O)c1ccc(-c2c3nc(c(-c4c(F)cccc4F)c4ccc([nH]4)c(-c4c(F)cccc4F)c4nc(c(-c5c(F)cccc5F)c5ccc2[nH]5)C=C4)C=C3)cc1)c1ccc(NC2CCCC2)cc1F
REMARK SMILES IDX 8 1 7 2 6 3 5 4 3 5 4 6 2 8 1 9 69 10 70 11 80 12 71 13
REMARK SMILES IDX 79 14 81 15 72 16 73 17 74 19 75 20 78 21 76 22 77 23 9 24
REMARK SMILES IDX 10 25 11 26 12 27 13 28 14 30 15 31 16 32 68 33 17 34 67 35
REMARK SMILES IDX 18 36 19 37 20 38 61 39 21 40 66 41 60 42 62 43 22 44 65 45
REMARK SMILES IDX 59 46 58 47 23 49 49 50 32 51 48 52 33 53 36 54 47 55 63 56
REMARK SMILES IDX 34 57 35 58 46 60 64 61 37 62 24 63 25 64 30 65 26 66 27 67
REMARK SMILES IDX 29 68 31 69 28 70 50 71 51 72 56 73 52 74 53 75 55 76 57 77
REMARK SMILES IDX 54 78 38 79 39 80 44 81 40 82 41 83 43 84 45 85 42 86
REMARK H PARENT 5 7 73 18 12 29 62 48 36 59
REMARK Flexibility Score: inf
ROOT
ATOM      1  C   UNL A   1      32.863  30.075  26.810  1.00  0.00     0.002 C 
ENDROOT
BRANCH   1   2
ATOM      2  C   UNL A   1      32.723  28.655  27.370  1.00  0.00     0.021 C 
BRANCH   2   3
ATOM      3  C   UNL A   1      31.515  27.886  26.818  1.00  0.00     0.116 C 
BRANCH   3   4
ATOM      4  N   UNL A   1      31.590  26.495  27.222  1.00  0.00    -0.356 N 
ATOM      5  C   UNL A   1      31.609  25.415  26.377  1.00  0.00     0.227 C 
ATOM      6  O   UNL A   1      30.931  24.440  26.697  1.00  0.00    -0.274 OA
ATOM      7  H   UNL A   1      31.632  26.310  28.188  1.00  0.00     0.163 HD
BRANCH   5   8
ATOM      8  C   UNL A   1      32.399  25.541  25.072  1.00  0.00     0.108 C 
ATOM      9  C   UNL A   1      33.873  25.784  25.449  1.00  0.00     0.023 C 
BRANCH   8  10
ATOM     10  C   UNL A   1      31.942  26.596  24.071  1.00  0.00     0.000 A 
ATOM     11  C   UNL A   1      32.852  27.603  23.719  1.00  0.00     0.009 A 
ATOM     12  C   UNL A   1      30.689  26.656  23.462  1.00  0.00     0.129 A 
ATOM     13  C   UNL A   1      32.469  28.691  22.931  1.00  0.00     0.026 A 
ATOM     14  C   UNL A   1      30.299  27.763  22.698  1.00  0.00     0.065 A 
ATOM     15  F   UNL A   1      29.816  25.646  23.549  1.00  0.00    -0.207 F 
ATOM     16  C   UNL A   1      31.166  28.831  22.458  1.00  0.00     0.037 A 
BRANCH  16  17
ATOM     17  N   UNL A   1      30.717  29.913  21.730  1.00  0.00    -0.382 N 
ATOM     18  H   UNL A   1      31.191  30.082  20.884  1.00  0.00     0.160 HD
BRANCH  17  19
ATOM     19  C   UNL A   1      29.638  30.835  22.044  1.00  0.00     0.079 C 
ATOM     20  C   UNL A   1      28.320  30.540  21.335  1.00  0.00     0.025 C 
ATOM     21  C   UNL A   1      29.325  30.918  23.536  1.00  0.00     0.025 C 
ATOM     22  C   UNL A   1      27.275  31.207  22.216  1.00  0.00     0.002 C 
ATOM     23  C   UNL A   1      27.822  31.153  23.639  1.00  0.00     0.002 C 
ENDBRANCH  17  19
ENDBRANCH  16  17
ENDBRANCH   8  10
ENDBRANCH   5   8
ENDBRANCH   3   4
ENDBRANCH   2   3
ENDBRANCH   1   2
BRANCH   1  24
ATOM     24  C   UNL A   1      31.558  30.683  26.294  1.00  0.00     0.002 C 
BRANCH  24  25
ATOM     25  C   UNL A   1      31.408  32.179  26.572  1.00  0.00     0.021 C 
BRANCH  25  26
ATOM     26  C   UNL A   1      32.611  32.807  27.265  1.00  0.00     0.116 C 
BRANCH  26  27
ATOM     27  N   UNL A   1      32.381  34.208  27.581  1.00  0.00    -0.352 N 
ATOM     28  C   UNL A   1      32.969  34.979  28.550  1.00  0.00     0.251 C 
ATOM     29  H   UNL A   1      31.713  34.665  27.023  1.00  0.00     0.163 HD
ATOM     30  O   UNL A   1      32.507  36.083  28.833  1.00  0.00    -0.269 OA
BRANCH  28  31
ATOM     31  C   UNL A   1      34.152  34.469  29.270  1.00  0.00     0.039 A 
ATOM     32  C   UNL A   1      33.979  33.869  30.519  1.00  0.00     0.014 A 
ATOM     33  C   UNL A   1      35.429  34.579  28.710  1.00  0.00     0.014 A 
ATOM     34  C   UNL A   1      35.082  33.329  31.182  1.00  0.00     0.010 A 
ATOM     35  C   UNL A   1      36.512  33.972  29.335  1.00  0.00     0.010 A 
ATOM     36  C   UNL A   1      36.351  33.346  30.581  1.00  0.00    -0.014 A 
BRANCH  36  37
ATOM     37  C   UNL A   1      37.522  32.721  31.243  1.00  0.00     0.031 A 
ATOM     38  C   UNL A   1      38.189  31.523  30.626  1.00  0.00     0.074 A 
ATOM     39  C   UNL A   1      37.949  33.195  32.430  1.00  0.00     0.049 A 
ATOM     40  N   UNL A   1      39.182  30.802  31.082  1.00  0.00    -0.248 NA
ATOM     41  C   UNL A   1      37.650  31.054  29.339  1.00  0.00     0.031 C 
ATOM     42  C   UNL A   1      37.358  34.324  33.152  1.00  0.00     0.029 A 
ATOM     43  N   UNL A   1      38.975  32.783  33.242  1.00  0.00    -0.354 N 
ATOM     44  C   UNL A   1      39.379  29.795  30.146  1.00  0.00     0.074 A 
ATOM     45  C   UNL A   1      38.365  29.959  29.128  1.00  0.00     0.031 C 
ATOM     46  C   UNL A   1      38.046  34.528  34.286  1.00  0.00     0.029 A 
ATOM     47  C   UNL A   1      39.098  33.522  34.392  1.00  0.00     0.049 A 
ATOM     48  H   UNL A   1      39.566  32.027  33.021  1.00  0.00     0.167 HD
ATOM     49  C   UNL A   1      40.333  28.834  30.125  1.00  0.00     0.037 A 
ATOM     50  C   UNL A   1      39.957  33.399  35.422  1.00  0.00     0.037 A 
ATOM     51  C   UNL A   1      41.352  28.685  31.131  1.00  0.00     0.049 A 
ATOM     52  C   UNL A   1      40.996  32.311  35.383  1.00  0.00     0.074 A 
ATOM     53  C   UNL A   1      42.398  27.780  31.171  1.00  0.00     0.029 A 
ATOM     54  N   UNL A   1      41.449  29.460  32.279  1.00  0.00    -0.354 N 
ATOM     55  N   UNL A   1      41.215  31.408  34.458  1.00  0.00    -0.248 NA
ATOM     56  C   UNL A   1      41.912  32.229  36.530  1.00  0.00     0.031 C 
ATOM     57  C   UNL A   1      43.096  27.971  32.368  1.00  0.00     0.029 A 
ATOM     58  C   UNL A   1      42.521  29.034  33.046  1.00  0.00     0.049 A 
ATOM     59  H   UNL A   1      40.845  30.201  32.512  1.00  0.00     0.167 HD
ATOM     60  C   UNL A   1      42.309  30.672  34.895  1.00  0.00     0.074 A 
ATOM     61  C   UNL A   1      42.718  31.244  36.161  1.00  0.00     0.031 C 
ATOM     62  C   UNL A   1      42.920  29.617  34.302  1.00  0.00     0.037 A 
BRANCH  49  63
ATOM     63  C   UNL A   1      40.319  27.868  28.975  1.00  0.00     0.057 A 
ATOM     64  C   UNL A   1      39.569  26.684  29.011  1.00  0.00     0.134 A 
ATOM     65  C   UNL A   1      41.038  28.140  27.804  1.00  0.00     0.134 A 
ATOM     66  F   UNL A   1      38.866  26.358  30.106  1.00  0.00    -0.206 F 
ATOM     67  C   UNL A   1      39.557  25.794  27.936  1.00  0.00     0.040 A 
ATOM     68  C   UNL A   1      41.009  27.271  26.711  1.00  0.00     0.040 A 
ATOM     69  F   UNL A   1      41.772  29.257  27.698  1.00  0.00    -0.206 F 
ATOM     70  C   UNL A   1      40.273  26.090  26.779  1.00  0.00     0.006 A 
ENDBRANCH  49  63
BRANCH  50  71
ATOM     71  C   UNL A   1      39.886  34.339  36.569  1.00  0.00     0.057 A 
ATOM     72  C   UNL A   1      39.158  34.019  37.721  1.00  0.00     0.134 A 
ATOM     73  C   UNL A   1      40.531  35.581  36.538  1.00  0.00     0.134 A 
ATOM     74  F   UNL A   1      38.504  32.852  37.804  1.00  0.00    -0.206 F 
ATOM     75  C   UNL A   1      39.054  34.908  38.792  1.00  0.00     0.040 A 
ATOM     76  C   UNL A   1      40.458  36.469  37.613  1.00  0.00     0.040 A 
ATOM     77  F   UNL A   1      41.252  35.944  35.468  1.00  0.00    -0.206 F 
ATOM     78  C   UNL A   1      39.711  36.136  38.741  1.00  0.00     0.006 A 
ENDBRANCH  50  71
BRANCH  62  79
ATOM     79  C   UNL A   1      44.118  29.037  34.996  1.00  0.00     0.057 A 
ATOM     80  C   UNL A   1      45.420  29.471  34.717  1.00  0.00     0.134 A 
ATOM     81  C   UNL A   1      43.962  28.059  35.986  1.00  0.00     0.134 A 
ATOM     82  F   UNL A   1      45.641  30.398  33.771  1.00  0.00    -0.206 F 
ATOM     83  C   UNL A   1      46.526  28.934  35.378  1.00  0.00     0.040 A 
ATOM     84  C   UNL A   1      45.056  27.535  36.675  1.00  0.00     0.040 A 
ATOM     85  F   UNL A   1      42.742  27.605  36.310  1.00  0.00    -0.206 F 
ATOM     86  C   UNL A   1      46.344  27.969  36.366  1.00  0.00     0.006 A 
ENDBRANCH  62  79
ENDBRANCH  36  37
ENDBRANCH  28  31
ENDBRANCH  26  27
ENDBRANCH  25  26
ENDBRANCH  24  25
ENDBRANCH   1  24
TORSDOF 16
ENDMDL
MODEL 2
REMARK VINA RESULT:     -11.7      0.849      6.166
REMARK SMILES C[C@@H](C(=O)NCCCCCCNC(=O)c1ccc(-c2c3nc(c(-c4c(F)cccc4F)c4ccc([nH]4)c(-c4c(F)cccc4F)c4nc(c(-c5c(F)cccc5F)c5ccc2[nH]5)C=C4)C=C3)cc1)c1ccc(NC2CCCC2)cc1F
REMARK SMILES IDX 8 1 7 2 6 3 5 4 3 5 4 6 2 8 1 9 69 10 70 11 80 12 71 13
REMARK SMILES IDX 79 14 81 15 72 16 73 17 74 19 75 20 78 21 76 22 77 23 9 24
REMARK SMILES IDX 10 25 11 26 12 27 13 28 14 30 15 31 16 32 68 33 17 34 67 35
REMARK SMILES IDX 18 36 19 37 20 38 61 39 21 40 66 41 60 42 62 43 22 44 65 45
REMARK SMILES IDX 59 46 58 47 23 49 49 50 32 51 48 52 33 53 36 54 47 55 63 56
REMARK SMILES IDX 34 57 35 58 46 60 64 61 37 62 24 63 25 64 30 65 26 66 27 67
REMARK SMILES IDX 29 68 31 69 28 70 50 71 51 72 56 73 52 74 53 75 55 76 57 77
REMARK SMILES IDX 54 78 38 79 39 80 44 81 40 82 41 83 43 84 45 85 42 86
REMARK H PARENT 5 7 73 18 12 29 62 48 36 59
REMARK Flexibility Score: inf
ROOT
ATOM      1  C   UNL A   1      32.806  30.154  26.473  1.00  0.00     0.002 C 
ENDROOT
BRANCH   1   2
ATOM      2  C   UNL A   1      32.688  28.836  27.249  1.00  0.00     0.021 C 
BRANCH   2   3
ATOM      3  C   UNL A   1      31.520  27.950  26.794  1.00  0.00     0.116 C 
BRANCH   3   4
ATOM      4  N   UNL A   1      31.737  26.586  27.234  1.00  0.00    -0.356 N 
ATOM      5  C   UNL A   1      31.805  25.483  26.422  1.00  0.00     0.227 C 
ATOM      6  O   UNL A   1      31.233  24.465  26.807  1.00  0.00    -0.274 OA
ATOM      7  H   UNL A   1      31.845  26.438  28.201  1.00  0.00     0.163 HD
BRANCH   5   8
ATOM      8  C   UNL A   1      32.513  25.630  25.072  1.00  0.00     0.108 C 
ATOM      9  C   UNL A   1      33.989  25.963  25.361  1.00  0.00     0.023 C 
BRANCH   8  10
ATOM     10  C   UNL A   1      31.941  26.640  24.084  1.00  0.00     0.000 A 
ATOM     11  C   UNL A   1      32.772  27.688  23.662  1.00  0.00     0.009 A 
ATOM     12  C   UNL A   1      30.652  26.622  23.550  1.00  0.00     0.129 A 
ATOM     13  C   UNL A   1      32.284  28.738  22.882  1.00  0.00     0.026 A 
ATOM     14  C   UNL A   1      30.158  27.691  22.794  1.00  0.00     0.065 A 
ATOM     15  F   UNL A   1      29.843  25.568  23.705  1.00  0.00    -0.207 F 
ATOM     16  C   UNL A   1      30.949  28.799  22.486  1.00  0.00     0.037 A 
BRANCH  16  17
ATOM     17  N   UNL A   1      30.400  29.841  21.769  1.00  0.00    -0.382 N 
ATOM     18  H   UNL A   1      30.943  30.175  21.019  1.00  0.00     0.160 HD
BRANCH  17  19
ATOM     19  C   UNL A   1      29.127  30.512  21.972  1.00  0.00     0.079 C 
ATOM     20  C   UNL A   1      28.947  31.137  23.351  1.00  0.00     0.025 C 
ATOM     21  C   UNL A   1      28.852  31.615  20.951  1.00  0.00     0.025 C 
ATOM     22  C   UNL A   1      27.892  32.210  23.130  1.00  0.00     0.002 C 
ATOM     23  C   UNL A   1      28.069  32.692  21.694  1.00  0.00     0.002 C 
ENDBRANCH  17  19
ENDBRANCH  16  17
ENDBRANCH   8  10
ENDBRANCH   5   8
ENDBRANCH   3   4
ENDBRANCH   2   3
ENDBRANCH   1   2
BRANCH   1  24
ATOM     24  C   UNL A   1      31.466  30.795  26.107  1.00  0.00     0.002 C 
BRANCH  24  25
ATOM     25  C   UNL A   1      31.337  32.261  26.521  1.00  0.00     0.021 C 
BRANCH  25  26
ATOM     26  C   UNL A   1      32.598  32.845  27.146  1.00  0.00     0.116 C 
BRANCH  26  27
ATOM     27  N   UNL A   1      32.385  34.202  27.623  1.00  0.00    -0.352 N 
ATOM     28  C   UNL A   1      33.020  34.867  28.641  1.00  0.00     0.251 C 
ATOM     29  H   UNL A   1      31.691  34.714  27.151  1.00  0.00     0.163 HD
ATOM     30  O   UNL A   1      32.573  35.932  29.063  1.00  0.00    -0.269 OA
BRANCH  28  31
ATOM     31  C   UNL A   1      34.236  34.286  29.243  1.00  0.00     0.039 A 
ATOM     32  C   UNL A   1      34.116  33.499  30.390  1.00  0.00     0.014 A 
ATOM     33  C   UNL A   1      35.492  34.516  28.672  1.00  0.00     0.014 A 
ATOM     34  C   UNL A   1      35.251  32.897  30.933  1.00  0.00     0.010 A 
ATOM     35  C   UNL A   1      36.608  33.852  29.168  1.00  0.00     0.010 A 
ATOM     36  C   UNL A   1      36.501  33.041  30.308  1.00  0.00    -0.014 A 
BRANCH  36  37
ATOM     37  C   UNL A   1      37.706  32.355  30.836  1.00  0.00     0.031 A 
ATOM     38  C   UNL A   1      38.409  32.891  32.051  1.00  0.00     0.074 A 
ATOM     39  C   UNL A   1      38.202  31.284  30.185  1.00  0.00     0.049 A 
ATOM     40  N   UNL A   1      39.507  32.469  32.626  1.00  0.00    -0.248 NA
ATOM     41  C   UNL A   1      37.816  34.076  32.692  1.00  0.00     0.031 C 
ATOM     42  C   UNL A   1      37.636  30.696  28.969  1.00  0.00     0.029 A 
ATOM     43  N   UNL A   1      39.299  30.505  30.451  1.00  0.00    -0.354 N 
ATOM     44  C   UNL A   1      39.739  33.338  33.683  1.00  0.00     0.074 A 
ATOM     45  C   UNL A   1      38.703  34.347  33.637  1.00  0.00     0.031 C 
ATOM     46  C   UNL A   1      38.375  29.635  28.610  1.00  0.00     0.029 A 
ATOM     47  C   UNL A   1      39.489  29.493  29.542  1.00  0.00     0.049 A 
ATOM     48  H   UNL A   1      39.894  30.657  31.220  1.00  0.00     0.167 HD
ATOM     49  C   UNL A   1      40.713  33.287  34.623  1.00  0.00     0.037 A 
ATOM     50  C   UNL A   1      40.456  28.559  29.464  1.00  0.00     0.037 A 
ATOM     51  C   UNL A   1      41.731  32.271  34.677  1.00  0.00     0.049 A 
ATOM     52  C   UNL A   1      41.537  28.536  30.510  1.00  0.00     0.074 A 
ATOM     53  C   UNL A   1      42.728  32.099  35.621  1.00  0.00     0.029 A 
ATOM     54  N   UNL A   1      41.886  31.257  33.742  1.00  0.00    -0.354 N 
ATOM     55  N   UNL A   1      41.705  29.322  31.546  1.00  0.00    -0.248 NA
ATOM     56  C   UNL A   1      42.562  27.490  30.380  1.00  0.00     0.031 C 
ATOM     57  C   UNL A   1      43.518  31.013  35.230  1.00  0.00     0.029 A 
ATOM     58  C   UNL A   1      42.978  30.472  34.073  1.00  0.00     0.049 A 
ATOM     59  H   UNL A   1      41.305  31.116  32.961  1.00  0.00     0.167 HD
ATOM     60  C   UNL A   1      42.833  28.850  32.205  1.00  0.00     0.074 A 
ATOM     61  C   UNL A   1      43.299  27.699  31.461  1.00  0.00     0.031 C 
ATOM     62  C   UNL A   1      43.428  29.325  33.326  1.00  0.00     0.037 A 
BRANCH  49  63
ATOM     63  C   UNL A   1      40.722  34.363  35.671  1.00  0.00     0.057 A 
ATOM     64  C   UNL A   1      39.993  34.243  36.863  1.00  0.00     0.134 A 
ATOM     65  C   UNL A   1      41.495  35.519  35.503  1.00  0.00     0.134 A 
ATOM     66  F   UNL A   1      39.223  33.166  37.083  1.00  0.00    -0.206 F 
ATOM     67  C   UNL A   1      40.011  35.245  37.835  1.00  0.00     0.040 A 
ATOM     68  C   UNL A   1      41.544  36.514  36.481  1.00  0.00     0.040 A 
ATOM     69  F   UNL A   1      42.222  35.698  34.390  1.00  0.00    -0.206 F 
ATOM     70  C   UNL A   1      40.794  36.381  37.648  1.00  0.00     0.006 A 
ENDBRANCH  49  63
BRANCH  50  71
ATOM     71  C   UNL A   1      40.439  27.558  28.368  1.00  0.00     0.057 A 
ATOM     72  C   UNL A   1      39.714  26.367  28.489  1.00  0.00     0.134 A 
ATOM     73  C   UNL A   1      41.155  27.760  27.181  1.00  0.00     0.134 A 
ATOM     74  F   UNL A   1      39.024  26.107  29.608  1.00  0.00    -0.206 F 
ATOM     75  C   UNL A   1      39.718  25.402  27.480  1.00  0.00     0.040 A 
ATOM     76  C   UNL A   1      41.145  26.816  26.153  1.00  0.00     0.040 A 
ATOM     77  F   UNL A   1      41.862  28.884  27.000  1.00  0.00    -0.206 F 
ATOM     78  C   UNL A   1      40.432  25.629  26.305  1.00  0.00     0.006 A 
ENDBRANCH  50  71
BRANCH  62  79
ATOM     79  C   UNL A   1      44.627  28.580  33.837  1.00  0.00     0.057 A 
ATOM     80  C   UNL A   1      45.931  28.923  33.457  1.00  0.00     0.134 A 
ATOM     81  C   UNL A   1      44.476  27.531  34.752  1.00  0.00     0.134 A 
ATOM     82  F   UNL A   1      46.146  29.910  32.574  1.00  0.00    -0.206 F 
ATOM     83  C   UNL A   1      47.039  28.232  33.950  1.00  0.00     0.040 A 
ATOM     84  C   UNL A   1      45.576  26.852  35.274  1.00  0.00     0.040 A 
ATOM     85  F   UNL A   1      43.254  27.158  35.166  1.00  0.00    -0.206 F 
ATOM     86  C   UNL A   1      46.863  27.198  34.868  1.00  0.00     0.006 A 
ENDBRANCH  62  79
ENDBRANCH  36  37
ENDBRANCH  28  31
ENDBRANCH  26  27
ENDBRANCH  25  26
ENDBRANCH  24  25
ENDBRANCH   1  24
TORSDOF 16
ENDMDL
MODEL 3
REMARK VINA RESULT:     -11.5      3.840      7.968
REMARK SMILES C[C@@H](C(=O)NCCCCCCNC(=O)c1ccc(-c2c3nc(c(-c4c(F)cccc4F)c4ccc([nH]4)c(-c4c(F)cccc4F)c4nc(c(-c5c(F)cccc5F)c5ccc2[nH]5)C=C4)C=C3)cc1)c1ccc(NC2CCCC2)cc1F
REMARK SMILES IDX 8 1 7 2 6 3 5 4 3 5 4 6 2 8 1 9 69 10 70 11 80 12 71 13
REMARK SMILES IDX 79 14 81 15 72 16 73 17 74 19 75 20 78 21 76 22 77 23 9 24
REMARK SMILES IDX 10 25 11 26 12 27 13 28 14 30 15 31 16 32 68 33 17 34 67 35
REMARK SMILES IDX 18 36 19 37 20 38 61 39 21 40 66 41 60 42 62 43 22 44 65 45
REMARK SMILES IDX 59 46 58 47 23 49 49 50 32 51 48 52 33 53 36 54 47 55 63 56
REMARK SMILES IDX 34 57 35 58 46 60 64 61 37 62 24 63 25 64 30 65 26 66 27 67
REMARK SMILES IDX 29 68 31 69 28 70 50 71 51 72 56 73 52 74 53 75 55 76 57 77
REMARK SMILES IDX 54 78 38 79 39 80 44 81 40 82 41 83 43 84 45 85 42 86
REMARK H PARENT 5 7 73 18 12 29 62 48 36 59
REMARK Flexibility Score: inf
ROOT
ATOM      1  C   UNL A   1      33.188  25.838  26.149  1.00  0.00     0.002 C 
ENDROOT
BRANCH   1   2
ATOM      2  C   UNL A   1      32.633  24.431  26.399  1.00  0.00     0.021 C 
BRANCH   2   3
ATOM      3  C   UNL A   1      33.484  23.309  25.786  1.00  0.00     0.116 C 
BRANCH   3   4
ATOM      4  N   UNL A   1      34.460  23.874  24.876  1.00  0.00    -0.356 N 
ATOM      5  C   UNL A   1      34.432  23.775  23.508  1.00  0.00     0.227 C 
ATOM      6  O   UNL A   1      35.499  23.551  22.939  1.00  0.00    -0.274 OA
ATOM      7  H   UNL A   1      35.209  24.374  25.274  1.00  0.00     0.163 HD
BRANCH   5   8
ATOM      8  C   UNL A   1      33.072  23.866  22.811  1.00  0.00     0.108 C 
ATOM      9  C   UNL A   1      33.240  23.276  21.397  1.00  0.00     0.023 C 
BRANCH   8  10
ATOM     10  C   UNL A   1      32.417  25.239  22.722  1.00  0.00     0.000 A 
ATOM     11  C   UNL A   1      33.224  26.329  22.364  1.00  0.00     0.009 A 
ATOM     12  C   UNL A   1      31.073  25.522  22.965  1.00  0.00     0.129 A 
ATOM     13  C   UNL A   1      32.744  27.639  22.407  1.00  0.00     0.026 A 
ATOM     14  C   UNL A   1      30.602  26.838  23.037  1.00  0.00     0.065 A 
ATOM     15  F   UNL A   1      30.165  24.549  23.104  1.00  0.00    -0.207 F 
ATOM     16  C   UNL A   1      31.442  27.930  22.809  1.00  0.00     0.037 A 
BRANCH  16  17
ATOM     17  N   UNL A   1      30.934  29.207  22.931  1.00  0.00    -0.382 N 
ATOM     18  H   UNL A   1      31.580  29.936  22.787  1.00  0.00     0.160 HD
BRANCH  17  19
ATOM     19  C   UNL A   1      29.576  29.620  23.240  1.00  0.00     0.079 C 
ATOM     20  C   UNL A   1      29.461  30.985  23.910  1.00  0.00     0.025 C 
ATOM     21  C   UNL A   1      28.657  29.650  22.020  1.00  0.00     0.025 C 
ATOM     22  C   UNL A   1      28.037  31.423  23.600  1.00  0.00     0.002 C 
ATOM     23  C   UNL A   1      27.684  30.799  22.254  1.00  0.00     0.002 C 
ENDBRANCH  17  19
ENDBRANCH  16  17
ENDBRANCH   8  10
ENDBRANCH   5   8
ENDBRANCH   3   4
ENDBRANCH   2   3
ENDBRANCH   1   2
BRANCH   1  24
ATOM     24  C   UNL A   1      32.170  26.964  26.345  1.00  0.00     0.002 C 
BRANCH  24  25
ATOM     25  C   UNL A   1      32.759  28.370  26.235  1.00  0.00     0.021 C 
BRANCH  25  26
ATOM     26  C   UNL A   1      33.864  28.662  27.243  1.00  0.00     0.116 C 
BRANCH  26  27
ATOM     27  N   UNL A   1      33.811  30.036  27.719  1.00  0.00    -0.352 N 
ATOM     28  C   UNL A   1      34.753  30.740  28.424  1.00  0.00     0.251 C 
ATOM     29  H   UNL A   1      32.986  30.527  27.507  1.00  0.00     0.163 HD
ATOM     30  O   UNL A   1      34.466  31.817  28.942  1.00  0.00    -0.269 OA
BRANCH  28  31
ATOM     31  C   UNL A   1      36.113  30.187  28.575  1.00  0.00     0.039 A 
ATOM     32  C   UNL A   1      36.996  30.252  27.496  1.00  0.00     0.014 A 
ATOM     33  C   UNL A   1      36.516  29.610  29.784  1.00  0.00     0.014 A 
ATOM     34  C   UNL A   1      38.303  29.787  27.646  1.00  0.00     0.010 A 
ATOM     35  C   UNL A   1      37.840  29.220  29.955  1.00  0.00     0.010 A 
ATOM     36  C   UNL A   1      38.745  29.298  28.886  1.00  0.00    -0.014 A 
BRANCH  36  37
ATOM     37  C   UNL A   1      40.149  28.859  29.081  1.00  0.00     0.031 A 
ATOM     38  C   UNL A   1      41.159  29.800  29.677  1.00  0.00     0.074 A 
ATOM     39  C   UNL A   1      40.528  27.634  28.668  1.00  0.00     0.049 A 
ATOM     40  N   UNL A   1      42.441  29.623  29.871  1.00  0.00    -0.248 NA
ATOM     41  C   UNL A   1      40.670  31.127  30.084  1.00  0.00     0.031 C 
ATOM     42  C   UNL A   1      39.651  26.647  28.034  1.00  0.00     0.029 A 
ATOM     43  N   UNL A   1      41.750  27.013  28.711  1.00  0.00    -0.354 N 
ATOM     44  C   UNL A   1      42.910  30.813  30.410  1.00  0.00     0.074 A 
ATOM     45  C   UNL A   1      41.790  31.726  30.459  1.00  0.00     0.031 C 
ATOM     46  C   UNL A   1      40.359  25.537  27.771  1.00  0.00     0.029 A 
ATOM     47  C   UNL A   1      41.744  25.748  28.178  1.00  0.00     0.049 A 
ATOM     48  H   UNL A   1      42.556  27.435  29.088  1.00  0.00     0.167 HD
ATOM     49  C   UNL A   1      44.157  31.111  30.849  1.00  0.00     0.037 A 
ATOM     50  C   UNL A   1      42.745  24.860  28.026  1.00  0.00     0.037 A 
ATOM     51  C   UNL A   1      45.265  30.193  30.816  1.00  0.00     0.049 A 
ATOM     52  C   UNL A   1      44.125  25.222  28.504  1.00  0.00     0.074 A 
ATOM     53  C   UNL A   1      46.553  30.379  31.288  1.00  0.00     0.029 A 
ATOM     54  N   UNL A   1      45.218  28.915  30.276  1.00  0.00    -0.354 N 
ATOM     55  N   UNL A   1      44.540  26.326  29.077  1.00  0.00    -0.248 NA
ATOM     56  C   UNL A   1      45.176  24.211  28.321  1.00  0.00     0.031 C 
ATOM     57  C   UNL A   1      47.299  29.235  30.986  1.00  0.00     0.029 A 
ATOM     58  C   UNL A   1      46.461  28.313  30.378  1.00  0.00     0.049 A 
ATOM     59  H   UNL A   1      44.419  28.499  29.879  1.00  0.00     0.167 HD
ATOM     60  C   UNL A   1      45.888  26.132  29.348  1.00  0.00     0.074 A 
ATOM     61  C   UNL A   1      46.218  24.798  28.891  1.00  0.00     0.031 C 
ATOM     62  C   UNL A   1      46.773  26.981  29.924  1.00  0.00     0.037 A 
BRANCH  49  63
ATOM     63  C   UNL A   1      44.387  32.488  31.402  1.00  0.00     0.057 A 
ATOM     64  C   UNL A   1      44.793  33.555  30.588  1.00  0.00     0.134 A 
ATOM     65  C   UNL A   1      44.168  32.759  32.759  1.00  0.00     0.134 A 
ATOM     66  F   UNL A   1      45.031  33.362  29.282  1.00  0.00    -0.206 F 
ATOM     67  C   UNL A   1      45.000  34.834  31.109  1.00  0.00     0.040 A 
ATOM     68  C   UNL A   1      44.343  34.041  33.285  1.00  0.00     0.040 A 
ATOM     69  F   UNL A   1      43.772  31.787  33.594  1.00  0.00    -0.206 F 
ATOM     70  C   UNL A   1      44.768  35.081  32.460  1.00  0.00     0.006 A 
ENDBRANCH  49  63
BRANCH  50  71
ATOM     71  C   UNL A   1      42.479  23.535  27.410  1.00  0.00     0.057 A 
ATOM     72  C   UNL A   1      42.604  23.342  26.029  1.00  0.00     0.134 A 
ATOM     73  C   UNL A   1      42.084  22.435  28.181  1.00  0.00     0.134 A 
ATOM     74  F   UNL A   1      42.961  24.361  25.235  1.00  0.00    -0.206 F 
ATOM     75  C   UNL A   1      42.322  22.112  25.434  1.00  0.00     0.040 A 
ATOM     76  C   UNL A   1      41.826  21.192  27.603  1.00  0.00     0.040 A 
ATOM     77  F   UNL A   1      41.955  22.552  29.511  1.00  0.00    -0.206 F 
ATOM     78  C   UNL A   1      41.937  21.030  26.223  1.00  0.00     0.006 A 
ENDBRANCH  50  71
BRANCH  62  79
ATOM     79  C   UNL A   1      48.175  26.481  30.126  1.00  0.00     0.057 A 
ATOM     80  C   UNL A   1      49.179  26.682  29.172  1.00  0.00     0.134 A 
ATOM     81  C   UNL A   1      48.531  25.824  31.311  1.00  0.00     0.134 A 
ATOM     82  F   UNL A   1      48.903  27.293  28.010  1.00  0.00    -0.206 F 
ATOM     83  C   UNL A   1      50.482  26.224  29.377  1.00  0.00     0.040 A 
ATOM     84  C   UNL A   1      49.835  25.388  31.541  1.00  0.00     0.040 A 
ATOM     85  F   UNL A   1      47.619  25.608  32.271  1.00  0.00    -0.206 F 
ATOM     86  C   UNL A   1      50.814  25.582  30.569  1.00  0.00     0.006 A 
ENDBRANCH  62  79
ENDBRANCH  36  37
ENDBRANCH  28  31
ENDBRANCH  26  27
ENDBRANCH  25  26
ENDBRANCH  24  25
ENDBRANCH   1  24
TORSDOF 16
ENDMDL
