MODEL 1
REMARK VINA RESULT:     -11.0      0.000      0.000
REMARK SMILES C[C@H](CNC(=O)Cc1ccc(F)c(F)c1)C(=O)NCCCCCCNC(=O)c1ccc(-c2c3nc(c(-c4c(F)cccc4F)c4ccc([nH]4)c(-c4c(F)cccc4F)c4nc(c(-c5c(F)cccc5F)c5ccc2[nH]5)C=C4)C=C3)cc1
REMARK SMILES IDX 20 1 19 2 18 3 16 4 17 5 2 7 1 8 3 9 4 10 5 11 6 13 7 14
REMARK SMILES IDX 8 15 9 16 15 17 10 18 13 19 11 20 14 21 12 22 21 23 22 24
REMARK SMILES IDX 23 25 24 26 25 27 26 28 27 30 28 31 29 32 81 33 30 34 80 35
REMARK SMILES IDX 31 36 32 37 33 38 74 39 34 40 79 41 73 42 75 43 35 44 78 45
REMARK SMILES IDX 72 46 71 47 36 49 62 50 45 51 61 52 46 53 49 54 60 55 76 56
REMARK SMILES IDX 47 57 48 58 59 60 77 61 50 62 37 63 38 64 43 65 39 66 40 67
REMARK SMILES IDX 42 68 44 69 41 70 63 71 64 72 69 73 65 74 66 75 68 76 70 77
REMARK SMILES IDX 67 78 51 79 52 80 57 81 53 82 54 83 56 84 58 85 55 86
REMARK H PARENT 18 6 4 12 25 29 75 48 49 59
REMARK Flexibility Score: inf
ROOT
ATOM      1  C   UNL A   1      34.807  31.388  27.897  1.00  0.00     0.021 C 
ENDROOT
BRANCH   1   2
ATOM      2  C   UNL A   1      33.566  30.795  27.231  1.00  0.00     0.116 C 
BRANCH   2   3
ATOM      3  N   UNL A   1      33.951  29.735  26.318  1.00  0.00    -0.356 N 
ATOM      4  C   UNL A   1      33.299  28.617  25.910  1.00  0.00     0.224 C 
ATOM      5  O   UNL A   1      33.953  27.783  25.275  1.00  0.00    -0.275 OA
ATOM      6  H   UNL A   1      34.846  29.847  25.924  1.00  0.00     0.163 HD
BRANCH   4   7
ATOM      7  C   UNL A   1      31.819  28.373  26.183  1.00  0.00     0.094 C 
ATOM      8  C   UNL A   1      31.486  28.423  27.669  1.00  0.00     0.020 C 
BRANCH   7   9
ATOM      9  C   UNL A   1      31.179  27.229  25.375  1.00  0.00     0.129 C 
BRANCH   9  10
ATOM     10  N   UNL A   1      31.371  27.273  23.938  1.00  0.00    -0.355 N 
ATOM     11  C   UNL A   1      30.528  27.551  22.905  1.00  0.00     0.224 C 
ATOM     12  H   UNL A   1      32.291  27.063  23.654  1.00  0.00     0.163 HD
ATOM     13  O   UNL A   1      30.966  27.421  21.758  1.00  0.00    -0.275 OA
BRANCH  11  14
ATOM     14  C   UNL A   1      29.120  28.053  23.144  1.00  0.00     0.135 C 
BRANCH  14  15
ATOM     15  C   UNL A   1      28.887  29.508  22.825  1.00  0.00    -0.036 A 
ATOM     16  C   UNL A   1      29.311  30.499  23.727  1.00  0.00     0.007 A 
ATOM     17  C   UNL A   1      28.274  29.900  21.624  1.00  0.00     0.046 A 
ATOM     18  C   UNL A   1      29.084  31.851  23.461  1.00  0.00     0.043 A 
ATOM     19  C   UNL A   1      28.067  31.253  21.359  1.00  0.00     0.159 A 
ATOM     20  C   UNL A   1      28.458  32.220  22.278  1.00  0.00     0.158 A 
ATOM     21  F   UNL A   1      27.478  31.617  20.212  1.00  0.00    -0.204 F 
ATOM     22  F   UNL A   1      28.231  33.518  22.034  1.00  0.00    -0.204 F 
ENDBRANCH  14  15
ENDBRANCH  11  14
ENDBRANCH   9  10
ENDBRANCH   7   9
ENDBRANCH   4   7
ENDBRANCH   2   3
ENDBRANCH   1   2
BRANCH   1  23
ATOM     23  C   UNL A   1      34.496  32.413  28.987  1.00  0.00     0.002 C 
BRANCH  23  24
ATOM     24  C   UNL A   1      34.576  33.871  28.528  1.00  0.00     0.002 C 
BRANCH  24  25
ATOM     25  C   UNL A   1      33.287  34.680  28.698  1.00  0.00     0.021 C 
BRANCH  25  26
ATOM     26  C   UNL A   1      33.444  35.995  29.459  1.00  0.00     0.116 C 
BRANCH  26  27
ATOM     27  N   UNL A   1      32.540  36.080  30.594  1.00  0.00    -0.352 N 
ATOM     28  C   UNL A   1      32.636  35.512  31.838  1.00  0.00     0.251 C 
ATOM     29  H   UNL A   1      31.736  36.631  30.447  1.00  0.00     0.163 HD
ATOM     30  O   UNL A   1      31.675  35.535  32.599  1.00  0.00    -0.269 OA
BRANCH  28  31
ATOM     31  C   UNL A   1      33.891  34.856  32.257  1.00  0.00     0.039 A 
ATOM     32  C   UNL A   1      33.841  33.522  32.668  1.00  0.00     0.014 A 
ATOM     33  C   UNL A   1      35.103  35.552  32.271  1.00  0.00     0.014 A 
ATOM     34  C   UNL A   1      35.015  32.870  33.043  1.00  0.00     0.010 A 
ATOM     35  C   UNL A   1      36.285  34.882  32.580  1.00  0.00     0.010 A 
ATOM     36  C   UNL A   1      36.252  33.536  32.974  1.00  0.00    -0.014 A 
BRANCH  36  37
ATOM     37  C   UNL A   1      37.512  32.820  33.292  1.00  0.00     0.031 A 
ATOM     38  C   UNL A   1      38.260  33.113  34.560  1.00  0.00     0.074 A 
ATOM     39  C   UNL A   1      38.000  31.928  32.410  1.00  0.00     0.049 A 
ATOM     40  N   UNL A   1      39.365  32.571  35.009  1.00  0.00    -0.248 NA
ATOM     41  C   UNL A   1      37.713  34.168  35.426  1.00  0.00     0.031 C 
ATOM     42  C   UNL A   1      37.394  31.599  31.118  1.00  0.00     0.029 A 
ATOM     43  N   UNL A   1      39.114  31.130  32.467  1.00  0.00    -0.354 N 
ATOM     44  C   UNL A   1      39.648  33.224  36.203  1.00  0.00     0.074 A 
ATOM     45  C   UNL A   1      38.630  34.237  36.380  1.00  0.00     0.031 C 
ATOM     46  C   UNL A   1      38.122  30.641  30.523  1.00  0.00     0.029 A 
ATOM     47  C   UNL A   1      39.260  30.311  31.375  1.00  0.00     0.049 A 
ATOM     48  H   UNL A   1      39.749  31.145  33.220  1.00  0.00     0.167 HD
ATOM     49  C   UNL A   1      40.652  32.986  37.080  1.00  0.00     0.037 A 
ATOM     50  C   UNL A   1      40.202  29.392  31.095  1.00  0.00     0.037 A 
ATOM     51  C   UNL A   1      41.654  31.964  36.907  1.00  0.00     0.049 A 
ATOM     52  C   UNL A   1      41.305  29.145  32.084  1.00  0.00     0.074 A 
ATOM     53  C   UNL A   1      42.666  31.593  37.774  1.00  0.00     0.029 A 
ATOM     54  N   UNL A   1      41.774  31.159  35.785  1.00  0.00    -0.354 N 
ATOM     55  N   UNL A   1      41.511  29.708  33.251  1.00  0.00    -0.248 NA
ATOM     56  C   UNL A   1      42.303  28.131  31.719  1.00  0.00     0.031 C 
ATOM     57  C   UNL A   1      43.428  30.596  37.155  1.00  0.00     0.029 A 
ATOM     58  C   UNL A   1      42.863  30.313  35.923  1.00  0.00     0.049 A 
ATOM     59  H   UNL A   1      41.174  31.184  35.004  1.00  0.00     0.167 HD
ATOM     60  C   UNL A   1      42.649  29.103  33.768  1.00  0.00     0.074 A 
ATOM     61  C   UNL A   1      43.075  28.115  32.797  1.00  0.00     0.031 C 
ATOM     62  C   UNL A   1      43.283  29.344  34.942  1.00  0.00     0.037 A 
BRANCH  49  63
ATOM     63  C   UNL A   1      40.717  33.852  38.305  1.00  0.00     0.057 A 
ATOM     64  C   UNL A   1      41.535  34.988  38.368  1.00  0.00     0.134 A 
ATOM     65  C   UNL A   1      39.935  33.559  39.430  1.00  0.00     0.134 A 
ATOM     66  F   UNL A   1      42.318  35.320  37.329  1.00  0.00    -0.206 F 
ATOM     67  C   UNL A   1      41.599  35.782  39.515  1.00  0.00     0.040 A 
ATOM     68  C   UNL A   1      39.969  34.361  40.572  1.00  0.00     0.040 A 
ATOM     69  F   UNL A   1      39.123  32.491  39.436  1.00  0.00    -0.206 F 
ATOM     70  C   UNL A   1      40.810  35.471  40.620  1.00  0.00     0.006 A 
ENDBRANCH  49  63
BRANCH  50  71
ATOM     71  C   UNL A   1      40.117  28.607  29.839  1.00  0.00     0.057 A 
ATOM     72  C   UNL A   1      40.802  29.013  28.690  1.00  0.00     0.134 A 
ATOM     73  C   UNL A   1      39.360  27.432  29.759  1.00  0.00     0.134 A 
ATOM     74  F   UNL A   1      41.530  30.140  28.701  1.00  0.00    -0.206 F 
ATOM     75  C   UNL A   1      40.730  28.288  27.500  1.00  0.00     0.040 A 
ATOM     76  C   UNL A   1      39.297  26.683  28.583  1.00  0.00     0.040 A 
ATOM     77  F   UNL A   1      38.686  26.985  30.829  1.00  0.00    -0.206 F 
ATOM     78  C   UNL A   1      39.980  27.114  27.446  1.00  0.00     0.006 A 
ENDBRANCH  50  71
BRANCH  62  79
ATOM     79  C   UNL A   1      44.496  28.513  35.241  1.00  0.00     0.057 A 
ATOM     80  C   UNL A   1      45.784  28.928  34.874  1.00  0.00     0.134 A 
ATOM     81  C   UNL A   1      44.379  27.290  35.914  1.00  0.00     0.134 A 
ATOM     82  F   UNL A   1      45.963  30.082  34.214  1.00  0.00    -0.206 F 
ATOM     83  C   UNL A   1      46.906  28.143  35.140  1.00  0.00     0.040 A 
ATOM     84  C   UNL A   1      45.497  26.510  36.209  1.00  0.00     0.040 A 
ATOM     85  F   UNL A   1      43.177  26.837  36.300  1.00  0.00    -0.206 F 
ATOM     86  C   UNL A   1      46.765  26.932  35.814  1.00  0.00     0.006 A 
ENDBRANCH  62  79
ENDBRANCH  36  37
ENDBRANCH  28  31
ENDBRANCH  26  27
ENDBRANCH  25  26
ENDBRANCH  24  25
ENDBRANCH  23  24
ENDBRANCH   1  23
TORSDOF 17
ENDMDL
MODEL 2
REMARK VINA RESULT:     -10.6      5.404     10.111
REMARK SMILES C[C@H](CNC(=O)Cc1ccc(F)c(F)c1)C(=O)NCCCCCCNC(=O)c1ccc(-c2c3nc(c(-c4c(F)cccc4F)c4ccc([nH]4)c(-c4c(F)cccc4F)c4nc(c(-c5c(F)cccc5F)c5ccc2[nH]5)C=C4)C=C3)cc1
REMARK SMILES IDX 20 1 19 2 18 3 16 4 17 5 2 7 1 8 3 9 4 10 5 11 6 13 7 14
REMARK SMILES IDX 8 15 9 16 15 17 10 18 13 19 11 20 14 21 12 22 21 23 22 24
REMARK SMILES IDX 23 25 24 26 25 27 26 28 27 30 28 31 29 32 81 33 30 34 80 35
REMARK SMILES IDX 31 36 32 37 33 38 74 39 34 40 79 41 73 42 75 43 35 44 78 45
REMARK SMILES IDX 72 46 71 47 36 49 62 50 45 51 61 52 46 53 49 54 60 55 76 56
REMARK SMILES IDX 47 57 48 58 59 60 77 61 50 62 37 63 38 64 43 65 39 66 40 67
REMARK SMILES IDX 42 68 44 69 41 70 63 71 64 72 69 73 65 74 66 75 68 76 70 77
REMARK SMILES IDX 67 78 51 79 52 80 57 81 53 82 54 83 56 84 58 85 55 86
REMARK H PARENT 18 6 4 12 25 29 75 48 49 59
REMARK Flexibility Score: inf
ROOT
ATOM      1  C   UNL A   1      35.290  22.614  25.537  1.00  0.00     0.021 C 
ENDROOT
BRANCH   1   2
ATOM      2  C   UNL A   1      34.358  21.403  25.536  1.00  0.00     0.116 C 
BRANCH   2   3
ATOM      3  N   UNL A   1      33.690  21.292  24.252  1.00  0.00    -0.356 N 
ATOM      4  C   UNL A   1      32.551  21.856  23.778  1.00  0.00     0.224 C 
ATOM      5  O   UNL A   1      32.110  21.424  22.708  1.00  0.00    -0.275 OA
ATOM      6  H   UNL A   1      34.147  20.702  23.609  1.00  0.00     0.163 HD
BRANCH   4   7
ATOM      7  C   UNL A   1      31.827  22.991  24.494  1.00  0.00     0.094 C 
ATOM      8  C   UNL A   1      31.011  22.501  25.684  1.00  0.00     0.020 C 
BRANCH   7   9
ATOM      9  C   UNL A   1      31.147  24.023  23.574  1.00  0.00     0.129 C 
BRANCH   9  10
ATOM     10  N   UNL A   1      31.977  24.601  22.535  1.00  0.00    -0.355 N 
ATOM     11  C   UNL A   1      33.093  25.381  22.576  1.00  0.00     0.224 C 
ATOM     12  H   UNL A   1      31.677  24.386  21.622  1.00  0.00     0.163 HD
ATOM     13  O   UNL A   1      33.537  25.801  21.503  1.00  0.00    -0.275 OA
BRANCH  11  14
ATOM     14  C   UNL A   1      33.800  25.685  23.879  1.00  0.00     0.135 C 
BRANCH  14  15
ATOM     15  C   UNL A   1      33.186  26.783  24.710  1.00  0.00    -0.036 A 
ATOM     16  C   UNL A   1      33.583  26.955  26.047  1.00  0.00     0.007 A 
ATOM     17  C   UNL A   1      32.238  27.664  24.165  1.00  0.00     0.046 A 
ATOM     18  C   UNL A   1      33.011  27.952  26.840  1.00  0.00     0.043 A 
ATOM     19  C   UNL A   1      31.684  28.668  24.959  1.00  0.00     0.159 A 
ATOM     20  C   UNL A   1      32.059  28.801  26.290  1.00  0.00     0.158 A 
ATOM     21  F   UNL A   1      30.778  29.501  24.431  1.00  0.00    -0.204 F 
ATOM     22  F   UNL A   1      31.504  29.748  27.060  1.00  0.00    -0.204 F 
ENDBRANCH  14  15
ENDBRANCH  11  14
ENDBRANCH   9  10
ENDBRANCH   7   9
ENDBRANCH   4   7
ENDBRANCH   2   3
ENDBRANCH   1   2
BRANCH   1  23
ATOM     23  C   UNL A   1      36.770  22.258  25.406  1.00  0.00     0.002 C 
BRANCH  23  24
ATOM     24  C   UNL A   1      37.080  21.223  24.320  1.00  0.00     0.002 C 
BRANCH  24  25
ATOM     25  C   UNL A   1      37.890  20.010  24.787  1.00  0.00     0.021 C 
BRANCH  25  26
ATOM     26  C   UNL A   1      38.893  20.293  25.903  1.00  0.00     0.116 C 
BRANCH  26  27
ATOM     27  N   UNL A   1      40.010  19.362  25.881  1.00  0.00    -0.352 N 
ATOM     28  C   UNL A   1      41.345  19.586  26.095  1.00  0.00     0.251 C 
ATOM     29  H   UNL A   1      39.770  18.427  25.684  1.00  0.00     0.163 HD
ATOM     30  O   UNL A   1      42.164  18.711  25.839  1.00  0.00    -0.269 OA
BRANCH  28  31
ATOM     31  C   UNL A   1      41.802  20.890  26.618  1.00  0.00     0.039 A 
ATOM     32  C   UNL A   1      42.246  21.855  25.711  1.00  0.00     0.014 A 
ATOM     33  C   UNL A   1      41.819  21.154  27.991  1.00  0.00     0.014 A 
ATOM     34  C   UNL A   1      42.656  23.104  26.175  1.00  0.00     0.010 A 
ATOM     35  C   UNL A   1      42.164  22.424  28.449  1.00  0.00     0.010 A 
ATOM     36  C   UNL A   1      42.591  23.409  27.546  1.00  0.00    -0.014 A 
BRANCH  36  37
ATOM     37  C   UNL A   1      42.949  24.764  28.034  1.00  0.00     0.031 A 
ATOM     38  C   UNL A   1      41.887  25.798  28.271  1.00  0.00     0.074 A 
ATOM     39  C   UNL A   1      44.246  25.070  28.228  1.00  0.00     0.049 A 
ATOM     40  N   UNL A   1      42.014  27.024  28.714  1.00  0.00    -0.248 NA
ATOM     41  C   UNL A   1      40.504  25.417  27.945  1.00  0.00     0.031 C 
ATOM     42  C   UNL A   1      45.372  24.169  27.979  1.00  0.00     0.029 A 
ATOM     43  N   UNL A   1      44.835  26.222  28.684  1.00  0.00    -0.354 N 
ATOM     44  C   UNL A   1      40.733  27.562  28.712  1.00  0.00     0.074 A 
ATOM     45  C   UNL A   1      39.852  26.548  28.174  1.00  0.00     0.031 C 
ATOM     46  C   UNL A   1      46.514  24.788  28.321  1.00  0.00     0.029 A 
ATOM     47  C   UNL A   1      46.202  26.137  28.783  1.00  0.00     0.049 A 
ATOM     48  H   UNL A   1      44.326  27.032  28.916  1.00  0.00     0.167 HD
ATOM     49  C   UNL A   1      40.327  28.782  29.139  1.00  0.00     0.037 A 
ATOM     50  C   UNL A   1      47.102  27.042  29.207  1.00  0.00     0.037 A 
ATOM     51  C   UNL A   1      41.206  29.781  29.690  1.00  0.00     0.049 A 
ATOM     52  C   UNL A   1      46.627  28.388  29.676  1.00  0.00     0.074 A 
ATOM     53  C   UNL A   1      40.881  31.017  30.222  1.00  0.00     0.029 A 
ATOM     54  N   UNL A   1      42.585  29.663  29.768  1.00  0.00    -0.354 N 
ATOM     55  N   UNL A   1      45.402  28.851  29.753  1.00  0.00    -0.248 NA
ATOM     56  C   UNL A   1      47.659  29.332  30.125  1.00  0.00     0.031 C 
ATOM     57  C   UNL A   1      42.069  31.666  30.577  1.00  0.00     0.029 A 
ATOM     58  C   UNL A   1      43.129  30.816  30.311  1.00  0.00     0.049 A 
ATOM     59  H   UNL A   1      43.102  28.875  29.481  1.00  0.00     0.167 HD
ATOM     60  C   UNL A   1      45.514  30.133  30.276  1.00  0.00     0.074 A 
ATOM     61  C   UNL A   1      46.924  30.364  30.517  1.00  0.00     0.031 C 
ATOM     62  C   UNL A   1      44.536  31.037  30.533  1.00  0.00     0.037 A 
BRANCH  49  63
ATOM     63  C   UNL A   1      38.863  29.100  29.022  1.00  0.00     0.057 A 
ATOM     64  C   UNL A   1      37.990  28.990  30.112  1.00  0.00     0.134 A 
ATOM     65  C   UNL A   1      38.324  29.542  27.807  1.00  0.00     0.134 A 
ATOM     66  F   UNL A   1      38.441  28.562  31.302  1.00  0.00    -0.206 F 
ATOM     67  C   UNL A   1      36.629  29.277  29.992  1.00  0.00     0.040 A 
ATOM     68  C   UNL A   1      36.969  29.858  27.682  1.00  0.00     0.040 A 
ATOM     69  F   UNL A   1      39.103  29.678  26.724  1.00  0.00    -0.206 F 
ATOM     70  C   UNL A   1      36.116  29.717  28.774  1.00  0.00     0.006 A 
ENDBRANCH  49  63
BRANCH  50  71
ATOM     71  C   UNL A   1      48.542  26.689  29.245  1.00  0.00     0.057 A 
ATOM     72  C   UNL A   1      49.390  27.010  28.180  1.00  0.00     0.134 A 
ATOM     73  C   UNL A   1      49.108  26.033  30.345  1.00  0.00     0.134 A 
ATOM     74  F   UNL A   1      48.901  27.623  27.090  1.00  0.00    -0.206 F 
ATOM     75  C   UNL A   1      50.746  26.682  28.198  1.00  0.00     0.040 A 
ATOM     76  C   UNL A   1      50.467  25.720  30.389  1.00  0.00     0.040 A 
ATOM     77  F   UNL A   1      48.349  25.705  31.401  1.00  0.00    -0.206 F 
ATOM     78  C   UNL A   1      51.290  26.040  29.309  1.00  0.00     0.006 A 
ENDBRANCH  50  71
BRANCH  62  79
ATOM     79  C   UNL A   1      44.964  32.351  31.118  1.00  0.00     0.057 A 
ATOM     80  C   UNL A   1      45.077  32.541  32.502  1.00  0.00     0.134 A 
ATOM     81  C   UNL A   1      45.279  33.435  30.288  1.00  0.00     0.134 A 
ATOM     82  F   UNL A   1      44.775  31.548  33.351  1.00  0.00    -0.206 F 
ATOM     83  C   UNL A   1      45.459  33.771  33.039  1.00  0.00     0.040 A 
ATOM     84  C   UNL A   1      45.689  34.661  30.814  1.00  0.00     0.040 A 
ATOM     85  F   UNL A   1      45.201  33.319  28.955  1.00  0.00    -0.206 F 
ATOM     86  C   UNL A   1      45.772  34.834  32.194  1.00  0.00     0.006 A 
ENDBRANCH  62  79
ENDBRANCH  36  37
ENDBRANCH  28  31
ENDBRANCH  26  27
ENDBRANCH  25  26
ENDBRANCH  24  25
ENDBRANCH  23  24
ENDBRANCH   1  23
TORSDOF 17
ENDMDL
MODEL 3
REMARK VINA RESULT:     -10.5      2.852      3.979
REMARK SMILES C[C@H](CNC(=O)Cc1ccc(F)c(F)c1)C(=O)NCCCCCCNC(=O)c1ccc(-c2c3nc(c(-c4c(F)cccc4F)c4ccc([nH]4)c(-c4c(F)cccc4F)c4nc(c(-c5c(F)cccc5F)c5ccc2[nH]5)C=C4)C=C3)cc1
REMARK SMILES IDX 20 1 19 2 18 3 16 4 17 5 2 7 1 8 3 9 4 10 5 11 6 13 7 14
REMARK SMILES IDX 8 15 9 16 15 17 10 18 13 19 11 20 14 21 12 22 21 23 22 24
REMARK SMILES IDX 23 25 24 26 25 27 26 28 27 30 28 31 29 32 81 33 30 34 80 35
REMARK SMILES IDX 31 36 32 37 33 38 74 39 34 40 79 41 73 42 75 43 35 44 78 45
REMARK SMILES IDX 72 46 71 47 36 49 62 50 45 51 61 52 46 53 49 54 60 55 76 56
REMARK SMILES IDX 47 57 48 58 59 60 77 61 50 62 37 63 38 64 43 65 39 66 40 67
REMARK SMILES IDX 42 68 44 69 41 70 63 71 64 72 69 73 65 74 66 75 68 76 70 77
REMARK SMILES IDX 67 78 51 79 52 80 57 81 53 82 54 83 56 84 58 85 55 86
REMARK H PARENT 18 6 4 12 25 29 75 48 49 59
REMARK Flexibility Score: inf
ROOT
ATOM      1  C   UNL A   1      34.740  31.411  27.650  1.00  0.00     0.021 C 
ENDROOT
BRANCH   1   2
ATOM      2  C   UNL A   1      33.553  30.658  27.050  1.00  0.00     0.116 C 
BRANCH   2   3
ATOM      3  N   UNL A   1      34.008  29.427  26.430  1.00  0.00    -0.356 N 
ATOM      4  C   UNL A   1      33.381  28.245  26.207  1.00  0.00     0.224 C 
ATOM      5  O   UNL A   1      34.080  27.297  25.835  1.00  0.00    -0.275 OA
ATOM      6  H   UNL A   1      34.941  29.456  26.113  1.00  0.00     0.163 HD
BRANCH   4   7
ATOM      7  C   UNL A   1      31.877  28.060  26.374  1.00  0.00     0.094 C 
ATOM      8  C   UNL A   1      31.432  28.195  27.825  1.00  0.00     0.020 C 
BRANCH   7   9
ATOM      9  C   UNL A   1      31.263  26.896  25.574  1.00  0.00     0.129 C 
BRANCH   9  10
ATOM     10  N   UNL A   1      30.755  25.781  26.352  1.00  0.00    -0.355 N 
ATOM     11  C   UNL A   1      31.196  24.505  26.527  1.00  0.00     0.224 C 
ATOM     12  H   UNL A   1      29.931  25.989  26.850  1.00  0.00     0.163 HD
ATOM     13  O   UNL A   1      30.489  23.742  27.194  1.00  0.00    -0.275 OA
BRANCH  11  14
ATOM     14  C   UNL A   1      32.527  24.044  25.975  1.00  0.00     0.135 C 
BRANCH  14  15
ATOM     15  C   UNL A   1      32.494  22.756  25.192  1.00  0.00    -0.036 A 
ATOM     16  C   UNL A   1      32.257  22.785  23.807  1.00  0.00     0.007 A 
ATOM     17  C   UNL A   1      32.725  21.519  25.816  1.00  0.00     0.046 A 
ATOM     18  C   UNL A   1      32.199  21.603  23.067  1.00  0.00     0.043 A 
ATOM     19  C   UNL A   1      32.682  20.344  25.065  1.00  0.00     0.159 A 
ATOM     20  C   UNL A   1      32.409  20.386  23.704  1.00  0.00     0.158 A 
ATOM     21  F   UNL A   1      32.900  19.169  25.670  1.00  0.00    -0.204 F 
ATOM     22  F   UNL A   1      32.340  19.253  22.991  1.00  0.00    -0.204 F 
ENDBRANCH  14  15
ENDBRANCH  11  14
ENDBRANCH   9  10
ENDBRANCH   7   9
ENDBRANCH   4   7
ENDBRANCH   2   3
ENDBRANCH   1   2
BRANCH   1  23
ATOM     23  C   UNL A   1      34.427  32.110  28.972  1.00  0.00     0.002 C 
BRANCH  23  24
ATOM     24  C   UNL A   1      34.590  33.632  28.939  1.00  0.00     0.002 C 
BRANCH  24  25
ATOM     25  C   UNL A   1      33.282  34.429  28.894  1.00  0.00     0.021 C 
BRANCH  25  26
ATOM     26  C   UNL A   1      33.364  35.839  29.473  1.00  0.00     0.116 C 
BRANCH  26  27
ATOM     27  N   UNL A   1      32.500  36.006  30.630  1.00  0.00    -0.352 N 
ATOM     28  C   UNL A   1      32.628  35.508  31.900  1.00  0.00     0.251 C 
ATOM     29  H   UNL A   1      31.701  36.561  30.477  1.00  0.00     0.163 HD
ATOM     30  O   UNL A   1      31.694  35.592  32.690  1.00  0.00    -0.269 OA
BRANCH  28  31
ATOM     31  C   UNL A   1      33.886  34.855  32.316  1.00  0.00     0.039 A 
ATOM     32  C   UNL A   1      33.837  33.528  32.750  1.00  0.00     0.014 A 
ATOM     33  C   UNL A   1      35.100  35.547  32.305  1.00  0.00     0.014 A 
ATOM     34  C   UNL A   1      35.013  32.879  33.122  1.00  0.00     0.010 A 
ATOM     35  C   UNL A   1      36.283  34.878  32.611  1.00  0.00     0.010 A 
ATOM     36  C   UNL A   1      36.251  33.539  33.028  1.00  0.00    -0.014 A 
BRANCH  36  37
ATOM     37  C   UNL A   1      37.512  32.825  33.343  1.00  0.00     0.031 A 
ATOM     38  C   UNL A   1      38.262  33.117  34.610  1.00  0.00     0.074 A 
ATOM     39  C   UNL A   1      38.000  31.933  32.460  1.00  0.00     0.049 A 
ATOM     40  N   UNL A   1      39.368  32.576  35.058  1.00  0.00    -0.248 NA
ATOM     41  C   UNL A   1      37.715  34.171  35.478  1.00  0.00     0.031 C 
ATOM     42  C   UNL A   1      37.392  31.605  31.169  1.00  0.00     0.029 A 
ATOM     43  N   UNL A   1      39.115  31.137  32.515  1.00  0.00    -0.354 N 
ATOM     44  C   UNL A   1      39.652  33.228  36.251  1.00  0.00     0.074 A 
ATOM     45  C   UNL A   1      38.633  34.240  36.431  1.00  0.00     0.031 C 
ATOM     46  C   UNL A   1      38.120  30.648  30.572  1.00  0.00     0.029 A 
ATOM     47  C   UNL A   1      39.260  30.319  31.422  1.00  0.00     0.049 A 
ATOM     48  H   UNL A   1      39.751  31.152  33.267  1.00  0.00     0.167 HD
ATOM     49  C   UNL A   1      40.658  32.991  37.126  1.00  0.00     0.037 A 
ATOM     50  C   UNL A   1      40.203  29.402  31.139  1.00  0.00     0.037 A 
ATOM     51  C   UNL A   1      41.660  31.970  36.951  1.00  0.00     0.049 A 
ATOM     52  C   UNL A   1      41.308  29.155  32.126  1.00  0.00     0.074 A 
ATOM     53  C   UNL A   1      42.674  31.599  37.817  1.00  0.00     0.029 A 
ATOM     54  N   UNL A   1      41.780  31.166  35.828  1.00  0.00    -0.354 N 
ATOM     55  N   UNL A   1      41.514  29.717  33.293  1.00  0.00    -0.248 NA
ATOM     56  C   UNL A   1      42.307  28.142  31.759  1.00  0.00     0.031 C 
ATOM     57  C   UNL A   1      43.437  30.604  37.196  1.00  0.00     0.029 A 
ATOM     58  C   UNL A   1      42.870  30.321  35.964  1.00  0.00     0.049 A 
ATOM     59  H   UNL A   1      41.179  31.191  35.049  1.00  0.00     0.167 HD
ATOM     60  C   UNL A   1      42.654  29.112  33.809  1.00  0.00     0.074 A 
ATOM     61  C   UNL A   1      43.080  28.127  32.836  1.00  0.00     0.031 C 
ATOM     62  C   UNL A   1      43.290  29.354  34.982  1.00  0.00     0.037 A 
BRANCH  49  63
ATOM     63  C   UNL A   1      40.724  33.856  38.352  1.00  0.00     0.057 A 
ATOM     64  C   UNL A   1      41.525  35.005  38.408  1.00  0.00     0.134 A 
ATOM     65  C   UNL A   1      39.960  33.549  39.486  1.00  0.00     0.134 A 
ATOM     66  F   UNL A   1      42.290  35.351  37.360  1.00  0.00    -0.206 F 
ATOM     67  C   UNL A   1      41.589  35.797  39.555  1.00  0.00     0.040 A 
ATOM     68  C   UNL A   1      39.995  34.350  40.629  1.00  0.00     0.040 A 
ATOM     69  F   UNL A   1      39.165  32.468  39.500  1.00  0.00    -0.206 F 
ATOM     70  C   UNL A   1      40.818  35.472  40.669  1.00  0.00     0.006 A 
ENDBRANCH  49  63
BRANCH  50  71
ATOM     71  C   UNL A   1      40.116  28.617  29.883  1.00  0.00     0.057 A 
ATOM     72  C   UNL A   1      40.792  29.030  28.730  1.00  0.00     0.134 A 
ATOM     73  C   UNL A   1      39.369  27.436  29.806  1.00  0.00     0.134 A 
ATOM     74  F   UNL A   1      41.510  30.164  28.739  1.00  0.00    -0.206 F 
ATOM     75  C   UNL A   1      40.718  28.306  27.540  1.00  0.00     0.040 A 
ATOM     76  C   UNL A   1      39.305  26.688  28.629  1.00  0.00     0.040 A 
ATOM     77  F   UNL A   1      38.705  26.983  30.879  1.00  0.00    -0.206 F 
ATOM     78  C   UNL A   1      39.977  27.127  27.489  1.00  0.00     0.006 A 
ENDBRANCH  50  71
BRANCH  62  79
ATOM     79  C   UNL A   1      44.505  28.524  35.278  1.00  0.00     0.057 A 
ATOM     80  C   UNL A   1      44.412  27.285  35.928  1.00  0.00     0.134 A 
ATOM     81  C   UNL A   1      45.780  28.961  34.899  1.00  0.00     0.134 A 
ATOM     82  F   UNL A   1      43.221  26.817  36.330  1.00  0.00    -0.206 F 
ATOM     83  C   UNL A   1      45.547  26.526  36.215  1.00  0.00     0.040 A 
ATOM     84  C   UNL A   1      46.919  28.197  35.157  1.00  0.00     0.040 A 
ATOM     85  F   UNL A   1      45.939  30.133  34.267  1.00  0.00    -0.206 F 
ATOM     86  C   UNL A   1      46.805  26.980  35.824  1.00  0.00     0.006 A 
ENDBRANCH  62  79
ENDBRANCH  36  37
ENDBRANCH  28  31
ENDBRANCH  26  27
ENDBRANCH  25  26
ENDBRANCH  24  25
ENDBRANCH  23  24
ENDBRANCH   1  23
TORSDOF 17
ENDMDL
