MODEL 1
REMARK VINA RESULT:     -12.5      0.000      0.000
REMARK SMILES CC(=O)NS(=O)(=O)c1ccc(-c2ccn(C(F)F)c(=O)c2)cc1C(=O)NCCCCCCNC(=O)c1ccc(-c2c3nc(c(-c4c(F)cccc4F)c4ccc([nH]4)c(-c4c(F)cccc4F)c4nc(c(-c5c(F)cccc5F)c5ccc2[nH]5)C=C4)C=C3)cc1
REMARK SMILES IDX 29 1 28 2 27 3 26 4 24 5 25 6 23 8 8 9 9 10 10 11 22 12
REMARK SMILES IDX 11 13 5 14 6 15 7 16 4 17 1 18 2 19 3 20 12 22 13 23 21 24
REMARK SMILES IDX 14 25 19 26 15 27 20 28 16 29 17 30 18 31 30 32 31 33 32 34
REMARK SMILES IDX 33 35 34 36 35 38 36 39 37 40 89 41 38 42 88 43 39 44 40 45
REMARK SMILES IDX 41 46 82 47 42 48 87 49 81 50 83 51 43 52 86 53 80 54 79 55
REMARK SMILES IDX 44 57 70 58 53 59 69 60 54 61 57 62 68 63 84 64 55 65 56 66
REMARK SMILES IDX 67 68 85 69 58 70 45 71 46 72 51 73 47 74 48 75 50 76 52 77
REMARK SMILES IDX 49 78 71 79 72 80 77 81 73 82 74 83 76 84 78 85 75 86 59 87
REMARK SMILES IDX 60 88 65 89 61 90 62 91 64 92 66 93 63 94
REMARK H PARENT 26 7 4 21 33 37 83 56 57 67
REMARK Flexibility Score: inf
ROOT
ATOM      1  C   UNL A   1      36.723  22.062  24.243  1.00  0.00     0.002 C 
ENDROOT
BRANCH   1   2
ATOM      2  C   UNL A   1      36.974  23.394  24.961  1.00  0.00     0.021 C 
BRANCH   2   3
ATOM      3  C   UNL A   1      35.733  24.226  25.308  1.00  0.00     0.116 C 
BRANCH   3   4
ATOM      4  N   UNL A   1      35.126  24.810  24.122  1.00  0.00    -0.352 N 
ATOM      5  C   UNL A   1      33.863  24.729  23.603  1.00  0.00     0.252 C 
ATOM      6  O   UNL A   1      33.563  25.416  22.628  1.00  0.00    -0.269 OA
ATOM      7  H   UNL A   1      35.740  25.370  23.592  1.00  0.00     0.163 HD
BRANCH   5   8
ATOM      8  C   UNL A   1      32.812  23.861  24.163  1.00  0.00     0.060 A 
ATOM      9  C   UNL A   1      31.877  24.253  25.125  1.00  0.00     0.100 A 
ATOM     10  C   UNL A   1      30.990  23.307  25.671  1.00  0.00     0.024 A 
ATOM     11  C   UNL A   1      31.132  21.954  25.379  1.00  0.00     0.010 A 
ATOM     12  C   UNL A   1      32.966  22.484  23.896  1.00  0.00     0.024 A 
ATOM     13  C   UNL A   1      32.165  21.530  24.540  1.00  0.00    -0.017 A 
BRANCH   9  14
ATOM     14  S   UNL A   1      31.884  25.827  25.932  1.00  0.00     0.264 S 
ATOM     15  O   UNL A   1      33.225  26.037  26.440  1.00  0.00    -0.201 OA
ATOM     16  O   UNL A   1      30.757  25.822  26.832  1.00  0.00    -0.201 OA
BRANCH  14  17
ATOM     17  N   UNL A   1      31.622  26.977  24.780  1.00  0.00    -0.249 N 
ATOM     18  C   UNL A   1      31.779  29.029  26.216  1.00  0.00     0.115 C 
ATOM     19  C   UNL A   1      31.399  28.354  24.928  1.00  0.00     0.230 C 
ATOM     20  O   UNL A   1      30.940  28.976  23.979  1.00  0.00    -0.274 OA
ATOM     21  H   UNL A   1      31.622  26.649  23.852  1.00  0.00     0.183 HD
ENDBRANCH  14  17
ENDBRANCH   9  14
BRANCH  13  22
ATOM     22  C   UNL A   1      32.541  20.105  24.558  1.00  0.00    -0.011 A 
ATOM     23  C   UNL A   1      32.785  19.427  25.819  1.00  0.00     0.027 A 
ATOM     24  C   UNL A   1      32.577  19.400  23.416  1.00  0.00     0.080 A 
ATOM     25  C   UNL A   1      33.004  18.109  25.854  1.00  0.00     0.095 A 
ATOM     26  C   UNL A   1      32.848  17.931  23.439  1.00  0.00     0.255 A 
ATOM     27  N   UNL A   1      33.027  17.364  24.693  1.00  0.00    -0.258 N 
ATOM     28  O   UNL A   1      32.875  17.326  22.372  1.00  0.00    -0.269 OA
BRANCH  27  29
ATOM     29  C   UNL A   1      33.240  15.940  24.751  1.00  0.00     0.451 C 
ATOM     30  F   UNL A   1      34.414  15.647  25.363  1.00  0.00    -0.185 F 
ATOM     31  F   UNL A   1      32.244  15.324  25.432  1.00  0.00    -0.185 F 
ENDBRANCH  27  29
ENDBRANCH  13  22
ENDBRANCH   5   8
ENDBRANCH   3   4
ENDBRANCH   2   3
ENDBRANCH   1   2
BRANCH   1  32
ATOM     32  C   UNL A   1      36.699  20.818  25.131  1.00  0.00     0.002 C 
BRANCH  32  33
ATOM     33  C   UNL A   1      37.874  19.843  24.980  1.00  0.00     0.021 C 
BRANCH  33  34
ATOM     34  C   UNL A   1      39.155  20.168  25.753  1.00  0.00     0.116 C 
BRANCH  34  35
ATOM     35  N   UNL A   1      40.112  19.078  25.790  1.00  0.00    -0.352 N 
ATOM     36  C   UNL A   1      41.456  19.129  26.087  1.00  0.00     0.251 C 
ATOM     37  H   UNL A   1      39.755  18.186  25.575  1.00  0.00     0.163 HD
ATOM     38  O   UNL A   1      42.145  18.116  26.035  1.00  0.00    -0.269 OA
BRANCH  36  39
ATOM     39  C   UNL A   1      42.087  20.425  26.421  1.00  0.00     0.039 A 
ATOM     40  C   UNL A   1      42.605  21.199  25.378  1.00  0.00     0.014 A 
ATOM     41  C   UNL A   1      42.152  20.884  27.741  1.00  0.00     0.014 A 
ATOM     42  C   UNL A   1      43.110  22.474  25.644  1.00  0.00     0.010 A 
ATOM     43  C   UNL A   1      42.643  22.166  28.003  1.00  0.00     0.010 A 
ATOM     44  C   UNL A   1      43.100  22.977  26.954  1.00  0.00    -0.014 A 
BRANCH  44  45
ATOM     45  C   UNL A   1      43.477  24.385  27.221  1.00  0.00     0.031 A 
ATOM     46  C   UNL A   1      44.900  24.840  27.118  1.00  0.00     0.074 A 
ATOM     47  C   UNL A   1      42.521  25.250  27.607  1.00  0.00     0.049 A 
ATOM     48  N   UNL A   1      45.404  26.023  27.366  1.00  0.00    -0.248 NA
ATOM     49  C   UNL A   1      45.885  23.837  26.690  1.00  0.00     0.031 C 
ATOM     50  C   UNL A   1      41.101  24.929  27.766  1.00  0.00     0.029 A 
ATOM     51  N   UNL A   1      42.604  26.577  27.947  1.00  0.00    -0.354 N 
ATOM     52  C   UNL A   1      46.767  25.906  27.137  1.00  0.00     0.074 A 
ATOM     53  C   UNL A   1      47.013  24.537  26.731  1.00  0.00     0.031 C 
ATOM     54  C   UNL A   1      40.447  26.028  28.172  1.00  0.00     0.029 A 
ATOM     55  C   UNL A   1      41.400  27.124  28.314  1.00  0.00     0.049 A 
ATOM     56  H   UNL A   1      43.445  27.088  27.929  1.00  0.00     0.167 HD
ATOM     57  C   UNL A   1      47.725  26.856  27.251  1.00  0.00     0.037 A 
ATOM     58  C   UNL A   1      41.099  28.369  28.727  1.00  0.00     0.037 A 
ATOM     59  C   UNL A   1      47.491  28.225  27.624  1.00  0.00     0.049 A 
ATOM     60  C   UNL A   1      42.179  29.398  28.849  1.00  0.00     0.074 A 
ATOM     61  C   UNL A   1      48.396  29.271  27.693  1.00  0.00     0.029 A 
ATOM     62  N   UNL A   1      46.260  28.739  27.998  1.00  0.00    -0.354 N 
ATOM     63  N   UNL A   1      43.458  29.283  28.593  1.00  0.00    -0.248 NA
ATOM     64  C   UNL A   1      41.775  30.729  29.325  1.00  0.00     0.031 C 
ATOM     65  C   UNL A   1      47.714  30.417  28.121  1.00  0.00     0.029 A 
ATOM     66  C   UNL A   1      46.383  30.081  28.315  1.00  0.00     0.049 A 
ATOM     67  H   UNL A   1      45.420  28.226  28.033  1.00  0.00     0.167 HD
ATOM     68  C   UNL A   1      44.012  30.523  28.872  1.00  0.00     0.074 A 
ATOM     69  C   UNL A   1      42.931  31.379  29.318  1.00  0.00     0.031 C 
ATOM     70  C   UNL A   1      45.303  30.916  28.764  1.00  0.00     0.037 A 
BRANCH  57  71
ATOM     71  C   UNL A   1      49.131  26.437  26.966  1.00  0.00     0.057 A 
ATOM     72  C   UNL A   1      49.976  25.990  27.987  1.00  0.00     0.134 A 
ATOM     73  C   UNL A   1      49.632  26.456  25.660  1.00  0.00     0.134 A 
ATOM     74  F   UNL A   1      49.550  25.960  29.259  1.00  0.00    -0.206 F 
ATOM     75  C   UNL A   1      51.282  25.578  27.718  1.00  0.00     0.040 A 
ATOM     76  C   UNL A   1      50.936  26.043  25.379  1.00  0.00     0.040 A 
ATOM     77  F   UNL A   1      48.867  26.881  24.644  1.00  0.00    -0.206 F 
ATOM     78  C   UNL A   1      51.764  25.602  26.409  1.00  0.00     0.006 A 
ENDBRANCH  57  71
BRANCH  58  79
ATOM     79  C   UNL A   1      39.700  28.705  29.065  1.00  0.00     0.057 A 
ATOM     80  C   UNL A   1      38.823  29.185  28.089  1.00  0.00     0.134 A 
ATOM     81  C   UNL A   1      39.213  28.546  30.366  1.00  0.00     0.134 A 
ATOM     82  F   UNL A   1      39.245  29.366  26.830  1.00  0.00    -0.206 F 
ATOM     83  C   UNL A   1      37.498  29.498  28.397  1.00  0.00     0.040 A 
ATOM     84  C   UNL A   1      37.892  28.852  30.687  1.00  0.00     0.040 A 
ATOM     85  F   UNL A   1      40.018  28.092  31.339  1.00  0.00    -0.206 F 
ATOM     86  C   UNL A   1      37.030  29.330  29.700  1.00  0.00     0.006 A 
ENDBRANCH  58  79
BRANCH  70  87
ATOM     87  C   UNL A   1      45.609  32.331  29.136  1.00  0.00     0.057 A 
ATOM     88  C   UNL A   1      46.002  32.666  30.436  1.00  0.00     0.134 A 
ATOM     89  C   UNL A   1      45.521  33.358  28.191  1.00  0.00     0.134 A 
ATOM     90  F   UNL A   1      46.089  31.721  31.385  1.00  0.00    -0.206 F 
ATOM     91  C   UNL A   1      46.295  33.984  30.787  1.00  0.00     0.040 A 
ATOM     92  C   UNL A   1      45.814  34.680  28.530  1.00  0.00     0.040 A 
ATOM     93  F   UNL A   1      45.140  33.095  26.933  1.00  0.00    -0.206 F 
ATOM     94  C   UNL A   1      46.202  34.995  29.831  1.00  0.00     0.006 A 
ENDBRANCH  70  87
ENDBRANCH  44  45
ENDBRANCH  36  39
ENDBRANCH  34  35
ENDBRANCH  33  34
ENDBRANCH  32  33
ENDBRANCH   1  32
TORSDOF 17
ENDMDL
MODEL 2
REMARK VINA RESULT:     -12.4      0.277      5.790
REMARK SMILES CC(=O)NS(=O)(=O)c1ccc(-c2ccn(C(F)F)c(=O)c2)cc1C(=O)NCCCCCCNC(=O)c1ccc(-c2c3nc(c(-c4c(F)cccc4F)c4ccc([nH]4)c(-c4c(F)cccc4F)c4nc(c(-c5c(F)cccc5F)c5ccc2[nH]5)C=C4)C=C3)cc1
REMARK SMILES IDX 29 1 28 2 27 3 26 4 24 5 25 6 23 8 8 9 9 10 10 11 22 12
REMARK SMILES IDX 11 13 5 14 6 15 7 16 4 17 1 18 2 19 3 20 12 22 13 23 21 24
REMARK SMILES IDX 14 25 19 26 15 27 20 28 16 29 17 30 18 31 30 32 31 33 32 34
REMARK SMILES IDX 33 35 34 36 35 38 36 39 37 40 89 41 38 42 88 43 39 44 40 45
REMARK SMILES IDX 41 46 82 47 42 48 87 49 81 50 83 51 43 52 86 53 80 54 79 55
REMARK SMILES IDX 44 57 70 58 53 59 69 60 54 61 57 62 68 63 84 64 55 65 56 66
REMARK SMILES IDX 67 68 85 69 58 70 45 71 46 72 51 73 47 74 48 75 50 76 52 77
REMARK SMILES IDX 49 78 71 79 72 80 77 81 73 82 74 83 76 84 78 85 75 86 59 87
REMARK SMILES IDX 60 88 65 89 61 90 62 91 64 92 66 93 63 94
REMARK H PARENT 26 7 4 21 33 37 83 56 57 67
REMARK Flexibility Score: inf
ROOT
ATOM      1  C   UNL A   1      36.378  21.940  24.171  1.00  0.00     0.002 C 
ENDROOT
BRANCH   1   2
ATOM      2  C   UNL A   1      36.747  23.389  24.512  1.00  0.00     0.021 C 
BRANCH   2   3
ATOM      3  C   UNL A   1      35.597  24.295  24.969  1.00  0.00     0.116 C 
BRANCH   3   4
ATOM      4  N   UNL A   1      34.885  24.875  23.840  1.00  0.00    -0.352 N 
ATOM      5  C   UNL A   1      33.588  24.768  23.421  1.00  0.00     0.252 C 
ATOM      6  O   UNL A   1      33.196  25.456  22.479  1.00  0.00    -0.269 OA
ATOM      7  H   UNL A   1      35.443  25.453  23.270  1.00  0.00     0.163 HD
BRANCH   5   8
ATOM      8  C   UNL A   1      32.604  23.872  24.053  1.00  0.00     0.060 A 
ATOM      9  C   UNL A   1      31.719  24.241  25.069  1.00  0.00     0.100 A 
ATOM     10  C   UNL A   1      30.900  23.272  25.678  1.00  0.00     0.024 A 
ATOM     11  C   UNL A   1      31.069  21.922  25.387  1.00  0.00     0.010 A 
ATOM     12  C   UNL A   1      32.786  22.498  23.786  1.00  0.00     0.024 A 
ATOM     13  C   UNL A   1      32.060  21.524  24.488  1.00  0.00    -0.017 A 
BRANCH   9  14
ATOM     14  S   UNL A   1      31.724  25.823  25.862  1.00  0.00     0.264 S 
ATOM     15  O   UNL A   1      33.062  26.033  26.378  1.00  0.00    -0.201 OA
ATOM     16  O   UNL A   1      30.590  25.829  26.753  1.00  0.00    -0.201 OA
BRANCH  14  17
ATOM     17  N   UNL A   1      31.475  26.964  24.698  1.00  0.00    -0.249 N 
ATOM     18  C   UNL A   1      31.698  29.029  26.104  1.00  0.00     0.115 C 
ATOM     19  C   UNL A   1      31.286  28.347  24.830  1.00  0.00     0.230 C 
ATOM     20  O   UNL A   1      30.830  28.967  23.879  1.00  0.00    -0.274 OA
ATOM     21  H   UNL A   1      31.455  26.623  23.774  1.00  0.00     0.183 HD
ENDBRANCH  14  17
ENDBRANCH   9  14
BRANCH  13  22
ATOM     22  C   UNL A   1      32.484  20.113  24.492  1.00  0.00    -0.011 A 
ATOM     23  C   UNL A   1      32.821  19.453  25.741  1.00  0.00     0.027 A 
ATOM     24  C   UNL A   1      32.479  19.401  23.354  1.00  0.00     0.080 A 
ATOM     25  C   UNL A   1      33.087  18.143  25.771  1.00  0.00     0.095 A 
ATOM     26  C   UNL A   1      32.799  17.941  23.370  1.00  0.00     0.255 A 
ATOM     27  N   UNL A   1      33.068  17.390  24.615  1.00  0.00    -0.258 N 
ATOM     28  O   UNL A   1      32.786  17.329  22.307  1.00  0.00    -0.269 OA
BRANCH  27  29
ATOM     29  C   UNL A   1      33.331  15.975  24.669  1.00  0.00     0.451 C 
ATOM     30  F   UNL A   1      34.278  15.690  25.597  1.00  0.00    -0.185 F 
ATOM     31  F   UNL A   1      32.210  15.281  24.983  1.00  0.00    -0.185 F 
ENDBRANCH  27  29
ENDBRANCH  13  22
ENDBRANCH   5   8
ENDBRANCH   3   4
ENDBRANCH   2   3
ENDBRANCH   1   2
BRANCH   1  32
ATOM     32  C   UNL A   1      36.717  20.895  25.234  1.00  0.00     0.002 C 
BRANCH  32  33
ATOM     33  C   UNL A   1      37.924  19.992  24.950  1.00  0.00     0.021 C 
BRANCH  33  34
ATOM     34  C   UNL A   1      39.209  20.277  25.732  1.00  0.00     0.116 C 
BRANCH  34  35
ATOM     35  N   UNL A   1      40.130  19.157  25.779  1.00  0.00    -0.352 N 
ATOM     36  C   UNL A   1      41.462  19.158  26.130  1.00  0.00     0.251 C 
ATOM     37  H   UNL A   1      39.755  18.283  25.529  1.00  0.00     0.163 HD
ATOM     38  O   UNL A   1      42.121  18.125  26.079  1.00  0.00    -0.269 OA
BRANCH  36  39
ATOM     39  C   UNL A   1      42.119  20.426  26.519  1.00  0.00     0.039 A 
ATOM     40  C   UNL A   1      42.703  21.206  25.517  1.00  0.00     0.014 A 
ATOM     41  C   UNL A   1      42.145  20.853  27.851  1.00  0.00     0.014 A 
ATOM     42  C   UNL A   1      43.236  22.458  25.833  1.00  0.00     0.010 A 
ATOM     43  C   UNL A   1      42.664  22.111  28.163  1.00  0.00     0.010 A 
ATOM     44  C   UNL A   1      43.189  22.931  27.153  1.00  0.00    -0.014 A 
BRANCH  44  45
ATOM     45  C   UNL A   1      43.598  24.320  27.469  1.00  0.00     0.031 A 
ATOM     46  C   UNL A   1      42.590  25.354  27.867  1.00  0.00     0.074 A 
ATOM     47  C   UNL A   1      44.895  24.658  27.347  1.00  0.00     0.049 A 
ATOM     48  N   UNL A   1      42.775  26.623  28.128  1.00  0.00    -0.248 NA
ATOM     49  C   UNL A   1      41.194  24.907  27.980  1.00  0.00     0.031 C 
ATOM     50  C   UNL A   1      45.972  23.751  26.947  1.00  0.00     0.029 A 
ATOM     51  N   UNL A   1      45.524  25.862  27.537  1.00  0.00    -0.354 N 
ATOM     52  C   UNL A   1      41.520  27.134  28.424  1.00  0.00     0.074 A 
ATOM     53  C   UNL A   1      40.580  26.037  28.310  1.00  0.00     0.031 C 
ATOM     54  C   UNL A   1      47.129  24.431  26.922  1.00  0.00     0.029 A 
ATOM     55  C   UNL A   1      46.873  25.819  27.290  1.00  0.00     0.049 A 
ATOM     56  H   UNL A   1      45.054  26.678  27.823  1.00  0.00     0.167 HD
ATOM     57  C   UNL A   1      41.183  28.401  28.763  1.00  0.00     0.037 A 
ATOM     58  C   UNL A   1      47.800  26.793  27.345  1.00  0.00     0.037 A 
ATOM     59  C   UNL A   1      42.111  29.490  28.909  1.00  0.00     0.049 A 
ATOM     60  C   UNL A   1      47.399  28.187  27.719  1.00  0.00     0.074 A 
ATOM     61  C   UNL A   1      41.862  30.789  29.321  1.00  0.00     0.029 A 
ATOM     62  N   UNL A   1      43.467  29.411  28.641  1.00  0.00    -0.354 N 
ATOM     63  N   UNL A   1      46.214  28.646  28.032  1.00  0.00    -0.248 NA
ATOM     64  C   UNL A   1      48.465  29.199  27.739  1.00  0.00     0.031 C 
ATOM     65  C   UNL A   1      43.069  31.499  29.291  1.00  0.00     0.029 A 
ATOM     66  C   UNL A   1      44.067  30.639  28.861  1.00  0.00     0.049 A 
ATOM     67  H   UNL A   1      43.936  28.600  28.338  1.00  0.00     0.167 HD
ATOM     68  C   UNL A   1      46.388  29.997  28.290  1.00  0.00     0.074 A 
ATOM     69  C   UNL A   1      47.794  30.286  28.097  1.00  0.00     0.031 C 
ATOM     70  C   UNL A   1      45.463  30.913  28.658  1.00  0.00     0.037 A 
BRANCH  57  71
ATOM     71  C   UNL A   1      39.734  28.675  29.002  1.00  0.00     0.057 A 
ATOM     72  C   UNL A   1      39.156  28.480  30.260  1.00  0.00     0.134 A 
ATOM     73  C   UNL A   1      38.919  29.159  27.973  1.00  0.00     0.134 A 
ATOM     74  F   UNL A   1      39.889  28.008  31.280  1.00  0.00    -0.206 F 
ATOM     75  C   UNL A   1      37.807  28.756  30.488  1.00  0.00     0.040 A 
ATOM     76  C   UNL A   1      37.570  29.442  28.190  1.00  0.00     0.040 A 
ATOM     77  F   UNL A   1      39.420  29.358  26.745  1.00  0.00    -0.206 F 
ATOM     78  C   UNL A   1      37.011  29.241  29.451  1.00  0.00     0.006 A 
ENDBRANCH  57  71
BRANCH  58  79
ATOM     79  C   UNL A   1      49.208  26.477  27.027  1.00  0.00     0.057 A 
ATOM     80  C   UNL A   1      49.716  26.682  25.742  1.00  0.00     0.134 A 
ATOM     81  C   UNL A   1      50.073  25.974  28.003  1.00  0.00     0.134 A 
ATOM     82  F   UNL A   1      48.923  27.153  24.769  1.00  0.00    -0.206 F 
ATOM     83  C   UNL A   1      51.046  26.394  25.434  1.00  0.00     0.040 A 
ATOM     84  C   UNL A   1      51.405  25.684  27.710  1.00  0.00     0.040 A 
ATOM     85  F   UNL A   1      49.632  25.755  29.251  1.00  0.00    -0.206 F 
ATOM     86  C   UNL A   1      51.895  25.895  26.422  1.00  0.00     0.006 A 
ENDBRANCH  58  79
BRANCH  70  87
ATOM     87  C   UNL A   1      45.948  32.311  28.872  1.00  0.00     0.057 A 
ATOM     88  C   UNL A   1      46.424  32.726  30.120  1.00  0.00     0.134 A 
ATOM     89  C   UNL A   1      45.949  33.240  27.826  1.00  0.00     0.134 A 
ATOM     90  F   UNL A   1      46.433  31.880  31.160  1.00  0.00    -0.206 F 
ATOM     91  C   UNL A   1      46.884  34.028  30.323  1.00  0.00     0.040 A 
ATOM     92  C   UNL A   1      46.409  34.543  28.017  1.00  0.00     0.040 A 
ATOM     93  F   UNL A   1      45.495  32.898  26.611  1.00  0.00    -0.206 F 
ATOM     94  C   UNL A   1      46.878  34.939  29.268  1.00  0.00     0.006 A 
ENDBRANCH  70  87
ENDBRANCH  44  45
ENDBRANCH  36  39
ENDBRANCH  34  35
ENDBRANCH  33  34
ENDBRANCH  32  33
ENDBRANCH   1  32
TORSDOF 17
ENDMDL
MODEL 3
REMARK VINA RESULT:     -12.3      1.388      5.965
REMARK SMILES CC(=O)NS(=O)(=O)c1ccc(-c2ccn(C(F)F)c(=O)c2)cc1C(=O)NCCCCCCNC(=O)c1ccc(-c2c3nc(c(-c4c(F)cccc4F)c4ccc([nH]4)c(-c4c(F)cccc4F)c4nc(c(-c5c(F)cccc5F)c5ccc2[nH]5)C=C4)C=C3)cc1
REMARK SMILES IDX 29 1 28 2 27 3 26 4 24 5 25 6 23 8 8 9 9 10 10 11 22 12
REMARK SMILES IDX 11 13 5 14 6 15 7 16 4 17 1 18 2 19 3 20 12 22 13 23 21 24
REMARK SMILES IDX 14 25 19 26 15 27 20 28 16 29 17 30 18 31 30 32 31 33 32 34
REMARK SMILES IDX 33 35 34 36 35 38 36 39 37 40 89 41 38 42 88 43 39 44 40 45
REMARK SMILES IDX 41 46 82 47 42 48 87 49 81 50 83 51 43 52 86 53 80 54 79 55
REMARK SMILES IDX 44 57 70 58 53 59 69 60 54 61 57 62 68 63 84 64 55 65 56 66
REMARK SMILES IDX 67 68 85 69 58 70 45 71 46 72 51 73 47 74 48 75 50 76 52 77
REMARK SMILES IDX 49 78 71 79 72 80 77 81 73 82 74 83 76 84 78 85 75 86 59 87
REMARK SMILES IDX 60 88 65 89 61 90 62 91 64 92 66 93 63 94
REMARK H PARENT 26 7 4 21 33 37 83 56 57 67
REMARK Flexibility Score: inf
ROOT
ATOM      1  C   UNL A   1      36.962  23.114  24.232  1.00  0.00     0.002 C 
ENDROOT
BRANCH   1   2
ATOM      2  C   UNL A   1      36.749  23.960  25.493  1.00  0.00     0.021 C 
BRANCH   2   3
ATOM      3  C   UNL A   1      35.367  24.605  25.657  1.00  0.00     0.116 C 
BRANCH   3   4
ATOM      4  N   UNL A   1      34.898  25.199  24.415  1.00  0.00    -0.352 N 
ATOM      5  C   UNL A   1      33.715  25.092  23.736  1.00  0.00     0.252 C 
ATOM      6  O   UNL A   1      33.519  25.793  22.745  1.00  0.00    -0.269 OA
ATOM      7  H   UNL A   1      35.555  25.790  23.981  1.00  0.00     0.163 HD
BRANCH   5   8
ATOM      8  C   UNL A   1      32.630  24.179  24.138  1.00  0.00     0.060 A 
ATOM      9  C   UNL A   1      31.593  24.504  25.016  1.00  0.00     0.100 A 
ATOM     10  C   UNL A   1      30.675  23.516  25.417  1.00  0.00     0.024 A 
ATOM     11  C   UNL A   1      30.874  22.184  25.072  1.00  0.00     0.010 A 
ATOM     12  C   UNL A   1      32.840  22.821  23.817  1.00  0.00     0.024 A 
ATOM     13  C   UNL A   1      31.998  21.821  24.325  1.00  0.00    -0.017 A 
BRANCH   9  14
ATOM     14  S   UNL A   1      31.483  26.033  25.899  1.00  0.00     0.264 S 
ATOM     15  O   UNL A   1      32.739  26.209  26.599  1.00  0.00    -0.201 OA
ATOM     16  O   UNL A   1      30.241  25.985  26.632  1.00  0.00    -0.201 OA
BRANCH  14  17
ATOM     17  N   UNL A   1      31.381  27.244  24.785  1.00  0.00    -0.249 N 
ATOM     18  C   UNL A   1      31.780  29.211  26.291  1.00  0.00     0.115 C 
ATOM     19  C   UNL A   1      31.332  28.633  24.979  1.00  0.00     0.230 C 
ATOM     20  O   UNL A   1      30.966  29.338  24.048  1.00  0.00    -0.274 OA
ATOM     21  H   UNL A   1      31.350  26.949  23.846  1.00  0.00     0.183 HD
ENDBRANCH  14  17
ENDBRANCH   9  14
BRANCH  13  22
ATOM     22  C   UNL A   1      32.400  20.404  24.308  1.00  0.00    -0.011 A 
ATOM     23  C   UNL A   1      32.825  19.748  25.532  1.00  0.00     0.027 A 
ATOM     24  C   UNL A   1      32.294  19.683  23.180  1.00  0.00     0.080 A 
ATOM     25  C   UNL A   1      33.073  18.435  25.553  1.00  0.00     0.095 A 
ATOM     26  C   UNL A   1      32.593  18.219  23.184  1.00  0.00     0.255 A 
ATOM     27  N   UNL A   1      32.952  17.674  24.408  1.00  0.00    -0.258 N 
ATOM     28  O   UNL A   1      32.487  17.599  22.131  1.00  0.00    -0.269 OA
BRANCH  27  29
ATOM     29  C   UNL A   1      33.198  16.255  24.454  1.00  0.00     0.451 C 
ATOM     30  F   UNL A   1      34.423  15.956  23.955  1.00  0.00    -0.185 F 
ATOM     31  F   UNL A   1      33.134  15.788  25.724  1.00  0.00    -0.185 F 
ENDBRANCH  27  29
ENDBRANCH  13  22
ENDBRANCH   5   8
ENDBRANCH   3   4
ENDBRANCH   2   3
ENDBRANCH   1   2
BRANCH   1  32
ATOM     32  C   UNL A   1      36.299  21.737  24.230  1.00  0.00     0.002 C 
BRANCH  32  33
ATOM     33  C   UNL A   1      37.002  20.636  25.034  1.00  0.00     0.021 C 
BRANCH  33  34
ATOM     34  C   UNL A   1      38.391  20.955  25.592  1.00  0.00     0.116 C 
BRANCH  34  35
ATOM     35  N   UNL A   1      39.323  19.845  25.522  1.00  0.00    -0.352 N 
ATOM     36  C   UNL A   1      40.631  19.798  25.947  1.00  0.00     0.251 C 
ATOM     37  H   UNL A   1      38.975  19.018  25.118  1.00  0.00     0.163 HD
ATOM     38  O   UNL A   1      41.306  18.788  25.779  1.00  0.00    -0.269 OA
BRANCH  36  39
ATOM     39  C   UNL A   1      41.247  20.994  26.565  1.00  0.00     0.039 A 
ATOM     40  C   UNL A   1      41.842  21.942  25.727  1.00  0.00     0.014 A 
ATOM     41  C   UNL A   1      41.225  21.190  27.950  1.00  0.00     0.014 A 
ATOM     42  C   UNL A   1      42.337  23.132  26.266  1.00  0.00     0.010 A 
ATOM     43  C   UNL A   1      41.706  22.387  28.485  1.00  0.00     0.010 A 
ATOM     44  C   UNL A   1      42.240  23.375  27.645  1.00  0.00    -0.014 A 
BRANCH  44  45
ATOM     45  C   UNL A   1      42.608  24.698  28.202  1.00  0.00     0.031 A 
ATOM     46  C   UNL A   1      41.578  25.767  28.406  1.00  0.00     0.074 A 
ATOM     47  C   UNL A   1      43.900  24.947  28.483  1.00  0.00     0.049 A 
ATOM     48  N   UNL A   1      41.741  26.992  28.836  1.00  0.00    -0.248 NA
ATOM     49  C   UNL A   1      40.189  25.418  28.077  1.00  0.00     0.031 C 
ATOM     50  C   UNL A   1      45.003  24.000  28.310  1.00  0.00     0.029 A 
ATOM     51  N   UNL A   1      44.505  26.081  28.963  1.00  0.00    -0.354 N 
ATOM     52  C   UNL A   1      40.480  27.568  28.819  1.00  0.00     0.074 A 
ATOM     53  C   UNL A   1      39.560  26.558  28.335  1.00  0.00     0.031 C 
ATOM     54  C   UNL A   1      46.149  24.591  28.679  1.00  0.00     0.029 A 
ATOM     55  C   UNL A   1      45.865  25.959  29.100  1.00  0.00     0.049 A 
ATOM     56  H   UNL A   1      44.012  26.903  29.188  1.00  0.00     0.167 HD
ATOM     57  C   UNL A   1      40.121  28.824  29.178  1.00  0.00     0.037 A 
ATOM     58  C   UNL A   1      46.783  26.853  29.512  1.00  0.00     0.037 A 
ATOM     59  C   UNL A   1      41.019  29.825  29.688  1.00  0.00     0.049 A 
ATOM     60  C   UNL A   1      46.359  28.236  29.898  1.00  0.00     0.074 A 
ATOM     61  C   UNL A   1      40.725  31.100  30.144  1.00  0.00     0.029 A 
ATOM     62  N   UNL A   1      42.390  29.668  29.803  1.00  0.00    -0.354 N 
ATOM     63  N   UNL A   1      45.157  28.754  29.912  1.00  0.00    -0.248 NA
ATOM     64  C   UNL A   1      47.421  29.160  30.319  1.00  0.00     0.031 C 
ATOM     65  C   UNL A   1      41.922  31.718  30.524  1.00  0.00     0.029 A 
ATOM     66  C   UNL A   1      42.959  30.825  30.306  1.00  0.00     0.049 A 
ATOM     67  H   UNL A   1      42.887  28.852  29.563  1.00  0.00     0.167 HD
ATOM     68  C   UNL A   1      45.314  30.062  30.345  1.00  0.00     0.074 A 
ATOM     69  C   UNL A   1      46.729  30.261  30.584  1.00  0.00     0.031 C 
ATOM     70  C   UNL A   1      44.367  31.010  30.531  1.00  0.00     0.037 A 
BRANCH  57  71
ATOM     71  C   UNL A   1      38.679  29.184  29.028  1.00  0.00     0.057 A 
ATOM     72  C   UNL A   1      38.157  29.590  27.795  1.00  0.00     0.134 A 
ATOM     73  C   UNL A   1      37.803  29.099  30.115  1.00  0.00     0.134 A 
ATOM     74  F   UNL A   1      38.953  29.698  26.721  1.00  0.00    -0.206 F 
ATOM     75  C   UNL A   1      36.806  29.907  27.650  1.00  0.00     0.040 A 
ATOM     76  C   UNL A   1      36.449  29.410  29.981  1.00  0.00     0.040 A 
ATOM     77  F   UNL A   1      38.251  28.721  31.322  1.00  0.00    -0.206 F 
ATOM     78  C   UNL A   1      35.947  29.814  28.745  1.00  0.00     0.006 A 
ENDBRANCH  57  71
BRANCH  58  79
ATOM     79  C   UNL A   1      48.206  26.461  29.571  1.00  0.00     0.057 A 
ATOM     80  C   UNL A   1      49.067  26.727  28.502  1.00  0.00     0.134 A 
ATOM     81  C   UNL A   1      48.733  25.822  30.696  1.00  0.00     0.134 A 
ATOM     82  F   UNL A   1      48.607  27.328  27.396  1.00  0.00    -0.206 F 
ATOM     83  C   UNL A   1      50.415  26.368  28.552  1.00  0.00     0.040 A 
ATOM     84  C   UNL A   1      50.079  25.459  30.760  1.00  0.00     0.040 A 
ATOM     85  F   UNL A   1      47.947  25.540  31.745  1.00  0.00    -0.206 F 
ATOM     86  C   UNL A   1      50.923  25.733  29.685  1.00  0.00     0.006 A 
ENDBRANCH  58  79
BRANCH  70  87
ATOM     87  C   UNL A   1      44.836  32.345  31.013  1.00  0.00     0.057 A 
ATOM     88  C   UNL A   1      44.951  32.619  32.380  1.00  0.00     0.134 A 
ATOM     89  C   UNL A   1      45.185  33.354  30.109  1.00  0.00     0.134 A 
ATOM     90  F   UNL A   1      44.616  31.691  33.290  1.00  0.00    -0.206 F 
ATOM     91  C   UNL A   1      45.395  33.861  32.835  1.00  0.00     0.040 A 
ATOM     92  C   UNL A   1      45.633  34.599  30.553  1.00  0.00     0.040 A 
ATOM     93  F   UNL A   1      45.086  33.149  28.788  1.00  0.00    -0.206 F 
ATOM     94  C   UNL A   1      45.739  34.854  31.919  1.00  0.00     0.006 A 
ENDBRANCH  70  87
ENDBRANCH  44  45
ENDBRANCH  36  39
ENDBRANCH  34  35
ENDBRANCH  33  34
ENDBRANCH  32  33
ENDBRANCH   1  32
TORSDOF 17
ENDMDL
