MODEL 1
REMARK VINA RESULT:     -11.1      0.000      0.000
REMARK SMILES COc1cccc2cc(/C=C/c3cc(C(=O)NCCCCCCNC(=O)c4ccc(-c5c6nc(c(-c7c(F)cccc7F)c7ccc([nH]7)c(-c7c(F)cccc7F)c7nc(c(-c8c(F)cccc8F)c8ccc5[nH]8)C=C7)C=C6)cc4)ncn3)oc12
REMARK SMILES IDX 20 1 19 2 18 3 17 4 15 5 16 6 14 8 12 9 13 10 83 11 82 12
REMARK SMILES IDX 81 13 11 14 10 15 9 16 3 17 4 18 85 19 5 20 7 21 84 22 6 23
REMARK SMILES IDX 8 24 2 25 1 26 21 27 22 28 23 29 24 30 25 31 26 33 27 34
REMARK SMILES IDX 28 35 80 36 29 37 79 38 30 39 31 40 32 41 73 42 33 43 78 44
REMARK SMILES IDX 72 45 74 46 34 47 77 48 71 49 70 50 35 52 61 53 44 54 60 55
REMARK SMILES IDX 45 56 48 57 59 58 75 59 46 60 47 61 58 63 76 64 49 65 36 66
REMARK SMILES IDX 37 67 42 68 38 69 39 70 41 71 43 72 40 73 62 74 63 75 68 76
REMARK SMILES IDX 64 77 65 78 67 79 69 80 66 81 50 82 51 83 56 84 52 85 53 86
REMARK SMILES IDX 55 87 57 88 54 89
REMARK H PARENT 17 7 24 32 74 51 48 62
REMARK Flexibility Score: inf
ROOT
ATOM      1  C   UNL A   1      34.697  33.041  28.469  1.00  0.00     0.002 C 
ENDROOT
BRANCH   1   2
ATOM      2  C   UNL A   1      35.827  32.042  28.188  1.00  0.00     0.021 C 
BRANCH   2   3
ATOM      3  C   UNL A   1      35.322  30.716  27.612  1.00  0.00     0.116 C 
BRANCH   3   4
ATOM      4  N   UNL A   1      33.875  30.655  27.704  1.00  0.00    -0.351 N 
ATOM      5  C   UNL A   1      32.911  30.002  26.967  1.00  0.00     0.270 C 
ATOM      6  O   UNL A   1      31.740  30.186  27.303  1.00  0.00    -0.268 OA
ATOM      7  H   UNL A   1      33.507  31.190  28.443  1.00  0.00     0.163 HD
BRANCH   5   8
ATOM      8  C   UNL A   1      33.227  29.062  25.840  1.00  0.00     0.132 A 
ATOM      9  C   UNL A   1      33.656  26.968  24.903  1.00  0.00     0.067 A 
ATOM     10  C   UNL A   1      33.595  27.754  26.034  1.00  0.00     0.062 A 
ATOM     11  N   UNL A   1      33.550  27.460  23.660  1.00  0.00    -0.237 NA
ATOM     12  C   UNL A   1      33.294  28.771  23.573  1.00  0.00     0.223 A 
ATOM     13  N   UNL A   1      33.094  29.597  24.604  1.00  0.00    -0.231 NA
BRANCH   9  14
ATOM     14  C   UNL A   1      33.805  25.514  25.008  1.00  0.00     0.032 C 
ATOM     15  C   UNL A   1      33.209  24.691  24.129  1.00  0.00     0.049 C 
BRANCH  15  16
ATOM     16  C   UNL A   1      33.291  23.274  24.201  1.00  0.00     0.128 A 
ATOM     17  C   UNL A   1      35.188  20.316  24.921  1.00  0.00     0.162 A 
ATOM     18  C   UNL A   1      34.774  18.985  24.771  1.00  0.00     0.050 A 
ATOM     19  C   UNL A   1      34.255  21.299  24.574  1.00  0.00     0.176 A 
ATOM     20  C   UNL A   1      33.511  18.673  24.260  1.00  0.00     0.005 A 
ATOM     21  C   UNL A   1      32.991  21.022  24.077  1.00  0.00     0.025 A 
ATOM     22  O   UNL A   1      34.435  22.647  24.646  1.00  0.00    -0.453 OA
ATOM     23  C   UNL A   1      32.606  19.682  23.905  1.00  0.00     0.012 A 
ATOM     24  C   UNL A   1      32.380  22.283  23.856  1.00  0.00     0.059 A 
BRANCH  17  25
ATOM     25  O   UNL A   1      36.404  20.660  25.453  1.00  0.00    -0.493 OA
ATOM     26  C   UNL A   1      37.490  20.044  24.762  1.00  0.00     0.278 C 
ENDBRANCH  17  25
ENDBRANCH  15  16
ENDBRANCH   9  14
ENDBRANCH   5   8
ENDBRANCH   3   4
ENDBRANCH   2   3
ENDBRANCH   1   2
BRANCH   1  27
ATOM     27  C   UNL A   1      35.132  34.512  28.479  1.00  0.00     0.002 C 
BRANCH  27  28
ATOM     28  C   UNL A   1      34.026  35.510  28.829  1.00  0.00     0.021 C 
BRANCH  28  29
ATOM     29  C   UNL A   1      32.860  34.906  29.604  1.00  0.00     0.116 C 
BRANCH  29  30
ATOM     30  N   UNL A   1      32.424  35.778  30.683  1.00  0.00    -0.352 N 
ATOM     31  C   UNL A   1      32.829  35.808  31.994  1.00  0.00     0.251 C 
ATOM     32  H   UNL A   1      31.741  36.443  30.439  1.00  0.00     0.163 HD
ATOM     33  O   UNL A   1      32.193  36.446  32.825  1.00  0.00    -0.269 OA
BRANCH  31  34
ATOM     34  C   UNL A   1      34.033  35.055  32.405  1.00  0.00     0.039 A 
ATOM     35  C   UNL A   1      33.882  33.769  32.930  1.00  0.00     0.014 A 
ATOM     36  C   UNL A   1      35.303  35.626  32.295  1.00  0.00     0.014 A 
ATOM     37  C   UNL A   1      35.012  33.035  33.294  1.00  0.00     0.010 A 
ATOM     38  C   UNL A   1      36.432  34.869  32.593  1.00  0.00     0.010 A 
ATOM     39  C   UNL A   1      36.297  33.569  33.103  1.00  0.00    -0.014 A 
BRANCH  39  40
ATOM     40  C   UNL A   1      37.511  32.787  33.444  1.00  0.00     0.031 A 
ATOM     41  C   UNL A   1      38.256  33.072  34.720  1.00  0.00     0.074 A 
ATOM     42  C   UNL A   1      37.973  31.862  32.581  1.00  0.00     0.049 A 
ATOM     43  N   UNL A   1      39.373  32.549  35.160  1.00  0.00    -0.248 NA
ATOM     44  C   UNL A   1      37.684  34.098  35.606  1.00  0.00     0.031 C 
ATOM     45  C   UNL A   1      37.362  31.522  31.295  1.00  0.00     0.029 A 
ATOM     46  N   UNL A   1      39.069  31.040  32.654  1.00  0.00    -0.354 N 
ATOM     47  C   UNL A   1      39.643  33.193  36.362  1.00  0.00     0.074 A 
ATOM     48  C   UNL A   1      38.603  34.179  36.556  1.00  0.00     0.031 C 
ATOM     49  C   UNL A   1      38.074  30.542  30.714  1.00  0.00     0.029 A 
ATOM     50  C   UNL A   1      39.212  30.213  31.567  1.00  0.00     0.049 A 
ATOM     51  H   UNL A   1      39.694  31.041  33.415  1.00  0.00     0.167 HD
ATOM     52  C   UNL A   1      40.653  32.965  37.234  1.00  0.00     0.037 A 
ATOM     53  C   UNL A   1      40.160  29.299  31.285  1.00  0.00     0.037 A 
ATOM     54  C   UNL A   1      41.671  31.964  37.049  1.00  0.00     0.049 A 
ATOM     55  C   UNL A   1      41.280  29.078  32.263  1.00  0.00     0.074 A 
ATOM     56  C   UNL A   1      42.704  31.616  37.901  1.00  0.00     0.029 A 
ATOM     57  N   UNL A   1      41.781  31.149  35.932  1.00  0.00    -0.354 N 
ATOM     58  N   UNL A   1      41.496  29.661  33.416  1.00  0.00    -0.248 NA
ATOM     59  C   UNL A   1      42.287  28.074  31.897  1.00  0.00     0.031 C 
ATOM     60  C   UNL A   1      43.467  30.622  37.280  1.00  0.00     0.029 A 
ATOM     61  C   UNL A   1      42.880  30.315  36.063  1.00  0.00     0.049 A 
ATOM     62  H   UNL A   1      41.170  31.161  35.160  1.00  0.00     0.167 HD
ATOM     63  C   UNL A   1      42.647  29.077  33.927  1.00  0.00     0.074 A 
ATOM     64  C   UNL A   1      43.078  28.086  32.961  1.00  0.00     0.031 C 
ATOM     65  C   UNL A   1      43.290  29.334  35.092  1.00  0.00     0.037 A 
BRANCH  52  66
ATOM     66  C   UNL A   1      40.706  33.815  38.472  1.00  0.00     0.057 A 
ATOM     67  C   UNL A   1      41.511  34.959  38.550  1.00  0.00     0.134 A 
ATOM     68  C   UNL A   1      39.916  33.505  39.586  1.00  0.00     0.134 A 
ATOM     69  F   UNL A   1      42.301  35.307  37.522  1.00  0.00    -0.206 F 
ATOM     70  C   UNL A   1      41.548  35.749  39.700  1.00  0.00     0.040 A 
ATOM     71  C   UNL A   1      39.924  34.302  40.732  1.00  0.00     0.040 A 
ATOM     72  F   UNL A   1      39.118  32.427  39.577  1.00  0.00    -0.206 F 
ATOM     73  C   UNL A   1      40.746  35.425  40.794  1.00  0.00     0.006 A 
ENDBRANCH  52  66
BRANCH  53  74
ATOM     74  C   UNL A   1      40.094  28.519  30.025  1.00  0.00     0.057 A 
ATOM     75  C   UNL A   1      39.355  27.334  29.939  1.00  0.00     0.134 A 
ATOM     76  C   UNL A   1      40.783  28.932  28.880  1.00  0.00     0.134 A 
ATOM     77  F   UNL A   1      38.698  26.871  31.012  1.00  0.00    -0.206 F 
ATOM     78  C   UNL A   1      39.312  26.583  28.763  1.00  0.00     0.040 A 
ATOM     79  C   UNL A   1      40.727  28.208  27.689  1.00  0.00     0.040 A 
ATOM     80  F   UNL A   1      41.521  30.049  28.906  1.00  0.00    -0.206 F 
ATOM     81  C   UNL A   1      39.994  27.024  27.631  1.00  0.00     0.006 A 
ENDBRANCH  53  74
BRANCH  65  82
ATOM     82  C   UNL A   1      44.503  28.507  35.401  1.00  0.00     0.057 A 
ATOM     83  C   UNL A   1      44.412  27.285  36.078  1.00  0.00     0.134 A 
ATOM     84  C   UNL A   1      45.774  28.925  34.986  1.00  0.00     0.134 A 
ATOM     85  F   UNL A   1      43.226  26.835  36.515  1.00  0.00    -0.206 F 
ATOM     86  C   UNL A   1      45.547  26.518  36.352  1.00  0.00     0.040 A 
ATOM     87  C   UNL A   1      46.911  28.154  35.229  1.00  0.00     0.040 A 
ATOM     88  F   UNL A   1      45.928  30.083  34.326  1.00  0.00    -0.206 F 
ATOM     89  C   UNL A   1      46.799  26.950  35.920  1.00  0.00     0.006 A 
ENDBRANCH  65  82
ENDBRANCH  39  40
ENDBRANCH  31  34
ENDBRANCH  29  30
ENDBRANCH  28  29
ENDBRANCH  27  28
ENDBRANCH   1  27
TORSDOF 16
ENDMDL
MODEL 2
REMARK VINA RESULT:     -10.8      5.905     11.540
REMARK SMILES COc1cccc2cc(/C=C/c3cc(C(=O)NCCCCCCNC(=O)c4ccc(-c5c6nc(c(-c7c(F)cccc7F)c7ccc([nH]7)c(-c7c(F)cccc7F)c7nc(c(-c8c(F)cccc8F)c8ccc5[nH]8)C=C7)C=C6)cc4)ncn3)oc12
REMARK SMILES IDX 20 1 19 2 18 3 17 4 15 5 16 6 14 8 12 9 13 10 83 11 82 12
REMARK SMILES IDX 81 13 11 14 10 15 9 16 3 17 4 18 85 19 5 20 7 21 84 22 6 23
REMARK SMILES IDX 8 24 2 25 1 26 21 27 22 28 23 29 24 30 25 31 26 33 27 34
REMARK SMILES IDX 28 35 80 36 29 37 79 38 30 39 31 40 32 41 73 42 33 43 78 44
REMARK SMILES IDX 72 45 74 46 34 47 77 48 71 49 70 50 35 52 61 53 44 54 60 55
REMARK SMILES IDX 45 56 48 57 59 58 75 59 46 60 47 61 58 63 76 64 49 65 36 66
REMARK SMILES IDX 37 67 42 68 38 69 39 70 41 71 43 72 40 73 62 74 63 75 68 76
REMARK SMILES IDX 64 77 65 78 67 79 69 80 66 81 50 82 51 83 56 84 52 85 53 86
REMARK SMILES IDX 55 87 57 88 54 89
REMARK H PARENT 17 7 24 32 74 51 48 62
REMARK Flexibility Score: inf
ROOT
ATOM      1  C   UNL A   1      35.102  34.668  34.069  1.00  0.00     0.002 C 
ENDROOT
BRANCH   1   2
ATOM      2  C   UNL A   1      34.462  35.425  32.898  1.00  0.00     0.021 C 
BRANCH   2   3
ATOM      3  C   UNL A   1      33.197  34.746  32.367  1.00  0.00     0.116 C 
BRANCH   3   4
ATOM      4  N   UNL A   1      32.751  35.409  31.156  1.00  0.00    -0.351 N 
ATOM      5  C   UNL A   1      33.111  35.293  29.831  1.00  0.00     0.270 C 
ATOM      6  O   UNL A   1      32.540  36.041  29.035  1.00  0.00    -0.268 OA
ATOM      7  H   UNL A   1      32.047  36.079  31.312  1.00  0.00     0.163 HD
BRANCH   5   8
ATOM      8  C   UNL A   1      34.105  34.285  29.329  1.00  0.00     0.132 A 
ATOM      9  C   UNL A   1      36.253  33.467  28.928  1.00  0.00     0.067 A 
ATOM     10  C   UNL A   1      35.447  34.548  29.211  1.00  0.00     0.062 A 
ATOM     11  N   UNL A   1      35.773  32.258  28.602  1.00  0.00    -0.237 NA
ATOM     12  C   UNL A   1      34.442  32.130  28.644  1.00  0.00     0.223 A 
ATOM     13  N   UNL A   1      33.579  33.077  29.024  1.00  0.00    -0.231 NA
BRANCH   9  14
ATOM     14  C   UNL A   1      37.712  33.578  29.012  1.00  0.00     0.032 C 
ATOM     15  C   UNL A   1      38.293  34.439  29.864  1.00  0.00     0.049 C 
BRANCH  15  16
ATOM     16  C   UNL A   1      39.700  34.614  29.965  1.00  0.00     0.128 A 
ATOM     17  C   UNL A   1      42.829  35.475  28.438  1.00  0.00     0.162 A 
ATOM     18  C   UNL A   1      44.100  35.442  29.029  1.00  0.00     0.050 A 
ATOM     19  C   UNL A   1      41.756  35.094  29.250  1.00  0.00     0.176 A 
ATOM     20  C   UNL A   1      44.274  35.008  30.346  1.00  0.00     0.005 A 
ATOM     21  C   UNL A   1      41.895  34.672  30.563  1.00  0.00     0.025 A 
ATOM     22  O   UNL A   1      40.443  35.058  28.892  1.00  0.00    -0.453 OA
ATOM     23  C   UNL A   1      43.180  34.617  31.128  1.00  0.00     0.012 A 
ATOM     24  C   UNL A   1      40.581  34.382  31.014  1.00  0.00     0.059 A 
BRANCH  17  25
ATOM     25  O   UNL A   1      42.616  35.930  27.161  1.00  0.00    -0.493 OA
ATOM     26  C   UNL A   1      43.239  37.191  26.925  1.00  0.00     0.278 C 
ENDBRANCH  17  25
ENDBRANCH  15  16
ENDBRANCH   9  14
ENDBRANCH   5   8
ENDBRANCH   3   4
ENDBRANCH   2   3
ENDBRANCH   1   2
BRANCH   1  27
ATOM     27  C   UNL A   1      35.611  33.263  33.721  1.00  0.00     0.002 C 
BRANCH  27  28
ATOM     28  C   UNL A   1      37.133  33.099  33.762  1.00  0.00     0.021 C 
BRANCH  28  29
ATOM     29  C   UNL A   1      37.695  32.199  32.667  1.00  0.00     0.116 C 
BRANCH  29  30
ATOM     30  N   UNL A   1      36.741  31.174  32.273  1.00  0.00    -0.352 N 
ATOM     31  C   UNL A   1      36.877  30.169  31.349  1.00  0.00     0.251 C 
ATOM     32  H   UNL A   1      35.873  31.205  32.737  1.00  0.00     0.163 HD
ATOM     33  O   UNL A   1      35.897  29.539  30.970  1.00  0.00    -0.269 OA
BRANCH  31  34
ATOM     34  C   UNL A   1      38.213  29.855  30.800  1.00  0.00     0.039 A 
ATOM     35  C   UNL A   1      39.169  29.272  31.635  1.00  0.00     0.014 A 
ATOM     36  C   UNL A   1      38.528  30.158  29.472  1.00  0.00     0.014 A 
ATOM     37  C   UNL A   1      40.425  28.942  31.123  1.00  0.00     0.010 A 
ATOM     38  C   UNL A   1      39.755  29.766  28.945  1.00  0.00     0.010 A 
ATOM     39  C   UNL A   1      40.718  29.162  29.767  1.00  0.00    -0.014 A 
BRANCH  39  40
ATOM     40  C   UNL A   1      42.032  28.779  29.194  1.00  0.00     0.031 A 
ATOM     41  C   UNL A   1      42.246  27.386  28.666  1.00  0.00     0.074 A 
ATOM     42  C   UNL A   1      43.046  29.665  29.199  1.00  0.00     0.049 A 
ATOM     43  N   UNL A   1      43.337  26.839  28.194  1.00  0.00    -0.248 NA
ATOM     44  C   UNL A   1      41.087  26.480  28.698  1.00  0.00     0.031 C 
ATOM     45  C   UNL A   1      42.974  31.032  29.718  1.00  0.00     0.029 A 
ATOM     46  N   UNL A   1      44.339  29.546  28.757  1.00  0.00    -0.354 N 
ATOM     47  C   UNL A   1      43.000  25.526  27.889  1.00  0.00     0.074 A 
ATOM     48  C   UNL A   1      41.619  25.343  28.276  1.00  0.00     0.031 C 
ATOM     49  C   UNL A   1      44.162  31.634  29.537  1.00  0.00     0.029 A 
ATOM     50  C   UNL A   1      45.088  30.685  28.928  1.00  0.00     0.049 A 
ATOM     51  H   UNL A   1      44.698  28.721  28.355  1.00  0.00     0.167 HD
ATOM     52  C   UNL A   1      43.766  24.568  27.316  1.00  0.00     0.037 A 
ATOM     53  C   UNL A   1      46.378  30.932  28.635  1.00  0.00     0.037 A 
ATOM     54  C   UNL A   1      45.133  24.762  26.907  1.00  0.00     0.049 A 
ATOM     55  C   UNL A   1      47.211  29.846  28.014  1.00  0.00     0.074 A 
ATOM     56  C   UNL A   1      45.977  23.873  26.265  1.00  0.00     0.029 A 
ATOM     57  N   UNL A   1      45.854  25.931  27.100  1.00  0.00    -0.354 N 
ATOM     58  N   UNL A   1      46.866  28.624  27.689  1.00  0.00    -0.248 NA
ATOM     59  C   UNL A   1      48.614  30.173  27.725  1.00  0.00     0.031 C 
ATOM     60  C   UNL A   1      47.224  24.487  26.112  1.00  0.00     0.029 A 
ATOM     61  C   UNL A   1      47.142  25.777  26.612  1.00  0.00     0.049 A 
ATOM     62  H   UNL A   1      45.505  26.748  27.523  1.00  0.00     0.167 HD
ATOM     63  C   UNL A   1      47.997  28.045  27.131  1.00  0.00     0.074 A 
ATOM     64  C   UNL A   1      49.037  29.054  27.154  1.00  0.00     0.031 C 
ATOM     65  C   UNL A   1      48.162  26.793  26.641  1.00  0.00     0.037 A 
BRANCH  52  66
ATOM     66  C   UNL A   1      43.141  23.219  27.094  1.00  0.00     0.057 A 
ATOM     67  C   UNL A   1      42.912  22.328  28.151  1.00  0.00     0.134 A 
ATOM     68  C   UNL A   1      42.732  22.822  25.815  1.00  0.00     0.134 A 
ATOM     69  F   UNL A   1      43.291  22.641  29.399  1.00  0.00    -0.206 F 
ATOM     70  C   UNL A   1      42.323  21.080  27.939  1.00  0.00     0.040 A 
ATOM     71  C   UNL A   1      42.116  21.589  25.595  1.00  0.00     0.040 A 
ATOM     72  F   UNL A   1      42.914  23.630  24.759  1.00  0.00    -0.206 F 
ATOM     73  C   UNL A   1      41.915  20.711  26.658  1.00  0.00     0.006 A 
ENDBRANCH  52  66
BRANCH  53  74
ATOM     74  C   UNL A   1      46.966  32.265  28.919  1.00  0.00     0.057 A 
ATOM     75  C   UNL A   1      47.008  33.266  27.943  1.00  0.00     0.134 A 
ATOM     76  C   UNL A   1      47.517  32.562  30.170  1.00  0.00     0.134 A 
ATOM     77  F   UNL A   1      46.523  33.030  26.715  1.00  0.00    -0.206 F 
ATOM     78  C   UNL A   1      47.585  34.511  28.197  1.00  0.00     0.040 A 
ATOM     79  C   UNL A   1      48.071  33.812  30.449  1.00  0.00     0.040 A 
ATOM     80  F   UNL A   1      47.522  31.638  31.139  1.00  0.00    -0.206 F 
ATOM     81  C   UNL A   1      48.112  34.789  29.457  1.00  0.00     0.006 A 
ENDBRANCH  53  74
BRANCH  65  82
ATOM     82  C   UNL A   1      49.503  26.457  26.057  1.00  0.00     0.057 A 
ATOM     83  C   UNL A   1      49.851  26.818  24.750  1.00  0.00     0.134 A 
ATOM     84  C   UNL A   1      50.467  25.794  26.826  1.00  0.00     0.134 A 
ATOM     85  F   UNL A   1      48.967  27.442  23.957  1.00  0.00    -0.206 F 
ATOM     86  C   UNL A   1      51.106  26.509  24.220  1.00  0.00     0.040 A 
ATOM     87  C   UNL A   1      51.733  25.505  26.316  1.00  0.00     0.040 A 
ATOM     88  F   UNL A   1      50.198  25.427  28.088  1.00  0.00    -0.206 F 
ATOM     89  C   UNL A   1      52.053  25.857  25.008  1.00  0.00     0.006 A 
ENDBRANCH  65  82
ENDBRANCH  39  40
ENDBRANCH  31  34
ENDBRANCH  29  30
ENDBRANCH  28  29
ENDBRANCH  27  28
ENDBRANCH   1  27
TORSDOF 16
ENDMDL
MODEL 3
REMARK VINA RESULT:     -10.7      5.632      9.996
REMARK SMILES COc1cccc2cc(/C=C/c3cc(C(=O)NCCCCCCNC(=O)c4ccc(-c5c6nc(c(-c7c(F)cccc7F)c7ccc([nH]7)c(-c7c(F)cccc7F)c7nc(c(-c8c(F)cccc8F)c8ccc5[nH]8)C=C7)C=C6)cc4)ncn3)oc12
REMARK SMILES IDX 20 1 19 2 18 3 17 4 15 5 16 6 14 8 12 9 13 10 83 11 82 12
REMARK SMILES IDX 81 13 11 14 10 15 9 16 3 17 4 18 85 19 5 20 7 21 84 22 6 23
REMARK SMILES IDX 8 24 2 25 1 26 21 27 22 28 23 29 24 30 25 31 26 33 27 34
REMARK SMILES IDX 28 35 80 36 29 37 79 38 30 39 31 40 32 41 73 42 33 43 78 44
REMARK SMILES IDX 72 45 74 46 34 47 77 48 71 49 70 50 35 52 61 53 44 54 60 55
REMARK SMILES IDX 45 56 48 57 59 58 75 59 46 60 47 61 58 63 76 64 49 65 36 66
REMARK SMILES IDX 37 67 42 68 38 69 39 70 41 71 43 72 40 73 62 74 63 75 68 76
REMARK SMILES IDX 64 77 65 78 67 79 69 80 66 81 50 82 51 83 56 84 52 85 53 86
REMARK SMILES IDX 55 87 57 88 54 89
REMARK H PARENT 17 7 24 32 74 51 48 62
REMARK Flexibility Score: inf
ROOT
ATOM      1  C   UNL A   1      41.405  35.062  28.960  1.00  0.00     0.002 C 
ENDROOT
BRANCH   1   2
ATOM      2  C   UNL A   1      40.343  34.191  29.642  1.00  0.00     0.021 C 
BRANCH   2   3
ATOM      3  C   UNL A   1      39.037  34.943  29.913  1.00  0.00     0.116 C 
BRANCH   3   4
ATOM      4  N   UNL A   1      38.538  34.608  31.235  1.00  0.00    -0.351 N 
ATOM      5  C   UNL A   1      37.301  34.224  31.705  1.00  0.00     0.270 C 
ATOM      6  O   UNL A   1      37.206  34.034  32.919  1.00  0.00    -0.268 OA
ATOM      7  H   UNL A   1      39.223  34.666  31.938  1.00  0.00     0.163 HD
BRANCH   5   8
ATOM      8  C   UNL A   1      36.115  33.987  30.816  1.00  0.00     0.132 A 
ATOM      9  C   UNL A   1      34.895  32.828  29.198  1.00  0.00     0.067 A 
ATOM     10  C   UNL A   1      36.115  33.073  29.791  1.00  0.00     0.062 A 
ATOM     11  N   UNL A   1      33.795  33.551  29.455  1.00  0.00    -0.237 NA
ATOM     12  C   UNL A   1      33.924  34.491  30.398  1.00  0.00     0.223 A 
ATOM     13  N   UNL A   1      35.024  34.727  31.119  1.00  0.00    -0.231 NA
BRANCH   9  14
ATOM     14  C   UNL A   1      34.728  31.712  28.263  1.00  0.00     0.032 C 
ATOM     15  C   UNL A   1      33.560  31.508  27.631  1.00  0.00     0.049 C 
BRANCH  15  16
ATOM     16  C   UNL A   1      33.330  30.425  26.740  1.00  0.00     0.128 A 
ATOM     17  C   UNL A   1      31.291  28.851  24.243  1.00  0.00     0.162 A 
ATOM     18  C   UNL A   1      31.505  27.607  23.633  1.00  0.00     0.050 A 
ATOM     19  C   UNL A   1      32.239  29.249  25.191  1.00  0.00     0.176 A 
ATOM     20  C   UNL A   1      32.589  26.801  23.994  1.00  0.00     0.005 A 
ATOM     21  C   UNL A   1      33.331  28.479  25.561  1.00  0.00     0.025 A 
ATOM     22  O   UNL A   1      32.238  30.413  25.898  1.00  0.00    -0.453 OA
ATOM     23  C   UNL A   1      33.511  27.222  24.959  1.00  0.00     0.012 A 
ATOM     24  C   UNL A   1      34.026  29.240  26.535  1.00  0.00     0.059 A 
BRANCH  17  25
ATOM     25  O   UNL A   1      30.261  29.684  23.889  1.00  0.00    -0.493 OA
ATOM     26  C   UNL A   1      29.386  29.086  22.934  1.00  0.00     0.278 C 
ENDBRANCH  17  25
ENDBRANCH  15  16
ENDBRANCH   9  14
ENDBRANCH   5   8
ENDBRANCH   3   4
ENDBRANCH   2   3
ENDBRANCH   1   2
BRANCH   1  27
ATOM     27  C   UNL A   1      42.732  35.169  29.723  1.00  0.00     0.002 C 
BRANCH  27  28
ATOM     28  C   UNL A   1      43.425  36.530  29.625  1.00  0.00     0.021 C 
BRANCH  28  29
ATOM     29  C   UNL A   1      44.491  36.767  30.690  1.00  0.00     0.116 C 
BRANCH  29  30
ATOM     30  N   UNL A   1      45.801  36.986  30.099  1.00  0.00    -0.352 N 
ATOM     31  C   UNL A   1      46.678  36.075  29.566  1.00  0.00     0.251 C 
ATOM     32  H   UNL A   1      46.102  37.923  30.076  1.00  0.00     0.163 HD
ATOM     33  O   UNL A   1      47.836  36.397  29.325  1.00  0.00    -0.269 OA
BRANCH  31  34
ATOM     34  C   UNL A   1      46.224  34.695  29.294  1.00  0.00     0.039 A 
ATOM     35  C   UNL A   1      45.826  34.356  27.999  1.00  0.00     0.014 A 
ATOM     36  C   UNL A   1      46.169  33.747  30.319  1.00  0.00     0.014 A 
ATOM     37  C   UNL A   1      45.423  33.049  27.720  1.00  0.00     0.010 A 
ATOM     38  C   UNL A   1      45.834  32.428  30.026  1.00  0.00     0.010 A 
ATOM     39  C   UNL A   1      45.451  32.068  28.726  1.00  0.00    -0.014 A 
BRANCH  39  40
ATOM     40  C   UNL A   1      45.068  30.664  28.439  1.00  0.00     0.031 A 
ATOM     41  C   UNL A   1      43.647  30.212  28.650  1.00  0.00     0.074 A 
ATOM     42  C   UNL A   1      46.007  29.784  28.041  1.00  0.00     0.049 A 
ATOM     43  N   UNL A   1      43.134  29.015  28.525  1.00  0.00    -0.248 NA
ATOM     44  C   UNL A   1      42.685  31.236  29.086  1.00  0.00     0.031 C 
ATOM     45  C   UNL A   1      47.424  30.091  27.837  1.00  0.00     0.029 A 
ATOM     46  N   UNL A   1      45.911  28.449  27.742  1.00  0.00    -0.354 N 
ATOM     47  C   UNL A   1      41.796  29.140  28.880  1.00  0.00     0.074 A 
ATOM     48  C   UNL A   1      41.590  30.516  29.276  1.00  0.00     0.031 C 
ATOM     49  C   UNL A   1      48.058  28.983  27.418  1.00  0.00     0.029 A 
ATOM     50  C   UNL A   1      47.103  27.881  27.362  1.00  0.00     0.049 A 
ATOM     51  H   UNL A   1      45.066  27.944  27.794  1.00  0.00     0.167 HD
ATOM     52  C   UNL A   1      40.823  28.198  28.857  1.00  0.00     0.037 A 
ATOM     53  C   UNL A   1      47.393  26.613  27.017  1.00  0.00     0.037 A 
ATOM     54  C   UNL A   1      41.026  26.837  28.437  1.00  0.00     0.049 A 
ATOM     55  C   UNL A   1      46.298  25.583  27.014  1.00  0.00     0.074 A 
ATOM     56  C   UNL A   1      40.094  25.820  28.322  1.00  0.00     0.029 A 
ATOM     57  N   UNL A   1      42.250  26.302  28.062  1.00  0.00    -0.354 N 
ATOM     58  N   UNL A   1      45.030  25.727  27.308  1.00  0.00    -0.248 NA
ATOM     59  C   UNL A   1      46.679  24.216  26.636  1.00  0.00     0.031 C 
ATOM     60  C   UNL A   1      40.762  24.658  27.922  1.00  0.00     0.029 A 
ATOM     61  C   UNL A   1      42.101  24.963  27.738  1.00  0.00     0.049 A 
ATOM     62  H   UNL A   1      43.099  26.799  28.031  1.00  0.00     0.167 HD
ATOM     63  C   UNL A   1      44.453  24.477  27.124  1.00  0.00     0.074 A 
ATOM     64  C   UNL A   1      45.511  23.590  26.684  1.00  0.00     0.031 C 
ATOM     65  C   UNL A   1      43.165  24.097  27.300  1.00  0.00     0.037 A 
BRANCH  52  66
ATOM     66  C   UNL A   1      39.447  28.611  29.296  1.00  0.00     0.057 A 
ATOM     67  C   UNL A   1      38.526  29.180  28.405  1.00  0.00     0.134 A 
ATOM     68  C   UNL A   1      39.025  28.405  30.615  1.00  0.00     0.134 A 
ATOM     69  F   UNL A   1      38.869  29.415  27.130  1.00  0.00    -0.206 F 
ATOM     70  C   UNL A   1      37.246  29.552  28.818  1.00  0.00     0.040 A 
ATOM     71  C   UNL A   1      37.738  28.748  31.033  1.00  0.00     0.040 A 
ATOM     72  F   UNL A   1      39.853  27.859  31.518  1.00  0.00    -0.206 F 
ATOM     73  C   UNL A   1      36.846  29.329  30.134  1.00  0.00     0.006 A 
ENDBRANCH  52  66
BRANCH  53  74
ATOM     74  C   UNL A   1      48.780  26.241  26.639  1.00  0.00     0.057 A 
ATOM     75  C   UNL A   1      49.660  25.672  27.565  1.00  0.00     0.134 A 
ATOM     76  C   UNL A   1      49.262  26.464  25.344  1.00  0.00     0.134 A 
ATOM     77  F   UNL A   1      49.265  25.463  28.829  1.00  0.00    -0.206 F 
ATOM     78  C   UNL A   1      50.973  25.346  27.221  1.00  0.00     0.040 A 
ATOM     79  C   UNL A   1      50.562  26.117  24.977  1.00  0.00     0.040 A 
ATOM     80  F   UNL A   1      48.471  27.022  24.419  1.00  0.00    -0.206 F 
ATOM     81  C   UNL A   1      51.424  25.562  25.920  1.00  0.00     0.006 A 
ENDBRANCH  53  74
BRANCH  65  82
ATOM     82  C   UNL A   1      42.822  22.672  26.981  1.00  0.00     0.057 A 
ATOM     83  C   UNL A   1      42.792  22.195  25.665  1.00  0.00     0.134 A 
ATOM     84  C   UNL A   1      42.552  21.758  28.008  1.00  0.00     0.134 A 
ATOM     85  F   UNL A   1      43.026  23.023  24.635  1.00  0.00    -0.206 F 
ATOM     86  C   UNL A   1      42.481  20.864  25.380  1.00  0.00     0.040 A 
ATOM     87  C   UNL A   1      42.268  20.419  27.737  1.00  0.00     0.040 A 
ATOM     88  F   UNL A   1      42.573  22.151  29.291  1.00  0.00    -0.206 F 
ATOM     89  C   UNL A   1      42.225  19.971  26.420  1.00  0.00     0.006 A 
ENDBRANCH  65  82
ENDBRANCH  39  40
ENDBRANCH  31  34
ENDBRANCH  29  30
ENDBRANCH  28  29
ENDBRANCH  27  28
ENDBRANCH   1  27
TORSDOF 16
ENDMDL
