MODEL 1
REMARK VINA RESULT:     -11.8      0.000      0.000
REMARK SMILES CCCC1(CCC)SC[C@@H]2C(=O)N(Cc3ccc(C(=O)NCCCCCCNC(=O)c4ccc(-c5c6nc(c(-c7c(F)cccc7F)c7ccc([nH]7)c(-c7c(F)cccc7F)c7nc(c(-c8c(F)cccc8F)c8ccc5[nH]8)C=C7)C=C6)cc4)cc3)CC(=O)N21
REMARK SMILES IDX 23 1 22 2 21 3 19 4 20 5 18 7 15 8 16 9 86 10 17 11 85 12
REMARK SMILES IDX 14 13 13 14 4 15 8 16 90 17 9 18 10 19 88 20 11 21 87 22
REMARK SMILES IDX 89 23 12 24 3 25 2 26 1 27 5 28 6 29 7 30 24 31 25 32 26 33
REMARK SMILES IDX 27 34 28 35 29 36 30 38 31 39 32 40 84 41 33 42 83 43 34 44
REMARK SMILES IDX 35 45 36 46 77 47 37 48 82 49 76 50 78 51 38 52 81 53 75 54
REMARK SMILES IDX 74 55 39 57 65 58 48 59 64 60 49 61 52 62 63 63 79 64 50 65
REMARK SMILES IDX 51 66 62 68 80 69 53 70 40 71 41 72 46 73 42 74 43 75 45 76
REMARK SMILES IDX 47 77 44 78 66 79 67 80 72 81 68 82 69 83 71 84 73 85 70 86
REMARK SMILES IDX 54 87 55 88 60 89 56 90 57 91 59 92 61 93 58 94
REMARK H PARENT 21 6 28 37 78 56 52 67
REMARK Flexibility Score: inf
ROOT
ATOM      1  C   UNL A   1      35.740  31.084  28.042  1.00  0.00     0.021 C 
ENDROOT
BRANCH   1   2
ATOM      2  C   UNL A   1      34.521  30.300  27.551  1.00  0.00     0.116 C 
BRANCH   2   3
ATOM      3  N   UNL A   1      33.389  31.191  27.352  1.00  0.00    -0.352 N 
ATOM      4  C   UNL A   1      32.156  30.963  26.795  1.00  0.00     0.251 C 
ATOM      5  O   UNL A   1      31.322  31.868  26.785  1.00  0.00    -0.269 OA
ATOM      6  H   UNL A   1      33.532  32.112  27.671  1.00  0.00     0.163 HD
BRANCH   4   7
ATOM      7  C   UNL A   1      31.785  29.627  26.278  1.00  0.00     0.039 A 
ATOM      8  C   UNL A   1      30.822  27.200  25.249  1.00  0.00    -0.029 A 
ATOM      9  C   UNL A   1      30.989  28.305  24.405  1.00  0.00     0.006 A 
ATOM     10  C   UNL A   1      31.231  27.302  26.586  1.00  0.00     0.006 A 
ATOM     11  C   UNL A   1      31.473  29.512  24.918  1.00  0.00     0.014 A 
ATOM     12  C   UNL A   1      31.728  28.499  27.095  1.00  0.00     0.014 A 
BRANCH   8  13
ATOM     13  C   UNL A   1      30.208  25.915  24.757  1.00  0.00     0.155 C 
BRANCH  13  14
ATOM     14  N   UNL A   1      31.058  24.739  24.914  1.00  0.00    -0.327 N 
ATOM     15  C   UNL A   1      34.403  22.065  25.436  1.00  0.00     0.090 C 
ATOM     16  S   UNL A   1      34.194  21.712  27.311  1.00  0.00    -0.131 SA
ATOM     17  N   UNL A   1      33.160  22.807  25.121  1.00  0.00    -0.314 N 
ATOM     18  C   UNL A   1      32.542  22.425  27.413  1.00  0.00     0.107 C 
ATOM     19  C   UNL A   1      32.567  23.445  26.295  1.00  0.00     0.186 C 
ATOM     20  C   UNL A   1      32.787  23.213  23.852  1.00  0.00     0.244 C 
ATOM     21  C   UNL A   1      31.212  24.136  26.155  1.00  0.00     0.247 C 
ATOM     22  C   UNL A   1      31.475  24.002  23.734  1.00  0.00     0.220 C 
ATOM     23  O   UNL A   1      33.362  22.868  22.824  1.00  0.00    -0.273 OA
ATOM     24  O   UNL A   1      30.520  24.391  27.136  1.00  0.00    -0.272 OA
BRANCH  15  25
ATOM     25  C   UNL A   1      35.688  22.944  25.398  1.00  0.00     0.040 C 
BRANCH  25  26
ATOM     26  C   UNL A   1      36.875  22.470  24.546  1.00  0.00    -0.000 C 
ATOM     27  C   UNL A   1      36.940  23.126  23.170  1.00  0.00     0.004 C 
ENDBRANCH  25  26
ENDBRANCH  15  25
BRANCH  15  28
ATOM     28  C   UNL A   1      34.509  20.608  24.889  1.00  0.00     0.040 C 
BRANCH  28  29
ATOM     29  C   UNL A   1      33.325  19.640  24.915  1.00  0.00    -0.000 C 
ATOM     30  C   UNL A   1      33.499  18.368  24.100  1.00  0.00     0.004 C 
ENDBRANCH  28  29
ENDBRANCH  15  28
ENDBRANCH  13  14
ENDBRANCH   8  13
ENDBRANCH   4   7
ENDBRANCH   2   3
ENDBRANCH   1   2
BRANCH   1  31
ATOM     31  C   UNL A   1      35.569  32.604  27.941  1.00  0.00     0.002 C 
BRANCH  31  32
ATOM     32  C   UNL A   1      35.769  33.364  29.256  1.00  0.00     0.002 C 
BRANCH  32  33
ATOM     33  C   UNL A   1      34.629  33.216  30.268  1.00  0.00     0.021 C 
BRANCH  33  34
ATOM     34  C   UNL A   1      34.792  32.048  31.235  1.00  0.00     0.116 C 
BRANCH  34  35
ATOM     35  N   UNL A   1      35.254  32.488  32.543  1.00  0.00    -0.352 N 
ATOM     36  C   UNL A   1      36.463  32.275  33.146  1.00  0.00     0.251 C 
ATOM     37  H   UNL A   1      34.605  33.011  33.067  1.00  0.00     0.163 HD
ATOM     38  O   UNL A   1      36.609  32.532  34.345  1.00  0.00    -0.269 OA
BRANCH  36  39
ATOM     39  C   UNL A   1      37.597  31.734  32.371  1.00  0.00     0.039 A 
ATOM     40  C   UNL A   1      38.329  30.665  32.896  1.00  0.00     0.014 A 
ATOM     41  C   UNL A   1      37.961  32.302  31.146  1.00  0.00     0.014 A 
ATOM     42  C   UNL A   1      39.409  30.147  32.178  1.00  0.00     0.010 A 
ATOM     43  C   UNL A   1      38.991  31.739  30.401  1.00  0.00     0.010 A 
ATOM     44  C   UNL A   1      39.738  30.670  30.917  1.00  0.00    -0.014 A 
BRANCH  44  45
ATOM     45  C   UNL A   1      40.893  30.147  30.146  1.00  0.00     0.031 A 
ATOM     46  C   UNL A   1      42.069  31.042  29.864  1.00  0.00     0.074 A 
ATOM     47  C   UNL A   1      40.866  28.892  29.659  1.00  0.00     0.049 A 
ATOM     48  N   UNL A   1      43.141  30.804  29.152  1.00  0.00    -0.248 NA
ATOM     49  C   UNL A   1      42.021  32.397  30.439  1.00  0.00     0.031 C 
ATOM     50  C   UNL A   1      39.767  27.940  29.833  1.00  0.00     0.029 A 
ATOM     51  N   UNL A   1      41.786  28.206  28.910  1.00  0.00    -0.354 N 
ATOM     52  C   UNL A   1      43.881  31.980  29.177  1.00  0.00     0.074 A 
ATOM     53  C   UNL A   1      43.112  32.948  29.929  1.00  0.00     0.031 C 
ATOM     54  C   UNL A   1      40.088  26.786  29.226  1.00  0.00     0.029 A 
ATOM     55  C   UNL A   1      41.396  26.927  28.594  1.00  0.00     0.049 A 
ATOM     56  H   UNL A   1      42.646  28.592  28.626  1.00  0.00     0.167 HD
ATOM     57  C   UNL A   1      45.102  32.223  28.646  1.00  0.00     0.037 A 
ATOM     58  C   UNL A   1      42.022  25.979  27.871  1.00  0.00     0.037 A 
ATOM     59  C   UNL A   1      45.878  31.248  27.926  1.00  0.00     0.049 A 
ATOM     60  C   UNL A   1      43.378  26.275  27.292  1.00  0.00     0.074 A 
ATOM     61  C   UNL A   1      47.146  31.381  27.388  1.00  0.00     0.029 A 
ATOM     62  N   UNL A   1      45.458  29.957  27.648  1.00  0.00    -0.354 N 
ATOM     63  N   UNL A   1      44.091  27.373  27.369  1.00  0.00    -0.248 NA
ATOM     64  C   UNL A   1      44.022  25.194  26.531  1.00  0.00     0.031 C 
ATOM     65  C   UNL A   1      47.479  30.180  26.754  1.00  0.00     0.029 A 
ATOM     66  C   UNL A   1      46.437  29.284  26.937  1.00  0.00     0.049 A 
ATOM     67  H   UNL A   1      44.592  29.573  27.918  1.00  0.00     0.167 HD
ATOM     68  C   UNL A   1      45.279  27.105  26.702  1.00  0.00     0.074 A 
ATOM     69  C   UNL A   1      45.195  25.738  26.233  1.00  0.00     0.031 C 
ATOM     70  C   UNL A   1      46.344  27.917  26.496  1.00  0.00     0.037 A 
BRANCH  57  71
ATOM     71  C   UNL A   1      45.676  33.598  28.834  1.00  0.00     0.057 A 
ATOM     72  C   UNL A   1      46.476  33.919  29.939  1.00  0.00     0.134 A 
ATOM     73  C   UNL A   1      45.451  34.604  27.887  1.00  0.00     0.134 A 
ATOM     74  F   UNL A   1      46.720  33.004  30.890  1.00  0.00    -0.206 F 
ATOM     75  C   UNL A   1      47.007  35.198  30.110  1.00  0.00     0.040 A 
ATOM     76  C   UNL A   1      46.000  35.879  28.033  1.00  0.00     0.040 A 
ATOM     77  F   UNL A   1      44.698  34.364  26.802  1.00  0.00    -0.206 F 
ATOM     78  C   UNL A   1      46.774  36.182  29.150  1.00  0.00     0.006 A 
ENDBRANCH  57  71
BRANCH  58  79
ATOM     79  C   UNL A   1      41.390  24.650  27.677  1.00  0.00     0.057 A 
ATOM     80  C   UNL A   1      41.796  23.543  28.432  1.00  0.00     0.134 A 
ATOM     81  C   UNL A   1      40.383  24.448  26.727  1.00  0.00     0.134 A 
ATOM     82  F   UNL A   1      42.771  23.670  29.346  1.00  0.00    -0.206 F 
ATOM     83  C   UNL A   1      41.241  22.278  28.234  1.00  0.00     0.040 A 
ATOM     84  C   UNL A   1      39.800  23.194  26.535  1.00  0.00     0.040 A 
ATOM     85  F   UNL A   1      39.943  25.470  25.978  1.00  0.00    -0.206 F 
ATOM     86  C   UNL A   1      40.236  22.102  27.285  1.00  0.00     0.006 A 
ENDBRANCH  58  79
BRANCH  70  87
ATOM     87  C   UNL A   1      47.525  27.333  25.778  1.00  0.00     0.057 A 
ATOM     88  C   UNL A   1      47.673  27.434  24.389  1.00  0.00     0.134 A 
ATOM     89  C   UNL A   1      48.545  26.694  26.494  1.00  0.00     0.134 A 
ATOM     90  F   UNL A   1      46.725  28.023  23.645  1.00  0.00    -0.206 F 
ATOM     91  C   UNL A   1      48.786  26.901  23.735  1.00  0.00     0.040 A 
ATOM     92  C   UNL A   1      49.674  26.181  25.855  1.00  0.00     0.040 A 
ATOM     93  F   UNL A   1      48.468  26.572  27.828  1.00  0.00    -0.206 F 
ATOM     94  C   UNL A   1      49.794  26.279  24.470  1.00  0.00     0.006 A 
ENDBRANCH  70  87
ENDBRANCH  44  45
ENDBRANCH  36  39
ENDBRANCH  34  35
ENDBRANCH  33  34
ENDBRANCH  32  33
ENDBRANCH  31  32
ENDBRANCH   1  31
TORSDOF 19
ENDMDL
MODEL 2
REMARK VINA RESULT:     -11.4      3.115      6.879
REMARK SMILES CCCC1(CCC)SC[C@@H]2C(=O)N(Cc3ccc(C(=O)NCCCCCCNC(=O)c4ccc(-c5c6nc(c(-c7c(F)cccc7F)c7ccc([nH]7)c(-c7c(F)cccc7F)c7nc(c(-c8c(F)cccc8F)c8ccc5[nH]8)C=C7)C=C6)cc4)cc3)CC(=O)N21
REMARK SMILES IDX 23 1 22 2 21 3 19 4 20 5 18 7 15 8 16 9 86 10 17 11 85 12
REMARK SMILES IDX 14 13 13 14 4 15 8 16 90 17 9 18 10 19 88 20 11 21 87 22
REMARK SMILES IDX 89 23 12 24 3 25 2 26 1 27 5 28 6 29 7 30 24 31 25 32 26 33
REMARK SMILES IDX 27 34 28 35 29 36 30 38 31 39 32 40 84 41 33 42 83 43 34 44
REMARK SMILES IDX 35 45 36 46 77 47 37 48 82 49 76 50 78 51 38 52 81 53 75 54
REMARK SMILES IDX 74 55 39 57 65 58 48 59 64 60 49 61 52 62 63 63 79 64 50 65
REMARK SMILES IDX 51 66 62 68 80 69 53 70 40 71 41 72 46 73 42 74 43 75 45 76
REMARK SMILES IDX 47 77 44 78 66 79 67 80 72 81 68 82 69 83 71 84 73 85 70 86
REMARK SMILES IDX 54 87 55 88 60 89 56 90 57 91 59 92 61 93 58 94
REMARK H PARENT 21 6 28 37 78 56 52 67
REMARK Flexibility Score: inf
ROOT
ATOM      1  C   UNL A   1      37.952  29.119  28.388  1.00  0.00     0.021 C 
ENDROOT
BRANCH   1   2
ATOM      2  C   UNL A   1      36.605  29.498  29.008  1.00  0.00     0.116 C 
BRANCH   2   3
ATOM      3  N   UNL A   1      36.192  30.818  28.559  1.00  0.00    -0.352 N 
ATOM      4  C   UNL A   1      35.159  31.203  27.742  1.00  0.00     0.251 C 
ATOM      5  O   UNL A   1      34.963  32.402  27.542  1.00  0.00    -0.269 OA
ATOM      6  H   UNL A   1      36.746  31.559  28.898  1.00  0.00     0.163 HD
BRANCH   4   7
ATOM      7  C   UNL A   1      34.230  30.208  27.161  1.00  0.00     0.039 A 
ATOM      8  C   UNL A   1      32.577  28.390  25.806  1.00  0.00    -0.029 A 
ATOM      9  C   UNL A   1      33.958  28.166  25.878  1.00  0.00     0.006 A 
ATOM     10  C   UNL A   1      32.031  29.480  26.498  1.00  0.00     0.006 A 
ATOM     11  C   UNL A   1      34.779  29.070  26.557  1.00  0.00     0.014 A 
ATOM     12  C   UNL A   1      32.846  30.373  27.188  1.00  0.00     0.014 A 
BRANCH   8  13
ATOM     13  C   UNL A   1      31.673  27.495  24.998  1.00  0.00     0.155 C 
BRANCH  13  14
ATOM     14  N   UNL A   1      32.082  26.094  24.961  1.00  0.00    -0.327 N 
ATOM     15  C   UNL A   1      34.305  22.405  25.189  1.00  0.00     0.090 C 
ATOM     16  S   UNL A   1      33.666  21.793  26.892  1.00  0.00    -0.131 SA
ATOM     17  N   UNL A   1      33.424  23.567  24.927  1.00  0.00    -0.314 N 
ATOM     18  C   UNL A   1      32.319  22.986  26.981  1.00  0.00     0.107 C 
ATOM     19  C   UNL A   1      32.852  24.132  26.149  1.00  0.00     0.186 C 
ATOM     20  C   UNL A   1      33.427  24.308  23.759  1.00  0.00     0.244 C 
ATOM     21  C   UNL A   1      31.820  25.251  26.032  1.00  0.00     0.247 C 
ATOM     22  C   UNL A   1      32.460  25.499  23.692  1.00  0.00     0.220 C 
ATOM     23  O   UNL A   1      34.044  23.992  22.747  1.00  0.00    -0.273 OA
ATOM     24  O   UNL A   1      31.074  25.533  26.965  1.00  0.00    -0.272 OA
BRANCH  15  25
ATOM     25  C   UNL A   1      35.782  22.791  25.500  1.00  0.00     0.040 C 
BRANCH  25  26
ATOM     26  C   UNL A   1      36.897  22.166  24.650  1.00  0.00    -0.000 C 
ATOM     27  C   UNL A   1      38.209  21.976  25.406  1.00  0.00     0.004 C 
ENDBRANCH  25  26
ENDBRANCH  15  25
BRANCH  15  28
ATOM     28  C   UNL A   1      34.060  21.129  24.325  1.00  0.00     0.040 C 
BRANCH  28  29
ATOM     29  C   UNL A   1      32.663  20.720  23.855  1.00  0.00    -0.000 C 
ATOM     30  C   UNL A   1      32.437  19.225  23.693  1.00  0.00     0.004 C 
ENDBRANCH  28  29
ENDBRANCH  15  28
ENDBRANCH  13  14
ENDBRANCH   8  13
ENDBRANCH   4   7
ENDBRANCH   2   3
ENDBRANCH   1   2
BRANCH   1  31
ATOM     31  C   UNL A   1      38.813  28.231  29.294  1.00  0.00     0.002 C 
BRANCH  31  32
ATOM     32  C   UNL A   1      39.878  27.407  28.563  1.00  0.00     0.002 C 
BRANCH  32  33
ATOM     33  C   UNL A   1      39.523  25.933  28.351  1.00  0.00     0.021 C 
BRANCH  33  34
ATOM     34  C   UNL A   1      39.712  25.438  26.921  1.00  0.00     0.116 C 
BRANCH  34  35
ATOM     35  N   UNL A   1      40.336  24.124  26.881  1.00  0.00    -0.352 N 
ATOM     36  C   UNL A   1      41.641  23.796  26.639  1.00  0.00     0.251 C 
ATOM     37  H   UNL A   1      39.732  23.364  27.050  1.00  0.00     0.163 HD
ATOM     38  O   UNL A   1      41.954  22.621  26.426  1.00  0.00    -0.269 OA
BRANCH  36  39
ATOM     39  C   UNL A   1      42.681  24.843  26.625  1.00  0.00     0.039 A 
ATOM     40  C   UNL A   1      43.056  25.412  25.404  1.00  0.00     0.014 A 
ATOM     41  C   UNL A   1      43.313  25.238  27.808  1.00  0.00     0.014 A 
ATOM     42  C   UNL A   1      44.043  26.399  25.375  1.00  0.00     0.010 A 
ATOM     43  C   UNL A   1      44.245  26.270  27.785  1.00  0.00     0.010 A 
ATOM     44  C   UNL A   1      44.635  26.847  26.567  1.00  0.00    -0.014 A 
BRANCH  44  45
ATOM     45  C   UNL A   1      45.699  27.879  26.556  1.00  0.00     0.031 A 
ATOM     46  C   UNL A   1      45.332  29.333  26.683  1.00  0.00     0.074 A 
ATOM     47  C   UNL A   1      46.986  27.519  26.385  1.00  0.00     0.049 A 
ATOM     48  N   UNL A   1      46.100  30.391  26.624  1.00  0.00    -0.248 NA
ATOM     49  C   UNL A   1      43.904  29.639  26.873  1.00  0.00     0.031 C 
ATOM     50  C   UNL A   1      47.465  26.146  26.215  1.00  0.00     0.029 A 
ATOM     51  N   UNL A   1      48.124  28.281  26.317  1.00  0.00    -0.354 N 
ATOM     52  C   UNL A   1      45.249  31.483  26.751  1.00  0.00     0.074 A 
ATOM     53  C   UNL A   1      43.902  30.963  26.835  1.00  0.00     0.031 C 
ATOM     54  C   UNL A   1      48.802  26.163  26.083  1.00  0.00     0.029 A 
ATOM     55  C   UNL A   1      49.269  27.545  26.126  1.00  0.00     0.049 A 
ATOM     56  H   UNL A   1      48.122  29.262  26.398  1.00  0.00     0.167 HD
ATOM     57  C   UNL A   1      45.564  32.798  26.819  1.00  0.00     0.037 A 
ATOM     58  C   UNL A   1      50.548  27.944  25.996  1.00  0.00     0.037 A 
ATOM     59  C   UNL A   1      46.908  33.310  26.768  1.00  0.00     0.049 A 
ATOM     60  C   UNL A   1      50.871  29.411  26.076  1.00  0.00     0.074 A 
ATOM     61  C   UNL A   1      47.337  34.621  26.874  1.00  0.00     0.029 A 
ATOM     62  N   UNL A   1      48.042  32.530  26.599  1.00  0.00    -0.354 N 
ATOM     63  N   UNL A   1      50.063  30.429  26.250  1.00  0.00    -0.248 NA
ATOM     64  C   UNL A   1      52.287  29.783  25.950  1.00  0.00     0.031 C 
ATOM     65  C   UNL A   1      48.728  34.638  26.735  1.00  0.00     0.029 A 
ATOM     66  C   UNL A   1      49.170  33.333  26.587  1.00  0.00     0.049 A 
ATOM     67  H   UNL A   1      48.045  31.550  26.503  1.00  0.00     0.167 HD
ATOM     68  C   UNL A   1      50.873  31.556  26.291  1.00  0.00     0.074 A 
ATOM     69  C   UNL A   1      52.237  31.096  26.132  1.00  0.00     0.031 C 
ATOM     70  C   UNL A   1      50.521  32.855  26.448  1.00  0.00     0.037 A 
BRANCH  57  71
ATOM     71  C   UNL A   1      44.432  33.773  26.966  1.00  0.00     0.057 A 
ATOM     72  C   UNL A   1      43.959  34.171  28.224  1.00  0.00     0.134 A 
ATOM     73  C   UNL A   1      43.826  34.342  25.839  1.00  0.00     0.134 A 
ATOM     74  F   UNL A   1      44.488  33.653  29.343  1.00  0.00    -0.206 F 
ATOM     75  C   UNL A   1      42.906  35.077  28.355  1.00  0.00     0.040 A 
ATOM     76  C   UNL A   1      42.790  35.271  25.959  1.00  0.00     0.040 A 
ATOM     77  F   UNL A   1      44.232  34.010  24.605  1.00  0.00    -0.206 F 
ATOM     78  C   UNL A   1      42.323  35.635  27.220  1.00  0.00     0.006 A 
ENDBRANCH  57  71
BRANCH  58  79
ATOM     79  C   UNL A   1      51.626  26.941  25.808  1.00  0.00     0.057 A 
ATOM     80  C   UNL A   1      52.010  26.529  24.526  1.00  0.00     0.134 A 
ATOM     81  C   UNL A   1      52.284  26.358  26.896  1.00  0.00     0.134 A 
ATOM     82  F   UNL A   1      51.403  27.038  23.443  1.00  0.00    -0.206 F 
ATOM     83  C   UNL A   1      52.992  25.557  24.333  1.00  0.00     0.040 A 
ATOM     84  C   UNL A   1      53.287  25.403  26.718  1.00  0.00     0.040 A 
ATOM     85  F   UNL A   1      51.969  26.716  28.149  1.00  0.00    -0.206 F 
ATOM     86  C   UNL A   1      53.638  24.994  25.432  1.00  0.00     0.006 A 
ENDBRANCH  58  79
BRANCH  70  87
ATOM     87  C   UNL A   1      51.628  33.865  26.508  1.00  0.00     0.057 A 
ATOM     88  C   UNL A   1      52.097  34.521  25.362  1.00  0.00     0.134 A 
ATOM     89  C   UNL A   1      52.205  34.213  27.736  1.00  0.00     0.134 A 
ATOM     90  F   UNL A   1      51.595  34.223  24.155  1.00  0.00    -0.206 F 
ATOM     91  C   UNL A   1      53.117  35.472  25.435  1.00  0.00     0.040 A 
ATOM     92  C   UNL A   1      53.206  35.181  27.824  1.00  0.00     0.040 A 
ATOM     93  F   UNL A   1      51.795  33.628  28.871  1.00  0.00    -0.206 F 
ATOM     94  C   UNL A   1      53.669  35.809  26.670  1.00  0.00     0.006 A 
ENDBRANCH  70  87
ENDBRANCH  44  45
ENDBRANCH  36  39
ENDBRANCH  34  35
ENDBRANCH  33  34
ENDBRANCH  32  33
ENDBRANCH  31  32
ENDBRANCH   1  31
TORSDOF 19
ENDMDL
MODEL 3
REMARK VINA RESULT:     -11.2      4.574      9.708
REMARK SMILES CCCC1(CCC)SC[C@@H]2C(=O)N(Cc3ccc(C(=O)NCCCCCCNC(=O)c4ccc(-c5c6nc(c(-c7c(F)cccc7F)c7ccc([nH]7)c(-c7c(F)cccc7F)c7nc(c(-c8c(F)cccc8F)c8ccc5[nH]8)C=C7)C=C6)cc4)cc3)CC(=O)N21
REMARK SMILES IDX 23 1 22 2 21 3 19 4 20 5 18 7 15 8 16 9 86 10 17 11 85 12
REMARK SMILES IDX 14 13 13 14 4 15 8 16 90 17 9 18 10 19 88 20 11 21 87 22
REMARK SMILES IDX 89 23 12 24 3 25 2 26 1 27 5 28 6 29 7 30 24 31 25 32 26 33
REMARK SMILES IDX 27 34 28 35 29 36 30 38 31 39 32 40 84 41 33 42 83 43 34 44
REMARK SMILES IDX 35 45 36 46 77 47 37 48 82 49 76 50 78 51 38 52 81 53 75 54
REMARK SMILES IDX 74 55 39 57 65 58 48 59 64 60 49 61 52 62 63 63 79 64 50 65
REMARK SMILES IDX 51 66 62 68 80 69 53 70 40 71 41 72 46 73 42 74 43 75 45 76
REMARK SMILES IDX 47 77 44 78 66 79 67 80 72 81 68 82 69 83 71 84 73 85 70 86
REMARK SMILES IDX 54 87 55 88 60 89 56 90 57 91 59 92 61 93 58 94
REMARK H PARENT 21 6 28 37 78 56 52 67
REMARK Flexibility Score: inf
ROOT
ATOM      1  C   UNL A   1      39.969  25.517  26.783  1.00  0.00     0.021 C 
ENDROOT
BRANCH   1   2
ATOM      2  C   UNL A   1      39.122  24.414  27.422  1.00  0.00     0.116 C 
BRANCH   2   3
ATOM      3  N   UNL A   1      39.620  23.103  27.038  1.00  0.00    -0.352 N 
ATOM      4  C   UNL A   1      39.034  22.102  26.305  1.00  0.00     0.251 C 
ATOM      5  O   UNL A   1      39.677  21.084  26.052  1.00  0.00    -0.269 OA
ATOM      6  H   UNL A   1      40.529  22.900  27.356  1.00  0.00     0.163 HD
BRANCH   4   7
ATOM      7  C   UNL A   1      37.672  22.258  25.746  1.00  0.00     0.039 A 
ATOM      8  C   UNL A   1      34.994  22.539  24.955  1.00  0.00    -0.029 A 
ATOM      9  C   UNL A   1      35.626  23.562  25.673  1.00  0.00     0.006 A 
ATOM     10  C   UNL A   1      35.747  21.423  24.561  1.00  0.00     0.006 A 
ATOM     11  C   UNL A   1      36.961  23.422  26.062  1.00  0.00     0.014 A 
ATOM     12  C   UNL A   1      37.081  21.291  24.936  1.00  0.00     0.014 A 
BRANCH   8  13
ATOM     13  C   UNL A   1      33.530  22.607  24.606  1.00  0.00     0.155 C 
BRANCH  13  14
ATOM     14  N   UNL A   1      33.042  23.948  24.299  1.00  0.00    -0.327 N 
ATOM     15  C   UNL A   1      32.452  28.217  24.116  1.00  0.00     0.090 C 
ATOM     16  S   UNL A   1      33.334  28.553  22.444  1.00  0.00    -0.131 SA
ATOM     17  N   UNL A   1      32.415  26.736  24.152  1.00  0.00    -0.314 N 
ATOM     18  C   UNL A   1      33.421  26.817  21.971  1.00  0.00     0.107 C 
ATOM     19  C   UNL A   1      33.443  26.122  23.315  1.00  0.00     0.186 C 
ATOM     20  C   UNL A   1      31.786  25.990  25.133  1.00  0.00     0.244 C 
ATOM     21  C   UNL A   1      33.448  24.604  23.145  1.00  0.00     0.247 C 
ATOM     22  C   UNL A   1      31.887  24.463  25.014  1.00  0.00     0.220 C 
ATOM     23  O   UNL A   1      31.053  26.467  25.995  1.00  0.00    -0.273 OA
ATOM     24  O   UNL A   1      34.052  24.065  22.222  1.00  0.00    -0.272 OA
BRANCH  15  25
ATOM     25  C   UNL A   1      33.432  28.849  25.148  1.00  0.00     0.040 C 
BRANCH  25  26
ATOM     26  C   UNL A   1      32.858  29.778  26.228  1.00  0.00    -0.000 C 
ATOM     27  C   UNL A   1      32.440  29.049  27.502  1.00  0.00     0.004 C 
ENDBRANCH  25  26
ENDBRANCH  15  25
BRANCH  15  28
ATOM     28  C   UNL A   1      31.096  28.948  23.866  1.00  0.00     0.040 C 
BRANCH  28  29
ATOM     29  C   UNL A   1      30.070  28.438  22.853  1.00  0.00    -0.000 C 
ATOM     30  C   UNL A   1      29.102  29.482  22.317  1.00  0.00     0.004 C 
ENDBRANCH  28  29
ENDBRANCH  15  28
ENDBRANCH  13  14
ENDBRANCH   8  13
ENDBRANCH   4   7
ENDBRANCH   2   3
ENDBRANCH   1   2
BRANCH   1  31
ATOM     31  C   UNL A   1      41.458  25.167  26.692  1.00  0.00     0.002 C 
BRANCH  31  32
ATOM     32  C   UNL A   1      42.190  25.772  25.489  1.00  0.00     0.002 C 
BRANCH  32  33
ATOM     33  C   UNL A   1      43.324  24.914  24.923  1.00  0.00     0.021 C 
BRANCH  33  34
ATOM     34  C   UNL A   1      43.472  23.548  25.585  1.00  0.00     0.116 C 
BRANCH  34  35
ATOM     35  N   UNL A   1      44.847  23.285  25.983  1.00  0.00    -0.352 N 
ATOM     36  C   UNL A   1      45.606  23.916  26.930  1.00  0.00     0.251 C 
ATOM     37  H   UNL A   1      45.294  22.551  25.502  1.00  0.00     0.163 HD
ATOM     38  O   UNL A   1      46.822  23.709  26.986  1.00  0.00    -0.269 OA
BRANCH  36  39
ATOM     39  C   UNL A   1      44.979  24.849  27.886  1.00  0.00     0.039 A 
ATOM     40  C   UNL A   1      45.185  26.223  27.729  1.00  0.00     0.014 A 
ATOM     41  C   UNL A   1      44.220  24.371  28.959  1.00  0.00     0.014 A 
ATOM     42  C   UNL A   1      44.605  27.118  28.629  1.00  0.00     0.010 A 
ATOM     43  C   UNL A   1      43.584  25.266  29.812  1.00  0.00     0.010 A 
ATOM     44  C   UNL A   1      43.786  26.647  29.669  1.00  0.00    -0.014 A 
BRANCH  44  45
ATOM     45  C   UNL A   1      43.176  27.579  30.648  1.00  0.00     0.031 A 
ATOM     46  C   UNL A   1      43.815  27.771  31.996  1.00  0.00     0.074 A 
ATOM     47  C   UNL A   1      42.026  28.213  30.348  1.00  0.00     0.049 A 
ATOM     48  N   UNL A   1      43.404  28.480  33.016  1.00  0.00    -0.248 NA
ATOM     49  C   UNL A   1      45.073  27.045  32.240  1.00  0.00     0.031 C 
ATOM     50  C   UNL A   1      41.290  28.082  29.089  1.00  0.00     0.029 A 
ATOM     51  N   UNL A   1      41.271  29.089  31.086  1.00  0.00    -0.354 N 
ATOM     52  C   UNL A   1      44.339  28.271  34.023  1.00  0.00     0.074 A 
ATOM     53  C   UNL A   1      45.308  27.327  33.512  1.00  0.00     0.031 C 
ATOM     54  C   UNL A   1      40.200  28.867  29.136  1.00  0.00     0.029 A 
ATOM     55  C   UNL A   1      40.143  29.528  30.436  1.00  0.00     0.049 A 
ATOM     56  H   UNL A   1      41.515  29.376  31.996  1.00  0.00     0.167 HD
ATOM     57  C   UNL A   1      44.399  28.835  35.253  1.00  0.00     0.037 A 
ATOM     58  C   UNL A   1      39.172  30.365  30.847  1.00  0.00     0.037 A 
ATOM     59  C   UNL A   1      43.451  29.798  35.747  1.00  0.00     0.049 A 
ATOM     60  C   UNL A   1      39.263  30.979  32.217  1.00  0.00     0.074 A 
ATOM     61  C   UNL A   1      43.448  30.463  36.960  1.00  0.00     0.029 A 
ATOM     62  N   UNL A   1      42.336  30.235  35.047  1.00  0.00    -0.354 N 
ATOM     63  N   UNL A   1      40.181  30.814  33.139  1.00  0.00    -0.248 NA
ATOM     64  C   UNL A   1      38.186  31.902  32.600  1.00  0.00     0.031 C 
ATOM     65  C   UNL A   1      42.313  31.278  37.009  1.00  0.00     0.029 A 
ATOM     66  C   UNL A   1      41.632  31.154  35.808  1.00  0.00     0.049 A 
ATOM     67  H   UNL A   1      42.083  29.938  34.144  1.00  0.00     0.167 HD
ATOM     68  C   UNL A   1      39.814  31.639  34.194  1.00  0.00     0.074 A 
ATOM     69  C   UNL A   1      38.594  32.309  33.795  1.00  0.00     0.031 C 
ATOM     70  C   UNL A   1      40.431  31.825  35.386  1.00  0.00     0.037 A 
BRANCH  57  71
ATOM     71  C   UNL A   1      45.536  28.429  36.144  1.00  0.00     0.057 A 
ATOM     72  C   UNL A   1      46.763  29.107  36.132  1.00  0.00     0.134 A 
ATOM     73  C   UNL A   1      45.397  27.365  37.045  1.00  0.00     0.134 A 
ATOM     74  F   UNL A   1      46.966  30.127  35.284  1.00  0.00    -0.206 F 
ATOM     75  C   UNL A   1      47.817  28.725  36.962  1.00  0.00     0.040 A 
ATOM     76  C   UNL A   1      46.435  26.992  37.900  1.00  0.00     0.040 A 
ATOM     77  F   UNL A   1      44.248  26.675  37.113  1.00  0.00    -0.206 F 
ATOM     78  C   UNL A   1      47.652  27.668  37.855  1.00  0.00     0.006 A 
ENDBRANCH  57  71
BRANCH  58  79
ATOM     79  C   UNL A   1      38.044  30.700  29.941  1.00  0.00     0.057 A 
ATOM     80  C   UNL A   1      38.001  31.927  29.269  1.00  0.00     0.134 A 
ATOM     81  C   UNL A   1      36.979  29.816  29.738  1.00  0.00     0.134 A 
ATOM     82  F   UNL A   1      38.983  32.825  29.438  1.00  0.00    -0.206 F 
ATOM     83  C   UNL A   1      36.927  32.273  28.447  1.00  0.00     0.040 A 
ATOM     84  C   UNL A   1      35.911  30.138  28.899  1.00  0.00     0.040 A 
ATOM     85  F   UNL A   1      36.967  28.620  30.346  1.00  0.00    -0.206 F 
ATOM     86  C   UNL A   1      35.880  31.375  28.257  1.00  0.00     0.006 A 
ENDBRANCH  58  79
BRANCH  70  87
ATOM     87  C   UNL A   1      39.828  32.831  36.322  1.00  0.00     0.057 A 
ATOM     88  C   UNL A   1      38.776  32.502  37.186  1.00  0.00     0.134 A 
ATOM     89  C   UNL A   1      40.335  34.135  36.385  1.00  0.00     0.134 A 
ATOM     90  F   UNL A   1      38.237  31.273  37.165  1.00  0.00    -0.206 F 
ATOM     91  C   UNL A   1      38.235  33.443  38.065  1.00  0.00     0.040 A 
ATOM     92  C   UNL A   1      39.820  35.076  37.277  1.00  0.00     0.040 A 
ATOM     93  F   UNL A   1      41.348  34.511  35.590  1.00  0.00    -0.206 F 
ATOM     94  C   UNL A   1      38.763  34.732  38.117  1.00  0.00     0.006 A 
ENDBRANCH  70  87
ENDBRANCH  44  45
ENDBRANCH  36  39
ENDBRANCH  34  35
ENDBRANCH  33  34
ENDBRANCH  32  33
ENDBRANCH  31  32
ENDBRANCH   1  31
TORSDOF 19
ENDMDL
