MODEL 1
REMARK VINA RESULT:     -12.1      0.000      0.000
REMARK SMILES O=C(NCCCCCCNC(=O)[C@H]1C[N@H+](Cc2ccc(Cl)c(Cl)c2)CC12CCCCC2)c1ccc(-c2c3nc(c(-c4c(F)cccc4F)c4ccc([nH]4)c(-c4c(F)cccc4F)c4nc(c(-c5c(F)cccc5F)c5ccc2[nH]5)C=C4)C=C3)cc1
REMARK SMILES IDX 6 1 5 2 4 3 3 4 1 5 2 6 32 8 33 9 85 10 34 11 84 12 35 13
REMARK SMILES IDX 36 14 37 15 78 16 38 17 83 18 77 19 79 20 39 21 82 22 76 23
REMARK SMILES IDX 75 24 40 26 66 27 49 28 65 29 50 30 53 31 64 32 80 33 51 34
REMARK SMILES IDX 52 35 63 37 81 38 54 39 41 40 42 41 47 42 43 43 44 44 46 45
REMARK SMILES IDX 48 46 45 47 67 48 68 49 73 50 69 51 70 52 72 53 74 54 71 55
REMARK SMILES IDX 55 56 56 57 61 58 57 59 58 60 60 61 62 62 59 63 7 64 8 65
REMARK SMILES IDX 9 66 10 67 11 68 12 70 13 71 14 72 26 73 15 74 25 75 27 76
REMARK SMILES IDX 31 77 28 79 30 80 29 81 16 82 17 83 18 84 24 85 19 86 22 87
REMARK SMILES IDX 20 88 23 89 21 90
REMARK H PARENT 3 7 79 25 53 36 10 69 15 78
REMARK Flexibility Score: inf
ROOT
ATOM      1  C   UNL A   1      30.665  31.489  25.089  1.00  0.00     0.002 C 
ENDROOT
BRANCH   1   2
ATOM      2  C   UNL A   1      31.079  31.733  26.544  1.00  0.00     0.021 C 
BRANCH   2   3
ATOM      3  C   UNL A   1      32.405  32.441  26.790  1.00  0.00     0.116 C 
BRANCH   3   4
ATOM      4  N   UNL A   1      32.247  33.776  27.337  1.00  0.00    -0.352 N 
ATOM      5  O   UNL A   1      32.574  35.525  28.713  1.00  0.00    -0.269 OA
ATOM      6  C   UNL A   1      32.966  34.431  28.301  1.00  0.00     0.251 C 
ATOM      7  H   UNL A   1      31.502  34.294  26.955  1.00  0.00     0.163 HD
BRANCH   6   8
ATOM      8  C   UNL A   1      34.194  33.840  28.870  1.00  0.00     0.039 A 
ATOM      9  C   UNL A   1      35.455  34.389  28.618  1.00  0.00     0.014 A 
ATOM     10  C   UNL A   1      34.070  32.742  29.728  1.00  0.00     0.014 A 
ATOM     11  C   UNL A   1      36.596  33.780  29.134  1.00  0.00     0.010 A 
ATOM     12  C   UNL A   1      35.208  32.175  30.302  1.00  0.00     0.010 A 
ATOM     13  C   UNL A   1      36.482  32.678  29.996  1.00  0.00    -0.014 A 
BRANCH  13  14
ATOM     14  C   UNL A   1      37.687  32.084  30.626  1.00  0.00     0.031 A 
ATOM     15  C   UNL A   1      38.447  30.986  29.942  1.00  0.00     0.074 A 
ATOM     16  C   UNL A   1      38.062  32.508  31.848  1.00  0.00     0.049 A 
ATOM     17  N   UNL A   1      39.453  30.275  30.384  1.00  0.00    -0.248 NA
ATOM     18  C   UNL A   1      38.011  30.633  28.582  1.00  0.00     0.031 C 
ATOM     19  C   UNL A   1      37.397  33.565  32.613  1.00  0.00     0.029 A 
ATOM     20  N   UNL A   1      39.079  32.092  32.669  1.00  0.00    -0.354 N 
ATOM     21  C   UNL A   1      39.755  29.374  29.371  1.00  0.00     0.074 A 
ATOM     22  C   UNL A   1      38.808  29.611  28.302  1.00  0.00     0.031 C 
ATOM     23  C   UNL A   1      38.028  33.719  33.786  1.00  0.00     0.029 A 
ATOM     24  C   UNL A   1      39.097  32.731  33.883  1.00  0.00     0.049 A 
ATOM     25  H   UNL A   1      39.733  31.401  32.411  1.00  0.00     0.167 HD
ATOM     26  C   UNL A   1      40.735  28.438  29.338  1.00  0.00     0.037 A 
ATOM     27  C   UNL A   1      39.861  32.523  34.970  1.00  0.00     0.037 A 
ATOM     28  C   UNL A   1      41.667  28.210  30.413  1.00  0.00     0.049 A 
ATOM     29  C   UNL A   1      40.909  31.449  34.932  1.00  0.00     0.074 A 
ATOM     30  C   UNL A   1      42.717  27.309  30.468  1.00  0.00     0.029 A 
ATOM     31  N   UNL A   1      41.652  28.880  31.629  1.00  0.00    -0.354 N 
ATOM     32  N   UNL A   1      41.208  30.625  33.957  1.00  0.00    -0.248 NA
ATOM     33  C   UNL A   1      41.724  31.273  36.141  1.00  0.00     0.031 C 
ATOM     34  C   UNL A   1      43.298  27.394  31.738  1.00  0.00     0.029 A 
ATOM     35  C   UNL A   1      42.657  28.394  32.451  1.00  0.00     0.049 A 
ATOM     36  H   UNL A   1      41.020  29.595  31.872  1.00  0.00     0.167 HD
ATOM     37  C   UNL A   1      42.267  29.856  34.420  1.00  0.00     0.074 A 
ATOM     38  C   UNL A   1      42.558  30.314  35.763  1.00  0.00     0.031 C 
ATOM     39  C   UNL A   1      42.942  28.866  33.784  1.00  0.00     0.037 A 
BRANCH  26  40
ATOM     40  C   UNL A   1      40.819  27.567  28.116  1.00  0.00     0.057 A 
ATOM     41  C   UNL A   1      40.146  26.341  28.024  1.00  0.00     0.134 A 
ATOM     42  C   UNL A   1      41.578  27.966  27.007  1.00  0.00     0.134 A 
ATOM     43  F   UNL A   1      39.408  25.891  29.051  1.00  0.00    -0.206 F 
ATOM     44  C   UNL A   1      40.257  25.528  26.894  1.00  0.00     0.040 A 
ATOM     45  C   UNL A   1      41.671  27.176  25.860  1.00  0.00     0.040 A 
ATOM     46  F   UNL A   1      42.241  29.133  27.020  1.00  0.00    -0.206 F 
ATOM     47  C   UNL A   1      41.018  25.947  25.806  1.00  0.00     0.006 A 
ENDBRANCH  26  40
BRANCH  27  48
ATOM     48  C   UNL A   1      39.647  33.353  36.182  1.00  0.00     0.057 A 
ATOM     49  C   UNL A   1      38.755  32.956  37.182  1.00  0.00     0.134 A 
ATOM     50  C   UNL A   1      40.363  34.540  36.388  1.00  0.00     0.134 A 
ATOM     51  F   UNL A   1      38.031  31.836  37.037  1.00  0.00    -0.206 F 
ATOM     52  C   UNL A   1      38.575  33.711  38.343  1.00  0.00     0.040 A 
ATOM     53  C   UNL A   1      40.214  35.289  37.555  1.00  0.00     0.040 A 
ATOM     54  F   UNL A   1      41.242  34.967  35.471  1.00  0.00    -0.206 F 
ATOM     55  C   UNL A   1      39.314  34.877  38.535  1.00  0.00     0.006 A 
ENDBRANCH  27  48
BRANCH  39  56
ATOM     56  C   UNL A   1      44.100  28.245  34.507  1.00  0.00     0.057 A 
ATOM     57  C   UNL A   1      45.391  28.786  34.453  1.00  0.00     0.134 A 
ATOM     58  C   UNL A   1      43.902  27.123  35.322  1.00  0.00     0.134 A 
ATOM     59  F   UNL A   1      45.651  29.851  33.680  1.00  0.00    -0.206 F 
ATOM     60  C   UNL A   1      46.447  28.223  35.173  1.00  0.00     0.040 A 
ATOM     61  C   UNL A   1      44.943  26.569  36.069  1.00  0.00     0.040 A 
ATOM     62  F   UNL A   1      42.689  26.560  35.424  1.00  0.00    -0.206 F 
ATOM     63  C   UNL A   1      46.220  27.117  35.991  1.00  0.00     0.006 A 
ENDBRANCH  39  56
ENDBRANCH  13  14
ENDBRANCH   6   8
ENDBRANCH   3   4
ENDBRANCH   2   3
ENDBRANCH   1   2
BRANCH   1  64
ATOM     64  C   UNL A   1      30.734  30.070  24.505  1.00  0.00     0.002 C 
BRANCH  64  65
ATOM     65  C   UNL A   1      29.994  29.738  23.204  1.00  0.00     0.021 C 
BRANCH  65  66
ATOM     66  C   UNL A   1      30.210  28.361  22.596  1.00  0.00     0.116 C 
BRANCH  66  67
ATOM     67  N   UNL A   1      31.480  28.025  22.026  1.00  0.00    -0.356 N 
ATOM     68  C   UNL A   1      32.433  27.155  22.458  1.00  0.00     0.229 C 
ATOM     69  H   UNL A   1      31.699  28.497  21.189  1.00  0.00     0.163 HD
ATOM     70  O   UNL A   1      33.393  27.025  21.679  1.00  0.00    -0.275 OA
BRANCH  68  71
ATOM     71  C   UNL A   1      32.536  26.436  23.834  1.00  0.00     0.145 C 
ATOM     72  C   UNL A   1      33.191  25.064  23.599  1.00  0.00     0.276 C 
ATOM     73  C   UNL A   1      33.041  26.921  25.247  1.00  0.00     0.037 C 
ATOM     74  N   UNL A   1      33.631  24.570  24.895  1.00  0.00    -0.330 N 
ATOM     75  C   UNL A   1      33.931  25.734  25.723  1.00  0.00     0.270 C 
ATOM     76  C   UNL A   1      33.809  28.245  25.296  1.00  0.00     0.014 C 
ATOM     77  C   UNL A   1      31.822  27.139  26.192  1.00  0.00     0.014 C 
ATOM     78  H   UNL A   1      34.491  24.036  24.775  1.00  0.00     0.348 HD
ATOM     79  C   UNL A   1      34.134  28.840  26.661  1.00  0.00     0.001 C 
ATOM     80  C   UNL A   1      32.180  27.638  27.595  1.00  0.00     0.001 C 
ATOM     81  C   UNL A   1      32.888  28.977  27.512  1.00  0.00     0.000 C 
BRANCH  74  82
ATOM     82  C   UNL A   1      32.913  23.438  25.490  1.00  0.00     0.299 C 
BRANCH  82  83
ATOM     83  C   UNL A   1      33.319  22.045  25.058  1.00  0.00     0.008 A 
ATOM     84  C   UNL A   1      32.356  21.069  24.761  1.00  0.00     0.011 A 
ATOM     85  C   UNL A   1      34.677  21.677  25.030  1.00  0.00     0.031 A 
ATOM     86  C   UNL A   1      32.727  19.733  24.583  1.00  0.00     0.022 A 
ATOM     87  C   UNL A   1      35.054  20.339  24.844  1.00  0.00     0.060 A 
ATOM     88  C   UNL A   1      34.073  19.361  24.656  1.00  0.00     0.059 A 
ATOM     89  Cl  UNL A   1      36.734  19.955  24.956  1.00  0.00    -0.083 Cl
ATOM     90  Cl  UNL A   1      34.444  17.675  24.586  1.00  0.00    -0.083 Cl
ENDBRANCH  82  83
ENDBRANCH  74  82
ENDBRANCH  68  71
ENDBRANCH  66  67
ENDBRANCH  65  66
ENDBRANCH  64  65
ENDBRANCH   1  64
TORSDOF 15
ENDMDL
MODEL 2
REMARK VINA RESULT:     -12.0      1.065      2.164
REMARK SMILES O=C(NCCCCCCNC(=O)[C@H]1C[N@H+](Cc2ccc(Cl)c(Cl)c2)CC12CCCCC2)c1ccc(-c2c3nc(c(-c4c(F)cccc4F)c4ccc([nH]4)c(-c4c(F)cccc4F)c4nc(c(-c5c(F)cccc5F)c5ccc2[nH]5)C=C4)C=C3)cc1
REMARK SMILES IDX 6 1 5 2 4 3 3 4 1 5 2 6 32 8 33 9 85 10 34 11 84 12 35 13
REMARK SMILES IDX 36 14 37 15 78 16 38 17 83 18 77 19 79 20 39 21 82 22 76 23
REMARK SMILES IDX 75 24 40 26 66 27 49 28 65 29 50 30 53 31 64 32 80 33 51 34
REMARK SMILES IDX 52 35 63 37 81 38 54 39 41 40 42 41 47 42 43 43 44 44 46 45
REMARK SMILES IDX 48 46 45 47 67 48 68 49 73 50 69 51 70 52 72 53 74 54 71 55
REMARK SMILES IDX 55 56 56 57 61 58 57 59 58 60 60 61 62 62 59 63 7 64 8 65
REMARK SMILES IDX 9 66 10 67 11 68 12 70 13 71 14 72 26 73 15 74 25 75 27 76
REMARK SMILES IDX 31 77 28 79 30 80 29 81 16 82 17 83 18 84 24 85 19 86 22 87
REMARK SMILES IDX 20 88 23 89 21 90
REMARK H PARENT 3 7 79 25 53 36 10 69 15 78
REMARK Flexibility Score: inf
ROOT
ATOM      1  C   UNL A   1      30.624  31.566  25.455  1.00  0.00     0.002 C 
ENDROOT
BRANCH   1   2
ATOM      2  C   UNL A   1      31.263  31.711  26.840  1.00  0.00     0.021 C 
BRANCH   2   3
ATOM      3  C   UNL A   1      32.559  32.505  26.939  1.00  0.00     0.116 C 
BRANCH   3   4
ATOM      4  N   UNL A   1      32.374  33.836  27.487  1.00  0.00    -0.352 N 
ATOM      5  O   UNL A   1      32.673  35.595  28.856  1.00  0.00    -0.269 OA
ATOM      6  C   UNL A   1      33.087  34.510  28.441  1.00  0.00     0.251 C 
ATOM      7  H   UNL A   1      31.611  34.334  27.113  1.00  0.00     0.163 HD
BRANCH   6   8
ATOM      8  C   UNL A   1      34.336  33.951  28.997  1.00  0.00     0.039 A 
ATOM      9  C   UNL A   1      34.320  33.020  30.040  1.00  0.00     0.014 A 
ATOM     10  C   UNL A   1      35.551  34.326  28.414  1.00  0.00     0.014 A 
ATOM     11  C   UNL A   1      35.518  32.547  30.570  1.00  0.00     0.010 A 
ATOM     12  C   UNL A   1      36.748  33.798  28.901  1.00  0.00     0.010 A 
ATOM     13  C   UNL A   1      36.743  32.918  29.994  1.00  0.00    -0.014 A 
BRANCH  13  14
ATOM     14  C   UNL A   1      38.017  32.343  30.491  1.00  0.00     0.031 A 
ATOM     15  C   UNL A   1      38.573  31.084  29.895  1.00  0.00     0.074 A 
ATOM     16  C   UNL A   1      38.644  32.940  31.523  1.00  0.00     0.049 A 
ATOM     17  N   UNL A   1      39.611  30.379  30.269  1.00  0.00    -0.248 NA
ATOM     18  C   UNL A   1      37.863  30.539  28.729  1.00  0.00     0.031 C 
ATOM     19  C   UNL A   1      38.194  34.165  32.187  1.00  0.00     0.029 A 
ATOM     20  N   UNL A   1      39.781  32.588  32.206  1.00  0.00    -0.354 N 
ATOM     21  C   UNL A   1      39.664  29.294  29.403  1.00  0.00     0.074 A 
ATOM     22  C   UNL A   1      38.539  29.421  28.501  1.00  0.00     0.031 C 
ATOM     23  C   UNL A   1      39.049  34.467  33.175  1.00  0.00     0.029 A 
ATOM     24  C   UNL A   1      40.067  33.424  33.256  1.00  0.00     0.049 A 
ATOM     25  H   UNL A   1      40.337  31.812  31.966  1.00  0.00     0.167 HD
ATOM     26  C   UNL A   1      40.572  28.288  29.366  1.00  0.00     0.037 A 
ATOM     27  C   UNL A   1      41.017  33.344  34.204  1.00  0.00     0.037 A 
ATOM     28  C   UNL A   1      41.684  28.172  30.274  1.00  0.00     0.049 A 
ATOM     29  C   UNL A   1      41.984  32.196  34.175  1.00  0.00     0.074 A 
ATOM     30  C   UNL A   1      42.679  27.211  30.302  1.00  0.00     0.029 A 
ATOM     31  N   UNL A   1      41.940  29.041  31.327  1.00  0.00    -0.354 N 
ATOM     32  N   UNL A   1      42.047  31.194  33.331  1.00  0.00    -0.248 NA
ATOM     33  C   UNL A   1      43.010  32.164  35.224  1.00  0.00     0.031 C 
ATOM     34  C   UNL A   1      43.501  27.465  31.405  1.00  0.00     0.029 A 
ATOM     35  C   UNL A   1      43.061  28.622  32.025  1.00  0.00     0.049 A 
ATOM     36  H   UNL A   1      41.404  29.838  31.544  1.00  0.00     0.167 HD
ATOM     37  C   UNL A   1      43.136  30.431  33.726  1.00  0.00     0.074 A 
ATOM     38  C   UNL A   1      43.706  31.088  34.885  1.00  0.00     0.031 C 
ATOM     39  C   UNL A   1      43.624  29.293  33.172  1.00  0.00     0.037 A 
BRANCH  26  40
ATOM     40  C   UNL A   1      40.372  27.215  28.332  1.00  0.00     0.057 A 
ATOM     41  C   UNL A   1      40.990  27.264  27.075  1.00  0.00     0.134 A 
ATOM     42  C   UNL A   1      39.556  26.108  28.602  1.00  0.00     0.134 A 
ATOM     43  F   UNL A   1      41.779  28.299  26.745  1.00  0.00    -0.206 F 
ATOM     44  C   UNL A   1      40.773  26.275  26.114  1.00  0.00     0.040 A 
ATOM     45  C   UNL A   1      39.356  25.097  27.660  1.00  0.00     0.040 A 
ATOM     46  F   UNL A   1      38.940  25.989  29.789  1.00  0.00    -0.206 F 
ATOM     47  C   UNL A   1      39.957  25.185  26.407  1.00  0.00     0.006 A 
ENDBRANCH  26  40
BRANCH  27  48
ATOM     48  C   UNL A   1      41.086  34.386  35.259  1.00  0.00     0.057 A 
ATOM     49  C   UNL A   1      41.862  35.536  35.089  1.00  0.00     0.134 A 
ATOM     50  C   UNL A   1      40.343  34.276  36.441  1.00  0.00     0.134 A 
ATOM     51  F   UNL A   1      42.607  35.693  33.985  1.00  0.00    -0.206 F 
ATOM     52  C   UNL A   1      41.903  36.539  36.060  1.00  0.00     0.040 A 
ATOM     53  C   UNL A   1      40.353  35.283  37.407  1.00  0.00     0.040 A 
ATOM     54  F   UNL A   1      39.569  33.202  36.656  1.00  0.00    -0.206 F 
ATOM     55  C   UNL A   1      41.139  36.418  37.219  1.00  0.00     0.006 A 
ENDBRANCH  27  48
BRANCH  39  56
ATOM     56  C   UNL A   1      44.870  28.712  33.773  1.00  0.00     0.057 A 
ATOM     57  C   UNL A   1      44.830  27.718  34.759  1.00  0.00     0.134 A 
ATOM     58  C   UNL A   1      46.130  29.113  33.309  1.00  0.00     0.134 A 
ATOM     59  F   UNL A   1      43.656  27.300  35.258  1.00  0.00    -0.206 F 
ATOM     60  C   UNL A   1      45.999  27.153  35.272  1.00  0.00     0.040 A 
ATOM     61  C   UNL A   1      47.305  28.536  33.793  1.00  0.00     0.040 A 
ATOM     62  F   UNL A   1      46.238  30.056  32.362  1.00  0.00    -0.206 F 
ATOM     63  C   UNL A   1      47.241  27.556  34.780  1.00  0.00     0.006 A 
ENDBRANCH  39  56
ENDBRANCH  13  14
ENDBRANCH   6   8
ENDBRANCH   3   4
ENDBRANCH   2   3
ENDBRANCH   1   2
BRANCH   1  64
ATOM     64  C   UNL A   1      30.744  30.235  24.697  1.00  0.00     0.002 C 
BRANCH  64  65
ATOM     65  C   UNL A   1      29.962  30.019  23.395  1.00  0.00     0.021 C 
BRANCH  65  66
ATOM     66  C   UNL A   1      30.590  29.139  22.327  1.00  0.00     0.116 C 
BRANCH  66  67
ATOM     67  N   UNL A   1      32.003  29.197  22.096  1.00  0.00    -0.356 N 
ATOM     68  C   UNL A   1      32.992  28.353  22.495  1.00  0.00     0.229 C 
ATOM     69  H   UNL A   1      32.306  29.970  21.565  1.00  0.00     0.163 HD
ATOM     70  O   UNL A   1      34.115  28.641  22.048  1.00  0.00    -0.275 OA
BRANCH  68  71
ATOM     71  C   UNL A   1      32.918  27.193  23.528  1.00  0.00     0.145 C 
ATOM     72  C   UNL A   1      33.929  26.116  23.098  1.00  0.00     0.276 C 
ATOM     73  C   UNL A   1      32.913  27.178  25.105  1.00  0.00     0.037 C 
ATOM     74  N   UNL A   1      34.135  25.238  24.241  1.00  0.00    -0.330 N 
ATOM     75  C   UNL A   1      33.918  26.036  25.444  1.00  0.00     0.270 C 
ATOM     76  C   UNL A   1      33.292  28.480  25.815  1.00  0.00     0.014 C 
ATOM     77  C   UNL A   1      31.480  26.851  25.620  1.00  0.00     0.014 C 
ATOM     78  H   UNL A   1      35.102  24.915  24.244  1.00  0.00     0.348 HD
ATOM     79  C   UNL A   1      33.103  28.559  27.325  1.00  0.00     0.001 C 
ATOM     80  C   UNL A   1      31.336  26.832  27.145  1.00  0.00     0.001 C 
ATOM     81  C   UNL A   1      31.689  28.190  27.724  1.00  0.00     0.000 C 
BRANCH  74  82
ATOM     82  C   UNL A   1      33.592  23.877  24.181  1.00  0.00     0.299 C 
BRANCH  82  83
ATOM     83  C   UNL A   1      34.505  22.740  24.588  1.00  0.00     0.008 A 
ATOM     84  C   UNL A   1      35.859  22.967  24.878  1.00  0.00     0.011 A 
ATOM     85  C   UNL A   1      34.030  21.415  24.596  1.00  0.00     0.031 A 
ATOM     86  C   UNL A   1      36.743  21.895  25.031  1.00  0.00     0.022 A 
ATOM     87  C   UNL A   1      34.913  20.338  24.757  1.00  0.00     0.060 A 
ATOM     88  C   UNL A   1      36.279  20.580  24.939  1.00  0.00     0.059 A 
ATOM     89  Cl  UNL A   1      34.266  18.742  24.623  1.00  0.00    -0.083 Cl
ATOM     90  Cl  UNL A   1      37.449  19.310  24.978  1.00  0.00    -0.083 Cl
ENDBRANCH  82  83
ENDBRANCH  74  82
ENDBRANCH  68  71
ENDBRANCH  66  67
ENDBRANCH  65  66
ENDBRANCH  64  65
ENDBRANCH   1  64
TORSDOF 15
ENDMDL
MODEL 3
REMARK VINA RESULT:     -11.7      1.929      2.778
REMARK SMILES O=C(NCCCCCCNC(=O)[C@H]1C[N@H+](Cc2ccc(Cl)c(Cl)c2)CC12CCCCC2)c1ccc(-c2c3nc(c(-c4c(F)cccc4F)c4ccc([nH]4)c(-c4c(F)cccc4F)c4nc(c(-c5c(F)cccc5F)c5ccc2[nH]5)C=C4)C=C3)cc1
REMARK SMILES IDX 6 1 5 2 4 3 3 4 1 5 2 6 32 8 33 9 85 10 34 11 84 12 35 13
REMARK SMILES IDX 36 14 37 15 78 16 38 17 83 18 77 19 79 20 39 21 82 22 76 23
REMARK SMILES IDX 75 24 40 26 66 27 49 28 65 29 50 30 53 31 64 32 80 33 51 34
REMARK SMILES IDX 52 35 63 37 81 38 54 39 41 40 42 41 47 42 43 43 44 44 46 45
REMARK SMILES IDX 48 46 45 47 67 48 68 49 73 50 69 51 70 52 72 53 74 54 71 55
REMARK SMILES IDX 55 56 56 57 61 58 57 59 58 60 60 61 62 62 59 63 7 64 8 65
REMARK SMILES IDX 9 66 10 67 11 68 12 70 13 71 14 72 26 73 15 74 25 75 27 76
REMARK SMILES IDX 31 77 28 79 30 80 29 81 16 82 17 83 18 84 24 85 19 86 22 87
REMARK SMILES IDX 20 88 23 89 21 90
REMARK H PARENT 3 7 79 25 53 36 10 69 15 78
REMARK Flexibility Score: inf
ROOT
ATOM      1  C   UNL A   1      33.718  30.367  27.433  1.00  0.00     0.002 C 
ENDROOT
BRANCH   1   2
ATOM      2  C   UNL A   1      32.461  31.242  27.401  1.00  0.00     0.021 C 
BRANCH   2   3
ATOM      3  C   UNL A   1      32.538  32.560  26.642  1.00  0.00     0.116 C 
BRANCH   3   4
ATOM      4  N   UNL A   1      32.298  33.718  27.482  1.00  0.00    -0.352 N 
ATOM      5  O   UNL A   1      32.576  35.162  29.184  1.00  0.00    -0.269 OA
ATOM      6  C   UNL A   1      33.036  34.236  28.513  1.00  0.00     0.251 C 
ATOM      7  H   UNL A   1      31.471  34.212  27.279  1.00  0.00     0.163 HD
BRANCH   6   8
ATOM      8  C   UNL A   1      34.367  33.690  28.847  1.00  0.00     0.039 A 
ATOM      9  C   UNL A   1      35.487  33.959  28.055  1.00  0.00     0.014 A 
ATOM     10  C   UNL A   1      34.505  32.940  30.020  1.00  0.00     0.014 A 
ATOM     11  C   UNL A   1      36.719  33.392  28.374  1.00  0.00     0.010 A 
ATOM     12  C   UNL A   1      35.753  32.430  30.376  1.00  0.00     0.010 A 
ATOM     13  C   UNL A   1      36.867  32.637  29.548  1.00  0.00    -0.014 A 
BRANCH  13  14
ATOM     14  C   UNL A   1      38.197  32.110  29.945  1.00  0.00     0.031 A 
ATOM     15  C   UNL A   1      38.679  30.785  29.433  1.00  0.00     0.074 A 
ATOM     16  C   UNL A   1      38.946  32.815  30.814  1.00  0.00     0.049 A 
ATOM     17  N   UNL A   1      39.759  30.117  29.753  1.00  0.00    -0.248 NA
ATOM     18  C   UNL A   1      37.830  30.116  28.436  1.00  0.00     0.031 C 
ATOM     19  C   UNL A   1      38.578  34.113  31.383  1.00  0.00     0.029 A 
ATOM     20  N   UNL A   1      40.161  32.533  31.384  1.00  0.00    -0.354 N 
ATOM     21  C   UNL A   1      39.707  28.939  29.018  1.00  0.00     0.074 A 
ATOM     22  C   UNL A   1      38.477  28.973  28.256  1.00  0.00     0.031 C 
ATOM     23  C   UNL A   1      39.549  34.518  32.214  1.00  0.00     0.029 A 
ATOM     24  C   UNL A   1      40.573  33.482  32.287  1.00  0.00     0.049 A 
ATOM     25  H   UNL A   1      40.686  31.728  31.168  1.00  0.00     0.167 HD
ATOM     26  C   UNL A   1      40.607  27.926  28.984  1.00  0.00     0.037 A 
ATOM     27  C   UNL A   1      41.636  33.502  33.111  1.00  0.00     0.037 A 
ATOM     28  C   UNL A   1      41.826  27.905  29.753  1.00  0.00     0.049 A 
ATOM     29  C   UNL A   1      42.597  32.348  33.093  1.00  0.00     0.074 A 
ATOM     30  C   UNL A   1      42.821  26.943  29.767  1.00  0.00     0.029 A 
ATOM     31  N   UNL A   1      42.209  28.887  30.657  1.00  0.00    -0.354 N 
ATOM     32  N   UNL A   1      42.557  31.255  32.370  1.00  0.00    -0.248 NA
ATOM     33  C   UNL A   1      43.747  32.427  34.002  1.00  0.00     0.031 C 
ATOM     34  C   UNL A   1      43.774  27.314  30.721  1.00  0.00     0.029 A 
ATOM     35  C   UNL A   1      43.410  28.540  31.253  1.00  0.00     0.049 A 
ATOM     36  H   UNL A   1      41.700  29.709  30.847  1.00  0.00     0.167 HD
ATOM     37  C   UNL A   1      43.691  30.532  32.711  1.00  0.00     0.074 A 
ATOM     38  C   UNL A   1      44.399  31.311  33.705  1.00  0.00     0.031 C 
ATOM     39  C   UNL A   1      44.110  29.332  32.235  1.00  0.00     0.037 A 
BRANCH  26  40
ATOM     40  C   UNL A   1      40.284  26.743  28.115  1.00  0.00     0.057 A 
ATOM     41  C   UNL A   1      39.417  25.724  28.532  1.00  0.00     0.134 A 
ATOM     42  C   UNL A   1      40.843  26.626  26.834  1.00  0.00     0.134 A 
ATOM     43  F   UNL A   1      38.853  25.767  29.749  1.00  0.00    -0.206 F 
ATOM     44  C   UNL A   1      39.148  24.616  27.725  1.00  0.00     0.040 A 
ATOM     45  C   UNL A   1      40.558  25.538  26.007  1.00  0.00     0.040 A 
ATOM     46  F   UNL A   1      41.674  27.569  26.365  1.00  0.00    -0.206 F 
ATOM     47  C   UNL A   1      39.716  24.523  26.457  1.00  0.00     0.006 A 
ENDBRANCH  26  40
BRANCH  27  48
ATOM     48  C   UNL A   1      41.832  34.658  34.021  1.00  0.00     0.057 A 
ATOM     49  C   UNL A   1      41.368  34.626  35.339  1.00  0.00     0.134 A 
ATOM     50  C   UNL A   1      42.527  35.802  33.607  1.00  0.00     0.134 A 
ATOM     51  F   UNL A   1      40.685  33.564  35.790  1.00  0.00    -0.206 F 
ATOM     52  C   UNL A   1      41.581  35.694  36.214  1.00  0.00     0.040 A 
ATOM     53  C   UNL A   1      42.771  36.863  34.478  1.00  0.00     0.040 A 
ATOM     54  F   UNL A   1      43.007  35.886  32.358  1.00  0.00    -0.206 F 
ATOM     55  C   UNL A   1      42.293  36.813  35.785  1.00  0.00     0.006 A 
ENDBRANCH  27  48
BRANCH  39  56
ATOM     56  C   UNL A   1      45.424  28.812  32.738  1.00  0.00     0.057 A 
ATOM     57  C   UNL A   1      46.642  29.149  32.134  1.00  0.00     0.134 A 
ATOM     58  C   UNL A   1      45.472  28.009  33.886  1.00  0.00     0.134 A 
ATOM     59  F   UNL A   1      46.666  29.902  31.024  1.00  0.00    -0.206 F 
ATOM     60  C   UNL A   1      47.859  28.696  32.646  1.00  0.00     0.040 A 
ATOM     61  C   UNL A   1      46.683  27.573  34.424  1.00  0.00     0.040 A 
ATOM     62  F   UNL A   1      44.342  27.654  34.516  1.00  0.00    -0.206 F 
ATOM     63  C   UNL A   1      47.881  27.914  33.800  1.00  0.00     0.006 A 
ENDBRANCH  39  56
ENDBRANCH  13  14
ENDBRANCH   6   8
ENDBRANCH   3   4
ENDBRANCH   2   3
ENDBRANCH   1   2
BRANCH   1  64
ATOM     64  C   UNL A   1      33.793  29.107  26.557  1.00  0.00     0.002 C 
BRANCH  64  65
ATOM     65  C   UNL A   1      33.070  27.826  26.990  1.00  0.00     0.021 C 
BRANCH  65  66
ATOM     66  C   UNL A   1      31.552  27.807  26.912  1.00  0.00     0.116 C 
BRANCH  66  67
ATOM     67  N   UNL A   1      30.853  26.556  26.926  1.00  0.00    -0.356 N 
ATOM     68  C   UNL A   1      30.955  25.486  26.094  1.00  0.00     0.229 C 
ATOM     69  H   UNL A   1      30.195  26.456  27.652  1.00  0.00     0.163 HD
ATOM     70  O   UNL A   1      30.265  24.510  26.435  1.00  0.00    -0.275 OA
BRANCH  68  71
ATOM     71  C   UNL A   1      31.694  25.386  24.728  1.00  0.00     0.145 C 
ATOM     72  C   UNL A   1      31.182  24.128  24.007  1.00  0.00     0.276 C 
ATOM     73  C   UNL A   1      31.976  26.449  23.598  1.00  0.00     0.037 C 
ATOM     74  N   UNL A   1      31.569  24.245  22.609  1.00  0.00    -0.330 N 
ATOM     75  C   UNL A   1      31.628  25.668  22.294  1.00  0.00     0.270 C 
ATOM     76  C   UNL A   1      31.206  27.770  23.675  1.00  0.00     0.014 C 
ATOM     77  C   UNL A   1      33.476  26.865  23.633  1.00  0.00     0.014 C 
ATOM     78  H   UNL A   1      30.849  23.819  22.026  1.00  0.00     0.348 HD
ATOM     79  C   UNL A   1      31.600  28.891  22.720  1.00  0.00     0.001 C 
ATOM     80  C   UNL A   1      33.874  27.918  22.594  1.00  0.00     0.001 C 
ATOM     81  C   UNL A   1      33.082  29.194  22.808  1.00  0.00     0.000 C 
BRANCH  74  82
ATOM     82  C   UNL A   1      32.622  23.358  22.102  1.00  0.00     0.299 C 
BRANCH  82  83
ATOM     83  C   UNL A   1      33.666  22.875  23.086  1.00  0.00     0.008 A 
ATOM     84  C   UNL A   1      34.875  23.566  23.257  1.00  0.00     0.011 A 
ATOM     85  C   UNL A   1      33.477  21.669  23.787  1.00  0.00     0.031 A 
ATOM     86  C   UNL A   1      35.921  22.999  23.992  1.00  0.00     0.022 A 
ATOM     87  C   UNL A   1      34.521  21.102  24.532  1.00  0.00     0.060 A 
ATOM     88  C   UNL A   1      35.757  21.753  24.604  1.00  0.00     0.059 A 
ATOM     89  Cl  UNL A   1      34.246  19.556  25.252  1.00  0.00    -0.083 Cl
ATOM     90  Cl  UNL A   1      37.138  21.042  25.359  1.00  0.00    -0.083 Cl
ENDBRANCH  82  83
ENDBRANCH  74  82
ENDBRANCH  68  71
ENDBRANCH  66  67
ENDBRANCH  65  66
ENDBRANCH  64  65
ENDBRANCH   1  64
TORSDOF 15
ENDMDL
