MODEL 1
REMARK VINA RESULT:     -10.8      0.000      0.000
REMARK SMILES NC(=O)c1c(F)cccc1N1CCC[C@H](CC(=O)NCCCCCCNC(=O)c2ccc(-c3c4nc(c(-c5c(F)cccc5F)c5ccc([nH]5)c(-c5c(F)cccc5F)c5nc(c(-c6c(F)cccc6F)c6ccc3[nH]6)C=C5)C=C4)cc2)C1
REMARK SMILES IDX 22 1 21 2 20 3 19 4 17 5 18 6 16 8 15 9 11 10 12 11 83 12
REMARK SMILES IDX 13 13 14 14 10 15 4 16 5 17 6 18 7 19 9 20 8 21 2 22 1 23
REMARK SMILES IDX 3 26 23 27 24 28 25 29 26 30 27 31 28 33 29 34 30 35 82 36
REMARK SMILES IDX 31 37 81 38 32 39 33 40 34 41 75 42 35 43 80 44 74 45 76 46
REMARK SMILES IDX 36 47 79 48 73 49 72 50 37 52 63 53 46 54 62 55 47 56 50 57
REMARK SMILES IDX 61 58 77 59 48 60 49 61 60 63 78 64 51 65 38 66 39 67 44 68
REMARK SMILES IDX 40 69 41 70 43 71 45 72 42 73 64 74 65 75 70 76 66 77 67 78
REMARK SMILES IDX 69 79 71 80 68 81 52 82 53 83 58 84 54 85 55 86 57 87 59 88
REMARK SMILES IDX 56 89
REMARK H PARENT 19 7 1 24 1 25 26 32 76 51 50 62
REMARK Flexibility Score: inf
ROOT
ATOM      1  C   UNL A   1      37.454  22.684  25.395  1.00  0.00     0.002 C 
ENDROOT
BRANCH   1   2
ATOM      2  C   UNL A   1      36.465  21.766  24.676  1.00  0.00     0.021 C 
BRANCH   2   3
ATOM      3  C   UNL A   1      35.248  21.396  25.526  1.00  0.00     0.116 C 
BRANCH   3   4
ATOM      4  N   UNL A   1      34.140  21.007  24.676  1.00  0.00    -0.356 N 
ATOM      5  C   UNL A   1      33.087  21.744  24.229  1.00  0.00     0.220 C 
ATOM      6  O   UNL A   1      32.176  21.168  23.635  1.00  0.00    -0.275 OA
ATOM      7  H   UNL A   1      34.151  20.069  24.378  1.00  0.00     0.163 HD
BRANCH   5   8
ATOM      8  C   UNL A   1      33.056  23.242  24.437  1.00  0.00     0.105 C 
BRANCH   8   9
ATOM      9  C   UNL A   1      33.812  24.026  23.344  1.00  0.00     0.018 C 
ATOM     10  N   UNL A   1      32.958  26.162  24.092  1.00  0.00    -0.371 N 
ATOM     11  C   UNL A   1      32.185  26.475  22.893  1.00  0.00     0.116 C 
ATOM     12  C   UNL A   1      34.196  25.412  23.885  1.00  0.00     0.120 C 
ATOM     13  C   UNL A   1      31.809  25.163  22.199  1.00  0.00     0.022 C 
ATOM     14  C   UNL A   1      33.015  24.225  22.040  1.00  0.00     0.008 C 
BRANCH  10  15
ATOM     15  C   UNL A   1      32.859  27.018  25.179  1.00  0.00     0.053 A 
ATOM     16  C   UNL A   1      31.816  27.023  26.125  1.00  0.00     0.098 A 
ATOM     17  C   UNL A   1      31.771  28.024  27.102  1.00  0.00     0.138 A 
ATOM     18  F   UNL A   1      30.779  28.060  28.005  1.00  0.00    -0.206 F 
ATOM     19  C   UNL A   1      32.749  29.013  27.171  1.00  0.00     0.040 A 
ATOM     20  C   UNL A   1      33.852  28.012  25.285  1.00  0.00     0.027 A 
ATOM     21  C   UNL A   1      33.800  29.004  26.265  1.00  0.00     0.005 A 
BRANCH  16  22
ATOM     22  C   UNL A   1      30.785  25.959  26.152  1.00  0.00     0.253 C 
ATOM     23  N   UNL A   1      31.053  24.863  26.925  1.00  0.00    -0.365 N 
ATOM     24  H   UNL A   1      30.401  24.127  26.978  1.00  0.00     0.159 HD
ATOM     25  H   UNL A   1      31.897  24.810  27.429  1.00  0.00     0.159 HD
ATOM     26  O   UNL A   1      29.737  26.041  25.525  1.00  0.00    -0.269 OA
ENDBRANCH  16  22
ENDBRANCH  10  15
ENDBRANCH   8   9
ENDBRANCH   5   8
ENDBRANCH   3   4
ENDBRANCH   2   3
ENDBRANCH   1   2
BRANCH   1  27
ATOM     27  C   UNL A   1      38.678  21.970  25.977  1.00  0.00     0.002 C 
BRANCH  27  28
ATOM     28  C   UNL A   1      39.049  20.639  25.311  1.00  0.00     0.021 C 
BRANCH  28  29
ATOM     29  C   UNL A   1      39.569  19.556  26.256  1.00  0.00     0.116 C 
BRANCH  29  30
ATOM     30  N   UNL A   1      40.857  19.033  25.834  1.00  0.00    -0.352 N 
ATOM     31  C   UNL A   1      42.078  19.646  25.737  1.00  0.00     0.251 C 
ATOM     32  H   UNL A   1      40.850  18.084  25.575  1.00  0.00     0.163 HD
ATOM     33  O   UNL A   1      42.999  19.073  25.158  1.00  0.00    -0.269 OA
BRANCH  31  34
ATOM     34  C   UNL A   1      42.302  20.990  26.310  1.00  0.00     0.039 A 
ATOM     35  C   UNL A   1      42.191  21.147  27.695  1.00  0.00     0.014 A 
ATOM     36  C   UNL A   1      42.557  22.100  25.499  1.00  0.00     0.014 A 
ATOM     37  C   UNL A   1      42.380  22.405  28.269  1.00  0.00     0.010 A 
ATOM     38  C   UNL A   1      42.803  23.345  26.079  1.00  0.00     0.010 A 
ATOM     39  C   UNL A   1      42.712  23.510  27.468  1.00  0.00    -0.014 A 
BRANCH  39  40
ATOM     40  C   UNL A   1      42.975  24.835  28.085  1.00  0.00     0.031 A 
ATOM     41  C   UNL A   1      44.367  25.233  28.484  1.00  0.00     0.074 A 
ATOM     42  C   UNL A   1      41.944  25.674  28.305  1.00  0.00     0.049 A 
ATOM     43  N   UNL A   1      44.780  26.352  29.026  1.00  0.00    -0.248 NA
ATOM     44  C   UNL A   1      45.433  24.245  28.264  1.00  0.00     0.031 C 
ATOM     45  C   UNL A   1      40.542  25.383  28.000  1.00  0.00     0.029 A 
ATOM     46  N   UNL A   1      41.916  26.941  28.827  1.00  0.00    -0.354 N 
ATOM     47  C   UNL A   1      46.147  26.200  29.214  1.00  0.00     0.074 A 
ATOM     48  C   UNL A   1      46.488  24.866  28.773  1.00  0.00     0.031 C 
ATOM     49  C   UNL A   1      39.795  26.456  28.308  1.00  0.00     0.029 A 
ATOM     50  C   UNL A   1      40.660  27.496  28.855  1.00  0.00     0.049 A 
ATOM     51  H   UNL A   1      42.720  27.408  29.151  1.00  0.00     0.167 HD
ATOM     52  C   UNL A   1      47.039  27.102  29.689  1.00  0.00     0.037 A 
ATOM     53  C   UNL A   1      40.251  28.711  29.268  1.00  0.00     0.037 A 
ATOM     54  C   UNL A   1      46.704  28.437  30.106  1.00  0.00     0.049 A 
ATOM     55  C   UNL A   1      41.262  29.692  29.786  1.00  0.00     0.074 A 
ATOM     56  C   UNL A   1      47.549  29.439  30.551  1.00  0.00     0.029 A 
ATOM     57  N   UNL A   1      45.419  28.960  30.127  1.00  0.00    -0.354 N 
ATOM     58  N   UNL A   1      42.559  29.553  29.909  1.00  0.00    -0.248 NA
ATOM     59  C   UNL A   1      40.754  31.002  30.219  1.00  0.00     0.031 C 
ATOM     60  C   UNL A   1      46.772  30.556  30.875  1.00  0.00     0.029 A 
ATOM     61  C   UNL A   1      45.447  30.264  30.594  1.00  0.00     0.049 A 
ATOM     62  H   UNL A   1      44.607  28.475  29.850  1.00  0.00     0.167 HD
ATOM     63  C   UNL A   1      43.024  30.757  30.420  1.00  0.00     0.074 A 
ATOM     64  C   UNL A   1      41.873  31.623  30.567  1.00  0.00     0.031 C 
ATOM     65  C   UNL A   1      44.292  31.110  30.743  1.00  0.00     0.037 A 
BRANCH  52  66
ATOM     66  C   UNL A   1      48.476  26.679  29.771  1.00  0.00     0.057 A 
ATOM     67  C   UNL A   1      48.978  26.058  30.922  1.00  0.00     0.134 A 
ATOM     68  C   UNL A   1      49.380  26.950  28.736  1.00  0.00     0.134 A 
ATOM     69  F   UNL A   1      48.167  25.778  31.954  1.00  0.00    -0.206 F 
ATOM     70  C   UNL A   1      50.328  25.727  31.042  1.00  0.00     0.040 A 
ATOM     71  C   UNL A   1      50.728  26.604  28.835  1.00  0.00     0.040 A 
ATOM     72  F   UNL A   1      48.960  27.534  27.603  1.00  0.00    -0.206 F 
ATOM     73  C   UNL A   1      51.207  25.999  29.995  1.00  0.00     0.006 A 
ENDBRANCH  52  66
BRANCH  53  74
ATOM     74  C   UNL A   1      38.818  29.076  29.164  1.00  0.00     0.057 A 
ATOM     75  C   UNL A   1      38.266  29.539  27.964  1.00  0.00     0.134 A 
ATOM     76  C   UNL A   1      37.973  28.991  30.276  1.00  0.00     0.134 A 
ATOM     77  F   UNL A   1      39.027  29.650  26.866  1.00  0.00    -0.206 F 
ATOM     78  C   UNL A   1      36.925  29.920  27.878  1.00  0.00     0.040 A 
ATOM     79  C   UNL A   1      36.626  29.348  30.199  1.00  0.00     0.040 A 
ATOM     80  F   UNL A   1      38.443  28.538  31.447  1.00  0.00    -0.206 F 
ATOM     81  C   UNL A   1      36.101  29.821  28.997  1.00  0.00     0.006 A 
ENDBRANCH  53  74
BRANCH  65  82
ATOM     82  C   UNL A   1      44.504  32.493  31.283  1.00  0.00     0.057 A 
ATOM     83  C   UNL A   1      44.772  33.565  30.424  1.00  0.00     0.134 A 
ATOM     84  C   UNL A   1      44.493  32.750  32.659  1.00  0.00     0.134 A 
ATOM     85  F   UNL A   1      44.805  33.382  29.095  1.00  0.00    -0.206 F 
ATOM     86  C   UNL A   1      45.030  34.846  30.915  1.00  0.00     0.040 A 
ATOM     87  C   UNL A   1      44.728  34.031  33.161  1.00  0.00     0.040 A 
ATOM     88  F   UNL A   1      44.231  31.766  33.533  1.00  0.00    -0.206 F 
ATOM     89  C   UNL A   1      45.005  35.081  32.289  1.00  0.00     0.006 A 
ENDBRANCH  65  82
ENDBRANCH  39  40
ENDBRANCH  31  34
ENDBRANCH  29  30
ENDBRANCH  28  29
ENDBRANCH  27  28
ENDBRANCH   1  27
TORSDOF 16
ENDMDL
MODEL 2
REMARK VINA RESULT:     -10.6      1.455      6.357
REMARK SMILES NC(=O)c1c(F)cccc1N1CCC[C@H](CC(=O)NCCCCCCNC(=O)c2ccc(-c3c4nc(c(-c5c(F)cccc5F)c5ccc([nH]5)c(-c5c(F)cccc5F)c5nc(c(-c6c(F)cccc6F)c6ccc3[nH]6)C=C5)C=C4)cc2)C1
REMARK SMILES IDX 22 1 21 2 20 3 19 4 17 5 18 6 16 8 15 9 11 10 12 11 83 12
REMARK SMILES IDX 13 13 14 14 10 15 4 16 5 17 6 18 7 19 9 20 8 21 2 22 1 23
REMARK SMILES IDX 3 26 23 27 24 28 25 29 26 30 27 31 28 33 29 34 30 35 82 36
REMARK SMILES IDX 31 37 81 38 32 39 33 40 34 41 75 42 35 43 80 44 74 45 76 46
REMARK SMILES IDX 36 47 79 48 73 49 72 50 37 52 63 53 46 54 62 55 47 56 50 57
REMARK SMILES IDX 61 58 77 59 48 60 49 61 60 63 78 64 51 65 38 66 39 67 44 68
REMARK SMILES IDX 40 69 41 70 43 71 45 72 42 73 64 74 65 75 70 76 66 77 67 78
REMARK SMILES IDX 69 79 71 80 68 81 52 82 53 83 58 84 54 85 55 86 57 87 59 88
REMARK SMILES IDX 56 89
REMARK H PARENT 19 7 1 24 1 25 26 32 76 51 50 62
REMARK Flexibility Score: inf
ROOT
ATOM      1  C   UNL A   1      35.740  21.164  25.320  1.00  0.00     0.002 C 
ENDROOT
BRANCH   1   2
ATOM      2  C   UNL A   1      34.350  21.080  25.951  1.00  0.00     0.021 C 
BRANCH   2   3
ATOM      3  C   UNL A   1      34.238  21.825  27.282  1.00  0.00     0.116 C 
BRANCH   3   4
ATOM      4  N   UNL A   1      32.847  22.081  27.601  1.00  0.00    -0.356 N 
ATOM      5  C   UNL A   1      31.983  22.983  27.061  1.00  0.00     0.220 C 
ATOM      6  O   UNL A   1      30.881  23.132  27.591  1.00  0.00    -0.275 OA
ATOM      7  H   UNL A   1      32.471  21.517  28.315  1.00  0.00     0.163 HD
BRANCH   5   8
ATOM      8  C   UNL A   1      32.363  23.763  25.822  1.00  0.00     0.105 C 
BRANCH   8   9
ATOM      9  C   UNL A   1      33.517  24.760  26.059  1.00  0.00     0.018 C 
ATOM     10  N   UNL A   1      32.670  26.338  24.432  1.00  0.00    -0.371 N 
ATOM     11  C   UNL A   1      33.786  26.243  23.493  1.00  0.00     0.116 C 
ATOM     12  C   UNL A   1      33.003  26.193  25.847  1.00  0.00     0.120 C 
ATOM     13  C   UNL A   1      34.451  24.875  23.665  1.00  0.00     0.022 C 
ATOM     14  C   UNL A   1      34.735  24.549  25.138  1.00  0.00     0.008 C 
BRANCH  10  15
ATOM     15  C   UNL A   1      31.571  27.102  24.069  1.00  0.00     0.053 A 
ATOM     16  C   UNL A   1      31.465  28.500  24.204  1.00  0.00     0.098 A 
ATOM     17  C   UNL A   1      30.251  29.134  23.918  1.00  0.00     0.138 A 
ATOM     18  F   UNL A   1      30.120  30.463  24.055  1.00  0.00    -0.206 F 
ATOM     19  C   UNL A   1      29.141  28.413  23.485  1.00  0.00     0.040 A 
ATOM     20  C   UNL A   1      30.444  26.396  23.604  1.00  0.00     0.027 A 
ATOM     21  C   UNL A   1      29.238  27.039  23.317  1.00  0.00     0.005 A 
BRANCH  16  22
ATOM     22  C   UNL A   1      32.627  29.334  24.592  1.00  0.00     0.253 C 
ATOM     23  N   UNL A   1      33.544  29.603  23.613  1.00  0.00    -0.365 N 
ATOM     24  H   UNL A   1      34.334  30.154  23.817  1.00  0.00     0.159 HD
ATOM     25  H   UNL A   1      33.413  29.248  22.704  1.00  0.00     0.159 HD
ATOM     26  O   UNL A   1      32.773  29.775  25.724  1.00  0.00    -0.269 OA
ENDBRANCH  16  22
ENDBRANCH  10  15
ENDBRANCH   8   9
ENDBRANCH   5   8
ENDBRANCH   3   4
ENDBRANCH   2   3
ENDBRANCH   1   2
BRANCH   1  27
ATOM     27  C   UNL A   1      36.353  19.810  24.948  1.00  0.00     0.002 C 
BRANCH  27  28
ATOM     28  C   UNL A   1      37.843  19.832  24.589  1.00  0.00     0.021 C 
BRANCH  28  29
ATOM     29  C   UNL A   1      38.787  20.205  25.731  1.00  0.00     0.116 C 
BRANCH  29  30
ATOM     30  N   UNL A   1      39.942  19.326  25.796  1.00  0.00    -0.352 N 
ATOM     31  C   UNL A   1      41.253  19.598  26.086  1.00  0.00     0.251 C 
ATOM     32  H   UNL A   1      39.751  18.381  25.600  1.00  0.00     0.163 HD
ATOM     33  O   UNL A   1      42.109  18.740  25.883  1.00  0.00    -0.269 OA
BRANCH  31  34
ATOM     34  C   UNL A   1      41.655  20.913  26.630  1.00  0.00     0.039 A 
ATOM     35  C   UNL A   1      42.052  21.908  25.733  1.00  0.00     0.014 A 
ATOM     36  C   UNL A   1      41.704  21.153  28.007  1.00  0.00     0.014 A 
ATOM     37  C   UNL A   1      42.454  23.156  26.211  1.00  0.00     0.010 A 
ATOM     38  C   UNL A   1      42.050  22.419  28.482  1.00  0.00     0.010 A 
ATOM     39  C   UNL A   1      42.432  23.430  27.589  1.00  0.00    -0.014 A 
BRANCH  39  40
ATOM     40  C   UNL A   1      42.799  24.777  28.093  1.00  0.00     0.031 A 
ATOM     41  C   UNL A   1      41.750  25.833  28.297  1.00  0.00     0.074 A 
ATOM     42  C   UNL A   1      44.093  25.053  28.350  1.00  0.00     0.049 A 
ATOM     43  N   UNL A   1      41.890  27.059  28.739  1.00  0.00    -0.248 NA
ATOM     44  C   UNL A   1      40.368  25.477  27.944  1.00  0.00     0.031 C 
ATOM     45  C   UNL A   1      45.207  24.125  28.152  1.00  0.00     0.029 A 
ATOM     46  N   UNL A   1      44.687  26.188  28.839  1.00  0.00    -0.354 N 
ATOM     47  C   UNL A   1      40.619  27.618  28.713  1.00  0.00     0.074 A 
ATOM     48  C   UNL A   1      39.728  26.617  28.169  1.00  0.00     0.031 C 
ATOM     49  C   UNL A   1      46.346  24.717  28.549  1.00  0.00     0.029 A 
ATOM     50  C   UNL A   1      46.045  26.070  29.003  1.00  0.00     0.049 A 
ATOM     51  H   UNL A   1      44.187  27.009  29.051  1.00  0.00     0.167 HD
ATOM     52  C   UNL A   1      40.229  28.846  29.128  1.00  0.00     0.037 A 
ATOM     53  C   UNL A   1      46.948  26.952  29.474  1.00  0.00     0.037 A 
ATOM     54  C   UNL A   1      41.112  29.834  29.691  1.00  0.00     0.049 A 
ATOM     55  C   UNL A   1      46.487  28.305  29.932  1.00  0.00     0.074 A 
ATOM     56  C   UNL A   1      40.797  31.087  30.189  1.00  0.00     0.029 A 
ATOM     57  N   UNL A   1      42.482  29.679  29.833  1.00  0.00    -0.354 N 
ATOM     58  N   UNL A   1      45.274  28.801  29.950  1.00  0.00    -0.248 NA
ATOM     59  C   UNL A   1      47.519  29.221  30.438  1.00  0.00     0.031 C 
ATOM     60  C   UNL A   1      41.982  31.705  30.600  1.00  0.00     0.029 A 
ATOM     61  C   UNL A   1      43.030  30.822  30.395  1.00  0.00     0.049 A 
ATOM     62  H   UNL A   1      42.991  28.877  29.574  1.00  0.00     0.167 HD
ATOM     63  C   UNL A   1      45.393  30.078  30.480  1.00  0.00     0.074 A 
ATOM     64  C   UNL A   1      46.795  30.275  30.788  1.00  0.00     0.031 C 
ATOM     65  C   UNL A   1      44.428  31.006  30.688  1.00  0.00     0.037 A 
BRANCH  52  66
ATOM     66  C   UNL A   1      38.775  29.192  29.004  1.00  0.00     0.057 A 
ATOM     67  C   UNL A   1      37.910  29.061  30.098  1.00  0.00     0.134 A 
ATOM     68  C   UNL A   1      38.218  29.589  27.782  1.00  0.00     0.134 A 
ATOM     69  F   UNL A   1      38.378  28.677  31.295  1.00  0.00    -0.206 F 
ATOM     70  C   UNL A   1      36.541  29.307  29.978  1.00  0.00     0.040 A 
ATOM     71  C   UNL A   1      36.854  29.859  27.655  1.00  0.00     0.040 A 
ATOM     72  F   UNL A   1      38.995  29.742  26.699  1.00  0.00    -0.206 F 
ATOM     73  C   UNL A   1      36.011  29.709  28.754  1.00  0.00     0.006 A 
ENDBRANCH  52  66
BRANCH  53  74
ATOM     74  C   UNL A   1      48.373  26.557  29.576  1.00  0.00     0.057 A 
ATOM     75  C   UNL A   1      49.283  26.831  28.548  1.00  0.00     0.134 A 
ATOM     76  C   UNL A   1      48.850  25.872  30.699  1.00  0.00     0.134 A 
ATOM     77  F   UNL A   1      48.884  27.477  27.443  1.00  0.00    -0.206 F 
ATOM     78  C   UNL A   1      50.616  26.423  28.628  1.00  0.00     0.040 A 
ATOM     79  C   UNL A   1      50.185  25.478  30.801  1.00  0.00     0.040 A 
ATOM     80  F   UNL A   1      48.027  25.598  31.721  1.00  0.00    -0.206 F 
ATOM     81  C   UNL A   1      51.070  25.748  29.758  1.00  0.00     0.006 A 
ENDBRANCH  53  74
BRANCH  65  82
ATOM     82  C   UNL A   1      44.850  32.317  31.280  1.00  0.00     0.057 A 
ATOM     83  C   UNL A   1      45.254  33.378  30.459  1.00  0.00     0.134 A 
ATOM     84  C   UNL A   1      44.907  32.511  32.665  1.00  0.00     0.134 A 
ATOM     85  F   UNL A   1      45.231  33.252  29.124  1.00  0.00    -0.206 F 
ATOM     86  C   UNL A   1      45.706  34.584  30.996  1.00  0.00     0.040 A 
ATOM     87  C   UNL A   1      45.336  33.720  33.214  1.00  0.00     0.040 A 
ATOM     88  F   UNL A   1      44.522  31.536  33.504  1.00  0.00    -0.206 F 
ATOM     89  C   UNL A   1      45.745  34.758  32.379  1.00  0.00     0.006 A 
ENDBRANCH  65  82
ENDBRANCH  39  40
ENDBRANCH  31  34
ENDBRANCH  29  30
ENDBRANCH  28  29
ENDBRANCH  27  28
ENDBRANCH   1  27
TORSDOF 16
ENDMDL
MODEL 3
REMARK VINA RESULT:     -10.6      1.468      2.143
REMARK SMILES NC(=O)c1c(F)cccc1N1CCC[C@H](CC(=O)NCCCCCCNC(=O)c2ccc(-c3c4nc(c(-c5c(F)cccc5F)c5ccc([nH]5)c(-c5c(F)cccc5F)c5nc(c(-c6c(F)cccc6F)c6ccc3[nH]6)C=C5)C=C4)cc2)C1
REMARK SMILES IDX 22 1 21 2 20 3 19 4 17 5 18 6 16 8 15 9 11 10 12 11 83 12
REMARK SMILES IDX 13 13 14 14 10 15 4 16 5 17 6 18 7 19 9 20 8 21 2 22 1 23
REMARK SMILES IDX 3 26 23 27 24 28 25 29 26 30 27 31 28 33 29 34 30 35 82 36
REMARK SMILES IDX 31 37 81 38 32 39 33 40 34 41 75 42 35 43 80 44 74 45 76 46
REMARK SMILES IDX 36 47 79 48 73 49 72 50 37 52 63 53 46 54 62 55 47 56 50 57
REMARK SMILES IDX 61 58 77 59 48 60 49 61 60 63 78 64 51 65 38 66 39 67 44 68
REMARK SMILES IDX 40 69 41 70 43 71 45 72 42 73 64 74 65 75 70 76 66 77 67 78
REMARK SMILES IDX 69 79 71 80 68 81 52 82 53 83 58 84 54 85 55 86 57 87 59 88
REMARK SMILES IDX 56 89
REMARK H PARENT 19 7 1 24 1 25 26 32 76 51 50 62
REMARK Flexibility Score: inf
ROOT
ATOM      1  C   UNL A   1      36.574  21.519  24.477  1.00  0.00     0.002 C 
ENDROOT
BRANCH   1   2
ATOM      2  C   UNL A   1      36.269  22.564  25.550  1.00  0.00     0.021 C 
BRANCH   2   3
ATOM      3  C   UNL A   1      35.821  23.911  24.980  1.00  0.00     0.116 C 
BRANCH   3   4
ATOM      4  N   UNL A   1      35.322  23.746  23.629  1.00  0.00    -0.356 N 
ATOM      5  C   UNL A   1      34.070  23.944  23.134  1.00  0.00     0.220 C 
ATOM      6  O   UNL A   1      33.834  23.597  21.976  1.00  0.00    -0.275 OA
ATOM      7  H   UNL A   1      35.991  23.447  22.970  1.00  0.00     0.163 HD
BRANCH   5   8
ATOM      8  C   UNL A   1      33.004  24.599  23.983  1.00  0.00     0.105 C 
BRANCH   8   9
ATOM      9  C   UNL A   1      31.600  23.992  23.777  1.00  0.00     0.018 C 
ATOM     10  N   UNL A   1      30.473  26.025  24.444  1.00  0.00    -0.371 N 
ATOM     11  C   UNL A   1      29.835  25.491  25.645  1.00  0.00     0.116 C 
ATOM     12  C   UNL A   1      30.629  25.095  23.328  1.00  0.00     0.120 C 
ATOM     13  C   UNL A   1      30.667  24.310  26.153  1.00  0.00     0.022 C 
ATOM     14  C   UNL A   1      31.011  23.318  25.032  1.00  0.00     0.008 C 
BRANCH  10  15
ATOM     15  C   UNL A   1      30.346  27.382  24.182  1.00  0.00     0.053 A 
ATOM     16  C   UNL A   1      31.050  28.411  24.836  1.00  0.00     0.098 A 
ATOM     17  C   UNL A   1      30.735  29.747  24.565  1.00  0.00     0.138 A 
ATOM     18  F   UNL A   1      31.380  30.746  25.188  1.00  0.00    -0.206 F 
ATOM     19  C   UNL A   1      29.746  30.086  23.646  1.00  0.00     0.040 A 
ATOM     20  C   UNL A   1      29.369  27.748  23.236  1.00  0.00     0.027 A 
ATOM     21  C   UNL A   1      29.064  29.084  22.969  1.00  0.00     0.005 A 
BRANCH  16  22
ATOM     22  C   UNL A   1      32.161  28.120  25.772  1.00  0.00     0.253 C 
ATOM     23  N   UNL A   1      31.848  28.070  27.103  1.00  0.00    -0.365 N 
ATOM     24  H   UNL A   1      32.550  27.880  27.767  1.00  0.00     0.159 HD
ATOM     25  H   UNL A   1      30.921  28.223  27.396  1.00  0.00     0.159 HD
ATOM     26  O   UNL A   1      33.309  27.925  25.392  1.00  0.00    -0.269 OA
ENDBRANCH  16  22
ENDBRANCH  10  15
ENDBRANCH   8   9
ENDBRANCH   5   8
ENDBRANCH   3   4
ENDBRANCH   2   3
ENDBRANCH   1   2
BRANCH   1  27
ATOM     27  C   UNL A   1      36.482  20.067  24.958  1.00  0.00     0.002 C 
BRANCH  27  28
ATOM     28  C   UNL A   1      37.802  19.289  24.976  1.00  0.00     0.021 C 
BRANCH  28  29
ATOM     29  C   UNL A   1      38.988  20.024  25.600  1.00  0.00     0.116 C 
BRANCH  29  30
ATOM     30  N   UNL A   1      40.149  19.163  25.749  1.00  0.00    -0.352 N 
ATOM     31  C   UNL A   1      41.435  19.458  26.115  1.00  0.00     0.251 C 
ATOM     32  H   UNL A   1      39.984  18.212  25.556  1.00  0.00     0.163 HD
ATOM     33  O   UNL A   1      42.314  18.611  25.978  1.00  0.00    -0.269 OA
BRANCH  31  34
ATOM     34  C   UNL A   1      41.784  20.786  26.663  1.00  0.00     0.039 A 
ATOM     35  C   UNL A   1      42.211  21.779  25.776  1.00  0.00     0.014 A 
ATOM     36  C   UNL A   1      41.756  21.044  28.038  1.00  0.00     0.014 A 
ATOM     37  C   UNL A   1      42.564  23.040  26.260  1.00  0.00     0.010 A 
ATOM     38  C   UNL A   1      42.054  22.321  28.514  1.00  0.00     0.010 A 
ATOM     39  C   UNL A   1      42.464  23.329  27.631  1.00  0.00    -0.014 A 
BRANCH  39  40
ATOM     40  C   UNL A   1      42.780  24.688  28.137  1.00  0.00     0.031 A 
ATOM     41  C   UNL A   1      44.197  25.085  28.441  1.00  0.00     0.074 A 
ATOM     42  C   UNL A   1      41.776  25.563  28.342  1.00  0.00     0.049 A 
ATOM     43  N   UNL A   1      44.655  26.231  28.880  1.00  0.00    -0.248 NA
ATOM     44  C   UNL A   1      45.232  24.060  28.244  1.00  0.00     0.031 C 
ATOM     45  C   UNL A   1      40.356  25.281  28.124  1.00  0.00     0.029 A 
ATOM     46  N   UNL A   1      41.796  26.865  28.772  1.00  0.00    -0.354 N 
ATOM     47  C   UNL A   1      46.027  26.063  29.015  1.00  0.00     0.074 A 
ATOM     48  C   UNL A   1      46.323  24.694  28.657  1.00  0.00     0.031 C 
ATOM     49  C   UNL A   1      39.644  26.389  28.388  1.00  0.00     0.029 A 
ATOM     50  C   UNL A   1      40.553  27.447  28.817  1.00  0.00     0.049 A 
ATOM     51  H   UNL A   1      42.623  27.337  29.023  1.00  0.00     0.167 HD
ATOM     52  C   UNL A   1      46.957  26.977  29.381  1.00  0.00     0.037 A 
ATOM     53  C   UNL A   1      40.186  28.697  29.159  1.00  0.00     0.037 A 
ATOM     54  C   UNL A   1      46.666  28.346  29.714  1.00  0.00     0.049 A 
ATOM     55  C   UNL A   1      41.238  29.691  29.557  1.00  0.00     0.074 A 
ATOM     56  C   UNL A   1      47.549  29.359  30.045  1.00  0.00     0.029 A 
ATOM     57  N   UNL A   1      45.393  28.896  29.757  1.00  0.00    -0.354 N 
ATOM     58  N   UNL A   1      42.537  29.533  29.629  1.00  0.00    -0.248 NA
ATOM     59  C   UNL A   1      40.775  31.039  29.917  1.00  0.00     0.031 C 
ATOM     60  C   UNL A   1      46.809  30.513  30.322  1.00  0.00     0.029 A 
ATOM     61  C   UNL A   1      45.467  30.230  30.126  1.00  0.00     0.049 A 
ATOM     62  H   UNL A   1      44.560  28.411  29.554  1.00  0.00     0.167 HD
ATOM     63  C   UNL A   1      43.048  30.760  30.029  1.00  0.00     0.074 A 
ATOM     64  C   UNL A   1      41.921  31.660  30.166  1.00  0.00     0.031 C 
ATOM     65  C   UNL A   1      44.336  31.109  30.266  1.00  0.00     0.037 A 
BRANCH  52  66
ATOM     66  C   UNL A   1      48.388  26.531  29.427  1.00  0.00     0.057 A 
ATOM     67  C   UNL A   1      48.937  25.998  30.600  1.00  0.00     0.134 A 
ATOM     68  C   UNL A   1      49.241  26.692  28.328  1.00  0.00     0.134 A 
ATOM     69  F   UNL A   1      48.176  25.824  31.691  1.00  0.00    -0.206 F 
ATOM     70  C   UNL A   1      50.286  25.649  30.680  1.00  0.00     0.040 A 
ATOM     71  C   UNL A   1      50.587  26.326  28.388  1.00  0.00     0.040 A 
ATOM     72  F   UNL A   1      48.774  27.188  27.172  1.00  0.00    -0.206 F 
ATOM     73  C   UNL A   1      51.114  25.811  29.571  1.00  0.00     0.006 A 
ENDBRANCH  52  66
BRANCH  53  74
ATOM     74  C   UNL A   1      38.756  29.084  29.095  1.00  0.00     0.057 A 
ATOM     75  C   UNL A   1      38.182  29.572  27.916  1.00  0.00     0.134 A 
ATOM     76  C   UNL A   1      37.938  28.996  30.227  1.00  0.00     0.134 A 
ATOM     77  F   UNL A   1      38.918  29.688  26.801  1.00  0.00    -0.206 F 
ATOM     78  C   UNL A   1      36.846  29.974  27.868  1.00  0.00     0.040 A 
ATOM     79  C   UNL A   1      36.595  29.374  30.187  1.00  0.00     0.040 A 
ATOM     80  F   UNL A   1      38.430  28.520  31.379  1.00  0.00    -0.206 F 
ATOM     81  C   UNL A   1      36.048  29.871  29.006  1.00  0.00     0.006 A 
ENDBRANCH  53  74
BRANCH  65  82
ATOM     82  C   UNL A   1      44.598  32.522  30.693  1.00  0.00     0.057 A 
ATOM     83  C   UNL A   1      44.608  32.871  32.049  1.00  0.00     0.134 A 
ATOM     84  C   UNL A   1      44.789  33.546  29.758  1.00  0.00     0.134 A 
ATOM     85  F   UNL A   1      44.423  31.937  32.994  1.00  0.00    -0.206 F 
ATOM     86  C   UNL A   1      44.792  34.192  32.460  1.00  0.00     0.040 A 
ATOM     87  C   UNL A   1      44.996  34.867  30.158  1.00  0.00     0.040 A 
ATOM     88  F   UNL A   1      44.802  33.274  28.444  1.00  0.00    -0.206 F 
ATOM     89  C   UNL A   1      44.990  35.194  31.512  1.00  0.00     0.006 A 
ENDBRANCH  65  82
ENDBRANCH  39  40
ENDBRANCH  31  34
ENDBRANCH  29  30
ENDBRANCH  28  29
ENDBRANCH  27  28
ENDBRANCH   1  27
TORSDOF 16
ENDMDL
