MODEL 1
REMARK VINA RESULT:     -12.1      0.000      0.000
REMARK SMILES CC[C@@H](C)[C@@H](C(=O)NCCCCCCNC(=O)c1ccc(-c2c3nc(c(-c4c(F)cccc4F)c4ccc([nH]4)c(-c4c(F)cccc4F)c4nc(c(-c5c(F)cccc5F)c5ccc2[nH]5)C=C4)C=C3)cc1)N1C(=O)/C(=C/c2ccc(O)cc2)SC1=S
REMARK SMILES IDX 11 1 10 2 9 3 8 4 6 5 7 6 5 8 3 9 4 10 2 11 1 12 72 13 73 14
REMARK SMILES IDX 85 15 74 16 75 17 84 18 86 19 76 20 77 21 78 22 83 23 79 24
REMARK SMILES IDX 82 25 80 26 81 27 12 29 13 30 14 31 15 32 16 33 17 35 18 36
REMARK SMILES IDX 19 37 71 38 20 39 70 40 21 41 22 42 23 43 64 44 24 45 69 46
REMARK SMILES IDX 63 47 65 48 25 49 68 50 62 51 61 52 26 54 52 55 35 56 51 57
REMARK SMILES IDX 36 58 39 59 50 60 66 61 37 62 38 63 49 65 67 66 40 67 27 68
REMARK SMILES IDX 28 69 33 70 29 71 30 72 32 73 34 74 31 75 53 76 54 77 59 78
REMARK SMILES IDX 55 79 56 80 58 81 60 82 57 83 41 84 42 85 47 86 43 87 44 88
REMARK SMILES IDX 46 89 48 90 45 91
REMARK H PARENT 8 7 81 28 15 34 65 53 39 64
REMARK Flexibility Score: inf
ROOT
ATOM      1  C   UNL A   1      32.440  29.863  26.890  1.00  0.00     0.002 C 
ENDROOT
BRANCH   1   2
ATOM      2  C   UNL A   1      31.918  28.466  27.227  1.00  0.00     0.021 C 
BRANCH   2   3
ATOM      3  C   UNL A   1      32.675  27.313  26.547  1.00  0.00     0.116 C 
BRANCH   3   4
ATOM      4  N   UNL A   1      31.918  26.078  26.698  1.00  0.00    -0.354 N 
ATOM      5  C   UNL A   1      31.764  24.992  25.885  1.00  0.00     0.243 C 
ATOM      6  O   UNL A   1      30.866  24.203  26.199  1.00  0.00    -0.273 OA
ATOM      7  H   UNL A   1      31.425  26.016  27.547  1.00  0.00     0.163 HD
BRANCH   5   8
ATOM      8  C   UNL A   1      32.704  24.710  24.678  1.00  0.00     0.184 C 
BRANCH   8   9
ATOM      9  C   UNL A   1      32.200  25.094  23.248  1.00  0.00     0.018 C 
ATOM     10  C   UNL A   1      33.374  25.568  22.376  1.00  0.00     0.010 C 
BRANCH   9  11
ATOM     11  C   UNL A   1      31.064  26.123  23.194  1.00  0.00     0.002 C 
ATOM     12  C   UNL A   1      31.524  27.573  23.094  1.00  0.00     0.004 C 
ENDBRANCH   9  11
ENDBRANCH   8   9
BRANCH   8  13
ATOM     13  N   UNL A   1      33.084  23.255  24.825  1.00  0.00    -0.280 N 
ATOM     14  C   UNL A   1      32.306  22.325  24.134  1.00  0.00     0.266 C 
ATOM     15  C   UNL A   1      34.229  22.723  25.399  1.00  0.00     0.149 C 
ATOM     16  O   UNL A   1      31.332  22.581  23.436  1.00  0.00    -0.268 OA
ATOM     17  C   UNL A   1      32.820  20.939  24.338  1.00  0.00     0.081 C 
ATOM     18  S   UNL A   1      34.096  20.971  25.480  1.00  0.00    -0.054 SA
ATOM     19  S   UNL A   1      35.618  23.431  25.995  1.00  0.00    -0.052 S 
ATOM     20  C   UNL A   1      32.356  19.846  23.713  1.00  0.00     0.029 C 
BRANCH  20  21
ATOM     21  C   UNL A   1      32.799  18.485  24.056  1.00  0.00    -0.024 A 
ATOM     22  C   UNL A   1      33.673  17.758  23.240  1.00  0.00     0.012 A 
ATOM     23  C   UNL A   1      32.393  17.939  25.284  1.00  0.00     0.012 A 
ATOM     24  C   UNL A   1      34.147  16.509  23.661  1.00  0.00     0.047 A 
ATOM     25  C   UNL A   1      32.872  16.699  25.708  1.00  0.00     0.047 A 
ATOM     26  C   UNL A   1      33.752  15.996  24.893  1.00  0.00     0.115 A 
BRANCH  26  27
ATOM     27  O   UNL A   1      34.262  14.792  25.280  1.00  0.00    -0.508 OA
ATOM     28  H   UNL A   1      33.877  13.998  24.965  1.00  0.00     0.293 HD
ENDBRANCH  26  27
ENDBRANCH  20  21
ENDBRANCH   8  13
ENDBRANCH   5   8
ENDBRANCH   3   4
ENDBRANCH   2   3
ENDBRANCH   1   2
BRANCH   1  29
ATOM     29  C   UNL A   1      31.488  30.720  26.057  1.00  0.00     0.002 C 
BRANCH  29  30
ATOM     30  C   UNL A   1      31.336  32.174  26.515  1.00  0.00     0.021 C 
BRANCH  30  31
ATOM     31  C   UNL A   1      32.535  32.753  27.265  1.00  0.00     0.116 C 
BRANCH  31  32
ATOM     32  N   UNL A   1      32.353  34.159  27.590  1.00  0.00    -0.352 N 
ATOM     33  C   UNL A   1      32.975  34.924  28.545  1.00  0.00     0.251 C 
ATOM     34  H   UNL A   1      31.685  34.632  27.043  1.00  0.00     0.163 HD
ATOM     35  O   UNL A   1      32.540  36.035  28.825  1.00  0.00    -0.269 OA
BRANCH  33  36
ATOM     36  C   UNL A   1      34.165  34.402  29.249  1.00  0.00     0.039 A 
ATOM     37  C   UNL A   1      34.003  33.804  30.502  1.00  0.00     0.014 A 
ATOM     38  C   UNL A   1      35.439  34.522  28.687  1.00  0.00     0.014 A 
ATOM     39  C   UNL A   1      35.112  33.272  31.163  1.00  0.00     0.010 A 
ATOM     40  C   UNL A   1      36.532  33.929  29.314  1.00  0.00     0.010 A 
ATOM     41  C   UNL A   1      36.381  33.302  30.560  1.00  0.00    -0.014 A 
BRANCH  41  42
ATOM     42  C   UNL A   1      37.559  32.684  31.219  1.00  0.00     0.031 A 
ATOM     43  C   UNL A   1      38.221  31.477  30.612  1.00  0.00     0.074 A 
ATOM     44  C   UNL A   1      37.998  33.174  32.394  1.00  0.00     0.049 A 
ATOM     45  N   UNL A   1      39.219  30.765  31.068  1.00  0.00    -0.248 NA
ATOM     46  C   UNL A   1      37.669  30.992  29.337  1.00  0.00     0.031 C 
ATOM     47  C   UNL A   1      37.417  34.314  33.106  1.00  0.00     0.029 A 
ATOM     48  N   UNL A   1      39.031  32.771  33.202  1.00  0.00    -0.354 N 
ATOM     49  C   UNL A   1      39.410  29.746  30.143  1.00  0.00     0.074 A 
ATOM     50  C   UNL A   1      38.387  29.897  29.132  1.00  0.00     0.031 C 
ATOM     51  C   UNL A   1      38.117  34.535  34.229  1.00  0.00     0.029 A 
ATOM     52  C   UNL A   1      39.171  33.530  34.339  1.00  0.00     0.049 A 
ATOM     53  H   UNL A   1      39.618  32.009  32.988  1.00  0.00     0.167 HD
ATOM     54  C   UNL A   1      40.367  28.786  30.124  1.00  0.00     0.037 A 
ATOM     55  C   UNL A   1      40.044  33.423  35.358  1.00  0.00     0.037 A 
ATOM     56  C   UNL A   1      41.392  28.647  31.125  1.00  0.00     0.049 A 
ATOM     57  C   UNL A   1      41.080  32.334  35.326  1.00  0.00     0.074 A 
ATOM     58  C   UNL A   1      42.436  27.739  31.169  1.00  0.00     0.029 A 
ATOM     59  N   UNL A   1      41.502  29.436  32.259  1.00  0.00    -0.354 N 
ATOM     60  N   UNL A   1      41.289  31.417  34.413  1.00  0.00    -0.248 NA
ATOM     61  C   UNL A   1      42.005  32.268  36.466  1.00  0.00     0.031 C 
ATOM     62  C   UNL A   1      43.147  27.948  32.356  1.00  0.00     0.029 A 
ATOM     63  C   UNL A   1      42.580  29.021  33.024  1.00  0.00     0.049 A 
ATOM     64  H   UNL A   1      40.902  30.183  32.488  1.00  0.00     0.167 HD
ATOM     65  C   UNL A   1      42.385  30.686  34.851  1.00  0.00     0.074 A 
ATOM     66  C   UNL A   1      42.806  31.276  36.106  1.00  0.00     0.031 C 
ATOM     67  C   UNL A   1      42.990  29.622  34.268  1.00  0.00     0.037 A 
BRANCH  54  68
ATOM     68  C   UNL A   1      40.343  27.811  28.982  1.00  0.00     0.057 A 
ATOM     69  C   UNL A   1      39.551  26.655  29.013  1.00  0.00     0.134 A 
ATOM     70  C   UNL A   1      41.098  28.043  27.825  1.00  0.00     0.134 A 
ATOM     71  F   UNL A   1      38.811  26.367  30.094  1.00  0.00    -0.206 F 
ATOM     72  C   UNL A   1      39.535  25.750  27.951  1.00  0.00     0.040 A 
ATOM     73  C   UNL A   1      41.069  27.160  26.744  1.00  0.00     0.040 A 
ATOM     74  F   UNL A   1      41.873  29.133  27.724  1.00  0.00    -0.206 F 
ATOM     75  C   UNL A   1      40.292  26.004  26.809  1.00  0.00     0.006 A 
ENDBRANCH  54  68
BRANCH  55  76
ATOM     76  C   UNL A   1      39.995  34.390  36.485  1.00  0.00     0.057 A 
ATOM     77  C   UNL A   1      40.672  35.612  36.416  1.00  0.00     0.134 A 
ATOM     78  C   UNL A   1      39.280  34.115  37.657  1.00  0.00     0.134 A 
ATOM     79  F   UNL A   1      41.391  35.925  35.327  1.00  0.00    -0.206 F 
ATOM     80  C   UNL A   1      40.660  36.517  37.479  1.00  0.00     0.040 A 
ATOM     81  C   UNL A   1      39.236  35.022  38.717  1.00  0.00     0.040 A 
ATOM     82  F   UNL A   1      38.601  32.964  37.783  1.00  0.00    -0.206 F 
ATOM     83  C   UNL A   1      39.935  36.224  38.632  1.00  0.00     0.006 A 
ENDBRANCH  55  76
BRANCH  67  84
ATOM     84  C   UNL A   1      44.193  29.050  34.961  1.00  0.00     0.057 A 
ATOM     85  C   UNL A   1      44.083  28.040  35.925  1.00  0.00     0.134 A 
ATOM     86  C   UNL A   1      45.480  29.493  34.632  1.00  0.00     0.134 A 
ATOM     87  F   UNL A   1      42.878  27.582  36.295  1.00  0.00    -0.206 F 
ATOM     88  C   UNL A   1      45.210  27.508  36.554  1.00  0.00     0.040 A 
ATOM     89  C   UNL A   1      46.616  28.947  35.232  1.00  0.00     0.040 A 
ATOM     90  F   UNL A   1      45.657  30.451  33.709  1.00  0.00    -0.206 F 
ATOM     91  C   UNL A   1      46.481  27.956  36.202  1.00  0.00     0.006 A 
ENDBRANCH  67  84
ENDBRANCH  41  42
ENDBRANCH  33  36
ENDBRANCH  31  32
ENDBRANCH  30  31
ENDBRANCH  29  30
ENDBRANCH   1  29
TORSDOF 18
ENDMDL
MODEL 2
REMARK VINA RESULT:     -12.1      4.418      9.807
REMARK SMILES CC[C@@H](C)[C@@H](C(=O)NCCCCCCNC(=O)c1ccc(-c2c3nc(c(-c4c(F)cccc4F)c4ccc([nH]4)c(-c4c(F)cccc4F)c4nc(c(-c5c(F)cccc5F)c5ccc2[nH]5)C=C4)C=C3)cc1)N1C(=O)/C(=C/c2ccc(O)cc2)SC1=S
REMARK SMILES IDX 11 1 10 2 9 3 8 4 6 5 7 6 5 8 3 9 4 10 2 11 1 12 72 13 73 14
REMARK SMILES IDX 85 15 74 16 75 17 84 18 86 19 76 20 77 21 78 22 83 23 79 24
REMARK SMILES IDX 82 25 80 26 81 27 12 29 13 30 14 31 15 32 16 33 17 35 18 36
REMARK SMILES IDX 19 37 71 38 20 39 70 40 21 41 22 42 23 43 64 44 24 45 69 46
REMARK SMILES IDX 63 47 65 48 25 49 68 50 62 51 61 52 26 54 52 55 35 56 51 57
REMARK SMILES IDX 36 58 39 59 50 60 66 61 37 62 38 63 49 65 67 66 40 67 27 68
REMARK SMILES IDX 28 69 33 70 29 71 30 72 32 73 34 74 31 75 53 76 54 77 59 78
REMARK SMILES IDX 55 79 56 80 58 81 60 82 57 83 41 84 42 85 47 86 43 87 44 88
REMARK SMILES IDX 46 89 48 90 45 91
REMARK H PARENT 8 7 81 28 15 34 65 53 39 64
REMARK Flexibility Score: inf
ROOT
ATOM      1  C   UNL A   1      36.607  21.821  24.435  1.00  0.00     0.002 C 
ENDROOT
BRANCH   1   2
ATOM      2  C   UNL A   1      36.658  22.894  25.522  1.00  0.00     0.021 C 
BRANCH   2   3
ATOM      3  C   UNL A   1      35.324  23.615  25.780  1.00  0.00     0.116 C 
BRANCH   3   4
ATOM      4  N   UNL A   1      34.982  24.433  24.625  1.00  0.00    -0.354 N 
ATOM      5  C   UNL A   1      33.795  24.944  24.183  1.00  0.00     0.243 C 
ATOM      6  O   UNL A   1      33.798  25.408  23.037  1.00  0.00    -0.273 OA
ATOM      7  H   UNL A   1      35.752  24.660  24.057  1.00  0.00     0.163 HD
BRANCH   5   8
ATOM      8  C   UNL A   1      32.527  25.017  25.083  1.00  0.00     0.184 C 
BRANCH   8   9
ATOM      9  C   UNL A   1      31.516  23.825  25.024  1.00  0.00     0.018 C 
ATOM     10  C   UNL A   1      30.855  23.616  26.397  1.00  0.00     0.010 C 
BRANCH   9  11
ATOM     11  C   UNL A   1      32.079  22.494  24.511  1.00  0.00     0.002 C 
ATOM     12  C   UNL A   1      31.969  22.297  23.003  1.00  0.00     0.004 C 
ENDBRANCH   9  11
ENDBRANCH   8   9
BRANCH   8  13
ATOM     13  N   UNL A   1      31.914  26.360  24.765  1.00  0.00    -0.280 N 
ATOM     14  C   UNL A   1      30.814  26.366  23.907  1.00  0.00     0.266 C 
ATOM     15  C   UNL A   1      32.170  27.582  25.369  1.00  0.00     0.149 C 
ATOM     16  O   UNL A   1      30.315  25.383  23.372  1.00  0.00    -0.268 OA
ATOM     17  C   UNL A   1      30.290  27.751  23.718  1.00  0.00     0.081 C 
ATOM     18  S   UNL A   1      31.328  28.862  24.505  1.00  0.00    -0.054 SA
ATOM     19  S   UNL A   1      33.097  28.008  26.690  1.00  0.00    -0.052 S 
ATOM     20  C   UNL A   1      29.173  28.066  23.043  1.00  0.00     0.029 C 
BRANCH  20  21
ATOM     21  C   UNL A   1      28.778  29.456  22.763  1.00  0.00    -0.024 A 
ATOM     22  C   UNL A   1      27.865  30.147  23.568  1.00  0.00     0.012 A 
ATOM     23  C   UNL A   1      29.404  30.128  21.703  1.00  0.00     0.012 A 
ATOM     24  C   UNL A   1      27.601  31.500  23.322  1.00  0.00     0.047 A 
ATOM     25  C   UNL A   1      29.148  31.479  21.463  1.00  0.00     0.047 A 
ATOM     26  C   UNL A   1      28.252  32.156  22.280  1.00  0.00     0.115 A 
BRANCH  26  27
ATOM     27  O   UNL A   1      27.990  33.481  22.094  1.00  0.00    -0.508 OA
ATOM     28  H   UNL A   1      28.620  34.027  21.665  1.00  0.00     0.293 HD
ENDBRANCH  26  27
ENDBRANCH  20  21
ENDBRANCH   8  13
ENDBRANCH   5   8
ENDBRANCH   3   4
ENDBRANCH   2   3
ENDBRANCH   1   2
BRANCH   1  29
ATOM     29  C   UNL A   1      36.489  20.388  24.953  1.00  0.00     0.002 C 
BRANCH  29  30
ATOM     30  C   UNL A   1      37.783  19.567  24.929  1.00  0.00     0.021 C 
BRANCH  30  31
ATOM     31  C   UNL A   1      38.951  20.165  25.712  1.00  0.00     0.116 C 
BRANCH  31  32
ATOM     32  N   UNL A   1      40.083  19.255  25.788  1.00  0.00    -0.352 N 
ATOM     33  C   UNL A   1      41.401  19.520  26.066  1.00  0.00     0.251 C 
ATOM     34  H   UNL A   1      39.873  18.310  25.614  1.00  0.00     0.163 HD
ATOM     35  O   UNL A   1      42.257  18.665  25.871  1.00  0.00    -0.269 OA
BRANCH  33  36
ATOM     36  C   UNL A   1      41.793  20.845  26.592  1.00  0.00     0.039 A 
ATOM     37  C   UNL A   1      42.253  21.818  25.700  1.00  0.00     0.014 A 
ATOM     38  C   UNL A   1      41.728  21.121  27.960  1.00  0.00     0.014 A 
ATOM     39  C   UNL A   1      42.592  23.087  26.175  1.00  0.00     0.010 A 
ATOM     40  C   UNL A   1      41.997  22.407  28.422  1.00  0.00     0.010 A 
ATOM     41  C   UNL A   1      42.436  23.402  27.535  1.00  0.00    -0.014 A 
BRANCH  41  42
ATOM     42  C   UNL A   1      42.728  24.765  28.046  1.00  0.00     0.031 A 
ATOM     43  C   UNL A   1      44.131  25.146  28.430  1.00  0.00     0.074 A 
ATOM     44  C   UNL A   1      41.720  25.641  28.219  1.00  0.00     0.049 A 
ATOM     45  N   UNL A   1      44.572  26.263  28.949  1.00  0.00    -0.248 NA
ATOM     46  C   UNL A   1      45.172  24.125  28.229  1.00  0.00     0.031 C 
ATOM     47  C   UNL A   1      40.310  25.379  27.924  1.00  0.00     0.029 A 
ATOM     48  N   UNL A   1      41.725  26.929  28.693  1.00  0.00    -0.354 N 
ATOM     49  C   UNL A   1      45.935  26.079  29.143  1.00  0.00     0.074 A 
ATOM     50  C   UNL A   1      46.238  24.722  28.742  1.00  0.00     0.031 C 
ATOM     51  C   UNL A   1      39.591  26.478  28.198  1.00  0.00     0.029 A 
ATOM     52  C   UNL A   1      40.480  27.510  28.726  1.00  0.00     0.049 A 
ATOM     53  H   UNL A   1      42.543  27.393  28.984  1.00  0.00     0.167 HD
ATOM     54  C   UNL A   1      46.856  26.966  29.590  1.00  0.00     0.037 A 
ATOM     55  C   UNL A   1      40.098  28.732  29.140  1.00  0.00     0.037 A 
ATOM     56  C   UNL A   1      46.554  28.320  29.975  1.00  0.00     0.049 A 
ATOM     57  C   UNL A   1      41.135  29.690  29.656  1.00  0.00     0.074 A 
ATOM     58  C   UNL A   1      47.424  29.312  30.393  1.00  0.00     0.029 A 
ATOM     59  N   UNL A   1      45.282  28.872  29.990  1.00  0.00    -0.354 N 
ATOM     60  N   UNL A   1      42.430  29.524  29.773  1.00  0.00    -0.248 NA
ATOM     61  C   UNL A   1      40.657  31.009  30.094  1.00  0.00     0.031 C 
ATOM     62  C   UNL A   1      46.671  30.448  30.710  1.00  0.00     0.029 A 
ATOM     63  C   UNL A   1      45.339  30.182  30.436  1.00  0.00     0.049 A 
ATOM     64  H   UNL A   1      44.459  28.402  29.724  1.00  0.00     0.167 HD
ATOM     65  C   UNL A   1      42.925  30.723  30.268  1.00  0.00     0.074 A 
ATOM     66  C   UNL A   1      41.792  31.613  30.415  1.00  0.00     0.031 C 
ATOM     67  C   UNL A   1      44.203  31.059  30.572  1.00  0.00     0.037 A 
BRANCH  54  68
ATOM     68  C   UNL A   1      48.279  26.495  29.687  1.00  0.00     0.057 A 
ATOM     69  C   UNL A   1      48.765  25.842  30.828  1.00  0.00     0.134 A 
ATOM     70  C   UNL A   1      49.167  26.668  28.618  1.00  0.00     0.134 A 
ATOM     71  F   UNL A   1      47.971  25.652  31.893  1.00  0.00    -0.206 F 
ATOM     72  C   UNL A   1      50.089  25.409  30.916  1.00  0.00     0.040 A 
ATOM     73  C   UNL A   1      50.486  26.213  28.681  1.00  0.00     0.040 A 
ATOM     74  F   UNL A   1      48.767  27.277  27.492  1.00  0.00    -0.206 F 
ATOM     75  C   UNL A   1      50.952  25.589  29.837  1.00  0.00     0.006 A 
ENDBRANCH  54  68
BRANCH  55  76
ATOM     76  C   UNL A   1      38.669  29.131  29.062  1.00  0.00     0.057 A 
ATOM     77  C   UNL A   1      38.120  29.616  27.869  1.00  0.00     0.134 A 
ATOM     78  C   UNL A   1      37.821  29.048  30.173  1.00  0.00     0.134 A 
ATOM     79  F   UNL A   1      38.886  29.737  26.775  1.00  0.00    -0.206 F 
ATOM     80  C   UNL A   1      36.788  30.023  27.788  1.00  0.00     0.040 A 
ATOM     81  C   UNL A   1      36.480  29.426  30.100  1.00  0.00     0.040 A 
ATOM     82  F   UNL A   1      38.283  28.584  31.345  1.00  0.00    -0.206 F 
ATOM     83  C   UNL A   1      35.962  29.923  28.906  1.00  0.00     0.006 A 
ENDBRANCH  55  76
BRANCH  67  84
ATOM     84  C   UNL A   1      44.449  32.457  31.060  1.00  0.00     0.057 A 
ATOM     85  C   UNL A   1      44.489  32.769  32.425  1.00  0.00     0.134 A 
ATOM     86  C   UNL A   1      44.683  33.496  30.151  1.00  0.00     0.134 A 
ATOM     87  F   UNL A   1      44.259  31.823  33.347  1.00  0.00    -0.206 F 
ATOM     88  C   UNL A   1      44.730  34.072  32.867  1.00  0.00     0.040 A 
ATOM     89  C   UNL A   1      44.955  34.796  30.581  1.00  0.00     0.040 A 
ATOM     90  F   UNL A   1      44.669  33.263  28.830  1.00  0.00    -0.206 F 
ATOM     91  C   UNL A   1      44.972  35.087  31.944  1.00  0.00     0.006 A 
ENDBRANCH  67  84
ENDBRANCH  41  42
ENDBRANCH  33  36
ENDBRANCH  31  32
ENDBRANCH  30  31
ENDBRANCH  29  30
ENDBRANCH   1  29
TORSDOF 18
ENDMDL
MODEL 3
REMARK VINA RESULT:     -12.1      4.522     10.131
REMARK SMILES CC[C@@H](C)[C@@H](C(=O)NCCCCCCNC(=O)c1ccc(-c2c3nc(c(-c4c(F)cccc4F)c4ccc([nH]4)c(-c4c(F)cccc4F)c4nc(c(-c5c(F)cccc5F)c5ccc2[nH]5)C=C4)C=C3)cc1)N1C(=O)/C(=C/c2ccc(O)cc2)SC1=S
REMARK SMILES IDX 11 1 10 2 9 3 8 4 6 5 7 6 5 8 3 9 4 10 2 11 1 12 72 13 73 14
REMARK SMILES IDX 85 15 74 16 75 17 84 18 86 19 76 20 77 21 78 22 83 23 79 24
REMARK SMILES IDX 82 25 80 26 81 27 12 29 13 30 14 31 15 32 16 33 17 35 18 36
REMARK SMILES IDX 19 37 71 38 20 39 70 40 21 41 22 42 23 43 64 44 24 45 69 46
REMARK SMILES IDX 63 47 65 48 25 49 68 50 62 51 61 52 26 54 52 55 35 56 51 57
REMARK SMILES IDX 36 58 39 59 50 60 66 61 37 62 38 63 49 65 67 66 40 67 27 68
REMARK SMILES IDX 28 69 33 70 29 71 30 72 32 73 34 74 31 75 53 76 54 77 59 78
REMARK SMILES IDX 55 79 56 80 58 81 60 82 57 83 41 84 42 85 47 86 43 87 44 88
REMARK SMILES IDX 46 89 48 90 45 91
REMARK H PARENT 8 7 81 28 15 34 65 53 39 64
REMARK Flexibility Score: inf
ROOT
ATOM      1  C   UNL A   1      36.132  22.074  24.338  1.00  0.00     0.002 C 
ENDROOT
BRANCH   1   2
ATOM      2  C   UNL A   1      36.529  23.240  25.244  1.00  0.00     0.021 C 
BRANCH   2   3
ATOM      3  C   UNL A   1      35.449  24.322  25.413  1.00  0.00     0.116 C 
BRANCH   3   4
ATOM      4  N   UNL A   1      34.747  24.508  24.152  1.00  0.00    -0.354 N 
ATOM      5  C   UNL A   1      33.417  24.568  23.843  1.00  0.00     0.243 C 
ATOM      6  O   UNL A   1      33.137  24.504  22.641  1.00  0.00    -0.273 OA
ATOM      7  H   UNL A   1      35.343  24.612  23.376  1.00  0.00     0.163 HD
BRANCH   5   8
ATOM      8  C   UNL A   1      32.316  24.781  24.921  1.00  0.00     0.184 C 
BRANCH   8   9
ATOM      9  C   UNL A   1      31.227  23.671  25.089  1.00  0.00     0.018 C 
ATOM     10  C   UNL A   1      30.534  23.804  26.455  1.00  0.00     0.010 C 
BRANCH   9  11
ATOM     11  C   UNL A   1      31.706  22.228  24.888  1.00  0.00     0.002 C 
ATOM     12  C   UNL A   1      32.724  21.748  25.916  1.00  0.00     0.004 C 
ENDBRANCH   9  11
ENDBRANCH   8   9
BRANCH   8  13
ATOM     13  N   UNL A   1      31.755  26.152  24.623  1.00  0.00    -0.280 N 
ATOM     14  C   UNL A   1      30.602  26.207  23.840  1.00  0.00     0.266 C 
ATOM     15  C   UNL A   1      32.116  27.366  25.189  1.00  0.00     0.149 C 
ATOM     16  O   UNL A   1      30.016  25.246  23.355  1.00  0.00    -0.268 OA
ATOM     17  C   UNL A   1      30.141  27.616  23.664  1.00  0.00     0.081 C 
ATOM     18  S   UNL A   1      31.288  28.678  24.363  1.00  0.00    -0.054 SA
ATOM     19  S   UNL A   1      33.151  27.757  26.439  1.00  0.00    -0.052 S 
ATOM     20  C   UNL A   1      28.999  27.983  23.060  1.00  0.00     0.029 C 
BRANCH  20  21
ATOM     21  C   UNL A   1      28.661  29.388  22.784  1.00  0.00    -0.024 A 
ATOM     22  C   UNL A   1      27.777  30.114  23.591  1.00  0.00     0.012 A 
ATOM     23  C   UNL A   1      29.314  30.038  21.727  1.00  0.00     0.012 A 
ATOM     24  C   UNL A   1      27.569  31.477  23.350  1.00  0.00     0.047 A 
ATOM     25  C   UNL A   1      29.114  31.399  21.490  1.00  0.00     0.047 A 
ATOM     26  C   UNL A   1      28.245  32.109  22.310  1.00  0.00     0.115 A 
BRANCH  26  27
ATOM     27  O   UNL A   1      28.038  33.445  22.129  1.00  0.00    -0.508 OA
ATOM     28  H   UNL A   1      27.258  33.846  22.458  1.00  0.00     0.293 HD
ENDBRANCH  26  27
ENDBRANCH  20  21
ENDBRANCH   8  13
ENDBRANCH   5   8
ENDBRANCH   3   4
ENDBRANCH   2   3
ENDBRANCH   1   2
BRANCH   1  29
ATOM     29  C   UNL A   1      36.280  20.690  24.970  1.00  0.00     0.002 C 
BRANCH  29  30
ATOM     30  C   UNL A   1      37.633  20.005  24.752  1.00  0.00     0.021 C 
BRANCH  30  31
ATOM     31  C   UNL A   1      38.744  20.432  25.709  1.00  0.00     0.116 C 
BRANCH  31  32
ATOM     32  N   UNL A   1      39.802  19.437  25.802  1.00  0.00    -0.352 N 
ATOM     33  C   UNL A   1      41.132  19.600  26.097  1.00  0.00     0.251 C 
ATOM     34  H   UNL A   1      39.521  18.511  25.627  1.00  0.00     0.163 HD
ATOM     35  O   UNL A   1      41.922  18.680  25.915  1.00  0.00    -0.269 OA
BRANCH  33  36
ATOM     36  C   UNL A   1      41.620  20.892  26.624  1.00  0.00     0.039 A 
ATOM     37  C   UNL A   1      42.021  21.883  25.724  1.00  0.00     0.014 A 
ATOM     38  C   UNL A   1      41.701  21.119  28.001  1.00  0.00     0.014 A 
ATOM     39  C   UNL A   1      42.449  23.122  26.205  1.00  0.00     0.010 A 
ATOM     40  C   UNL A   1      42.058  22.378  28.476  1.00  0.00     0.010 A 
ATOM     41  C   UNL A   1      42.440  23.391  27.584  1.00  0.00    -0.014 A 
BRANCH  41  42
ATOM     42  C   UNL A   1      42.828  24.725  28.109  1.00  0.00     0.031 A 
ATOM     43  C   UNL A   1      41.785  25.784  28.334  1.00  0.00     0.074 A 
ATOM     44  C   UNL A   1      44.128  25.001  28.328  1.00  0.00     0.049 A 
ATOM     45  N   UNL A   1      41.935  27.022  28.729  1.00  0.00    -0.248 NA
ATOM     46  C   UNL A   1      40.390  25.408  28.053  1.00  0.00     0.031 C 
ATOM     47  C   UNL A   1      45.240  24.074  28.108  1.00  0.00     0.029 A 
ATOM     48  N   UNL A   1      44.736  26.147  28.776  1.00  0.00    -0.354 N 
ATOM     49  C   UNL A   1      40.661  27.574  28.737  1.00  0.00     0.074 A 
ATOM     50  C   UNL A   1      39.757  26.555  28.250  1.00  0.00     0.031 C 
ATOM     51  C   UNL A   1      46.390  24.677  28.447  1.00  0.00     0.029 A 
ATOM     52  C   UNL A   1      46.104  26.045  28.870  1.00  0.00     0.049 A 
ATOM     53  H   UNL A   1      44.240  26.965  29.010  1.00  0.00     0.167 HD
ATOM     54  C   UNL A   1      40.274  28.810  29.136  1.00  0.00     0.037 A 
ATOM     55  C   UNL A   1      47.022  26.954  29.246  1.00  0.00     0.037 A 
ATOM     56  C   UNL A   1      41.174  29.817  29.633  1.00  0.00     0.049 A 
ATOM     57  C   UNL A   1      46.571  28.326  29.662  1.00  0.00     0.074 A 
ATOM     58  C   UNL A   1      40.875  31.082  30.110  1.00  0.00     0.029 A 
ATOM     59  N   UNL A   1      42.551  29.675  29.716  1.00  0.00    -0.354 N 
ATOM     60  N   UNL A   1      45.355  28.814  29.724  1.00  0.00    -0.248 NA
ATOM     61  C   UNL A   1      47.620  29.275  30.062  1.00  0.00     0.031 C 
ATOM     62  C   UNL A   1      42.076  31.723  30.434  1.00  0.00     0.029 A 
ATOM     63  C   UNL A   1      43.119  30.838  30.211  1.00  0.00     0.049 A 
ATOM     64  H   UNL A   1      43.052  28.867  29.460  1.00  0.00     0.167 HD
ATOM     65  C   UNL A   1      45.490  30.112  30.200  1.00  0.00     0.074 A 
ATOM     66  C   UNL A   1      46.904  30.331  30.421  1.00  0.00     0.031 C 
ATOM     67  C   UNL A   1      44.528  31.040  30.432  1.00  0.00     0.037 A 
BRANCH  54  68
ATOM     68  C   UNL A   1      38.811  29.137  29.049  1.00  0.00     0.057 A 
ATOM     69  C   UNL A   1      37.963  29.037  30.161  1.00  0.00     0.134 A 
ATOM     70  C   UNL A   1      38.246  29.585  27.849  1.00  0.00     0.134 A 
ATOM     71  F   UNL A   1      38.437  28.605  31.340  1.00  0.00    -0.206 F 
ATOM     72  C   UNL A   1      36.603  29.338  30.075  1.00  0.00     0.040 A 
ATOM     73  C   UNL A   1      36.892  29.918  27.757  1.00  0.00     0.040 A 
ATOM     74  F   UNL A   1      38.999  29.713  26.747  1.00  0.00    -0.206 F 
ATOM     75  C   UNL A   1      36.065  29.785  28.870  1.00  0.00     0.006 A 
ENDBRANCH  54  68
BRANCH  55  76
ATOM     76  C   UNL A   1      48.462  26.590  29.273  1.00  0.00     0.057 A 
ATOM     77  C   UNL A   1      49.269  26.756  28.142  1.00  0.00     0.134 A 
ATOM     78  C   UNL A   1      49.065  26.061  30.422  1.00  0.00     0.134 A 
ATOM     79  F   UNL A   1      48.746  27.240  27.006  1.00  0.00    -0.206 F 
ATOM     80  C   UNL A   1      50.616  26.390  28.143  1.00  0.00     0.040 A 
ATOM     81  C   UNL A   1      50.417  25.716  30.446  1.00  0.00     0.040 A 
ATOM     82  F   UNL A   1      48.348  25.884  31.543  1.00  0.00    -0.206 F 
ATOM     83  C   UNL A   1      51.194  25.873  29.301  1.00  0.00     0.006 A 
ENDBRANCH  55  76
BRANCH  67  84
ATOM     84  C   UNL A   1      44.971  32.362  30.987  1.00  0.00     0.057 A 
ATOM     85  C   UNL A   1      45.278  33.449  30.158  1.00  0.00     0.134 A 
ATOM     86  C   UNL A   1      45.054  32.561  32.371  1.00  0.00     0.134 A 
ATOM     87  F   UNL A   1      45.232  33.321  28.824  1.00  0.00    -0.206 F 
ATOM     88  C   UNL A   1      45.677  34.678  30.687  1.00  0.00     0.040 A 
ATOM     89  C   UNL A   1      45.422  33.794  32.912  1.00  0.00     0.040 A 
ATOM     90  F   UNL A   1      44.763  31.565  33.221  1.00  0.00    -0.206 F 
ATOM     91  C   UNL A   1      45.742  34.855  32.068  1.00  0.00     0.006 A 
ENDBRANCH  67  84
ENDBRANCH  41  42
ENDBRANCH  33  36
ENDBRANCH  31  32
ENDBRANCH  30  31
ENDBRANCH  29  30
ENDBRANCH   1  29
TORSDOF 18
ENDMDL
