MODEL 1
REMARK VINA RESULT:     -12.0      0.000      0.000
REMARK SMILES CCCc1cc(OC(F)(F)F)cc2c1O[C@H](C(F)(F)F)C(C(=O)NCCCCCCNC(=O)c1ccc(-c3c4nc(c(-c5c(F)cccc5F)c5ccc([nH]5)c(-c5c(F)cccc5F)c5nc(c(-c6c(F)cccc6F)c6ccc3[nH]6)C=C5)C=C4)cc1)=C2
REMARK SMILES IDX 27 1 26 2 25 3 24 4 22 5 23 6 21 8 4 9 5 10 14 11 6 12 13 13
REMARK SMILES IDX 15 14 12 15 88 16 16 17 3 18 2 19 1 20 7 21 8 22 9 23 10 24
REMARK SMILES IDX 11 25 17 26 18 27 19 28 20 29 28 30 29 31 30 32 31 33 32 34
REMARK SMILES IDX 33 36 34 37 35 38 87 39 36 40 86 41 37 42 38 43 39 44 80 45
REMARK SMILES IDX 40 46 85 47 79 48 81 49 41 50 84 51 78 52 77 53 42 55 68 56
REMARK SMILES IDX 51 57 67 58 52 59 55 60 66 61 82 62 53 63 54 64 65 66 83 67
REMARK SMILES IDX 56 68 43 69 44 70 49 71 45 72 46 73 48 74 50 75 47 76 69 77
REMARK SMILES IDX 70 78 75 79 71 80 72 81 74 82 76 83 73 84 57 85 58 86 63 87
REMARK SMILES IDX 59 88 60 89 62 90 64 91 61 92
REMARK H PARENT 24 7 31 35 81 54 55 65
REMARK Flexibility Score: inf
ROOT
ATOM      1  C   UNL A   1      30.772  28.948  24.592  1.00  0.00     0.002 C 
ENDROOT
BRANCH   1   2
ATOM      2  C   UNL A   1      30.929  28.604  23.104  1.00  0.00     0.021 C 
BRANCH   2   3
ATOM      3  C   UNL A   1      30.802  27.106  22.826  1.00  0.00     0.116 C 
BRANCH   3   4
ATOM      4  N   UNL A   1      31.622  26.749  21.691  1.00  0.00    -0.352 N 
ATOM      5  C   UNL A   1      32.602  25.833  21.515  1.00  0.00     0.251 C 
ATOM      6  O   UNL A   1      33.169  25.824  20.421  1.00  0.00    -0.270 OA
ATOM      7  H   UNL A   1      31.428  27.278  20.883  1.00  0.00     0.163 HD
BRANCH   5   8
ATOM      8  C   UNL A   1      32.938  24.776  22.513  1.00  0.00     0.067 C 
ATOM      9  C   UNL A   1      34.863  21.896  24.919  1.00  0.00    -0.002 A 
ATOM     10  C   UNL A   1      34.146  20.716  25.235  1.00  0.00     0.054 A 
ATOM     11  C   UNL A   1      34.222  22.863  24.129  1.00  0.00     0.131 A 
ATOM     12  C   UNL A   1      32.848  20.499  24.772  1.00  0.00     0.130 A 
ATOM     13  C   UNL A   1      32.908  22.663  23.674  1.00  0.00     0.021 A 
ATOM     14  O   UNL A   1      34.926  23.972  23.746  1.00  0.00    -0.475 OA
ATOM     15  C   UNL A   1      32.232  21.484  23.999  1.00  0.00     0.058 A 
ATOM     16  C   UNL A   1      32.288  23.632  22.769  1.00  0.00     0.025 C 
ATOM     17  C   UNL A   1      34.160  25.132  23.336  1.00  0.00     0.314 C 
BRANCH   9  18
ATOM     18  C   UNL A   1      36.274  21.975  25.483  1.00  0.00     0.039 C 
BRANCH  18  19
ATOM     19  C   UNL A   1      37.479  21.449  24.694  1.00  0.00     0.001 C 
ATOM     20  C   UNL A   1      37.752  19.970  24.934  1.00  0.00     0.004 C 
ENDBRANCH  18  19
ENDBRANCH   9  18
BRANCH  12  21
ATOM     21  O   UNL A   1      32.083  19.387  24.983  1.00  0.00    -0.406 OA
BRANCH  21  22
ATOM     22  C   UNL A   1      32.454  18.188  24.323  1.00  0.00     0.573 C 
ATOM     23  F   UNL A   1      31.946  18.141  23.074  1.00  0.00    -0.132 F 
ATOM     24  F   UNL A   1      33.795  18.058  24.272  1.00  0.00    -0.132 F 
ATOM     25  F   UNL A   1      31.956  17.141  25.018  1.00  0.00    -0.132 F 
ENDBRANCH  21  22
ENDBRANCH  12  21
BRANCH  17  26
ATOM     26  C   UNL A   1      33.807  26.023  24.546  1.00  0.00     0.429 C 
ATOM     27  F   UNL A   1      32.547  25.837  25.003  1.00  0.00    -0.167 F 
ATOM     28  F   UNL A   1      34.630  25.797  25.601  1.00  0.00    -0.167 F 
ATOM     29  F   UNL A   1      33.920  27.338  24.230  1.00  0.00    -0.167 F 
ENDBRANCH  17  26
ENDBRANCH   5   8
ENDBRANCH   3   4
ENDBRANCH   2   3
ENDBRANCH   1   2
BRANCH   1  30
ATOM     30  C   UNL A   1      31.883  29.839  25.163  1.00  0.00     0.002 C 
BRANCH  30  31
ATOM     31  C   UNL A   1      31.392  30.993  26.040  1.00  0.00     0.021 C 
BRANCH  31  32
ATOM     32  C   UNL A   1      32.435  31.516  27.021  1.00  0.00     0.116 C 
BRANCH  32  33
ATOM     33  N   UNL A   1      32.246  32.933  27.290  1.00  0.00    -0.352 N 
ATOM     34  C   UNL A   1      32.984  33.762  28.096  1.00  0.00     0.251 C 
ATOM     35  H   UNL A   1      31.484  33.354  26.832  1.00  0.00     0.163 HD
ATOM     36  O   UNL A   1      32.552  34.863  28.417  1.00  0.00    -0.269 OA
BRANCH  34  37
ATOM     37  C   UNL A   1      34.306  33.318  28.582  1.00  0.00     0.039 A 
ATOM     38  C   UNL A   1      34.392  32.661  29.811  1.00  0.00     0.014 A 
ATOM     39  C   UNL A   1      35.459  33.570  27.830  1.00  0.00     0.014 A 
ATOM     40  C   UNL A   1      35.633  32.214  30.267  1.00  0.00     0.010 A 
ATOM     41  C   UNL A   1      36.684  33.070  28.257  1.00  0.00     0.010 A 
ATOM     42  C   UNL A   1      36.784  32.396  29.483  1.00  0.00    -0.014 A 
BRANCH  42  43
ATOM     43  C   UNL A   1      38.106  31.900  29.936  1.00  0.00     0.031 A 
ATOM     44  C   UNL A   1      38.631  30.589  29.423  1.00  0.00     0.074 A 
ATOM     45  C   UNL A   1      38.800  32.598  30.855  1.00  0.00     0.049 A 
ATOM     46  N   UNL A   1      39.729  29.955  29.748  1.00  0.00    -0.248 NA
ATOM     47  C   UNL A   1      37.801  29.884  28.433  1.00  0.00     0.031 C 
ATOM     48  C   UNL A   1      38.371  33.859  31.461  1.00  0.00     0.029 A 
ATOM     49  N   UNL A   1      40.009  32.337  31.447  1.00  0.00    -0.354 N 
ATOM     50  C   UNL A   1      39.714  28.774  29.018  1.00  0.00     0.074 A 
ATOM     51  C   UNL A   1      38.476  28.756  28.269  1.00  0.00     0.031 C 
ATOM     52  C   UNL A   1      39.312  34.272  32.326  1.00  0.00     0.029 A 
ATOM     53  C   UNL A   1      40.391  33.290  32.359  1.00  0.00     0.049 A 
ATOM     54  H   UNL A   1      40.551  31.542  31.239  1.00  0.00     0.167 HD
ATOM     55  C   UNL A   1      40.656  27.804  28.959  1.00  0.00     0.037 A 
ATOM     56  C   UNL A   1      41.488  33.360  33.137  1.00  0.00     0.037 A 
ATOM     57  C   UNL A   1      41.900  27.841  29.681  1.00  0.00     0.049 A 
ATOM     58  C   UNL A   1      42.519  32.271  33.053  1.00  0.00     0.074 A 
ATOM     59  C   UNL A   1      42.953  26.945  29.631  1.00  0.00     0.029 A 
ATOM     60  N   UNL A   1      42.258  28.831  30.583  1.00  0.00    -0.354 N 
ATOM     61  N   UNL A   1      42.524  31.194  32.305  1.00  0.00    -0.248 NA
ATOM     62  C   UNL A   1      43.698  32.406  33.921  1.00  0.00     0.031 C 
ATOM     63  C   UNL A   1      43.933  27.372  30.534  1.00  0.00     0.029 A 
ATOM     64  C   UNL A   1      43.506  28.555  31.115  1.00  0.00     0.049 A 
ATOM     65  H   UNL A   1      41.706  29.614  30.811  1.00  0.00     0.167 HD
ATOM     66  C   UNL A   1      43.712  30.536  32.594  1.00  0.00     0.074 A 
ATOM     67  C   UNL A   1      44.408  31.341  33.577  1.00  0.00     0.031 C 
ATOM     68  C   UNL A   1      44.183  29.370  32.091  1.00  0.00     0.037 A 
BRANCH  55  69
ATOM     69  C   UNL A   1      40.378  26.623  28.077  1.00  0.00     0.057 A 
ATOM     70  C   UNL A   1      40.960  26.497  26.810  1.00  0.00     0.134 A 
ATOM     71  C   UNL A   1      39.545  25.584  28.514  1.00  0.00     0.134 A 
ATOM     72  F   UNL A   1      41.758  27.462  26.329  1.00  0.00    -0.206 F 
ATOM     73  C   UNL A   1      40.704  25.392  25.996  1.00  0.00     0.040 A 
ATOM     74  C   UNL A   1      39.301  24.463  27.718  1.00  0.00     0.040 A 
ATOM     75  F   UNL A   1      38.960  25.641  29.719  1.00  0.00    -0.206 F 
ATOM     76  C   UNL A   1      39.876  24.368  26.453  1.00  0.00     0.006 A 
ENDBRANCH  55  69
BRANCH  56  77
ATOM     77  C   UNL A   1      41.676  34.516  34.046  1.00  0.00     0.057 A 
ATOM     78  C   UNL A   1      42.286  35.694  33.596  1.00  0.00     0.134 A 
ATOM     79  C   UNL A   1      41.256  34.476  35.381  1.00  0.00     0.134 A 
ATOM     80  F   UNL A   1      42.726  35.785  32.333  1.00  0.00    -0.206 F 
ATOM     81  C   UNL A   1      42.484  36.784  34.443  1.00  0.00     0.040 A 
ATOM     82  C   UNL A   1      41.428  35.567  36.234  1.00  0.00     0.040 A 
ATOM     83  F   UNL A   1      40.659  33.379  35.870  1.00  0.00    -0.206 F 
ATOM     84  C   UNL A   1      42.049  36.723  35.767  1.00  0.00     0.006 A 
ENDBRANCH  56  77
BRANCH  68  85
ATOM     85  C   UNL A   1      45.521  28.903  32.580  1.00  0.00     0.057 A 
ATOM     86  C   UNL A   1      46.713  29.367  32.011  1.00  0.00     0.134 A 
ATOM     87  C   UNL A   1      45.617  28.018  33.661  1.00  0.00     0.134 A 
ATOM     88  F   UNL A   1      46.686  30.204  30.964  1.00  0.00    -0.206 F 
ATOM     89  C   UNL A   1      47.957  28.957  32.494  1.00  0.00     0.040 A 
ATOM     90  C   UNL A   1      46.855  27.618  34.167  1.00  0.00     0.040 A 
ATOM     91  F   UNL A   1      44.511  27.543  34.254  1.00  0.00    -0.206 F 
ATOM     92  C   UNL A   1      48.030  28.086  33.581  1.00  0.00     0.006 A 
ENDBRANCH  68  85
ENDBRANCH  42  43
ENDBRANCH  34  37
ENDBRANCH  32  33
ENDBRANCH  31  32
ENDBRANCH  30  31
ENDBRANCH   1  30
TORSDOF 18
ENDMDL
MODEL 2
REMARK VINA RESULT:     -11.6      1.804      5.922
REMARK SMILES CCCc1cc(OC(F)(F)F)cc2c1O[C@H](C(F)(F)F)C(C(=O)NCCCCCCNC(=O)c1ccc(-c3c4nc(c(-c5c(F)cccc5F)c5ccc([nH]5)c(-c5c(F)cccc5F)c5nc(c(-c6c(F)cccc6F)c6ccc3[nH]6)C=C5)C=C4)cc1)=C2
REMARK SMILES IDX 27 1 26 2 25 3 24 4 22 5 23 6 21 8 4 9 5 10 14 11 6 12 13 13
REMARK SMILES IDX 15 14 12 15 88 16 16 17 3 18 2 19 1 20 7 21 8 22 9 23 10 24
REMARK SMILES IDX 11 25 17 26 18 27 19 28 20 29 28 30 29 31 30 32 31 33 32 34
REMARK SMILES IDX 33 36 34 37 35 38 87 39 36 40 86 41 37 42 38 43 39 44 80 45
REMARK SMILES IDX 40 46 85 47 79 48 81 49 41 50 84 51 78 52 77 53 42 55 68 56
REMARK SMILES IDX 51 57 67 58 52 59 55 60 66 61 82 62 53 63 54 64 65 66 83 67
REMARK SMILES IDX 56 68 43 69 44 70 49 71 45 72 46 73 48 74 50 75 47 76 69 77
REMARK SMILES IDX 70 78 75 79 71 80 72 81 74 82 76 83 73 84 57 85 58 86 63 87
REMARK SMILES IDX 59 88 60 89 62 90 64 91 61 92
REMARK H PARENT 24 7 31 35 81 54 55 65
REMARK Flexibility Score: inf
ROOT
ATOM      1  C   UNL A   1      30.961  27.981  24.853  1.00  0.00     0.002 C 
ENDROOT
BRANCH   1   2
ATOM      2  C   UNL A   1      30.219  27.440  23.623  1.00  0.00     0.021 C 
BRANCH   2   3
ATOM      3  C   UNL A   1      30.596  25.995  23.292  1.00  0.00     0.116 C 
BRANCH   3   4
ATOM      4  N   UNL A   1      31.463  25.969  22.136  1.00  0.00    -0.352 N 
ATOM      5  C   UNL A   1      32.615  25.314  21.864  1.00  0.00     0.251 C 
ATOM      6  O   UNL A   1      33.161  25.566  20.788  1.00  0.00    -0.270 OA
ATOM      7  H   UNL A   1      31.153  26.544  21.398  1.00  0.00     0.163 HD
BRANCH   5   8
ATOM      8  C   UNL A   1      33.178  24.235  22.727  1.00  0.00     0.067 C 
ATOM      9  C   UNL A   1      35.676  21.447  24.669  1.00  0.00    -0.002 A 
ATOM     10  C   UNL A   1      35.143  20.164  24.945  1.00  0.00     0.054 A 
ATOM     11  C   UNL A   1      34.845  22.382  24.034  1.00  0.00     0.131 A 
ATOM     12  C   UNL A   1      33.838  19.820  24.591  1.00  0.00     0.130 A 
ATOM     13  C   UNL A   1      33.523  22.052  23.691  1.00  0.00     0.021 A 
ATOM     14  O   UNL A   1      35.367  23.598  23.687  1.00  0.00    -0.475 OA
ATOM     15  C   UNL A   1      33.030  20.774  23.972  1.00  0.00     0.058 A 
ATOM     16  C   UNL A   1      32.699  23.001  22.940  1.00  0.00     0.025 C 
ATOM     17  C   UNL A   1      34.430  24.679  23.457  1.00  0.00     0.314 C 
BRANCH   9  18
ATOM     18  C   UNL A   1      37.120  21.661  25.100  1.00  0.00     0.039 C 
BRANCH  18  19
ATOM     19  C   UNL A   1      37.587  22.998  25.689  1.00  0.00     0.001 C 
ATOM     20  C   UNL A   1      38.923  22.898  26.414  1.00  0.00     0.004 C 
ENDBRANCH  18  19
ENDBRANCH   9  18
BRANCH  12  21
ATOM     21  O   UNL A   1      33.238  18.606  24.774  1.00  0.00    -0.406 OA
BRANCH  21  22
ATOM     22  C   UNL A   1      33.384  17.630  23.756  1.00  0.00     0.573 C 
ATOM     23  F   UNL A   1      34.684  17.439  23.447  1.00  0.00    -0.132 F 
ATOM     24  F   UNL A   1      32.830  16.457  24.126  1.00  0.00    -0.132 F 
ATOM     25  F   UNL A   1      32.749  18.065  22.645  1.00  0.00    -0.132 F 
ENDBRANCH  21  22
ENDBRANCH  12  21
BRANCH  17  26
ATOM     26  C   UNL A   1      34.103  25.422  24.771  1.00  0.00     0.429 C 
ATOM     27  F   UNL A   1      32.905  25.082  25.298  1.00  0.00    -0.167 F 
ATOM     28  F   UNL A   1      35.026  25.177  25.735  1.00  0.00    -0.167 F 
ATOM     29  F   UNL A   1      34.080  26.764  24.576  1.00  0.00    -0.167 F 
ENDBRANCH  17  26
ENDBRANCH   5   8
ENDBRANCH   3   4
ENDBRANCH   2   3
ENDBRANCH   1   2
BRANCH   1  30
ATOM     30  C   UNL A   1      31.735  29.283  24.611  1.00  0.00     0.002 C 
BRANCH  30  31
ATOM     31  C   UNL A   1      31.195  30.500  25.366  1.00  0.00     0.021 C 
BRANCH  31  32
ATOM     32  C   UNL A   1      32.054  30.930  26.549  1.00  0.00     0.116 C 
BRANCH  32  33
ATOM     33  N   UNL A   1      32.045  32.375  26.713  1.00  0.00    -0.352 N 
ATOM     34  C   UNL A   1      32.837  33.155  27.517  1.00  0.00     0.251 C 
ATOM     35  H   UNL A   1      31.379  32.859  26.176  1.00  0.00     0.163 HD
ATOM     36  O   UNL A   1      32.541  34.324  27.736  1.00  0.00    -0.269 OA
BRANCH  34  37
ATOM     37  C   UNL A   1      34.053  32.576  28.125  1.00  0.00     0.039 A 
ATOM     38  C   UNL A   1      35.145  33.406  28.380  1.00  0.00     0.014 A 
ATOM     39  C   UNL A   1      34.115  31.210  28.420  1.00  0.00     0.014 A 
ATOM     40  C   UNL A   1      36.290  32.875  28.977  1.00  0.00     0.010 A 
ATOM     41  C   UNL A   1      35.231  30.695  29.071  1.00  0.00     0.010 A 
ATOM     42  C   UNL A   1      36.332  31.520  29.346  1.00  0.00    -0.014 A 
BRANCH  42  43
ATOM     43  C   UNL A   1      37.525  30.944  30.011  1.00  0.00     0.031 A 
ATOM     44  C   UNL A   1      37.824  31.284  31.444  1.00  0.00     0.074 A 
ATOM     45  C   UNL A   1      38.372  30.169  29.305  1.00  0.00     0.049 A 
ATOM     46  N   UNL A   1      38.850  30.936  32.178  1.00  0.00    -0.248 NA
ATOM     47  C   UNL A   1      36.855  32.150  32.135  1.00  0.00     0.031 C 
ATOM     48  C   UNL A   1      38.212  29.808  27.896  1.00  0.00     0.029 A 
ATOM     49  N   UNL A   1      39.540  29.556  29.677  1.00  0.00    -0.354 N 
ATOM     50  C   UNL A   1      38.658  31.551  33.408  1.00  0.00     0.074 A 
ATOM     51  C   UNL A   1      37.445  32.332  33.308  1.00  0.00     0.031 C 
ATOM     52  C   UNL A   1      39.236  29.021  27.527  1.00  0.00     0.029 A 
ATOM     53  C   UNL A   1      40.137  28.850  28.662  1.00  0.00     0.049 A 
ATOM     54  H   UNL A   1      39.916  29.616  30.585  1.00  0.00     0.167 HD
ATOM     55  C   UNL A   1      39.414  31.455  34.528  1.00  0.00     0.037 A 
ATOM     56  C   UNL A   1      41.286  28.147  28.649  1.00  0.00     0.037 A 
ATOM     57  C   UNL A   1      40.603  30.652  34.635  1.00  0.00     0.049 A 
ATOM     58  C   UNL A   1      42.106  28.055  29.904  1.00  0.00     0.074 A 
ATOM     59  C   UNL A   1      41.396  30.429  35.746  1.00  0.00     0.029 A 
ATOM     60  N   UNL A   1      41.168  29.939  33.589  1.00  0.00    -0.354 N 
ATOM     61  N   UNL A   1      41.875  28.586  31.081  1.00  0.00    -0.248 NA
ATOM     62  C   UNL A   1      43.345  27.268  29.831  1.00  0.00     0.031 C 
ATOM     63  C   UNL A   1      42.464  29.611  35.363  1.00  0.00     0.029 A 
ATOM     64  C   UNL A   1      42.313  29.294  34.023  1.00  0.00     0.049 A 
ATOM     65  H   UNL A   1      40.807  29.897  32.673  1.00  0.00     0.167 HD
ATOM     66  C   UNL A   1      42.926  28.179  31.893  1.00  0.00     0.074 A 
ATOM     67  C   UNL A   1      43.788  27.348  31.078  1.00  0.00     0.031 C 
ATOM     68  C   UNL A   1      43.156  28.469  33.196  1.00  0.00     0.037 A 
BRANCH  55  69
ATOM     69  C   UNL A   1      38.970  32.235  35.730  1.00  0.00     0.057 A 
ATOM     70  C   UNL A   1      38.215  31.647  36.752  1.00  0.00     0.134 A 
ATOM     71  C   UNL A   1      39.329  33.581  35.882  1.00  0.00     0.134 A 
ATOM     72  F   UNL A   1      37.829  30.366  36.661  1.00  0.00    -0.206 F 
ATOM     73  C   UNL A   1      37.811  32.376  37.872  1.00  0.00     0.040 A 
ATOM     74  C   UNL A   1      38.951  34.313  37.009  1.00  0.00     0.040 A 
ATOM     75  F   UNL A   1      40.055  34.203  34.942  1.00  0.00    -0.206 F 
ATOM     76  C   UNL A   1      38.184  33.711  38.006  1.00  0.00     0.006 A 
ENDBRANCH  55  69
BRANCH  56  77
ATOM     77  C   UNL A   1      41.714  27.454  27.410  1.00  0.00     0.057 A 
ATOM     78  C   UNL A   1      41.414  26.104  27.199  1.00  0.00     0.134 A 
ATOM     79  C   UNL A   1      42.433  28.120  26.409  1.00  0.00     0.134 A 
ATOM     80  F   UNL A   1      40.744  25.408  28.130  1.00  0.00    -0.206 F 
ATOM     81  C   UNL A   1      41.823  25.434  26.045  1.00  0.00     0.040 A 
ATOM     82  C   UNL A   1      42.830  27.469  25.240  1.00  0.00     0.040 A 
ATOM     83  F   UNL A   1      42.745  29.416  26.549  1.00  0.00    -0.206 F 
ATOM     84  C   UNL A   1      42.530  26.121  25.059  1.00  0.00     0.006 A 
ENDBRANCH  56  77
BRANCH  68  85
ATOM     85  C   UNL A   1      44.377  27.869  33.827  1.00  0.00     0.057 A 
ATOM     86  C   UNL A   1      45.592  28.562  33.879  1.00  0.00     0.134 A 
ATOM     87  C   UNL A   1      44.322  26.606  34.429  1.00  0.00     0.134 A 
ATOM     88  F   UNL A   1      45.711  29.770  33.307  1.00  0.00    -0.206 F 
ATOM     89  C   UNL A   1      46.716  28.014  34.500  1.00  0.00     0.040 A 
ATOM     90  C   UNL A   1      45.433  26.056  35.071  1.00  0.00     0.040 A 
ATOM     91  F   UNL A   1      43.185  25.894  34.418  1.00  0.00    -0.206 F 
ATOM     92  C   UNL A   1      46.635  26.760  35.104  1.00  0.00     0.006 A 
ENDBRANCH  68  85
ENDBRANCH  42  43
ENDBRANCH  34  37
ENDBRANCH  32  33
ENDBRANCH  31  32
ENDBRANCH  30  31
ENDBRANCH   1  30
TORSDOF 18
ENDMDL
MODEL 3
REMARK VINA RESULT:     -11.6      2.873      7.310
REMARK SMILES CCCc1cc(OC(F)(F)F)cc2c1O[C@H](C(F)(F)F)C(C(=O)NCCCCCCNC(=O)c1ccc(-c3c4nc(c(-c5c(F)cccc5F)c5ccc([nH]5)c(-c5c(F)cccc5F)c5nc(c(-c6c(F)cccc6F)c6ccc3[nH]6)C=C5)C=C4)cc1)=C2
REMARK SMILES IDX 27 1 26 2 25 3 24 4 22 5 23 6 21 8 4 9 5 10 14 11 6 12 13 13
REMARK SMILES IDX 15 14 12 15 88 16 16 17 3 18 2 19 1 20 7 21 8 22 9 23 10 24
REMARK SMILES IDX 11 25 17 26 18 27 19 28 20 29 28 30 29 31 30 32 31 33 32 34
REMARK SMILES IDX 33 36 34 37 35 38 87 39 36 40 86 41 37 42 38 43 39 44 80 45
REMARK SMILES IDX 40 46 85 47 79 48 81 49 41 50 84 51 78 52 77 53 42 55 68 56
REMARK SMILES IDX 51 57 67 58 52 59 55 60 66 61 82 62 53 63 54 64 65 66 83 67
REMARK SMILES IDX 56 68 43 69 44 70 49 71 45 72 46 73 48 74 50 75 47 76 69 77
REMARK SMILES IDX 70 78 75 79 71 80 72 81 74 82 76 83 73 84 57 85 58 86 63 87
REMARK SMILES IDX 59 88 60 89 62 90 64 91 61 92
REMARK H PARENT 24 7 31 35 81 54 55 65
REMARK Flexibility Score: inf
ROOT
ATOM      1  C   UNL A   1      31.694  29.267  24.728  1.00  0.00     0.002 C 
ENDROOT
BRANCH   1   2
ATOM      2  C   UNL A   1      31.328  28.614  23.387  1.00  0.00     0.021 C 
BRANCH   2   3
ATOM      3  C   UNL A   1      31.082  27.110  23.508  1.00  0.00     0.116 C 
BRANCH   3   4
ATOM      4  N   UNL A   1      30.441  26.820  24.770  1.00  0.00    -0.352 N 
ATOM      5  C   UNL A   1      30.522  25.776  25.625  1.00  0.00     0.251 C 
ATOM      6  O   UNL A   1      29.775  25.796  26.605  1.00  0.00    -0.270 OA
ATOM      7  H   UNL A   1      29.820  27.525  25.068  1.00  0.00     0.163 HD
BRANCH   5   8
ATOM      8  C   UNL A   1      31.536  24.686  25.510  1.00  0.00     0.067 C 
ATOM      9  C   UNL A   1      33.636  21.032  25.652  1.00  0.00    -0.002 A 
ATOM     10  C   UNL A   1      35.024  21.080  25.931  1.00  0.00     0.054 A 
ATOM     11  C   UNL A   1      32.935  22.246  25.592  1.00  0.00     0.131 A 
ATOM     12  C   UNL A   1      35.687  22.287  26.154  1.00  0.00     0.130 A 
ATOM     13  C   UNL A   1      33.597  23.469  25.795  1.00  0.00     0.021 A 
ATOM     14  O   UNL A   1      31.580  22.216  25.404  1.00  0.00    -0.475 OA
ATOM     15  C   UNL A   1      34.967  23.480  26.075  1.00  0.00     0.058 A 
ATOM     16  C   UNL A   1      32.837  24.720  25.829  1.00  0.00     0.025 C 
ATOM     17  C   UNL A   1      30.954  23.424  24.906  1.00  0.00     0.314 C 
BRANCH   9  18
ATOM     18  C   UNL A   1      33.057  19.639  25.452  1.00  0.00     0.039 C 
BRANCH  18  19
ATOM     19  C   UNL A   1      33.486  18.758  24.273  1.00  0.00     0.001 C 
ATOM     20  C   UNL A   1      32.444  18.694  23.163  1.00  0.00     0.004 C 
ENDBRANCH  18  19
ENDBRANCH   9  18
BRANCH  12  21
ATOM     21  O   UNL A   1      37.007  22.446  26.467  1.00  0.00    -0.406 OA
BRANCH  21  22
ATOM     22  C   UNL A   1      37.908  22.759  25.417  1.00  0.00     0.573 C 
ATOM     23  F   UNL A   1      38.145  24.086  25.356  1.00  0.00    -0.132 F 
ATOM     24  F   UNL A   1      39.074  22.097  25.566  1.00  0.00    -0.132 F 
ATOM     25  F   UNL A   1      37.354  22.378  24.244  1.00  0.00    -0.132 F 
ENDBRANCH  21  22
ENDBRANCH  12  21
BRANCH  17  26
ATOM     26  C   UNL A   1      30.962  23.460  23.362  1.00  0.00     0.429 C 
ATOM     27  F   UNL A   1      29.863  24.043  22.832  1.00  0.00    -0.167 F 
ATOM     28  F   UNL A   1      32.027  24.146  22.877  1.00  0.00    -0.167 F 
ATOM     29  F   UNL A   1      31.030  22.207  22.847  1.00  0.00    -0.167 F 
ENDBRANCH  17  26
ENDBRANCH   5   8
ENDBRANCH   3   4
ENDBRANCH   2   3
ENDBRANCH   1   2
BRANCH   1  30
ATOM     30  C   UNL A   1      33.201  29.399  24.984  1.00  0.00     0.002 C 
BRANCH  30  31
ATOM     31  C   UNL A   1      33.827  28.224  25.740  1.00  0.00     0.021 C 
BRANCH  31  32
ATOM     32  C   UNL A   1      33.896  28.422  27.249  1.00  0.00     0.116 C 
BRANCH  32  33
ATOM     33  N   UNL A   1      33.799  29.830  27.604  1.00  0.00    -0.352 N 
ATOM     34  C   UNL A   1      34.701  30.612  28.279  1.00  0.00     0.251 C 
ATOM     35  H   UNL A   1      32.972  30.282  27.323  1.00  0.00     0.163 HD
ATOM     36  O   UNL A   1      34.369  31.705  28.721  1.00  0.00    -0.269 OA
BRANCH  34  37
ATOM     37  C   UNL A   1      36.083  30.125  28.476  1.00  0.00     0.039 A 
ATOM     38  C   UNL A   1      36.988  30.209  27.417  1.00  0.00     0.014 A 
ATOM     39  C   UNL A   1      36.471  29.569  29.699  1.00  0.00     0.014 A 
ATOM     40  C   UNL A   1      38.302  29.775  27.599  1.00  0.00     0.010 A 
ATOM     41  C   UNL A   1      37.795  29.196  29.899  1.00  0.00     0.010 A 
ATOM     42  C   UNL A   1      38.721  29.286  28.848  1.00  0.00    -0.014 A 
BRANCH  42  43
ATOM     43  C   UNL A   1      40.120  28.852  29.070  1.00  0.00     0.031 A 
ATOM     44  C   UNL A   1      41.105  29.790  29.710  1.00  0.00     0.074 A 
ATOM     45  C   UNL A   1      40.518  27.640  28.640  1.00  0.00     0.049 A 
ATOM     46  N   UNL A   1      42.384  29.621  29.929  1.00  0.00    -0.248 NA
ATOM     47  C   UNL A   1      40.590  31.101  30.136  1.00  0.00     0.031 C 
ATOM     48  C   UNL A   1      39.665  26.660  27.963  1.00  0.00     0.029 A 
ATOM     49  N   UNL A   1      41.745  27.030  28.697  1.00  0.00    -0.354 N 
ATOM     50  C   UNL A   1      42.828  30.805  30.501  1.00  0.00     0.074 A 
ATOM     51  C   UNL A   1      41.695  31.702  30.553  1.00  0.00     0.031 C 
ATOM     52  C   UNL A   1      40.391  25.565  27.685  1.00  0.00     0.029 A 
ATOM     53  C   UNL A   1      41.764  25.779  28.133  1.00  0.00     0.049 A 
ATOM     54  H   UNL A   1      42.537  27.450  29.103  1.00  0.00     0.167 HD
ATOM     55  C   UNL A   1      44.064  31.109  30.963  1.00  0.00     0.037 A 
ATOM     56  C   UNL A   1      42.778  24.903  27.990  1.00  0.00     0.037 A 
ATOM     57  C   UNL A   1      45.182  30.203  30.940  1.00  0.00     0.049 A 
ATOM     58  C   UNL A   1      44.139  25.264  28.511  1.00  0.00     0.074 A 
ATOM     59  C   UNL A   1      46.454  30.390  31.451  1.00  0.00     0.029 A 
ATOM     60  N   UNL A   1      45.158  28.938  30.374  1.00  0.00    -0.354 N 
ATOM     61  N   UNL A   1      44.528  26.362  29.114  1.00  0.00    -0.248 NA
ATOM     62  C   UNL A   1      45.204  24.266  28.333  1.00  0.00     0.031 C 
ATOM     63  C   UNL A   1      47.212  29.251  31.160  1.00  0.00     0.029 A 
ATOM     64  C   UNL A   1      46.400  28.341  30.502  1.00  0.00     0.049 A 
ATOM     65  H   UNL A   1      44.373  28.526  29.945  1.00  0.00     0.167 HD
ATOM     66  C   UNL A   1      45.873  26.178  29.407  1.00  0.00     0.074 A 
ATOM     67  C   UNL A   1      46.230  24.859  28.926  1.00  0.00     0.031 C 
ATOM     68  C   UNL A   1      46.735  27.026  30.019  1.00  0.00     0.037 A 
BRANCH  55  69
ATOM     69  C   UNL A   1      44.269  32.479  31.541  1.00  0.00     0.057 A 
ATOM     70  C   UNL A   1      44.062  32.743  32.900  1.00  0.00     0.134 A 
ATOM     71  C   UNL A   1      44.707  33.537  30.734  1.00  0.00     0.134 A 
ATOM     72  F   UNL A   1      43.631  31.775  33.723  1.00  0.00    -0.206 F 
ATOM     73  C   UNL A   1      44.261  34.018  33.434  1.00  0.00     0.040 A 
ATOM     74  C   UNL A   1      44.932  34.810  31.262  1.00  0.00     0.040 A 
ATOM     75  F   UNL A   1      44.928  33.351  29.425  1.00  0.00    -0.206 F 
ATOM     76  C   UNL A   1      44.703  35.054  32.615  1.00  0.00     0.006 A 
ENDBRANCH  55  69
BRANCH  56  77
ATOM     77  C   UNL A   1      42.535  23.591  27.344  1.00  0.00     0.057 A 
ATOM     78  C   UNL A   1      42.128  22.483  28.096  1.00  0.00     0.134 A 
ATOM     79  C   UNL A   1      42.703  23.409  25.966  1.00  0.00     0.134 A 
ATOM     80  F   UNL A   1      41.968  22.591  29.424  1.00  0.00    -0.206 F 
ATOM     81  C   UNL A   1      41.911  21.237  27.506  1.00  0.00     0.040 A 
ATOM     82  C   UNL A   1      42.468  22.175  25.358  1.00  0.00     0.040 A 
ATOM     83  F   UNL A   1      43.084  24.434  25.190  1.00  0.00    -0.206 F 
ATOM     84  C   UNL A   1      42.076  21.083  26.130  1.00  0.00     0.006 A 
ENDBRANCH  56  77
BRANCH  68  85
ATOM     85  C   UNL A   1      48.141  26.548  30.219  1.00  0.00     0.057 A 
ATOM     86  C   UNL A   1      48.514  25.819  31.355  1.00  0.00     0.134 A 
ATOM     87  C   UNL A   1      49.120  26.778  29.244  1.00  0.00     0.134 A 
ATOM     88  F   UNL A   1      47.625  25.578  32.330  1.00  0.00    -0.206 F 
ATOM     89  C   UNL A   1      49.816  25.344  31.519  1.00  0.00     0.040 A 
ATOM     90  C   UNL A   1      50.419  26.290  29.387  1.00  0.00     0.040 A 
ATOM     91  F   UNL A   1      48.823  27.465  28.130  1.00  0.00    -0.206 F 
ATOM     92  C   UNL A   1      50.771  25.573  30.529  1.00  0.00     0.006 A 
ENDBRANCH  68  85
ENDBRANCH  42  43
ENDBRANCH  34  37
ENDBRANCH  32  33
ENDBRANCH  31  32
ENDBRANCH  30  31
ENDBRANCH   1  30
TORSDOF 18
ENDMDL
