MODEL 1
REMARK VINA RESULT:     -11.2      0.000      0.000
REMARK SMILES Cc1cscc1-c1nnnn1C[C@@H](C)C(=O)NCCCCCCNC(=O)c1ccc(-c2c3nc(c(-c4c(F)cccc4F)c4ccc([nH]4)c(-c4c(F)cccc4F)c4nc(c(-c5c(F)cccc5F)c5ccc2[nH]5)C=C4)C=C3)cc1
REMARK SMILES IDX 20 1 19 2 18 3 17 4 15 5 16 6 13 8 14 9 12 10 11 11 7 12
REMARK SMILES IDX 8 13 9 14 10 15 6 16 1 17 2 18 3 19 4 20 5 21 21 22 22 23
REMARK SMILES IDX 23 24 24 25 25 26 26 28 27 29 28 30 80 31 29 32 79 33 30 34
REMARK SMILES IDX 31 35 32 36 73 37 33 38 78 39 72 40 74 41 34 42 77 43 71 44
REMARK SMILES IDX 70 45 35 47 61 48 44 49 60 50 45 51 48 52 59 53 75 54 46 55
REMARK SMILES IDX 47 56 58 58 76 59 49 60 36 61 37 62 42 63 38 64 39 65 41 66
REMARK SMILES IDX 43 67 40 68 62 69 63 70 68 71 64 72 65 73 67 74 69 75 66 76
REMARK SMILES IDX 50 77 51 78 56 79 52 80 53 81 55 82 57 83 54 84
REMARK H PARENT 17 7 24 27 74 46 48 57
REMARK Flexibility Score: inf
ROOT
ATOM      1  C   UNL A   1      41.064  21.017  27.058  1.00  0.00     0.002 C 
ENDROOT
BRANCH   1   2
ATOM      2  C   UNL A   1      39.936  20.992  26.024  1.00  0.00     0.021 C 
BRANCH   2   3
ATOM      3  C   UNL A   1      38.887  22.084  26.227  1.00  0.00     0.116 C 
BRANCH   3   4
ATOM      4  N   UNL A   1      38.260  22.446  24.969  1.00  0.00    -0.356 N 
ATOM      5  C   UNL A   1      36.960  22.427  24.574  1.00  0.00     0.224 C 
ATOM      6  O   UNL A   1      36.708  22.734  23.408  1.00  0.00    -0.275 OA
ATOM      7  H   UNL A   1      38.889  22.759  24.279  1.00  0.00     0.163 HD
BRANCH   5   8
ATOM      8  C   UNL A   1      35.843  22.033  25.526  1.00  0.00     0.097 C 
ATOM      9  C   UNL A   1      35.023  20.888  24.934  1.00  0.00     0.020 C 
BRANCH   8  10
ATOM     10  C   UNL A   1      35.101  23.295  25.985  1.00  0.00     0.161 C 
BRANCH  10  11
ATOM     11  N   UNL A   1      33.862  23.094  26.689  1.00  0.00    -0.225 N 
ATOM     12  C   UNL A   1      32.652  23.700  26.499  1.00  0.00     0.183 A 
ATOM     13  N   UNL A   1      31.903  23.422  27.546  1.00  0.00    -0.108 NA
ATOM     14  N   UNL A   1      32.604  22.491  28.278  1.00  0.00    -0.023 NA
ATOM     15  N   UNL A   1      33.790  22.256  27.736  1.00  0.00    -0.045 NA
BRANCH  12  16
ATOM     16  C   UNL A   1      32.251  24.569  25.359  1.00  0.00     0.034 A 
ATOM     17  C   UNL A   1      33.487  26.781  26.038  1.00  0.00     0.046 C 
ATOM     18  C   UNL A   1      32.564  25.965  25.187  1.00  0.00    -0.029 A 
ATOM     19  C   UNL A   1      31.942  26.456  24.053  1.00  0.00     0.069 A 
ATOM     20  S   UNL A   1      31.084  25.259  23.186  1.00  0.00    -0.151 S 
ATOM     21  C   UNL A   1      31.533  24.050  24.305  1.00  0.00     0.077 A 
ENDBRANCH  12  16
ENDBRANCH  10  11
ENDBRANCH   8  10
ENDBRANCH   5   8
ENDBRANCH   3   4
ENDBRANCH   2   3
ENDBRANCH   1   2
BRANCH   1  22
ATOM     22  C   UNL A   1      41.764  19.672  27.310  1.00  0.00     0.002 C 
BRANCH  22  23
ATOM     23  C   UNL A   1      42.340  18.955  26.078  1.00  0.00     0.021 C 
BRANCH  23  24
ATOM     24  C   UNL A   1      43.815  18.619  26.199  1.00  0.00     0.116 C 
BRANCH  24  25
ATOM     25  N   UNL A   1      44.522  18.707  24.918  1.00  0.00    -0.352 N 
ATOM     26  C   UNL A   1      44.679  19.807  24.088  1.00  0.00     0.251 C 
ATOM     27  H   UNL A   1      44.943  17.874  24.605  1.00  0.00     0.163 HD
ATOM     28  O   UNL A   1      44.960  19.681  22.910  1.00  0.00    -0.269 OA
BRANCH  26  29
ATOM     29  C   UNL A   1      44.519  21.145  24.681  1.00  0.00     0.039 A 
ATOM     30  C   UNL A   1      43.490  22.022  24.326  1.00  0.00     0.014 A 
ATOM     31  C   UNL A   1      45.436  21.490  25.662  1.00  0.00     0.014 A 
ATOM     32  C   UNL A   1      43.377  23.228  25.016  1.00  0.00     0.010 A 
ATOM     33  C   UNL A   1      45.153  22.514  26.510  1.00  0.00     0.010 A 
ATOM     34  C   UNL A   1      44.222  23.457  26.111  1.00  0.00    -0.014 A 
BRANCH  34  35
ATOM     35  C   UNL A   1      44.161  24.654  26.931  1.00  0.00     0.031 A 
ATOM     36  C   UNL A   1      45.269  25.609  26.699  1.00  0.00     0.074 A 
ATOM     37  C   UNL A   1      43.037  24.978  27.610  1.00  0.00     0.049 A 
ATOM     38  N   UNL A   1      46.219  25.929  27.512  1.00  0.00    -0.248 NA
ATOM     39  C   UNL A   1      45.433  26.161  25.343  1.00  0.00     0.031 C 
ATOM     40  C   UNL A   1      41.741  24.279  27.640  1.00  0.00     0.029 A 
ATOM     41  N   UNL A   1      42.781  26.088  28.351  1.00  0.00    -0.354 N 
ATOM     42  C   UNL A   1      46.973  26.894  26.851  1.00  0.00     0.074 A 
ATOM     43  C   UNL A   1      46.582  26.827  25.469  1.00  0.00     0.031 C 
ATOM     44  C   UNL A   1      40.794  25.086  28.165  1.00  0.00     0.029 A 
ATOM     45  C   UNL A   1      41.441  26.280  28.672  1.00  0.00     0.049 A 
ATOM     46  H   UNL A   1      43.490  26.708  28.638  1.00  0.00     0.167 HD
ATOM     47  C   UNL A   1      47.650  27.847  27.550  1.00  0.00     0.037 A 
ATOM     48  C   UNL A   1      40.913  27.361  29.296  1.00  0.00     0.037 A 
ATOM     49  C   UNL A   1      47.763  27.471  28.942  1.00  0.00     0.049 A 
ATOM     50  C   UNL A   1      42.036  28.056  29.975  1.00  0.00     0.074 A 
ATOM     51  C   UNL A   1      48.327  26.408  29.622  1.00  0.00     0.029 A 
ATOM     52  N   UNL A   1      46.889  28.054  29.828  1.00  0.00    -0.354 N 
ATOM     53  N   UNL A   1      42.701  27.544  30.975  1.00  0.00    -0.248 NA
ATOM     54  C   UNL A   1      42.734  29.088  29.225  1.00  0.00     0.031 C 
ATOM     55  C   UNL A   1      47.412  26.120  30.679  1.00  0.00     0.029 A 
ATOM     56  C   UNL A   1      46.386  27.065  30.632  1.00  0.00     0.049 A 
ATOM     57  H   UNL A   1      46.664  29.012  29.876  1.00  0.00     0.167 HD
ATOM     58  C   UNL A   1      44.028  27.867  30.724  1.00  0.00     0.074 A 
ATOM     59  C   UNL A   1      43.977  28.882  29.672  1.00  0.00     0.031 C 
ATOM     60  C   UNL A   1      45.045  27.072  31.174  1.00  0.00     0.037 A 
BRANCH  47  61
ATOM     61  C   UNL A   1      47.843  29.279  27.096  1.00  0.00     0.057 A 
ATOM     62  C   UNL A   1      49.132  29.841  27.172  1.00  0.00     0.134 A 
ATOM     63  C   UNL A   1      46.806  30.211  26.877  1.00  0.00     0.134 A 
ATOM     64  F   UNL A   1      50.211  29.066  27.360  1.00  0.00    -0.206 F 
ATOM     65  C   UNL A   1      49.356  31.223  27.152  1.00  0.00     0.040 A 
ATOM     66  C   UNL A   1      47.026  31.590  26.805  1.00  0.00     0.040 A 
ATOM     67  F   UNL A   1      45.517  29.866  26.814  1.00  0.00    -0.206 F 
ATOM     68  C   UNL A   1      48.298  32.105  26.984  1.00  0.00     0.006 A 
ENDBRANCH  47  61
BRANCH  48  69
ATOM     69  C   UNL A   1      39.593  27.999  29.087  1.00  0.00     0.057 A 
ATOM     70  C   UNL A   1      38.659  28.096  30.129  1.00  0.00     0.134 A 
ATOM     71  C   UNL A   1      39.327  28.779  27.947  1.00  0.00     0.134 A 
ATOM     72  F   UNL A   1      38.845  27.423  31.274  1.00  0.00    -0.206 F 
ATOM     73  C   UNL A   1      37.541  28.940  30.053  1.00  0.00     0.040 A 
ATOM     74  C   UNL A   1      38.215  29.623  27.857  1.00  0.00     0.040 A 
ATOM     75  F   UNL A   1      40.188  28.816  26.919  1.00  0.00    -0.206 F 
ATOM     76  C   UNL A   1      37.323  29.717  28.919  1.00  0.00     0.006 A 
ENDBRANCH  48  69
BRANCH  60  77
ATOM     77  C   UNL A   1      44.699  25.966  32.137  1.00  0.00     0.057 A 
ATOM     78  C   UNL A   1      44.465  24.634  31.759  1.00  0.00     0.134 A 
ATOM     79  C   UNL A   1      44.763  26.224  33.510  1.00  0.00     0.134 A 
ATOM     80  F   UNL A   1      44.481  24.266  30.475  1.00  0.00    -0.206 F 
ATOM     81  C   UNL A   1      44.266  23.618  32.699  1.00  0.00     0.040 A 
ATOM     82  C   UNL A   1      44.598  25.213  34.460  1.00  0.00     0.040 A 
ATOM     83  F   UNL A   1      45.040  27.461  33.951  1.00  0.00    -0.206 F 
ATOM     84  C   UNL A   1      44.340  23.905  34.057  1.00  0.00     0.006 A 
ENDBRANCH  60  77
ENDBRANCH  34  35
ENDBRANCH  26  29
ENDBRANCH  24  25
ENDBRANCH  23  24
ENDBRANCH  22  23
ENDBRANCH   1  22
TORSDOF 16
ENDMDL
MODEL 2
REMARK VINA RESULT:     -11.0      1.516      2.129
REMARK SMILES Cc1cscc1-c1nnnn1C[C@@H](C)C(=O)NCCCCCCNC(=O)c1ccc(-c2c3nc(c(-c4c(F)cccc4F)c4ccc([nH]4)c(-c4c(F)cccc4F)c4nc(c(-c5c(F)cccc5F)c5ccc2[nH]5)C=C4)C=C3)cc1
REMARK SMILES IDX 20 1 19 2 18 3 17 4 15 5 16 6 13 8 14 9 12 10 11 11 7 12
REMARK SMILES IDX 8 13 9 14 10 15 6 16 1 17 2 18 3 19 4 20 5 21 21 22 22 23
REMARK SMILES IDX 23 24 24 25 25 26 26 28 27 29 28 30 80 31 29 32 79 33 30 34
REMARK SMILES IDX 31 35 32 36 73 37 33 38 78 39 72 40 74 41 34 42 77 43 71 44
REMARK SMILES IDX 70 45 35 47 61 48 44 49 60 50 45 51 48 52 59 53 75 54 46 55
REMARK SMILES IDX 47 56 58 58 76 59 49 60 36 61 37 62 42 63 38 64 39 65 41 66
REMARK SMILES IDX 43 67 40 68 62 69 63 70 68 71 64 72 65 73 67 74 69 75 66 76
REMARK SMILES IDX 50 77 51 78 56 79 52 80 53 81 55 82 57 83 54 84
REMARK H PARENT 17 7 24 27 74 46 48 57
REMARK Flexibility Score: inf
ROOT
ATOM      1  C   UNL A   1      39.491  21.864  26.113  1.00  0.00     0.002 C 
ENDROOT
BRANCH   1   2
ATOM      2  C   UNL A   1      39.101  23.271  26.572  1.00  0.00     0.021 C 
BRANCH   2   3
ATOM      3  C   UNL A   1      37.749  23.743  26.038  1.00  0.00     0.116 C 
BRANCH   3   4
ATOM      4  N   UNL A   1      37.621  23.457  24.620  1.00  0.00    -0.356 N 
ATOM      5  C   UNL A   1      36.532  23.193  23.851  1.00  0.00     0.224 C 
ATOM      6  O   UNL A   1      36.717  22.921  22.664  1.00  0.00    -0.275 OA
ATOM      7  H   UNL A   1      38.474  23.454  24.129  1.00  0.00     0.163 HD
BRANCH   5   8
ATOM      8  C   UNL A   1      35.125  23.220  24.425  1.00  0.00     0.097 C 
ATOM      9  C   UNL A   1      34.802  24.611  24.970  1.00  0.00     0.020 C 
BRANCH   8  10
ATOM     10  C   UNL A   1      34.935  22.015  25.354  1.00  0.00     0.161 C 
BRANCH  10  11
ATOM     11  N   UNL A   1      33.967  21.031  24.944  1.00  0.00    -0.225 N 
ATOM     12  C   UNL A   1      32.633  21.183  24.694  1.00  0.00     0.183 A 
ATOM     13  N   UNL A   1      32.102  19.979  24.636  1.00  0.00    -0.108 NA
ATOM     14  N   UNL A   1      33.158  19.097  24.666  1.00  0.00    -0.023 NA
ATOM     15  N   UNL A   1      34.308  19.738  24.814  1.00  0.00    -0.045 NA
BRANCH  12  16
ATOM     16  C   UNL A   1      31.882  22.462  24.568  1.00  0.00     0.034 A 
ATOM     17  C   UNL A   1      31.738  23.138  27.098  1.00  0.00     0.046 C 
ATOM     18  C   UNL A   1      31.420  23.301  25.644  1.00  0.00    -0.029 A 
ATOM     19  C   UNL A   1      30.680  24.356  25.142  1.00  0.00     0.069 A 
ATOM     20  S   UNL A   1      30.618  24.380  23.434  1.00  0.00    -0.151 S 
ATOM     21  C   UNL A   1      31.589  22.980  23.326  1.00  0.00     0.077 A 
ENDBRANCH  12  16
ENDBRANCH  10  11
ENDBRANCH   8  10
ENDBRANCH   5   8
ENDBRANCH   3   4
ENDBRANCH   2   3
ENDBRANCH   1   2
BRANCH   1  22
ATOM     22  C   UNL A   1      40.504  21.131  27.007  1.00  0.00     0.002 C 
BRANCH  22  23
ATOM     23  C   UNL A   1      41.272  19.965  26.363  1.00  0.00     0.021 C 
BRANCH  23  24
ATOM     24  C   UNL A   1      42.676  19.782  26.907  1.00  0.00     0.116 C 
BRANCH  24  25
ATOM     25  N   UNL A   1      43.688  19.710  25.848  1.00  0.00    -0.352 N 
ATOM     26  C   UNL A   1      44.162  20.726  25.032  1.00  0.00     0.251 C 
ATOM     27  H   UNL A   1      44.085  18.822  25.698  1.00  0.00     0.163 HD
ATOM     28  O   UNL A   1      44.715  20.488  23.974  1.00  0.00    -0.269 OA
BRANCH  26  29
ATOM     29  C   UNL A   1      43.997  22.114  25.494  1.00  0.00     0.039 A 
ATOM     30  C   UNL A   1      43.016  22.976  24.996  1.00  0.00     0.014 A 
ATOM     31  C   UNL A   1      44.857  22.527  26.501  1.00  0.00     0.014 A 
ATOM     32  C   UNL A   1      42.890  24.240  25.570  1.00  0.00     0.010 A 
ATOM     33  C   UNL A   1      44.546  23.627  27.236  1.00  0.00     0.010 A 
ATOM     34  C   UNL A   1      43.667  24.549  26.695  1.00  0.00    -0.014 A 
BRANCH  34  35
ATOM     35  C   UNL A   1      43.582  25.815  27.402  1.00  0.00     0.031 A 
ATOM     36  C   UNL A   1      44.636  26.789  27.035  1.00  0.00     0.074 A 
ATOM     37  C   UNL A   1      42.472  26.155  28.095  1.00  0.00     0.049 A 
ATOM     38  N   UNL A   1      45.602  27.223  27.773  1.00  0.00    -0.248 NA
ATOM     39  C   UNL A   1      44.723  27.216  25.628  1.00  0.00     0.031 C 
ATOM     40  C   UNL A   1      41.211  25.408  28.244  1.00  0.00     0.029 A 
ATOM     41  N   UNL A   1      42.195  27.318  28.739  1.00  0.00    -0.354 N 
ATOM     42  C   UNL A   1      46.285  28.153  26.994  1.00  0.00     0.074 A 
ATOM     43  C   UNL A   1      45.845  27.938  25.642  1.00  0.00     0.031 C 
ATOM     44  C   UNL A   1      40.249  26.222  28.732  1.00  0.00     0.029 A 
ATOM     45  C   UNL A   1      40.860  27.483  29.097  1.00  0.00     0.049 A 
ATOM     46  H   UNL A   1      42.885  27.992  28.937  1.00  0.00     0.167 HD
ATOM     47  C   UNL A   1      46.944  29.195  27.572  1.00  0.00     0.037 A 
ATOM     48  C   UNL A   1      40.308  28.597  29.641  1.00  0.00     0.037 A 
ATOM     49  C   UNL A   1      47.128  28.957  28.986  1.00  0.00     0.049 A 
ATOM     50  C   UNL A   1      41.424  29.399  30.203  1.00  0.00     0.074 A 
ATOM     51  C   UNL A   1      47.765  27.988  29.738  1.00  0.00     0.029 A 
ATOM     52  N   UNL A   1      46.262  29.585  29.851  1.00  0.00    -0.354 N 
ATOM     53  N   UNL A   1      42.149  29.012  31.218  1.00  0.00    -0.248 NA
ATOM     54  C   UNL A   1      42.045  30.383  29.332  1.00  0.00     0.031 C 
ATOM     55  C   UNL A   1      46.906  27.764  30.855  1.00  0.00     0.029 A 
ATOM     56  C   UNL A   1      45.836  28.656  30.765  1.00  0.00     0.049 A 
ATOM     57  H   UNL A   1      45.997  30.533  29.819  1.00  0.00     0.167 HD
ATOM     58  C   UNL A   1      43.450  29.365  30.882  1.00  0.00     0.074 A 
ATOM     59  C   UNL A   1      43.312  30.273  29.742  1.00  0.00     0.031 C 
ATOM     60  C   UNL A   1      44.518  28.660  31.360  1.00  0.00     0.037 A 
BRANCH  47  61
ATOM     61  C   UNL A   1      47.054  30.584  26.978  1.00  0.00     0.057 A 
ATOM     62  C   UNL A   1      48.308  31.226  26.998  1.00  0.00     0.134 A 
ATOM     63  C   UNL A   1      45.966  31.427  26.671  1.00  0.00     0.134 A 
ATOM     64  F   UNL A   1      49.430  30.539  27.260  1.00  0.00    -0.206 F 
ATOM     65  C   UNL A   1      48.450  32.610  26.841  1.00  0.00     0.040 A 
ATOM     66  C   UNL A   1      46.103  32.802  26.462  1.00  0.00     0.040 A 
ATOM     67  F   UNL A   1      44.699  31.001  26.643  1.00  0.00    -0.206 F 
ATOM     68  C   UNL A   1      47.342  33.407  26.588  1.00  0.00     0.006 A 
ENDBRANCH  47  61
BRANCH  48  69
ATOM     69  C   UNL A   1      38.954  29.156  29.429  1.00  0.00     0.057 A 
ATOM     70  C   UNL A   1      38.492  29.477  28.144  1.00  0.00     0.134 A 
ATOM     71  C   UNL A   1      37.979  29.122  30.443  1.00  0.00     0.134 A 
ATOM     72  F   UNL A   1      39.337  29.496  27.103  1.00  0.00    -0.206 F 
ATOM     73  C   UNL A   1      37.137  29.724  27.878  1.00  0.00     0.040 A 
ATOM     74  C   UNL A   1      36.624  29.367  30.191  1.00  0.00     0.040 A 
ATOM     75  F   UNL A   1      38.296  28.759  31.695  1.00  0.00    -0.206 F 
ATOM     76  C   UNL A   1      36.196  29.656  28.901  1.00  0.00     0.006 A 
ENDBRANCH  48  69
BRANCH  60  77
ATOM     77  C   UNL A   1      44.260  27.636  32.435  1.00  0.00     0.057 A 
ATOM     78  C   UNL A   1      44.093  26.262  32.195  1.00  0.00     0.134 A 
ATOM     79  C   UNL A   1      44.343  28.031  33.774  1.00  0.00     0.134 A 
ATOM     80  F   UNL A   1      44.099  25.771  30.953  1.00  0.00    -0.206 F 
ATOM     81  C   UNL A   1      43.977  25.334  33.235  1.00  0.00     0.040 A 
ATOM     82  C   UNL A   1      44.259  27.111  34.823  1.00  0.00     0.040 A 
ATOM     83  F   UNL A   1      44.558  29.319  34.085  1.00  0.00    -0.206 F 
ATOM     84  C   UNL A   1      44.067  25.758  34.556  1.00  0.00     0.006 A 
ENDBRANCH  60  77
ENDBRANCH  34  35
ENDBRANCH  26  29
ENDBRANCH  24  25
ENDBRANCH  23  24
ENDBRANCH  22  23
ENDBRANCH   1  22
TORSDOF 16
ENDMDL
MODEL 3
REMARK VINA RESULT:     -10.7      3.279      8.352
REMARK SMILES Cc1cscc1-c1nnnn1C[C@@H](C)C(=O)NCCCCCCNC(=O)c1ccc(-c2c3nc(c(-c4c(F)cccc4F)c4ccc([nH]4)c(-c4c(F)cccc4F)c4nc(c(-c5c(F)cccc5F)c5ccc2[nH]5)C=C4)C=C3)cc1
REMARK SMILES IDX 20 1 19 2 18 3 17 4 15 5 16 6 13 8 14 9 12 10 11 11 7 12
REMARK SMILES IDX 8 13 9 14 10 15 6 16 1 17 2 18 3 19 4 20 5 21 21 22 22 23
REMARK SMILES IDX 23 24 24 25 25 26 26 28 27 29 28 30 80 31 29 32 79 33 30 34
REMARK SMILES IDX 31 35 32 36 73 37 33 38 78 39 72 40 74 41 34 42 77 43 71 44
REMARK SMILES IDX 70 45 35 47 61 48 44 49 60 50 45 51 48 52 59 53 75 54 46 55
REMARK SMILES IDX 47 56 58 58 76 59 49 60 36 61 37 62 42 63 38 64 39 65 41 66
REMARK SMILES IDX 43 67 40 68 62 69 63 70 68 71 64 72 65 73 67 74 69 75 66 76
REMARK SMILES IDX 50 77 51 78 56 79 52 80 53 81 55 82 57 83 54 84
REMARK H PARENT 17 7 24 27 74 46 48 57
REMARK Flexibility Score: inf
ROOT
ATOM      1  C   UNL A   1      33.727  27.950  26.525  1.00  0.00     0.002 C 
ENDROOT
BRANCH   1   2
ATOM      2  C   UNL A   1      32.255  28.193  26.864  1.00  0.00     0.021 C 
BRANCH   2   3
ATOM      3  C   UNL A   1      31.298  27.193  26.217  1.00  0.00     0.116 C 
BRANCH   3   4
ATOM      4  N   UNL A   1      31.338  25.914  26.903  1.00  0.00    -0.356 N 
ATOM      5  C   UNL A   1      31.415  24.643  26.431  1.00  0.00     0.224 C 
ATOM      6  O   UNL A   1      31.370  23.721  27.248  1.00  0.00    -0.275 OA
ATOM      7  H   UNL A   1      31.302  25.981  27.885  1.00  0.00     0.163 HD
BRANCH   5   8
ATOM      8  C   UNL A   1      31.544  24.349  24.946  1.00  0.00     0.097 C 
ATOM      9  C   UNL A   1      31.030  22.943  24.638  1.00  0.00     0.020 C 
BRANCH   8  10
ATOM     10  C   UNL A   1      32.955  24.725  24.477  1.00  0.00     0.161 C 
BRANCH  10  11
ATOM     11  N   UNL A   1      33.164  24.795  23.055  1.00  0.00    -0.225 N 
ATOM     12  C   UNL A   1      32.694  25.712  22.156  1.00  0.00     0.183 A 
ATOM     13  N   UNL A   1      32.892  25.219  20.951  1.00  0.00    -0.108 NA
ATOM     14  N   UNL A   1      33.652  24.086  21.123  1.00  0.00    -0.023 NA
ATOM     15  N   UNL A   1      33.857  23.842  22.409  1.00  0.00    -0.045 NA
BRANCH  12  16
ATOM     16  C   UNL A   1      32.024  27.005  22.460  1.00  0.00     0.034 A 
ATOM     17  C   UNL A   1      34.134  28.523  22.809  1.00  0.00     0.046 C 
ATOM     18  C   UNL A   1      32.663  28.245  22.821  1.00  0.00    -0.029 A 
ATOM     19  C   UNL A   1      31.711  29.203  23.119  1.00  0.00     0.069 A 
ATOM     20  S   UNL A   1      30.109  28.652  22.889  1.00  0.00    -0.151 S 
ATOM     21  C   UNL A   1      30.654  27.118  22.376  1.00  0.00     0.077 A 
ENDBRANCH  12  16
ENDBRANCH  10  11
ENDBRANCH   8  10
ENDBRANCH   5   8
ENDBRANCH   3   4
ENDBRANCH   2   3
ENDBRANCH   1   2
BRANCH   1  22
ATOM     22  C   UNL A   1      34.671  29.138  26.776  1.00  0.00     0.002 C 
BRANCH  22  23
ATOM     23  C   UNL A   1      34.054  30.376  27.448  1.00  0.00     0.021 C 
BRANCH  23  24
ATOM     24  C   UNL A   1      35.028  31.525  27.626  1.00  0.00     0.116 C 
BRANCH  24  25
ATOM     25  N   UNL A   1      34.807  32.266  28.872  1.00  0.00    -0.352 N 
ATOM     26  C   UNL A   1      35.266  31.973  30.148  1.00  0.00     0.251 C 
ATOM     27  H   UNL A   1      34.261  33.081  28.792  1.00  0.00     0.163 HD
ATOM     28  O   UNL A   1      34.733  32.439  31.138  1.00  0.00    -0.269 OA
BRANCH  26  29
ATOM     29  C   UNL A   1      36.440  31.095  30.272  1.00  0.00     0.039 A 
ATOM     30  C   UNL A   1      36.350  29.702  30.351  1.00  0.00     0.014 A 
ATOM     31  C   UNL A   1      37.676  31.726  30.268  1.00  0.00     0.014 A 
ATOM     32  C   UNL A   1      37.531  28.961  30.374  1.00  0.00     0.010 A 
ATOM     33  C   UNL A   1      38.794  31.001  30.002  1.00  0.00     0.010 A 
ATOM     34  C   UNL A   1      38.749  29.631  30.197  1.00  0.00    -0.014 A 
BRANCH  34  35
ATOM     35  C   UNL A   1      40.034  28.955  30.155  1.00  0.00     0.031 A 
ATOM     36  C   UNL A   1      40.680  28.791  31.478  1.00  0.00     0.074 A 
ATOM     37  C   UNL A   1      40.436  28.288  29.049  1.00  0.00     0.049 A 
ATOM     38  N   UNL A   1      41.760  29.353  31.904  1.00  0.00    -0.248 NA
ATOM     39  C   UNL A   1      39.955  28.031  32.510  1.00  0.00     0.031 C 
ATOM     40  C   UNL A   1      39.718  28.087  27.779  1.00  0.00     0.029 A 
ATOM     41  N   UNL A   1      41.557  27.542  28.867  1.00  0.00    -0.354 N 
ATOM     42  C   UNL A   1      41.975  28.841  33.181  1.00  0.00     0.074 A 
ATOM     43  C   UNL A   1      40.737  28.224  33.574  1.00  0.00     0.031 C 
ATOM     44  C   UNL A   1      40.312  27.106  27.065  1.00  0.00     0.029 A 
ATOM     45  C   UNL A   1      41.543  26.736  27.732  1.00  0.00     0.049 A 
ATOM     46  H   UNL A   1      42.319  27.571  29.489  1.00  0.00     0.167 HD
ATOM     47  C   UNL A   1      43.236  28.732  33.684  1.00  0.00     0.037 A 
ATOM     48  C   UNL A   1      42.481  25.819  27.390  1.00  0.00     0.037 A 
ATOM     49  C   UNL A   1      44.161  29.529  32.910  1.00  0.00     0.049 A 
ATOM     50  C   UNL A   1      43.709  26.154  28.155  1.00  0.00     0.074 A 
ATOM     51  C   UNL A   1      44.275  30.873  32.608  1.00  0.00     0.029 A 
ATOM     52  N   UNL A   1      44.938  28.875  31.983  1.00  0.00    -0.354 N 
ATOM     53  N   UNL A   1      44.404  27.242  27.963  1.00  0.00    -0.248 NA
ATOM     54  C   UNL A   1      43.874  25.530  29.459  1.00  0.00     0.031 C 
ATOM     55  C   UNL A   1      44.699  30.909  31.246  1.00  0.00     0.029 A 
ATOM     56  C   UNL A   1      44.893  29.595  30.817  1.00  0.00     0.049 A 
ATOM     57  H   UNL A   1      45.436  28.039  32.131  1.00  0.00     0.167 HD
ATOM     58  C   UNL A   1      44.751  27.674  29.237  1.00  0.00     0.074 A 
ATOM     59  C   UNL A   1      44.459  26.539  30.113  1.00  0.00     0.031 C 
ATOM     60  C   UNL A   1      44.954  28.999  29.501  1.00  0.00     0.037 A 
BRANCH  47  61
ATOM     61  C   UNL A   1      43.712  27.614  34.587  1.00  0.00     0.057 A 
ATOM     62  C   UNL A   1      44.319  27.952  35.813  1.00  0.00     0.134 A 
ATOM     63  C   UNL A   1      43.879  26.268  34.199  1.00  0.00     0.134 A 
ATOM     64  F   UNL A   1      44.223  29.194  36.310  1.00  0.00    -0.206 F 
ATOM     65  C   UNL A   1      45.122  27.057  36.530  1.00  0.00     0.040 A 
ATOM     66  C   UNL A   1      44.639  25.352  34.934  1.00  0.00     0.040 A 
ATOM     67  F   UNL A   1      43.406  25.776  33.050  1.00  0.00    -0.206 F 
ATOM     68  C   UNL A   1      45.298  25.755  36.082  1.00  0.00     0.006 A 
ENDBRANCH  47  61
BRANCH  48  69
ATOM     69  C   UNL A   1      42.298  24.517  26.709  1.00  0.00     0.057 A 
ATOM     70  C   UNL A   1      43.085  24.157  25.605  1.00  0.00     0.134 A 
ATOM     71  C   UNL A   1      41.549  23.481  27.295  1.00  0.00     0.134 A 
ATOM     72  F   UNL A   1      43.867  25.065  25.002  1.00  0.00    -0.206 F 
ATOM     73  C   UNL A   1      43.144  22.839  25.129  1.00  0.00     0.040 A 
ATOM     74  C   UNL A   1      41.597  22.163  26.829  1.00  0.00     0.040 A 
ATOM     75  F   UNL A   1      40.815  23.697  28.398  1.00  0.00    -0.206 F 
ATOM     76  C   UNL A   1      42.408  21.834  25.750  1.00  0.00     0.006 A 
ENDBRANCH  48  69
BRANCH  60  77
ATOM     77  C   UNL A   1      45.015  29.948  28.332  1.00  0.00     0.057 A 
ATOM     78  C   UNL A   1      43.911  30.657  27.832  1.00  0.00     0.134 A 
ATOM     79  C   UNL A   1      46.263  30.277  27.796  1.00  0.00     0.134 A 
ATOM     80  F   UNL A   1      42.689  30.487  28.345  1.00  0.00    -0.206 F 
ATOM     81  C   UNL A   1      44.038  31.618  26.824  1.00  0.00     0.040 A 
ATOM     82  C   UNL A   1      46.410  31.257  26.810  1.00  0.00     0.040 A 
ATOM     83  F   UNL A   1      47.374  29.683  28.261  1.00  0.00    -0.206 F 
ATOM     84  C   UNL A   1      45.294  31.925  26.313  1.00  0.00     0.006 A 
ENDBRANCH  60  77
ENDBRANCH  34  35
ENDBRANCH  26  29
ENDBRANCH  24  25
ENDBRANCH  23  24
ENDBRANCH  22  23
ENDBRANCH   1  22
TORSDOF 16
ENDMDL
