MODEL 1
REMARK VINA RESULT:     -13.2      0.000      0.000
REMARK SMILES CS(=O)(=O)c1ccc(/C=C(/C(=O)NCCCCCCNC(=O)c2ccc(-c3c4nc(c(-c5c(F)cccc5F)c5ccc([nH]5)c(-c5c(F)cccc5F)c5nc(c(-c6c(F)cccc6F)c6ccc3[nH]6)C=C5)C=C4)cc2)c2ccc(-c3ccc(F)cc3F)cc2)cc1
REMARK SMILES IDX 16 1 15 2 14 3 13 4 11 5 12 6 10 8 9 9 8 10 5 11 6 12 92 13
REMARK SMILES IDX 7 14 91 15 2 16 1 17 3 18 4 19 77 20 78 21 90 22 79 23 89 24
REMARK SMILES IDX 80 25 81 26 82 27 87 28 83 29 86 30 88 31 84 32 85 33 17 34
REMARK SMILES IDX 18 35 19 36 20 37 21 38 22 40 23 41 24 42 76 43 25 44 75 45
REMARK SMILES IDX 26 46 27 47 28 48 69 49 29 50 74 51 68 52 70 53 30 54 73 55
REMARK SMILES IDX 67 56 66 57 31 59 57 60 40 61 56 62 41 63 44 64 55 65 71 66
REMARK SMILES IDX 42 67 43 68 54 70 72 71 45 72 32 73 33 74 38 75 34 76 35 77
REMARK SMILES IDX 37 78 39 79 36 80 58 81 59 82 64 83 60 84 61 85 63 86 65 87
REMARK SMILES IDX 62 88 46 89 47 90 52 91 48 92 49 93 51 94 53 95 50 96
REMARK H PARENT 13 7 20 39 70 58 44 69
REMARK Flexibility Score: inf
ROOT
ATOM      1  C   UNL A   1      31.530  25.989  26.077  1.00  0.00     0.002 C 
ENDROOT
BRANCH   1   2
ATOM      2  C   UNL A   1      30.523  26.314  24.961  1.00  0.00     0.021 C 
BRANCH   2   3
ATOM      3  C   UNL A   1      30.402  25.205  23.910  1.00  0.00     0.116 C 
BRANCH   3   4
ATOM      4  N   UNL A   1      31.390  25.417  22.875  1.00  0.00    -0.352 N 
ATOM      5  C   UNL A   1      32.551  24.809  22.531  1.00  0.00     0.251 C 
ATOM      6  O   UNL A   1      33.208  25.382  21.656  1.00  0.00    -0.269 OA
ATOM      7  H   UNL A   1      31.169  26.175  22.289  1.00  0.00     0.163 HD
BRANCH   5   8
ATOM      8  C   UNL A   1      33.003  23.469  23.074  1.00  0.00     0.047 C 
ATOM      9  C   UNL A   1      32.185  22.393  23.151  1.00  0.00     0.022 C 
BRANCH   9  10
ATOM     10  C   UNL A   1      32.500  20.991  23.508  1.00  0.00    -0.025 A 
ATOM     11  C   UNL A   1      33.186  18.298  23.956  1.00  0.00     0.067 A 
ATOM     12  C   UNL A   1      33.455  19.255  24.932  1.00  0.00     0.021 A 
ATOM     13  C   UNL A   1      32.537  18.665  22.775  1.00  0.00     0.021 A 
ATOM     14  C   UNL A   1      33.085  20.590  24.714  1.00  0.00     0.009 A 
ATOM     15  C   UNL A   1      32.197  20.003  22.556  1.00  0.00     0.009 A 
BRANCH  11  16
ATOM     16  S   UNL A   1      33.664  16.596  24.128  1.00  0.00     0.175 S 
ATOM     17  C   UNL A   1      35.102  16.547  25.157  1.00  0.00     0.163 C 
ATOM     18  O   UNL A   1      34.066  16.148  22.810  1.00  0.00    -0.224 OA
ATOM     19  O   UNL A   1      32.585  15.942  24.847  1.00  0.00    -0.224 OA
ENDBRANCH  11  16
ENDBRANCH   9  10
BRANCH   8  20
ATOM     20  C   UNL A   1      34.346  23.447  23.705  1.00  0.00    -0.013 A 
ATOM     21  C   UNL A   1      34.445  23.881  25.033  1.00  0.00     0.009 A 
ATOM     22  C   UNL A   1      35.494  22.963  23.072  1.00  0.00     0.009 A 
ATOM     23  C   UNL A   1      35.651  23.810  25.723  1.00  0.00     0.009 A 
ATOM     24  C   UNL A   1      36.701  22.862  23.785  1.00  0.00     0.009 A 
ATOM     25  C   UNL A   1      36.800  23.267  25.129  1.00  0.00    -0.015 A 
BRANCH  25  26
ATOM     26  C   UNL A   1      38.042  23.129  25.921  1.00  0.00     0.018 A 
ATOM     27  C   UNL A   1      38.568  24.239  26.618  1.00  0.00     0.015 A 
ATOM     28  C   UNL A   1      38.763  21.926  26.000  1.00  0.00     0.133 A 
ATOM     29  C   UNL A   1      39.769  24.154  27.326  1.00  0.00     0.040 A 
ATOM     30  C   UNL A   1      39.958  21.829  26.711  1.00  0.00     0.079 A 
ATOM     31  F   UNL A   1      38.326  20.827  25.366  1.00  0.00    -0.206 F 
ATOM     32  C   UNL A   1      40.453  22.949  27.361  1.00  0.00     0.126 A 
ATOM     33  F   UNL A   1      41.609  22.869  28.032  1.00  0.00    -0.207 F 
ENDBRANCH  25  26
ENDBRANCH   8  20
ENDBRANCH   5   8
ENDBRANCH   3   4
ENDBRANCH   2   3
ENDBRANCH   1   2
BRANCH   1  34
ATOM     34  C   UNL A   1      32.666  27.007  26.242  1.00  0.00     0.002 C 
BRANCH  34  35
ATOM     35  C   UNL A   1      33.247  27.534  24.928  1.00  0.00     0.021 C 
BRANCH  35  36
ATOM     36  C   UNL A   1      33.993  28.856  25.064  1.00  0.00     0.116 C 
BRANCH  36  37
ATOM     37  N   UNL A   1      33.149  29.897  25.629  1.00  0.00    -0.352 N 
ATOM     38  C   UNL A   1      33.343  30.633  26.771  1.00  0.00     0.251 C 
ATOM     39  H   UNL A   1      32.328  30.101  25.124  1.00  0.00     0.163 HD
ATOM     40  O   UNL A   1      32.444  31.329  27.228  1.00  0.00    -0.269 OA
BRANCH  38  41
ATOM     41  C   UNL A   1      34.649  30.565  27.458  1.00  0.00     0.039 A 
ATOM     42  C   UNL A   1      35.398  31.734  27.616  1.00  0.00     0.014 A 
ATOM     43  C   UNL A   1      35.124  29.345  27.949  1.00  0.00     0.014 A 
ATOM     44  C   UNL A   1      36.604  31.688  28.319  1.00  0.00     0.010 A 
ATOM     45  C   UNL A   1      36.291  29.316  28.704  1.00  0.00     0.010 A 
ATOM     46  C   UNL A   1      37.045  30.485  28.890  1.00  0.00    -0.014 A 
BRANCH  46  47
ATOM     47  C   UNL A   1      38.303  30.411  29.672  1.00  0.00     0.031 A 
ATOM     48  C   UNL A   1      39.488  29.680  29.105  1.00  0.00     0.074 A 
ATOM     49  C   UNL A   1      38.353  30.923  30.915  1.00  0.00     0.049 A 
ATOM     50  N   UNL A   1      40.631  29.391  29.672  1.00  0.00    -0.248 NA
ATOM     51  C   UNL A   1      39.357  29.184  27.726  1.00  0.00     0.031 C 
ATOM     52  C   UNL A   1      37.260  31.626  31.587  1.00  0.00     0.029 A 
ATOM     53  N   UNL A   1      39.363  30.914  31.844  1.00  0.00    -0.354 N 
ATOM     54  C   UNL A   1      41.344  28.662  28.730  1.00  0.00     0.074 A 
ATOM     55  C   UNL A   1      40.489  28.513  27.572  1.00  0.00     0.031 C 
ATOM     56  C   UNL A   1      37.661  31.993  32.815  1.00  0.00     0.029 A 
ATOM     57  C   UNL A   1      39.024  31.516  33.031  1.00  0.00     0.049 A 
ATOM     58  H   UNL A   1      40.247  30.513  31.675  1.00  0.00     0.167 HD
ATOM     59  C   UNL A   1      42.605  28.176  28.813  1.00  0.00     0.037 A 
ATOM     60  C   UNL A   1      39.729  31.655  34.169  1.00  0.00     0.037 A 
ATOM     61  C   UNL A   1      43.463  28.352  29.956  1.00  0.00     0.049 A 
ATOM     62  C   UNL A   1      41.125  31.098  34.244  1.00  0.00     0.074 A 
ATOM     63  C   UNL A   1      44.776  27.947  30.119  1.00  0.00     0.029 A 
ATOM     64  N   UNL A   1      43.091  28.988  31.130  1.00  0.00    -0.354 N 
ATOM     65  N   UNL A   1      41.806  30.454  33.328  1.00  0.00    -0.248 NA
ATOM     66  C   UNL A   1      41.848  31.289  35.508  1.00  0.00     0.031 C 
ATOM     67  C   UNL A   1      45.187  28.305  31.407  1.00  0.00     0.029 A 
ATOM     68  C   UNL A   1      44.144  28.972  32.029  1.00  0.00     0.049 A 
ATOM     69  H   UNL A   1      42.209  29.391  31.299  1.00  0.00     0.167 HD
ATOM     70  C   UNL A   1      43.047  30.191  33.891  1.00  0.00     0.074 A 
ATOM     71  C   UNL A   1      43.027  30.749  35.228  1.00  0.00     0.031 C 
ATOM     72  C   UNL A   1      44.110  29.548  33.349  1.00  0.00     0.037 A 
BRANCH  59  73
ATOM     73  C   UNL A   1      43.130  27.411  27.635  1.00  0.00     0.057 A 
ATOM     74  C   UNL A   1      43.674  28.058  26.517  1.00  0.00     0.134 A 
ATOM     75  C   UNL A   1      43.109  26.011  27.623  1.00  0.00     0.134 A 
ATOM     76  F   UNL A   1      43.712  29.399  26.459  1.00  0.00    -0.206 F 
ATOM     77  C   UNL A   1      44.152  27.342  25.419  1.00  0.00     0.040 A 
ATOM     78  C   UNL A   1      43.608  25.282  26.542  1.00  0.00     0.040 A 
ATOM     79  F   UNL A   1      42.607  25.329  28.663  1.00  0.00    -0.206 F 
ATOM     80  C   UNL A   1      44.124  25.949  25.432  1.00  0.00     0.006 A 
ENDBRANCH  59  73
BRANCH  60  81
ATOM     81  C   UNL A   1      39.136  32.372  35.326  1.00  0.00     0.057 A 
ATOM     82  C   UNL A   1      38.365  31.690  36.273  1.00  0.00     0.134 A 
ATOM     83  C   UNL A   1      39.326  33.746  35.514  1.00  0.00     0.134 A 
ATOM     84  F   UNL A   1      38.136  30.376  36.137  1.00  0.00    -0.206 F 
ATOM     85  C   UNL A   1      37.789  32.351  37.360  1.00  0.00     0.040 A 
ATOM     86  C   UNL A   1      38.774  34.416  36.608  1.00  0.00     0.040 A 
ATOM     87  F   UNL A   1      40.061  34.454  34.645  1.00  0.00    -0.206 F 
ATOM     88  C   UNL A   1      37.998  33.718  37.532  1.00  0.00     0.006 A 
ENDBRANCH  60  81
BRANCH  72  89
ATOM     89  C   UNL A   1      45.354  29.451  34.180  1.00  0.00     0.057 A 
ATOM     90  C   UNL A   1      45.601  28.359  35.019  1.00  0.00     0.134 A 
ATOM     91  C   UNL A   1      46.344  30.440  34.093  1.00  0.00     0.134 A 
ATOM     92  F   UNL A   1      44.686  27.386  35.155  1.00  0.00    -0.206 F 
ATOM     93  C   UNL A   1      46.783  28.258  35.753  1.00  0.00     0.040 A 
ATOM     94  C   UNL A   1      47.539  30.339  34.803  1.00  0.00     0.040 A 
ATOM     95  F   UNL A   1      46.170  31.509  33.300  1.00  0.00    -0.206 F 
ATOM     96  C   UNL A   1      47.760  29.246  35.639  1.00  0.00     0.006 A 
ENDBRANCH  72  89
ENDBRANCH  46  47
ENDBRANCH  38  41
ENDBRANCH  36  37
ENDBRANCH  35  36
ENDBRANCH  34  35
ENDBRANCH   1  34
TORSDOF 17
ENDMDL
MODEL 2
REMARK VINA RESULT:     -12.3      0.441      5.885
REMARK SMILES CS(=O)(=O)c1ccc(/C=C(/C(=O)NCCCCCCNC(=O)c2ccc(-c3c4nc(c(-c5c(F)cccc5F)c5ccc([nH]5)c(-c5c(F)cccc5F)c5nc(c(-c6c(F)cccc6F)c6ccc3[nH]6)C=C5)C=C4)cc2)c2ccc(-c3ccc(F)cc3F)cc2)cc1
REMARK SMILES IDX 16 1 15 2 14 3 13 4 11 5 12 6 10 8 9 9 8 10 5 11 6 12 92 13
REMARK SMILES IDX 7 14 91 15 2 16 1 17 3 18 4 19 77 20 78 21 90 22 79 23 89 24
REMARK SMILES IDX 80 25 81 26 82 27 87 28 83 29 86 30 88 31 84 32 85 33 17 34
REMARK SMILES IDX 18 35 19 36 20 37 21 38 22 40 23 41 24 42 76 43 25 44 75 45
REMARK SMILES IDX 26 46 27 47 28 48 69 49 29 50 74 51 68 52 70 53 30 54 73 55
REMARK SMILES IDX 67 56 66 57 31 59 57 60 40 61 56 62 41 63 44 64 55 65 71 66
REMARK SMILES IDX 42 67 43 68 54 70 72 71 45 72 32 73 33 74 38 75 34 76 35 77
REMARK SMILES IDX 37 78 39 79 36 80 58 81 59 82 64 83 60 84 61 85 63 86 65 87
REMARK SMILES IDX 62 88 46 89 47 90 52 91 48 92 49 93 51 94 53 95 50 96
REMARK H PARENT 13 7 20 39 70 58 44 69
REMARK Flexibility Score: inf
ROOT
ATOM      1  C   UNL A   1      31.740  25.759  26.065  1.00  0.00     0.002 C 
ENDROOT
BRANCH   1   2
ATOM      2  C   UNL A   1      30.630  26.140  25.071  1.00  0.00     0.021 C 
BRANCH   2   3
ATOM      3  C   UNL A   1      30.488  25.150  23.910  1.00  0.00     0.116 C 
BRANCH   3   4
ATOM      4  N   UNL A   1      31.609  25.307  23.009  1.00  0.00    -0.352 N 
ATOM      5  C   UNL A   1      32.770  24.638  22.810  1.00  0.00     0.251 C 
ATOM      6  O   UNL A   1      33.561  25.173  22.028  1.00  0.00    -0.269 OA
ATOM      7  H   UNL A   1      31.503  26.074  22.402  1.00  0.00     0.163 HD
BRANCH   5   8
ATOM      8  C   UNL A   1      33.080  23.277  23.401  1.00  0.00     0.047 C 
ATOM      9  C   UNL A   1      32.191  22.257  23.400  1.00  0.00     0.022 C 
BRANCH   9  10
ATOM     10  C   UNL A   1      32.378  20.840  23.792  1.00  0.00    -0.025 A 
ATOM     11  C   UNL A   1      32.883  18.126  24.339  1.00  0.00     0.067 A 
ATOM     12  C   UNL A   1      32.882  19.055  25.377  1.00  0.00     0.021 A 
ATOM     13  C   UNL A   1      32.589  18.531  23.035  1.00  0.00     0.021 A 
ATOM     14  C   UNL A   1      32.603  20.401  25.102  1.00  0.00     0.009 A 
ATOM     15  C   UNL A   1      32.338  19.880  22.767  1.00  0.00     0.009 A 
BRANCH  11  16
ATOM     16  S   UNL A   1      33.274  16.412  24.590  1.00  0.00     0.175 S 
ATOM     17  C   UNL A   1      34.782  16.338  25.512  1.00  0.00     0.163 C 
ATOM     18  O   UNL A   1      33.547  15.858  23.279  1.00  0.00    -0.224 OA
ATOM     19  O   UNL A   1      32.218  15.872  25.428  1.00  0.00    -0.224 OA
ENDBRANCH  11  16
ENDBRANCH   9  10
BRANCH   8  20
ATOM     20  C   UNL A   1      34.349  23.177  24.162  1.00  0.00    -0.013 A 
ATOM     21  C   UNL A   1      35.483  22.726  23.474  1.00  0.00     0.009 A 
ATOM     22  C   UNL A   1      34.488  23.564  25.498  1.00  0.00     0.009 A 
ATOM     23  C   UNL A   1      36.729  22.687  24.092  1.00  0.00     0.009 A 
ATOM     24  C   UNL A   1      35.755  23.555  26.106  1.00  0.00     0.009 A 
ATOM     25  C   UNL A   1      36.903  23.132  25.411  1.00  0.00    -0.015 A 
BRANCH  25  26
ATOM     26  C   UNL A   1      38.257  23.156  26.006  1.00  0.00     0.018 A 
ATOM     27  C   UNL A   1      38.795  24.365  26.499  1.00  0.00     0.015 A 
ATOM     28  C   UNL A   1      39.072  22.015  26.089  1.00  0.00     0.133 A 
ATOM     29  C   UNL A   1      40.092  24.431  27.014  1.00  0.00     0.040 A 
ATOM     30  C   UNL A   1      40.364  22.068  26.609  1.00  0.00     0.079 A 
ATOM     31  F   UNL A   1      38.630  20.829  25.643  1.00  0.00    -0.206 F 
ATOM     32  C   UNL A   1      40.864  23.280  27.059  1.00  0.00     0.126 A 
ATOM     33  F   UNL A   1      42.110  23.343  27.544  1.00  0.00    -0.207 F 
ENDBRANCH  25  26
ENDBRANCH   8  20
ENDBRANCH   5   8
ENDBRANCH   3   4
ENDBRANCH   2   3
ENDBRANCH   1   2
BRANCH   1  34
ATOM     34  C   UNL A   1      32.860  26.796  26.215  1.00  0.00     0.002 C 
BRANCH  34  35
ATOM     35  C   UNL A   1      32.988  27.772  25.043  1.00  0.00     0.021 C 
BRANCH  35  36
ATOM     36  C   UNL A   1      33.930  28.941  25.308  1.00  0.00     0.116 C 
BRANCH  36  37
ATOM     37  N   UNL A   1      33.225  30.088  25.857  1.00  0.00    -0.352 N 
ATOM     38  C   UNL A   1      33.535  30.833  26.968  1.00  0.00     0.251 C 
ATOM     39  H   UNL A   1      32.418  30.369  25.367  1.00  0.00     0.163 HD
ATOM     40  O   UNL A   1      32.733  31.641  27.424  1.00  0.00    -0.269 OA
BRANCH  38  41
ATOM     41  C   UNL A   1      34.844  30.639  27.623  1.00  0.00     0.039 A 
ATOM     42  C   UNL A   1      35.699  31.733  27.776  1.00  0.00     0.014 A 
ATOM     43  C   UNL A   1      35.217  29.375  28.091  1.00  0.00     0.014 A 
ATOM     44  C   UNL A   1      36.912  31.571  28.449  1.00  0.00     0.010 A 
ATOM     45  C   UNL A   1      36.394  29.231  28.817  1.00  0.00     0.010 A 
ATOM     46  C   UNL A   1      37.254  30.325  28.998  1.00  0.00    -0.014 A 
BRANCH  46  47
ATOM     47  C   UNL A   1      38.518  30.128  29.749  1.00  0.00     0.031 A 
ATOM     48  C   UNL A   1      38.649  30.677  31.142  1.00  0.00     0.074 A 
ATOM     49  C   UNL A   1      39.569  29.534  29.153  1.00  0.00     0.049 A 
ATOM     50  N   UNL A   1      39.701  30.726  31.917  1.00  0.00    -0.248 NA
ATOM     51  C   UNL A   1      37.440  31.278  31.728  1.00  0.00     0.031 C 
ATOM     52  C   UNL A   1      39.576  28.989  27.794  1.00  0.00     0.029 A 
ATOM     53  N   UNL A   1      40.843  29.308  29.609  1.00  0.00    -0.354 N 
ATOM     54  C   UNL A   1      39.289  31.380  33.070  1.00  0.00     0.074 A 
ATOM     55  C   UNL A   1      37.903  31.751  32.875  1.00  0.00     0.031 C 
ATOM     56  C   UNL A   1      40.790  28.478  27.532  1.00  0.00     0.029 A 
ATOM     57  C   UNL A   1      41.657  28.696  28.686  1.00  0.00     0.049 A 
ATOM     58  H   UNL A   1      41.144  29.559  30.512  1.00  0.00     0.167 HD
ATOM     59  C   UNL A   1      39.993  31.633  34.198  1.00  0.00     0.037 A 
ATOM     60  C   UNL A   1      42.959  28.363  28.760  1.00  0.00     0.037 A 
ATOM     61  C   UNL A   1      41.362  31.237  34.399  1.00  0.00     0.049 A 
ATOM     62  C   UNL A   1      43.726  28.663  30.019  1.00  0.00     0.074 A 
ATOM     63  C   UNL A   1      42.150  31.397  35.525  1.00  0.00     0.029 A 
ATOM     64  N   UNL A   1      42.145  30.599  33.449  1.00  0.00    -0.354 N 
ATOM     65  N   UNL A   1      43.310  29.238  31.121  1.00  0.00    -0.248 NA
ATOM     66  C   UNL A   1      45.141  28.268  30.043  1.00  0.00     0.031 C 
ATOM     67  C   UNL A   1      43.422  30.889  35.244  1.00  0.00     0.029 A 
ATOM     68  C   UNL A   1      43.413  30.374  33.958  1.00  0.00     0.049 A 
ATOM     69  H   UNL A   1      41.845  30.345  32.547  1.00  0.00     0.167 HD
ATOM     70  C   UNL A   1      44.399  29.244  31.981  1.00  0.00     0.074 A 
ATOM     71  C   UNL A   1      45.494  28.612  31.274  1.00  0.00     0.031 C 
ATOM     72  C   UNL A   1      44.485  29.727  33.244  1.00  0.00     0.037 A 
BRANCH  59  73
ATOM     73  C   UNL A   1      39.292  32.372  35.300  1.00  0.00     0.057 A 
ATOM     74  C   UNL A   1      38.510  31.706  36.253  1.00  0.00     0.134 A 
ATOM     75  C   UNL A   1      39.414  33.761  35.421  1.00  0.00     0.134 A 
ATOM     76  F   UNL A   1      38.340  30.376  36.185  1.00  0.00    -0.206 F 
ATOM     77  C   UNL A   1      37.851  32.398  37.270  1.00  0.00     0.040 A 
ATOM     78  C   UNL A   1      38.783  34.462  36.450  1.00  0.00     0.040 A 
ATOM     79  F   UNL A   1      40.153  34.459  34.545  1.00  0.00    -0.206 F 
ATOM     80  C   UNL A   1      37.992  33.781  37.374  1.00  0.00     0.006 A 
ENDBRANCH  59  73
BRANCH  60  81
ATOM     81  C   UNL A   1      43.617  27.685  27.615  1.00  0.00     0.057 A 
ATOM     82  C   UNL A   1      43.684  26.289  27.550  1.00  0.00     0.134 A 
ATOM     83  C   UNL A   1      44.189  28.411  26.563  1.00  0.00     0.134 A 
ATOM     84  F   UNL A   1      43.168  25.542  28.536  1.00  0.00    -0.206 F 
ATOM     85  C   UNL A   1      44.310  25.636  26.486  1.00  0.00     0.040 A 
ATOM     86  C   UNL A   1      44.799  27.771  25.483  1.00  0.00     0.040 A 
ATOM     87  F   UNL A   1      44.150  29.750  26.564  1.00  0.00    -0.206 F 
ATOM     88  C   UNL A   1      44.866  26.379  25.446  1.00  0.00     0.006 A 
ENDBRANCH  60  81
BRANCH  72  89
ATOM     89  C   UNL A   1      45.789  29.552  33.963  1.00  0.00     0.057 A 
ATOM     90  C   UNL A   1      46.840  30.465  33.824  1.00  0.00     0.134 A 
ATOM     91  C   UNL A   1      45.972  28.483  34.851  1.00  0.00     0.134 A 
ATOM     92  F   UNL A   1      46.731  31.503  32.979  1.00  0.00    -0.206 F 
ATOM     93  C   UNL A   1      48.033  30.317  34.532  1.00  0.00     0.040 A 
ATOM     94  C   UNL A   1      47.150  28.336  35.582  1.00  0.00     0.040 A 
ATOM     95  F   UNL A   1      44.999  27.576  35.034  1.00  0.00    -0.206 F 
ATOM     96  C   UNL A   1      48.186  29.253  35.421  1.00  0.00     0.006 A 
ENDBRANCH  72  89
ENDBRANCH  46  47
ENDBRANCH  38  41
ENDBRANCH  36  37
ENDBRANCH  35  36
ENDBRANCH  34  35
ENDBRANCH   1  34
TORSDOF 17
ENDMDL
MODEL 3
REMARK VINA RESULT:     -12.2      1.370      5.910
REMARK SMILES CS(=O)(=O)c1ccc(/C=C(/C(=O)NCCCCCCNC(=O)c2ccc(-c3c4nc(c(-c5c(F)cccc5F)c5ccc([nH]5)c(-c5c(F)cccc5F)c5nc(c(-c6c(F)cccc6F)c6ccc3[nH]6)C=C5)C=C4)cc2)c2ccc(-c3ccc(F)cc3F)cc2)cc1
REMARK SMILES IDX 16 1 15 2 14 3 13 4 11 5 12 6 10 8 9 9 8 10 5 11 6 12 92 13
REMARK SMILES IDX 7 14 91 15 2 16 1 17 3 18 4 19 77 20 78 21 90 22 79 23 89 24
REMARK SMILES IDX 80 25 81 26 82 27 87 28 83 29 86 30 88 31 84 32 85 33 17 34
REMARK SMILES IDX 18 35 19 36 20 37 21 38 22 40 23 41 24 42 76 43 25 44 75 45
REMARK SMILES IDX 26 46 27 47 28 48 69 49 29 50 74 51 68 52 70 53 30 54 73 55
REMARK SMILES IDX 67 56 66 57 31 59 57 60 40 61 56 62 41 63 44 64 55 65 71 66
REMARK SMILES IDX 42 67 43 68 54 70 72 71 45 72 32 73 33 74 38 75 34 76 35 77
REMARK SMILES IDX 37 78 39 79 36 80 58 81 59 82 64 83 60 84 61 85 63 86 65 87
REMARK SMILES IDX 62 88 46 89 47 90 52 91 48 92 49 93 51 94 53 95 50 96
REMARK H PARENT 13 7 20 39 70 58 44 69
REMARK Flexibility Score: inf
ROOT
ATOM      1  C   UNL A   1      31.863  28.047  25.018  1.00  0.00     0.002 C 
ENDROOT
BRANCH   1   2
ATOM      2  C   UNL A   1      30.672  27.097  24.804  1.00  0.00     0.021 C 
BRANCH   2   3
ATOM      3  C   UNL A   1      31.093  25.660  24.477  1.00  0.00     0.116 C 
BRANCH   3   4
ATOM      4  N   UNL A   1      31.696  25.627  23.162  1.00  0.00    -0.352 N 
ATOM      5  C   UNL A   1      32.591  24.816  22.547  1.00  0.00     0.251 C 
ATOM      6  O   UNL A   1      32.982  25.204  21.442  1.00  0.00    -0.269 OA
ATOM      7  H   UNL A   1      31.386  26.360  22.583  1.00  0.00     0.163 HD
BRANCH   5   8
ATOM      8  C   UNL A   1      33.031  23.471  23.088  1.00  0.00     0.047 C 
ATOM      9  C   UNL A   1      32.209  22.397  23.144  1.00  0.00     0.022 C 
BRANCH   9  10
ATOM     10  C   UNL A   1      32.514  20.991  23.495  1.00  0.00    -0.025 A 
ATOM     11  C   UNL A   1      33.183  18.292  23.933  1.00  0.00     0.067 A 
ATOM     12  C   UNL A   1      33.457  19.243  24.914  1.00  0.00     0.021 A 
ATOM     13  C   UNL A   1      32.537  18.668  22.753  1.00  0.00     0.021 A 
ATOM     14  C   UNL A   1      33.096  20.581  24.701  1.00  0.00     0.009 A 
ATOM     15  C   UNL A   1      32.206  20.009  22.539  1.00  0.00     0.009 A 
BRANCH  11  16
ATOM     16  S   UNL A   1      33.650  16.587  24.098  1.00  0.00     0.175 S 
ATOM     17  C   UNL A   1      35.083  16.523  25.134  1.00  0.00     0.163 C 
ATOM     18  O   UNL A   1      34.056  16.144  22.780  1.00  0.00    -0.224 OA
ATOM     19  O   UNL A   1      32.564  15.935  24.808  1.00  0.00    -0.224 OA
ENDBRANCH  11  16
ENDBRANCH   9  10
BRANCH   8  20
ATOM     20  C   UNL A   1      34.364  23.441  23.738  1.00  0.00    -0.013 A 
ATOM     21  C   UNL A   1      34.444  23.866  25.070  1.00  0.00     0.009 A 
ATOM     22  C   UNL A   1      35.520  22.957  23.119  1.00  0.00     0.009 A 
ATOM     23  C   UNL A   1      35.640  23.786  25.778  1.00  0.00     0.009 A 
ATOM     24  C   UNL A   1      36.716  22.847  23.849  1.00  0.00     0.009 A 
ATOM     25  C   UNL A   1      36.796  23.244  25.197  1.00  0.00    -0.015 A 
BRANCH  25  26
ATOM     26  C   UNL A   1      38.026  23.096  26.006  1.00  0.00     0.018 A 
ATOM     27  C   UNL A   1      38.483  24.167  26.806  1.00  0.00     0.015 A 
ATOM     28  C   UNL A   1      38.802  21.925  26.004  1.00  0.00     0.133 A 
ATOM     29  C   UNL A   1      39.671  24.077  27.536  1.00  0.00     0.040 A 
ATOM     30  C   UNL A   1      39.984  21.823  26.735  1.00  0.00     0.079 A 
ATOM     31  F   UNL A   1      38.431  20.865  25.270  1.00  0.00    -0.206 F 
ATOM     32  C   UNL A   1      40.411  22.906  27.488  1.00  0.00     0.126 A 
ATOM     33  F   UNL A   1      41.554  22.823  28.180  1.00  0.00    -0.207 F 
ENDBRANCH  25  26
ENDBRANCH   8  20
ENDBRANCH   5   8
ENDBRANCH   3   4
ENDBRANCH   2   3
ENDBRANCH   1   2
BRANCH   1  34
ATOM     34  C   UNL A   1      32.005  28.598  26.442  1.00  0.00     0.002 C 
BRANCH  34  35
ATOM     35  C   UNL A   1      31.758  30.103  26.573  1.00  0.00     0.021 C 
BRANCH  35  36
ATOM     36  C   UNL A   1      32.961  30.888  27.085  1.00  0.00     0.116 C 
BRANCH  36  37
ATOM     37  N   UNL A   1      32.645  32.294  27.279  1.00  0.00    -0.352 N 
ATOM     38  C   UNL A   1      33.285  33.215  28.071  1.00  0.00     0.251 C 
ATOM     39  H   UNL A   1      31.869  32.630  26.775  1.00  0.00     0.163 HD
ATOM     40  O   UNL A   1      32.779  34.309  28.291  1.00  0.00    -0.269 OA
BRANCH  38  41
ATOM     41  C   UNL A   1      34.587  32.866  28.673  1.00  0.00     0.039 A 
ATOM     42  C   UNL A   1      34.628  31.954  29.731  1.00  0.00     0.014 A 
ATOM     43  C   UNL A   1      35.766  33.438  28.182  1.00  0.00     0.014 A 
ATOM     44  C   UNL A   1      35.861  31.573  30.264  1.00  0.00     0.010 A 
ATOM     45  C   UNL A   1      36.994  33.007  28.671  1.00  0.00     0.010 A 
ATOM     46  C   UNL A   1      37.053  32.077  29.720  1.00  0.00    -0.014 A 
BRANCH  46  47
ATOM     47  C   UNL A   1      38.379  31.665  30.240  1.00  0.00     0.031 A 
ATOM     48  C   UNL A   1      38.916  32.299  31.493  1.00  0.00     0.074 A 
ATOM     49  C   UNL A   1      39.131  30.790  29.547  1.00  0.00     0.049 A 
ATOM     50  N   UNL A   1      40.097  32.176  32.042  1.00  0.00    -0.248 NA
ATOM     51  C   UNL A   1      38.012  33.215  32.205  1.00  0.00     0.031 C 
ATOM     52  C   UNL A   1      38.734  30.132  28.301  1.00  0.00     0.029 A 
ATOM     53  N   UNL A   1      40.398  30.319  29.783  1.00  0.00    -0.354 N 
ATOM     54  C   UNL A   1      40.086  33.015  33.148  1.00  0.00     0.074 A 
ATOM     55  C   UNL A   1      38.798  33.676  33.167  1.00  0.00     0.031 C 
ATOM     56  C   UNL A   1      39.731  29.331  27.890  1.00  0.00     0.029 A 
ATOM     57  C   UNL A   1      40.851  29.451  28.819  1.00  0.00     0.049 A 
ATOM     58  H   UNL A   1      40.932  30.578  30.569  1.00  0.00     0.167 HD
ATOM     59  C   UNL A   1      41.052  33.203  34.077  1.00  0.00     0.037 A 
ATOM     60  C   UNL A   1      42.041  28.834  28.693  1.00  0.00     0.037 A 
ATOM     61  C   UNL A   1      42.320  32.522  34.071  1.00  0.00     0.049 A 
ATOM     62  C   UNL A   1      43.105  29.067  29.730  1.00  0.00     0.074 A 
ATOM     63  C   UNL A   1      43.346  32.602  34.996  1.00  0.00     0.029 A 
ATOM     64  N   UNL A   1      42.732  31.633  33.090  1.00  0.00    -0.354 N 
ATOM     65  N   UNL A   1      43.063  29.825  30.799  1.00  0.00    -0.248 NA
ATOM     66  C   UNL A   1      44.379  28.359  29.544  1.00  0.00     0.031 C 
ATOM     67  C   UNL A   1      44.396  31.789  34.555  1.00  0.00     0.029 A 
ATOM     68  C   UNL A   1      44.005  31.170  33.379  1.00  0.00     0.049 A 
ATOM     69  H   UNL A   1      42.199  31.371  32.305  1.00  0.00     0.167 HD
ATOM     70  C   UNL A   1      44.288  29.660  31.430  1.00  0.00     0.074 A 
ATOM     71  C   UNL A   1      45.052  28.728  30.626  1.00  0.00     0.031 C 
ATOM     72  C   UNL A   1      44.741  30.228  32.574  1.00  0.00     0.037 A 
BRANCH  59  73
ATOM     73  C   UNL A   1      40.772  34.185  35.176  1.00  0.00     0.057 A 
ATOM     74  C   UNL A   1      41.091  35.544  35.051  1.00  0.00     0.134 A 
ATOM     75  C   UNL A   1      40.159  33.773  36.366  1.00  0.00     0.134 A 
ATOM     76  F   UNL A   1      41.692  36.002  33.942  1.00  0.00    -0.206 F 
ATOM     77  C   UNL A   1      40.837  36.452  36.080  1.00  0.00     0.040 A 
ATOM     78  C   UNL A   1      39.875  34.676  37.392  1.00  0.00     0.040 A 
ATOM     79  F   UNL A   1      39.822  32.487  36.548  1.00  0.00    -0.206 F 
ATOM     80  C   UNL A   1      40.222  36.019  37.253  1.00  0.00     0.006 A 
ENDBRANCH  59  73
BRANCH  60  81
ATOM     81  C   UNL A   1      42.283  27.917  27.551  1.00  0.00     0.057 A 
ATOM     82  C   UNL A   1      42.533  28.419  26.269  1.00  0.00     0.134 A 
ATOM     83  C   UNL A   1      42.273  26.527  27.711  1.00  0.00     0.134 A 
ATOM     84  F   UNL A   1      42.540  29.743  26.052  1.00  0.00    -0.206 F 
ATOM     85  C   UNL A   1      42.751  27.572  25.182  1.00  0.00     0.040 A 
ATOM     86  C   UNL A   1      42.510  25.667  26.637  1.00  0.00     0.040 A 
ATOM     87  F   UNL A   1      42.046  25.984  28.915  1.00  0.00    -0.206 F 
ATOM     88  C   UNL A   1      42.744  26.190  25.365  1.00  0.00     0.006 A 
ENDBRANCH  60  81
BRANCH  72  89
ATOM     89  C   UNL A   1      46.104  29.825  33.052  1.00  0.00     0.057 A 
ATOM     90  C   UNL A   1      46.298  28.716  33.883  1.00  0.00     0.134 A 
ATOM     91  C   UNL A   1      47.241  30.524  32.626  1.00  0.00     0.134 A 
ATOM     92  F   UNL A   1      45.248  28.013  34.335  1.00  0.00    -0.206 F 
ATOM     93  C   UNL A   1      47.575  28.322  34.284  1.00  0.00     0.040 A 
ATOM     94  C   UNL A   1      48.524  30.127  33.001  1.00  0.00     0.040 A 
ATOM     95  F   UNL A   1      47.122  31.592  31.823  1.00  0.00    -0.206 F 
ATOM     96  C   UNL A   1      48.693  29.024  33.836  1.00  0.00     0.006 A 
ENDBRANCH  72  89
ENDBRANCH  46  47
ENDBRANCH  38  41
ENDBRANCH  36  37
ENDBRANCH  35  36
ENDBRANCH  34  35
ENDBRANCH   1  34
TORSDOF 17
ENDMDL
