MODEL 1
REMARK VINA RESULT:     -13.0      0.000      0.000
REMARK SMILES C[C@H](C(=O)NCCCCCCNC(=O)c1ccc(-c2c3nc(c(-c4c(F)cccc4F)c4ccc([nH]4)c(-c4c(F)cccc4F)c4nc(c(-c5c(F)cccc5F)c5ccc2[nH]5)C=C4)C=C3)cc1)c1ccc2c3cc(Cl)ccc3n(C(=O)c3ccc(Cl)cc3)c2c1
REMARK SMILES IDX 8 1 7 2 6 3 5 4 3 5 4 6 2 8 1 9 69 10 70 11 91 12 71 13
REMARK SMILES IDX 90 14 72 15 80 16 73 17 79 18 74 19 78 20 75 21 77 22 76 23
REMARK SMILES IDX 81 24 82 25 83 26 84 27 89 28 85 29 88 30 86 31 87 32 9 33
REMARK SMILES IDX 10 34 11 35 12 36 13 37 14 39 15 40 16 41 68 42 17 43 67 44
REMARK SMILES IDX 18 45 19 46 20 47 61 48 21 49 66 50 60 51 62 52 22 53 65 54
REMARK SMILES IDX 59 55 58 56 23 58 49 59 32 60 48 61 33 62 36 63 47 64 63 65
REMARK SMILES IDX 34 66 35 67 46 69 64 70 37 71 24 72 25 73 30 74 26 75 27 76
REMARK SMILES IDX 29 77 31 78 28 79 50 80 51 81 56 82 52 83 53 84 55 85 57 86
REMARK SMILES IDX 54 87 38 88 39 89 44 90 40 91 41 92 43 93 45 94 42 95
REMARK H PARENT 5 7 12 38 62 57 36 68
REMARK Flexibility Score: inf
ROOT
ATOM      1  C   UNL A   1      30.250  29.102  23.814  1.00  0.00     0.002 C 
ENDROOT
BRANCH   1   2
ATOM      2  C   UNL A   1      30.723  28.137  22.719  1.00  0.00     0.021 C 
BRANCH   2   3
ATOM      3  C   UNL A   1      30.354  26.675  22.978  1.00  0.00     0.116 C 
BRANCH   3   4
ATOM      4  N   UNL A   1      29.887  26.478  24.337  1.00  0.00    -0.356 N 
ATOM      5  C   UNL A   1      30.553  26.037  25.446  1.00  0.00     0.227 C 
ATOM      6  O   UNL A   1      29.900  25.903  26.484  1.00  0.00    -0.274 OA
ATOM      7  H   UNL A   1      28.939  26.696  24.484  1.00  0.00     0.163 HD
BRANCH   5   8
ATOM      8  C   UNL A   1      32.053  25.719  25.376  1.00  0.00     0.105 C 
ATOM      9  C   UNL A   1      32.792  26.432  26.513  1.00  0.00     0.023 C 
BRANCH   8  10
ATOM     10  C   UNL A   1      32.282  24.213  25.365  1.00  0.00    -0.034 A 
ATOM     11  C   UNL A   1      31.243  23.297  25.523  1.00  0.00     0.005 A 
ATOM     12  C   UNL A   1      33.575  23.731  25.110  1.00  0.00     0.032 A 
ATOM     13  C   UNL A   1      31.473  21.923  25.385  1.00  0.00     0.011 A 
ATOM     14  C   UNL A   1      33.810  22.349  24.941  1.00  0.00     0.057 A 
ATOM     15  C   UNL A   1      32.762  21.446  25.059  1.00  0.00     0.008 A 
ATOM     16  N   UNL A   1      34.980  21.644  24.595  1.00  0.00    -0.276 N 
ATOM     17  C   UNL A   1      33.295  20.150  24.838  1.00  0.00     0.009 A 
ATOM     18  C   UNL A   1      34.683  20.274  24.659  1.00  0.00     0.057 A 
ATOM     19  C   UNL A   1      32.694  18.872  24.842  1.00  0.00     0.031 A 
ATOM     20  C   UNL A   1      35.493  19.121  24.636  1.00  0.00     0.029 A 
ATOM     21  C   UNL A   1      33.495  17.740  24.758  1.00  0.00     0.041 A 
ATOM     22  C   UNL A   1      34.877  17.860  24.686  1.00  0.00     0.023 A 
ATOM     23  Cl  UNL A   1      32.763  16.184  24.791  1.00  0.00    -0.084 Cl
BRANCH  16  24
ATOM     24  C   UNL A   1      36.208  22.296  24.276  1.00  0.00     0.262 C 
ATOM     25  O   UNL A   1      36.305  22.727  23.123  1.00  0.00    -0.268 OA
BRANCH  24  26
ATOM     26  C   UNL A   1      37.451  22.489  25.084  1.00  0.00     0.040 A 
ATOM     27  C   UNL A   1      38.276  21.350  25.241  1.00  0.00     0.015 A 
ATOM     28  C   UNL A   1      37.757  23.631  25.828  1.00  0.00     0.015 A 
ATOM     29  C   UNL A   1      39.365  21.344  26.113  1.00  0.00     0.021 A 
ATOM     30  C   UNL A   1      38.875  23.635  26.683  1.00  0.00     0.021 A 
ATOM     31  C   UNL A   1      39.662  22.491  26.833  1.00  0.00     0.041 A 
ATOM     32  Cl  UNL A   1      40.972  22.479  27.948  1.00  0.00    -0.084 Cl
ENDBRANCH  24  26
ENDBRANCH  16  24
ENDBRANCH   8  10
ENDBRANCH   5   8
ENDBRANCH   3   4
ENDBRANCH   2   3
ENDBRANCH   1   2
BRANCH   1  33
ATOM     33  C   UNL A   1      31.346  29.589  24.770  1.00  0.00     0.002 C 
BRANCH  33  34
ATOM     34  C   UNL A   1      31.026  30.885  25.519  1.00  0.00     0.021 C 
BRANCH  34  35
ATOM     35  C   UNL A   1      32.047  31.269  26.587  1.00  0.00     0.116 C 
BRANCH  35  36
ATOM     36  N   UNL A   1      31.990  32.686  26.915  1.00  0.00    -0.352 N 
ATOM     37  C   UNL A   1      32.817  33.438  27.713  1.00  0.00     0.251 C 
ATOM     38  H   UNL A   1      31.245  33.180  26.503  1.00  0.00     0.163 HD
ATOM     39  O   UNL A   1      32.493  34.574  28.038  1.00  0.00    -0.269 OA
BRANCH  37  40
ATOM     40  C   UNL A   1      34.092  32.869  28.201  1.00  0.00     0.039 A 
ATOM     41  C   UNL A   1      35.204  33.708  28.306  1.00  0.00     0.014 A 
ATOM     42  C   UNL A   1      34.194  31.520  28.550  1.00  0.00     0.014 A 
ATOM     43  C   UNL A   1      36.398  33.209  28.833  1.00  0.00     0.010 A 
ATOM     44  C   UNL A   1      35.363  31.042  29.139  1.00  0.00     0.010 A 
ATOM     45  C   UNL A   1      36.472  31.886  29.298  1.00  0.00    -0.014 A 
BRANCH  45  46
ATOM     46  C   UNL A   1      37.688  31.389  29.994  1.00  0.00     0.031 A 
ATOM     47  C   UNL A   1      38.652  30.471  29.296  1.00  0.00     0.074 A 
ATOM     48  C   UNL A   1      37.884  31.718  31.288  1.00  0.00     0.049 A 
ATOM     49  N   UNL A   1      39.730  29.897  29.766  1.00  0.00    -0.248 NA
ATOM     50  C   UNL A   1      38.360  30.139  27.892  1.00  0.00     0.031 C 
ATOM     51  C   UNL A   1      36.996  32.562  32.091  1.00  0.00     0.029 A 
ATOM     52  N   UNL A   1      38.888  31.373  32.159  1.00  0.00    -0.354 N 
ATOM     53  C   UNL A   1      40.238  29.131  28.725  1.00  0.00     0.074 A 
ATOM     54  C   UNL A   1      39.328  29.279  27.609  1.00  0.00     0.031 C 
ATOM     55  C   UNL A   1      37.502  32.683  33.328  1.00  0.00     0.029 A 
ATOM     56  C   UNL A   1      38.724  31.892  33.422  1.00  0.00     0.049 A 
ATOM     57  H   UNL A   1      39.653  30.809  31.904  1.00  0.00     0.167 HD
ATOM     58  C   UNL A   1      41.368  28.386  28.698  1.00  0.00     0.037 A 
ATOM     59  C   UNL A   1      39.464  31.734  34.536  1.00  0.00     0.037 A 
ATOM     60  C   UNL A   1      42.283  28.258  29.803  1.00  0.00     0.049 A 
ATOM     61  C   UNL A   1      40.702  30.881  34.477  1.00  0.00     0.074 A 
ATOM     62  C   UNL A   1      43.491  27.584  29.844  1.00  0.00     0.029 A 
ATOM     63  N   UNL A   1      42.086  28.803  31.062  1.00  0.00    -0.354 N 
ATOM     64  N   UNL A   1      41.215  30.235  33.459  1.00  0.00    -0.248 NA
ATOM     65  C   UNL A   1      41.467  30.736  35.725  1.00  0.00     0.031 C 
ATOM     66  C   UNL A   1      43.997  27.671  31.144  1.00  0.00     0.029 A 
ATOM     67  C   UNL A   1      43.133  28.449  31.897  1.00  0.00     0.049 A 
ATOM     68  H   UNL A   1      41.317  29.358  31.324  1.00  0.00     0.167 HD
ATOM     69  C   UNL A   1      42.373  29.634  33.934  1.00  0.00     0.074 A 
ATOM     70  C   UNL A   1      42.500  30.009  35.326  1.00  0.00     0.031 C 
ATOM     71  C   UNL A   1      43.250  28.835  33.279  1.00  0.00     0.037 A 
BRANCH  58  72
ATOM     72  C   UNL A   1      41.696  27.645  27.434  1.00  0.00     0.057 A 
ATOM     73  C   UNL A   1      42.345  28.266  26.360  1.00  0.00     0.134 A 
ATOM     74  C   UNL A   1      41.441  26.271  27.327  1.00  0.00     0.134 A 
ATOM     75  F   UNL A   1      42.611  29.581  26.395  1.00  0.00    -0.206 F 
ATOM     76  C   UNL A   1      42.722  27.550  25.222  1.00  0.00     0.040 A 
ATOM     77  C   UNL A   1      41.836  25.540  26.206  1.00  0.00     0.040 A 
ATOM     78  F   UNL A   1      40.829  25.612  28.323  1.00  0.00    -0.206 F 
ATOM     79  C   UNL A   1      42.477  26.181  25.149  1.00  0.00     0.006 A 
ENDBRANCH  58  72
BRANCH  59  80
ATOM     80  C   UNL A   1      39.056  32.380  35.811  1.00  0.00     0.057 A 
ATOM     81  C   UNL A   1      38.256  31.706  36.742  1.00  0.00     0.134 A 
ATOM     82  C   UNL A   1      39.412  33.701  36.106  1.00  0.00     0.134 A 
ATOM     83  F   UNL A   1      37.865  30.445  36.508  1.00  0.00    -0.206 F 
ATOM     84  C   UNL A   1      37.796  32.333  37.901  1.00  0.00     0.040 A 
ATOM     85  C   UNL A   1      38.986  34.330  37.278  1.00  0.00     0.040 A 
ATOM     86  F   UNL A   1      40.182  34.401  35.261  1.00  0.00    -0.206 F 
ATOM     87  C   UNL A   1      38.163  33.650  38.172  1.00  0.00     0.006 A 
ENDBRANCH  59  80
BRANCH  71  88
ATOM     88  C   UNL A   1      44.441  28.342  34.051  1.00  0.00     0.057 A 
ATOM     89  C   UNL A   1      44.440  27.098  34.695  1.00  0.00     0.134 A 
ATOM     90  C   UNL A   1      45.612  29.106  34.123  1.00  0.00     0.134 A 
ATOM     91  F   UNL A   1      43.345  26.322  34.677  1.00  0.00    -0.206 F 
ATOM     92  C   UNL A   1      45.553  26.644  35.406  1.00  0.00     0.040 A 
ATOM     93  C   UNL A   1      46.741  28.650  34.804  1.00  0.00     0.040 A 
ATOM     94  F   UNL A   1      45.684  30.303  33.520  1.00  0.00    -0.206 F 
ATOM     95  C   UNL A   1      46.710  27.419  35.455  1.00  0.00     0.006 A 
ENDBRANCH  71  88
ENDBRANCH  45  46
ENDBRANCH  37  40
ENDBRANCH  35  36
ENDBRANCH  34  35
ENDBRANCH  33  34
ENDBRANCH   1  33
TORSDOF 16
ENDMDL
MODEL 2
REMARK VINA RESULT:     -12.7      1.291      5.986
REMARK SMILES C[C@H](C(=O)NCCCCCCNC(=O)c1ccc(-c2c3nc(c(-c4c(F)cccc4F)c4ccc([nH]4)c(-c4c(F)cccc4F)c4nc(c(-c5c(F)cccc5F)c5ccc2[nH]5)C=C4)C=C3)cc1)c1ccc2c3cc(Cl)ccc3n(C(=O)c3ccc(Cl)cc3)c2c1
REMARK SMILES IDX 8 1 7 2 6 3 5 4 3 5 4 6 2 8 1 9 69 10 70 11 91 12 71 13
REMARK SMILES IDX 90 14 72 15 80 16 73 17 79 18 74 19 78 20 75 21 77 22 76 23
REMARK SMILES IDX 81 24 82 25 83 26 84 27 89 28 85 29 88 30 86 31 87 32 9 33
REMARK SMILES IDX 10 34 11 35 12 36 13 37 14 39 15 40 16 41 68 42 17 43 67 44
REMARK SMILES IDX 18 45 19 46 20 47 61 48 21 49 66 50 60 51 62 52 22 53 65 54
REMARK SMILES IDX 59 55 58 56 23 58 49 59 32 60 48 61 33 62 36 63 47 64 63 65
REMARK SMILES IDX 34 66 35 67 46 69 64 70 37 71 24 72 25 73 30 74 26 75 27 76
REMARK SMILES IDX 29 77 31 78 28 79 50 80 51 81 56 82 52 83 53 84 55 85 57 86
REMARK SMILES IDX 54 87 38 88 39 89 44 90 40 91 41 92 43 93 45 94 42 95
REMARK H PARENT 5 7 12 38 62 57 36 68
REMARK Flexibility Score: inf
ROOT
ATOM      1  C   UNL A   1      30.631  29.304  23.966  1.00  0.00     0.002 C 
ENDROOT
BRANCH   1   2
ATOM      2  C   UNL A   1      30.826  28.147  22.978  1.00  0.00     0.021 C 
BRANCH   2   3
ATOM      3  C   UNL A   1      30.084  26.867  23.366  1.00  0.00     0.116 C 
BRANCH   3   4
ATOM      4  N   UNL A   1      30.022  26.705  24.807  1.00  0.00    -0.356 N 
ATOM      5  C   UNL A   1      30.960  26.245  25.687  1.00  0.00     0.227 C 
ATOM      6  O   UNL A   1      30.630  26.152  26.872  1.00  0.00    -0.274 OA
ATOM      7  H   UNL A   1      29.166  26.970  25.216  1.00  0.00     0.163 HD
BRANCH   5   8
ATOM      8  C   UNL A   1      32.360  25.854  25.195  1.00  0.00     0.105 C 
ATOM      9  C   UNL A   1      33.426  26.595  26.010  1.00  0.00     0.023 C 
BRANCH   8  10
ATOM     10  C   UNL A   1      32.535  24.342  25.217  1.00  0.00    -0.034 A 
ATOM     11  C   UNL A   1      31.460  23.466  25.361  1.00  0.00     0.005 A 
ATOM     12  C   UNL A   1      33.816  23.808  25.007  1.00  0.00     0.032 A 
ATOM     13  C   UNL A   1      31.643  22.083  25.253  1.00  0.00     0.011 A 
ATOM     14  C   UNL A   1      34.005  22.417  24.869  1.00  0.00     0.057 A 
ATOM     15  C   UNL A   1      32.922  21.554  24.973  1.00  0.00     0.008 A 
ATOM     16  N   UNL A   1      35.158  21.664  24.568  1.00  0.00    -0.276 N 
ATOM     17  C   UNL A   1      33.414  20.236  24.789  1.00  0.00     0.009 A 
ATOM     18  C   UNL A   1      34.809  20.307  24.647  1.00  0.00     0.057 A 
ATOM     19  C   UNL A   1      32.766  18.981  24.798  1.00  0.00     0.031 A 
ATOM     20  C   UNL A   1      35.578  19.125  24.667  1.00  0.00     0.029 A 
ATOM     21  C   UNL A   1      33.528  17.819  24.756  1.00  0.00     0.041 A 
ATOM     22  C   UNL A   1      34.915  17.888  24.722  1.00  0.00     0.023 A 
ATOM     23  Cl  UNL A   1      32.739  16.291  24.795  1.00  0.00    -0.084 Cl
BRANCH  16  24
ATOM     24  C   UNL A   1      36.418  22.265  24.273  1.00  0.00     0.262 C 
ATOM     25  O   UNL A   1      36.591  22.602  23.098  1.00  0.00    -0.268 OA
BRANCH  24  26
ATOM     26  C   UNL A   1      37.616  22.498  25.136  1.00  0.00     0.040 A 
ATOM     27  C   UNL A   1      38.461  21.382  25.343  1.00  0.00     0.015 A 
ATOM     28  C   UNL A   1      37.858  23.654  25.882  1.00  0.00     0.015 A 
ATOM     29  C   UNL A   1      39.508  21.412  26.265  1.00  0.00     0.021 A 
ATOM     30  C   UNL A   1      38.934  23.696  26.787  1.00  0.00     0.021 A 
ATOM     31  C   UNL A   1      39.742  22.573  26.987  1.00  0.00     0.041 A 
ATOM     32  Cl  UNL A   1      40.997  22.606  28.161  1.00  0.00    -0.084 Cl
ENDBRANCH  24  26
ENDBRANCH  16  24
ENDBRANCH   8  10
ENDBRANCH   5   8
ENDBRANCH   3   4
ENDBRANCH   2   3
ENDBRANCH   1   2
BRANCH   1  33
ATOM     33  C   UNL A   1      31.896  29.743  24.713  1.00  0.00     0.002 C 
BRANCH  33  34
ATOM     34  C   UNL A   1      31.734  29.907  26.226  1.00  0.00     0.021 C 
BRANCH  34  35
ATOM     35  C   UNL A   1      32.833  30.726  26.897  1.00  0.00     0.116 C 
BRANCH  35  36
ATOM     36  N   UNL A   1      32.453  32.121  27.062  1.00  0.00    -0.352 N 
ATOM     37  C   UNL A   1      33.028  33.105  27.828  1.00  0.00     0.251 C 
ATOM     38  H   UNL A   1      31.663  32.402  26.546  1.00  0.00     0.163 HD
ATOM     39  O   UNL A   1      32.447  34.169  28.002  1.00  0.00    -0.269 OA
BRANCH  37  40
ATOM     40  C   UNL A   1      34.343  32.873  28.466  1.00  0.00     0.039 A 
ATOM     41  C   UNL A   1      34.409  32.033  29.580  1.00  0.00     0.014 A 
ATOM     42  C   UNL A   1      35.501  33.480  27.974  1.00  0.00     0.014 A 
ATOM     43  C   UNL A   1      35.649  31.743  30.154  1.00  0.00     0.010 A 
ATOM     44  C   UNL A   1      36.744  33.135  28.503  1.00  0.00     0.010 A 
ATOM     45  C   UNL A   1      36.831  32.253  29.590  1.00  0.00    -0.014 A 
BRANCH  45  46
ATOM     46  C   UNL A   1      38.162  31.833  30.099  1.00  0.00     0.031 A 
ATOM     47  C   UNL A   1      38.764  32.491  31.309  1.00  0.00     0.074 A 
ATOM     48  C   UNL A   1      38.858  30.896  29.423  1.00  0.00     0.049 A 
ATOM     49  N   UNL A   1      39.936  32.292  31.858  1.00  0.00    -0.248 NA
ATOM     50  C   UNL A   1      37.955  33.520  31.982  1.00  0.00     0.031 C 
ATOM     51  C   UNL A   1      38.403  30.216  28.207  1.00  0.00     0.029 A 
ATOM     52  N   UNL A   1      40.101  30.360  29.655  1.00  0.00    -0.354 N 
ATOM     53  C   UNL A   1      40.009  33.174  32.928  1.00  0.00     0.074 A 
ATOM     54  C   UNL A   1      38.781  33.939  32.930  1.00  0.00     0.031 C 
ATOM     55  C   UNL A   1      39.343  29.344  27.811  1.00  0.00     0.029 A 
ATOM     56  C   UNL A   1      40.485  29.433  28.714  1.00  0.00     0.049 A 
ATOM     57  H   UNL A   1      40.664  30.615  30.421  1.00  0.00     0.167 HD
ATOM     58  C   UNL A   1      41.003  33.318  33.837  1.00  0.00     0.037 A 
ATOM     59  C   UNL A   1      41.635  28.744  28.584  1.00  0.00     0.037 A 
ATOM     60  C   UNL A   1      42.214  32.540  33.846  1.00  0.00     0.049 A 
ATOM     61  C   UNL A   1      42.728  28.945  29.597  1.00  0.00     0.074 A 
ATOM     62  C   UNL A   1      43.245  32.564  34.769  1.00  0.00     0.029 A 
ATOM     63  N   UNL A   1      42.564  31.606  32.883  1.00  0.00    -0.354 N 
ATOM     64  N   UNL A   1      42.745  29.719  30.655  1.00  0.00    -0.248 NA
ATOM     65  C   UNL A   1      43.965  28.174  29.401  1.00  0.00     0.031 C 
ATOM     66  C   UNL A   1      44.245  31.691  34.334  1.00  0.00     0.029 A 
ATOM     67  C   UNL A   1      43.811  31.077  33.170  1.00  0.00     0.049 A 
ATOM     68  H   UNL A   1      42.009  31.357  32.108  1.00  0.00     0.167 HD
ATOM     69  C   UNL A   1      43.975  29.506  31.263  1.00  0.00     0.074 A 
ATOM     70  C   UNL A   1      44.669  28.515  30.469  1.00  0.00     0.031 C 
ATOM     71  C   UNL A   1      44.489  30.086  32.375  1.00  0.00     0.037 A 
BRANCH  58  72
ATOM     72  C   UNL A   1      40.835  34.356  34.909  1.00  0.00     0.057 A 
ATOM     73  C   UNL A   1      40.234  34.057  36.138  1.00  0.00     0.134 A 
ATOM     74  C   UNL A   1      41.363  35.643  34.743  1.00  0.00     0.134 A 
ATOM     75  F   UNL A   1      39.700  32.845  36.358  1.00  0.00    -0.206 F 
ATOM     76  C   UNL A   1      40.157  35.003  37.161  1.00  0.00     0.040 A 
ATOM     77  C   UNL A   1      41.315  36.589  35.768  1.00  0.00     0.040 A 
ATOM     78  F   UNL A   1      41.959  35.992  33.594  1.00  0.00    -0.206 F 
ATOM     79  C   UNL A   1      40.709  36.270  36.981  1.00  0.00     0.006 A 
ENDBRANCH  58  72
BRANCH  59  80
ATOM     80  C   UNL A   1      41.829  27.809  27.444  1.00  0.00     0.057 A 
ATOM     81  C   UNL A   1      41.599  26.435  27.587  1.00  0.00     0.134 A 
ATOM     82  C   UNL A   1      42.295  28.257  26.203  1.00  0.00     0.134 A 
ATOM     83  F   UNL A   1      41.170  25.940  28.757  1.00  0.00    -0.206 F 
ATOM     84  C   UNL A   1      41.860  25.538  26.550  1.00  0.00     0.040 A 
ATOM     85  C   UNL A   1      42.530  27.375  25.147  1.00  0.00     0.040 A 
ATOM     86  F   UNL A   1      42.528  29.562  25.997  1.00  0.00    -0.206 F 
ATOM     87  C   UNL A   1      42.325  26.009  25.324  1.00  0.00     0.006 A 
ENDBRANCH  59  80
BRANCH  71  88
ATOM     88  C   UNL A   1      45.853  29.638  32.817  1.00  0.00     0.057 A 
ATOM     89  C   UNL A   1      47.016  30.301  32.407  1.00  0.00     0.134 A 
ATOM     90  C   UNL A   1      46.000  28.552  33.688  1.00  0.00     0.134 A 
ATOM     91  F   UNL A   1      46.947  31.341  31.562  1.00  0.00    -0.206 F 
ATOM     92  C   UNL A   1      48.281  29.882  32.827  1.00  0.00     0.040 A 
ATOM     93  C   UNL A   1      47.256  28.143  34.140  1.00  0.00     0.040 A 
ATOM     94  F   UNL A   1      44.925  27.878  34.127  1.00  0.00    -0.206 F 
ATOM     95  C   UNL A   1      48.400  28.804  33.702  1.00  0.00     0.006 A 
ENDBRANCH  71  88
ENDBRANCH  45  46
ENDBRANCH  37  40
ENDBRANCH  35  36
ENDBRANCH  34  35
ENDBRANCH  33  34
ENDBRANCH   1  33
TORSDOF 16
ENDMDL
MODEL 3
REMARK VINA RESULT:     -12.5      6.658     12.472
REMARK SMILES C[C@H](C(=O)NCCCCCCNC(=O)c1ccc(-c2c3nc(c(-c4c(F)cccc4F)c4ccc([nH]4)c(-c4c(F)cccc4F)c4nc(c(-c5c(F)cccc5F)c5ccc2[nH]5)C=C4)C=C3)cc1)c1ccc2c3cc(Cl)ccc3n(C(=O)c3ccc(Cl)cc3)c2c1
REMARK SMILES IDX 8 1 7 2 6 3 5 4 3 5 4 6 2 8 1 9 69 10 70 11 91 12 71 13
REMARK SMILES IDX 90 14 72 15 80 16 73 17 79 18 74 19 78 20 75 21 77 22 76 23
REMARK SMILES IDX 81 24 82 25 83 26 84 27 89 28 85 29 88 30 86 31 87 32 9 33
REMARK SMILES IDX 10 34 11 35 12 36 13 37 14 39 15 40 16 41 68 42 17 43 67 44
REMARK SMILES IDX 18 45 19 46 20 47 61 48 21 49 66 50 60 51 62 52 22 53 65 54
REMARK SMILES IDX 59 55 58 56 23 58 49 59 32 60 48 61 33 62 36 63 47 64 63 65
REMARK SMILES IDX 34 66 35 67 46 69 64 70 37 71 24 72 25 73 30 74 26 75 27 76
REMARK SMILES IDX 29 77 31 78 28 79 50 80 51 81 56 82 52 83 53 84 55 85 57 86
REMARK SMILES IDX 54 87 38 88 39 89 44 90 40 91 41 92 43 93 45 94 42 95
REMARK H PARENT 5 7 12 38 62 57 36 68
REMARK Flexibility Score: inf
ROOT
ATOM      1  C   UNL A   1      40.607  27.128  27.235  1.00  0.00     0.002 C 
ENDROOT
BRANCH   1   2
ATOM      2  C   UNL A   1      40.274  28.586  27.584  1.00  0.00     0.021 C 
BRANCH   2   3
ATOM      3  C   UNL A   1      39.288  28.737  28.743  1.00  0.00     0.116 C 
BRANCH   3   4
ATOM      4  N   UNL A   1      39.928  29.306  29.914  1.00  0.00    -0.356 N 
ATOM      5  C   UNL A   1      39.433  29.544  31.165  1.00  0.00     0.227 C 
ATOM      6  O   UNL A   1      40.180  30.098  31.975  1.00  0.00    -0.274 OA
ATOM      7  H   UNL A   1      40.870  29.563  29.787  1.00  0.00     0.163 HD
BRANCH   5   8
ATOM      8  C   UNL A   1      37.997  29.137  31.522  1.00  0.00     0.105 C 
ATOM      9  C   UNL A   1      38.001  28.251  32.772  1.00  0.00     0.023 C 
BRANCH   8  10
ATOM     10  C   UNL A   1      37.110  30.366  31.663  1.00  0.00    -0.034 A 
ATOM     11  C   UNL A   1      37.054  31.119  32.835  1.00  0.00     0.005 A 
ATOM     12  C   UNL A   1      36.379  30.802  30.547  1.00  0.00     0.032 A 
ATOM     13  C   UNL A   1      36.323  32.311  32.888  1.00  0.00     0.011 A 
ATOM     14  C   UNL A   1      35.662  32.017  30.582  1.00  0.00     0.057 A 
ATOM     15  C   UNL A   1      35.646  32.782  31.741  1.00  0.00     0.008 A 
ATOM     16  N   UNL A   1      34.941  32.697  29.580  1.00  0.00    -0.276 N 
ATOM     17  C   UNL A   1      34.857  33.931  31.477  1.00  0.00     0.009 A 
ATOM     18  C   UNL A   1      34.340  33.815  30.176  1.00  0.00     0.057 A 
ATOM     19  C   UNL A   1      34.499  35.032  32.285  1.00  0.00     0.031 A 
ATOM     20  C   UNL A   1      33.348  34.714  29.733  1.00  0.00     0.029 A 
ATOM     21  C   UNL A   1      33.564  35.948  31.817  1.00  0.00     0.041 A 
ATOM     22  C   UNL A   1      32.974  35.776  30.572  1.00  0.00     0.023 A 
ATOM     23  Cl  UNL A   1      33.109  37.273  32.815  1.00  0.00    -0.084 Cl
BRANCH  16  24
ATOM     24  C   UNL A   1      34.874  32.237  28.230  1.00  0.00     0.262 C 
ATOM     25  O   UNL A   1      35.426  32.954  27.390  1.00  0.00    -0.268 OA
BRANCH  24  26
ATOM     26  C   UNL A   1      34.178  31.056  27.634  1.00  0.00     0.040 A 
ATOM     27  C   UNL A   1      34.957  29.885  27.482  1.00  0.00     0.015 A 
ATOM     28  C   UNL A   1      32.904  31.077  27.063  1.00  0.00     0.015 A 
ATOM     29  C   UNL A   1      34.488  28.774  26.780  1.00  0.00     0.021 A 
ATOM     30  C   UNL A   1      32.418  29.945  26.383  1.00  0.00     0.021 A 
ATOM     31  C   UNL A   1      33.215  28.808  26.231  1.00  0.00     0.041 A 
ATOM     32  Cl  UNL A   1      32.646  27.464  25.321  1.00  0.00    -0.084 Cl
ENDBRANCH  24  26
ENDBRANCH  16  24
ENDBRANCH   8  10
ENDBRANCH   5   8
ENDBRANCH   3   4
ENDBRANCH   2   3
ENDBRANCH   1   2
BRANCH   1  33
ATOM     33  C   UNL A   1      40.246  26.102  28.315  1.00  0.00     0.002 C 
BRANCH  33  34
ATOM     34  C   UNL A   1      39.482  24.874  27.814  1.00  0.00     0.021 C 
BRANCH  34  35
ATOM     35  C   UNL A   1      39.819  24.456  26.384  1.00  0.00     0.116 C 
BRANCH  35  36
ATOM     36  N   UNL A   1      40.654  23.265  26.344  1.00  0.00    -0.352 N 
ATOM     37  C   UNL A   1      42.016  23.150  26.202  1.00  0.00     0.251 C 
ATOM     38  H   UNL A   1      40.170  22.413  26.431  1.00  0.00     0.163 HD
ATOM     39  O   UNL A   1      42.522  22.057  25.983  1.00  0.00    -0.269 OA
BRANCH  37  40
ATOM     40  C   UNL A   1      42.873  24.353  26.291  1.00  0.00     0.039 A 
ATOM     41  C   UNL A   1      43.443  24.681  27.523  1.00  0.00     0.014 A 
ATOM     42  C   UNL A   1      43.110  25.154  25.171  1.00  0.00     0.014 A 
ATOM     43  C   UNL A   1      44.313  25.770  27.614  1.00  0.00     0.010 A 
ATOM     44  C   UNL A   1      44.032  26.197  25.248  1.00  0.00     0.010 A 
ATOM     45  C   UNL A   1      44.652  26.507  26.467  1.00  0.00    -0.014 A 
BRANCH  45  46
ATOM     46  C   UNL A   1      45.687  27.572  26.522  1.00  0.00     0.031 A 
ATOM     47  C   UNL A   1      45.297  29.016  26.662  1.00  0.00     0.074 A 
ATOM     48  C   UNL A   1      46.985  27.234  26.379  1.00  0.00     0.049 A 
ATOM     49  N   UNL A   1      46.061  30.080  26.671  1.00  0.00    -0.248 NA
ATOM     50  C   UNL A   1      43.861  29.311  26.792  1.00  0.00     0.031 C 
ATOM     51  C   UNL A   1      47.489  25.871  26.188  1.00  0.00     0.029 A 
ATOM     52  N   UNL A   1      48.118  28.009  26.360  1.00  0.00    -0.354 N 
ATOM     53  C   UNL A   1      45.202  31.164  26.795  1.00  0.00     0.074 A 
ATOM     54  C   UNL A   1      43.855  30.636  26.818  1.00  0.00     0.031 C 
ATOM     55  C   UNL A   1      48.827  25.905  26.089  1.00  0.00     0.029 A 
ATOM     56  C   UNL A   1      49.275  27.291  26.163  1.00  0.00     0.049 A 
ATOM     57  H   UNL A   1      48.104  28.987  26.476  1.00  0.00     0.167 HD
ATOM     58  C   UNL A   1      45.512  32.479  26.898  1.00  0.00     0.037 A 
ATOM     59  C   UNL A   1      50.551  27.704  26.038  1.00  0.00     0.037 A 
ATOM     60  C   UNL A   1      46.854  32.999  26.897  1.00  0.00     0.049 A 
ATOM     61  C   UNL A   1      50.857  29.174  26.135  1.00  0.00     0.074 A 
ATOM     62  C   UNL A   1      47.269  34.308  27.071  1.00  0.00     0.029 A 
ATOM     63  N   UNL A   1      47.998  32.241  26.704  1.00  0.00    -0.354 N 
ATOM     64  N   UNL A   1      50.041  30.179  26.342  1.00  0.00    -0.248 NA
ATOM     65  C   UNL A   1      52.265  29.569  25.983  1.00  0.00     0.031 C 
ATOM     66  C   UNL A   1      48.657  34.352  26.922  1.00  0.00     0.029 A 
ATOM     67  C   UNL A   1      49.115  33.061  26.715  1.00  0.00     0.049 A 
ATOM     68  H   UNL A   1      48.015  31.265  26.575  1.00  0.00     0.167 HD
ATOM     69  C   UNL A   1      50.837  31.316  26.374  1.00  0.00     0.074 A 
ATOM     70  C   UNL A   1      52.203  30.876  26.187  1.00  0.00     0.031 C 
ATOM     71  C   UNL A   1      50.470  32.610  26.535  1.00  0.00     0.037 A 
BRANCH  58  72
ATOM     72  C   UNL A   1      44.384  33.462  27.024  1.00  0.00     0.057 A 
ATOM     73  C   UNL A   1      43.875  33.845  28.271  1.00  0.00     0.134 A 
ATOM     74  C   UNL A   1      43.866  34.100  25.890  1.00  0.00     0.134 A 
ATOM     75  F   UNL A   1      44.322  33.266  29.397  1.00  0.00    -0.206 F 
ATOM     76  C   UNL A   1      42.884  34.823  28.385  1.00  0.00     0.040 A 
ATOM     77  C   UNL A   1      42.894  35.097  25.993  1.00  0.00     0.040 A 
ATOM     78  F   UNL A   1      44.316  33.786  24.666  1.00  0.00    -0.206 F 
ATOM     79  C   UNL A   1      42.400  35.459  27.244  1.00  0.00     0.006 A 
ENDBRANCH  58  72
BRANCH  59  80
ATOM     80  C   UNL A   1      51.640  26.723  25.793  1.00  0.00     0.057 A 
ATOM     81  C   UNL A   1      52.320  26.113  26.855  1.00  0.00     0.134 A 
ATOM     82  C   UNL A   1      52.061  26.410  24.496  1.00  0.00     0.134 A 
ATOM     83  F   UNL A   1      51.977  26.388  28.122  1.00  0.00    -0.206 F 
ATOM     84  C   UNL A   1      53.400  25.258  26.637  1.00  0.00     0.040 A 
ATOM     85  C   UNL A   1      53.120  25.530  24.262  1.00  0.00     0.040 A 
ATOM     86  F   UNL A   1      51.448  26.953  23.433  1.00  0.00    -0.206 F 
ATOM     87  C   UNL A   1      53.802  24.962  25.336  1.00  0.00     0.006 A 
ENDBRANCH  59  80
BRANCH  71  88
ATOM     88  C   UNL A   1      51.564  33.639  26.550  1.00  0.00     0.057 A 
ATOM     89  C   UNL A   1      52.233  33.989  27.729  1.00  0.00     0.134 A 
ATOM     90  C   UNL A   1      51.975  34.261  25.364  1.00  0.00     0.134 A 
ATOM     91  F   UNL A   1      51.879  33.440  28.901  1.00  0.00    -0.206 F 
ATOM     92  C   UNL A   1      53.253  34.943  27.734  1.00  0.00     0.040 A 
ATOM     93  C   UNL A   1      53.014  35.193  25.351  1.00  0.00     0.040 A 
ATOM     94  F   UNL A   1      51.383  33.965  24.197  1.00  0.00    -0.206 F 
ATOM     95  C   UNL A   1      53.651  35.541  26.539  1.00  0.00     0.006 A 
ENDBRANCH  71  88
ENDBRANCH  45  46
ENDBRANCH  37  40
ENDBRANCH  35  36
ENDBRANCH  34  35
ENDBRANCH  33  34
ENDBRANCH   1  33
TORSDOF 16
ENDMDL
