MODEL 1
REMARK VINA RESULT:     -11.6      0.000      0.000
REMARK SMILES O=C(NCCCCCCNC(=O)C1(Cc2ccncc2)Cc2ccccc2C1)c1ccc(-c2c3nc(c(-c4c(F)cccc4F)c4ccc([nH]4)c(-c4c(F)cccc4F)c4nc(c(-c5c(F)cccc5F)c5ccc2[nH]5)C=C4)C=C3)cc1
REMARK SMILES IDX 6 1 5 2 4 3 3 4 1 5 2 6 29 8 30 9 82 10 31 11 81 12 32 13
REMARK SMILES IDX 33 14 34 15 75 16 35 17 80 18 74 19 76 20 36 21 79 22 73 23
REMARK SMILES IDX 72 24 37 26 63 27 46 28 62 29 47 30 50 31 61 32 77 33 48 34
REMARK SMILES IDX 49 35 60 37 78 38 51 39 38 40 39 41 44 42 40 43 41 44 43 45
REMARK SMILES IDX 45 46 42 47 64 48 65 49 70 50 66 51 67 52 69 53 71 54 68 55
REMARK SMILES IDX 52 56 53 57 58 58 54 59 55 60 57 61 59 62 56 63 7 64 8 65
REMARK SMILES IDX 9 66 10 67 11 68 12 70 13 71 21 72 28 73 22 74 27 75 23 76
REMARK SMILES IDX 26 77 24 78 25 79 14 80 15 81 16 82 20 83 17 84 19 85 18 86
REMARK H PARENT 3 7 76 25 50 36 10 69
REMARK Flexibility Score: inf
ROOT
ATOM      1  C   UNL A   1      31.595  29.927  25.416  1.00  0.00     0.002 C 
ENDROOT
BRANCH   1   2
ATOM      2  C   UNL A   1      31.289  31.269  26.084  1.00  0.00     0.021 C 
BRANCH   2   3
ATOM      3  C   UNL A   1      32.420  31.797  26.959  1.00  0.00     0.116 C 
BRANCH   3   4
ATOM      4  N   UNL A   1      32.245  33.211  27.247  1.00  0.00    -0.352 N 
ATOM      5  O   UNL A   1      32.533  35.094  28.462  1.00  0.00    -0.269 OA
ATOM      6  C   UNL A   1      32.961  34.001  28.112  1.00  0.00     0.251 C 
ATOM      7  H   UNL A   1      31.519  33.661  26.759  1.00  0.00     0.163 HD
BRANCH   6   8
ATOM      8  C   UNL A   1      34.258  33.513  28.622  1.00  0.00     0.039 A 
ATOM      9  C   UNL A   1      34.308  32.723  29.775  1.00  0.00     0.014 A 
ATOM     10  C   UNL A   1      35.426  33.828  27.927  1.00  0.00     0.014 A 
ATOM     11  C   UNL A   1      35.537  32.330  30.290  1.00  0.00     0.010 A 
ATOM     12  C   UNL A   1      36.654  33.371  28.406  1.00  0.00     0.010 A 
ATOM     13  C   UNL A   1      36.718  32.629  29.597  1.00  0.00    -0.014 A 
BRANCH  13  14
ATOM     14  C   UNL A   1      38.014  32.092  30.077  1.00  0.00     0.031 A 
ATOM     15  C   UNL A   1      38.564  30.808  29.537  1.00  0.00     0.074 A 
ATOM     16  C   UNL A   1      38.667  32.760  31.046  1.00  0.00     0.049 A 
ATOM     17  N   UNL A   1      39.632  30.147  29.908  1.00  0.00    -0.248 NA
ATOM     18  C   UNL A   1      37.812  30.173  28.446  1.00  0.00     0.031 C 
ATOM     19  C   UNL A   1      38.217  34.014  31.654  1.00  0.00     0.029 A 
ATOM     20  N   UNL A   1      39.836  32.471  31.702  1.00  0.00    -0.354 N 
ATOM     21  C   UNL A   1      39.668  29.009  29.114  1.00  0.00     0.074 A 
ATOM     22  C   UNL A   1      38.501  29.057  28.257  1.00  0.00     0.031 C 
ATOM     23  C   UNL A   1      39.098  34.388  32.592  1.00  0.00     0.029 A 
ATOM     24  C   UNL A   1      40.137  33.371  32.695  1.00  0.00     0.049 A 
ATOM     25  H   UNL A   1      40.402  31.697  31.483  1.00  0.00     0.167 HD
ATOM     26  C   UNL A   1      40.592  28.018  29.104  1.00  0.00     0.037 A 
ATOM     27  C   UNL A   1      41.117  33.358  33.617  1.00  0.00     0.037 A 
ATOM     28  C   UNL A   1      41.748  27.986  29.966  1.00  0.00     0.049 A 
ATOM     29  C   UNL A   1      42.107  32.233  33.615  1.00  0.00     0.074 A 
ATOM     30  C   UNL A   1      42.772  27.055  30.000  1.00  0.00     0.029 A 
ATOM     31  N   UNL A   1      42.022  28.918  30.957  1.00  0.00    -0.354 N 
ATOM     32  N   UNL A   1      42.162  31.188  32.825  1.00  0.00    -0.248 NA
ATOM     33  C   UNL A   1      43.170  32.282  34.627  1.00  0.00     0.031 C 
ATOM     34  C   UNL A   1      43.631  27.390  31.051  1.00  0.00     0.029 A 
ATOM     35  C   UNL A   1      43.180  28.565  31.632  1.00  0.00     0.049 A 
ATOM     36  H   UNL A   1      41.475  29.713  31.153  1.00  0.00     0.167 HD
ATOM     37  C   UNL A   1      43.276  30.465  33.228  1.00  0.00     0.074 A 
ATOM     38  C   UNL A   1      43.871  31.195  34.330  1.00  0.00     0.031 C 
ATOM     39  C   UNL A   1      43.762  29.304  32.725  1.00  0.00     0.037 A 
BRANCH  26  40
ATOM     40  C   UNL A   1      40.368  26.871  28.161  1.00  0.00     0.057 A 
ATOM     41  C   UNL A   1      40.972  26.813  26.898  1.00  0.00     0.134 A 
ATOM     42  C   UNL A   1      39.541  25.801  28.527  1.00  0.00     0.134 A 
ATOM     43  F   UNL A   1      41.768  27.809  26.479  1.00  0.00    -0.206 F 
ATOM     44  C   UNL A   1      40.734  25.753  26.020  1.00  0.00     0.040 A 
ATOM     45  C   UNL A   1      39.318  24.721  27.670  1.00  0.00     0.040 A 
ATOM     46  F   UNL A   1      38.938  25.784  29.725  1.00  0.00    -0.206 F 
ATOM     47  C   UNL A   1      39.906  24.700  26.408  1.00  0.00     0.006 A 
ENDBRANCH  26  40
BRANCH  27  48
ATOM     48  C   UNL A   1      41.174  34.448  34.621  1.00  0.00     0.057 A 
ATOM     49  C   UNL A   1      41.887  35.625  34.375  1.00  0.00     0.134 A 
ATOM     50  C   UNL A   1      40.463  34.362  35.825  1.00  0.00     0.134 A 
ATOM     51  F   UNL A   1      42.597  35.761  33.245  1.00  0.00    -0.206 F 
ATOM     52  C   UNL A   1      41.892  36.679  35.290  1.00  0.00     0.040 A 
ATOM     53  C   UNL A   1      40.437  35.417  36.737  1.00  0.00     0.040 A 
ATOM     54  F   UNL A   1      39.748  33.264  36.112  1.00  0.00    -0.206 F 
ATOM     55  C   UNL A   1      41.156  36.580  36.470  1.00  0.00     0.006 A 
ENDBRANCH  27  48
BRANCH  39  56
ATOM     56  C   UNL A   1      45.021  28.763  33.334  1.00  0.00     0.057 A 
ATOM     57  C   UNL A   1      45.000  27.825  34.373  1.00  0.00     0.134 A 
ATOM     58  C   UNL A   1      46.272  29.134  32.822  1.00  0.00     0.134 A 
ATOM     59  F   UNL A   1      43.836  27.439  34.917  1.00  0.00    -0.206 F 
ATOM     60  C   UNL A   1      46.179  27.279  34.886  1.00  0.00     0.040 A 
ATOM     61  C   UNL A   1      47.455  28.578  33.310  1.00  0.00     0.040 A 
ATOM     62  F   UNL A   1      46.361  30.025  31.823  1.00  0.00    -0.206 F 
ATOM     63  C   UNL A   1      47.410  27.648  34.345  1.00  0.00     0.006 A 
ENDBRANCH  39  56
ENDBRANCH  13  14
ENDBRANCH   6   8
ENDBRANCH   3   4
ENDBRANCH   2   3
ENDBRANCH   1   2
BRANCH   1  64
ATOM     64  C   UNL A   1      30.697  29.594  24.222  1.00  0.00     0.002 C 
BRANCH  64  65
ATOM     65  C   UNL A   1      31.432  28.947  23.043  1.00  0.00     0.021 C 
BRANCH  65  66
ATOM     66  C   UNL A   1      30.930  27.544  22.696  1.00  0.00     0.116 C 
BRANCH  66  67
ATOM     67  N   UNL A   1      31.661  26.984  21.576  1.00  0.00    -0.356 N 
ATOM     68  C   UNL A   1      32.538  25.948  21.475  1.00  0.00     0.227 C 
ATOM     69  H   UNL A   1      31.489  27.443  20.722  1.00  0.00     0.163 HD
ATOM     70  O   UNL A   1      33.099  25.828  20.382  1.00  0.00    -0.274 OA
BRANCH  68  71
ATOM     71  C   UNL A   1      32.795  24.965  22.620  1.00  0.00     0.061 C 
ATOM     72  C   UNL A   1      33.978  24.046  22.167  1.00  0.00     0.053 C 
ATOM     73  C   UNL A   1      33.372  25.696  23.878  1.00  0.00     0.053 C 
ATOM     74  C   UNL A   1      34.675  23.747  23.455  1.00  0.00    -0.044 A 
ATOM     75  C   UNL A   1      34.296  24.658  24.444  1.00  0.00    -0.044 A 
ATOM     76  C   UNL A   1      35.577  22.731  23.721  1.00  0.00     0.004 A 
ATOM     77  C   UNL A   1      34.771  24.542  25.737  1.00  0.00     0.004 A 
ATOM     78  C   UNL A   1      36.062  22.607  25.023  1.00  0.00     0.000 A 
ATOM     79  C   UNL A   1      35.651  23.496  26.028  1.00  0.00     0.000 A 
BRANCH  71  80
ATOM     80  C   UNL A   1      31.567  24.117  23.070  1.00  0.00     0.053 C 
BRANCH  80  81
ATOM     81  C   UNL A   1      31.123  24.095  24.522  1.00  0.00    -0.044 A 
ATOM     82  C   UNL A   1      30.436  25.132  25.156  1.00  0.00     0.024 A 
ATOM     83  C   UNL A   1      31.301  22.908  25.246  1.00  0.00     0.024 A 
ATOM     84  C   UNL A   1      29.944  24.936  26.440  1.00  0.00     0.111 A 
ATOM     85  C   UNL A   1      30.788  22.809  26.530  1.00  0.00     0.111 A 
ATOM     86  N   UNL A   1      30.101  23.795  27.141  1.00  0.00    -0.265 NA
ENDBRANCH  80  81
ENDBRANCH  71  80
ENDBRANCH  68  71
ENDBRANCH  66  67
ENDBRANCH  65  66
ENDBRANCH  64  65
ENDBRANCH   1  64
TORSDOF 15
ENDMDL
MODEL 2
REMARK VINA RESULT:     -11.6      1.964      3.615
REMARK SMILES O=C(NCCCCCCNC(=O)C1(Cc2ccncc2)Cc2ccccc2C1)c1ccc(-c2c3nc(c(-c4c(F)cccc4F)c4ccc([nH]4)c(-c4c(F)cccc4F)c4nc(c(-c5c(F)cccc5F)c5ccc2[nH]5)C=C4)C=C3)cc1
REMARK SMILES IDX 6 1 5 2 4 3 3 4 1 5 2 6 29 8 30 9 82 10 31 11 81 12 32 13
REMARK SMILES IDX 33 14 34 15 75 16 35 17 80 18 74 19 76 20 36 21 79 22 73 23
REMARK SMILES IDX 72 24 37 26 63 27 46 28 62 29 47 30 50 31 61 32 77 33 48 34
REMARK SMILES IDX 49 35 60 37 78 38 51 39 38 40 39 41 44 42 40 43 41 44 43 45
REMARK SMILES IDX 45 46 42 47 64 48 65 49 70 50 66 51 67 52 69 53 71 54 68 55
REMARK SMILES IDX 52 56 53 57 58 58 54 59 55 60 57 61 59 62 56 63 7 64 8 65
REMARK SMILES IDX 9 66 10 67 11 68 12 70 13 71 21 72 28 73 22 74 27 75 23 76
REMARK SMILES IDX 26 77 24 78 25 79 14 80 15 81 16 82 20 83 17 84 19 85 18 86
REMARK H PARENT 3 7 76 25 50 36 10 69
REMARK Flexibility Score: inf
ROOT
ATOM      1  C   UNL A   1      32.298  30.376  27.221  1.00  0.00     0.002 C 
ENDROOT
BRANCH   1   2
ATOM      2  C   UNL A   1      31.791  31.820  27.222  1.00  0.00     0.021 C 
BRANCH   2   3
ATOM      3  C   UNL A   1      32.856  32.851  26.868  1.00  0.00     0.116 C 
BRANCH   3   4
ATOM      4  N   UNL A   1      32.612  34.113  27.546  1.00  0.00    -0.352 N 
ATOM      5  O   UNL A   1      32.660  35.521  29.313  1.00  0.00    -0.269 OA
ATOM      6  C   UNL A   1      33.158  34.573  28.718  1.00  0.00     0.251 C 
ATOM      7  H   UNL A   1      31.970  34.718  27.107  1.00  0.00     0.163 HD
BRANCH   6   8
ATOM      8  C   UNL A   1      34.358  33.905  29.260  1.00  0.00     0.039 A 
ATOM      9  C   UNL A   1      35.634  34.381  28.939  1.00  0.00     0.014 A 
ATOM     10  C   UNL A   1      34.203  32.812  30.115  1.00  0.00     0.014 A 
ATOM     11  C   UNL A   1      36.759  33.704  29.394  1.00  0.00     0.010 A 
ATOM     12  C   UNL A   1      35.335  32.177  30.629  1.00  0.00     0.010 A 
ATOM     13  C   UNL A   1      36.619  32.611  30.262  1.00  0.00    -0.014 A 
BRANCH  13  14
ATOM     14  C   UNL A   1      37.821  31.976  30.851  1.00  0.00     0.031 A 
ATOM     15  C   UNL A   1      38.572  30.911  30.112  1.00  0.00     0.074 A 
ATOM     16  C   UNL A   1      38.201  32.342  32.090  1.00  0.00     0.049 A 
ATOM     17  N   UNL A   1      39.585  30.185  30.514  1.00  0.00    -0.248 NA
ATOM     18  C   UNL A   1      38.119  30.610  28.746  1.00  0.00     0.031 C 
ATOM     19  C   UNL A   1      37.536  33.360  32.907  1.00  0.00     0.029 A 
ATOM     20  N   UNL A   1      39.222  31.892  32.884  1.00  0.00    -0.354 N 
ATOM     21  C   UNL A   1      39.877  29.327  29.462  1.00  0.00     0.074 A 
ATOM     22  C   UNL A   1      38.917  29.606  28.414  1.00  0.00     0.031 C 
ATOM     23  C   UNL A   1      38.166  33.458  34.085  1.00  0.00     0.029 A 
ATOM     24  C   UNL A   1      39.236  32.468  34.131  1.00  0.00     0.049 A 
ATOM     25  H   UNL A   1      39.880  31.221  32.591  1.00  0.00     0.167 HD
ATOM     26  C   UNL A   1      40.856  28.394  29.385  1.00  0.00     0.037 A 
ATOM     27  C   UNL A   1      39.995  32.202  35.209  1.00  0.00     0.037 A 
ATOM     28  C   UNL A   1      41.801  28.128  30.440  1.00  0.00     0.049 A 
ATOM     29  C   UNL A   1      41.048  31.139  35.115  1.00  0.00     0.074 A 
ATOM     30  C   UNL A   1      42.864  27.241  30.443  1.00  0.00     0.029 A 
ATOM     31  N   UNL A   1      41.787  28.736  31.688  1.00  0.00    -0.354 N 
ATOM     32  N   UNL A   1      41.351  30.368  34.098  1.00  0.00    -0.248 NA
ATOM     33  C   UNL A   1      41.865  30.906  36.312  1.00  0.00     0.031 C 
ATOM     34  C   UNL A   1      43.453  27.268  31.711  1.00  0.00     0.029 A 
ATOM     35  C   UNL A   1      42.798  28.218  32.480  1.00  0.00     0.049 A 
ATOM     36  H   UNL A   1      41.150  29.433  31.969  1.00  0.00     0.167 HD
ATOM     37  C   UNL A   1      42.406  29.574  34.523  1.00  0.00     0.074 A 
ATOM     38  C   UNL A   1      42.696  29.961  35.890  1.00  0.00     0.031 C 
ATOM     39  C   UNL A   1      43.076  28.616  33.838  1.00  0.00     0.037 A 
BRANCH  26  40
ATOM     40  C   UNL A   1      40.926  27.567  28.133  1.00  0.00     0.057 A 
ATOM     41  C   UNL A   1      41.687  27.956  27.022  1.00  0.00     0.134 A 
ATOM     42  C   UNL A   1      40.229  26.355  28.041  1.00  0.00     0.134 A 
ATOM     43  F   UNL A   1      42.373  29.109  27.038  1.00  0.00    -0.206 F 
ATOM     44  C   UNL A   1      41.723  27.190  25.855  1.00  0.00     0.040 A 
ATOM     45  C   UNL A   1      40.279  25.566  26.890  1.00  0.00     0.040 A 
ATOM     46  F   UNL A   1      39.488  25.915  29.069  1.00  0.00    -0.206 F 
ATOM     47  C   UNL A   1      41.019  25.988  25.789  1.00  0.00     0.006 A 
ENDBRANCH  26  40
BRANCH  27  48
ATOM     48  C   UNL A   1      39.754  32.954  36.464  1.00  0.00     0.057 A 
ATOM     49  C   UNL A   1      38.803  32.526  37.395  1.00  0.00     0.134 A 
ATOM     50  C   UNL A   1      40.514  34.085  36.788  1.00  0.00     0.134 A 
ATOM     51  F   UNL A   1      38.036  31.457  37.134  1.00  0.00    -0.206 F 
ATOM     52  C   UNL A   1      38.617  33.195  38.606  1.00  0.00     0.040 A 
ATOM     53  C   UNL A   1      40.358  34.748  38.006  1.00  0.00     0.040 A 
ATOM     54  F   UNL A   1      41.453  34.536  35.941  1.00  0.00    -0.206 F 
ATOM     55  C   UNL A   1      39.404  34.303  38.917  1.00  0.00     0.006 A 
ENDBRANCH  27  48
BRANCH  39  56
ATOM     56  C   UNL A   1      44.217  27.938  34.539  1.00  0.00     0.057 A 
ATOM     57  C   UNL A   1      44.053  26.729  35.224  1.00  0.00     0.134 A 
ATOM     58  C   UNL A   1      45.510  28.470  34.463  1.00  0.00     0.134 A 
ATOM     59  F   UNL A   1      42.837  26.175  35.345  1.00  0.00    -0.206 F 
ATOM     60  C   UNL A   1      45.135  26.074  35.816  1.00  0.00     0.040 A 
ATOM     61  C   UNL A   1      46.604  27.813  35.029  1.00  0.00     0.040 A 
ATOM     62  F   UNL A   1      45.736  29.624  33.817  1.00  0.00    -0.206 F 
ATOM     63  C   UNL A   1      46.417  26.612  35.709  1.00  0.00     0.006 A 
ENDBRANCH  39  56
ENDBRANCH  13  14
ENDBRANCH   6   8
ENDBRANCH   3   4
ENDBRANCH   2   3
ENDBRANCH   1   2
BRANCH   1  64
ATOM     64  C   UNL A   1      33.822  30.240  27.187  1.00  0.00     0.002 C 
BRANCH  64  65
ATOM     65  C   UNL A   1      34.321  28.869  26.717  1.00  0.00     0.021 C 
BRANCH  65  66
ATOM     66  C   UNL A   1      33.218  27.973  26.148  1.00  0.00     0.116 C 
BRANCH  66  67
ATOM     67  N   UNL A   1      33.410  27.737  24.730  1.00  0.00    -0.356 N 
ATOM     68  C   UNL A   1      32.545  27.684  23.680  1.00  0.00     0.227 C 
ATOM     69  H   UNL A   1      34.350  27.585  24.477  1.00  0.00     0.163 HD
ATOM     70  O   UNL A   1      33.029  27.310  22.608  1.00  0.00    -0.274 OA
BRANCH  68  71
ATOM     71  C   UNL A   1      31.074  28.092  23.797  1.00  0.00     0.061 C 
ATOM     72  C   UNL A   1      31.057  29.557  24.348  1.00  0.00     0.053 C 
ATOM     73  C   UNL A   1      30.410  28.232  22.387  1.00  0.00     0.053 C 
ATOM     74  C   UNL A   1      29.842  30.139  23.698  1.00  0.00    -0.044 A 
ATOM     75  C   UNL A   1      29.445  29.361  22.609  1.00  0.00    -0.044 A 
ATOM     76  C   UNL A   1      29.144  31.278  24.062  1.00  0.00     0.004 A 
ATOM     77  C   UNL A   1      28.307  29.674  21.889  1.00  0.00     0.004 A 
ATOM     78  C   UNL A   1      27.995  31.603  23.340  1.00  0.00     0.000 A 
ATOM     79  C   UNL A   1      27.571  30.798  22.271  1.00  0.00     0.000 A 
BRANCH  71  80
ATOM     80  C   UNL A   1      30.182  27.157  24.666  1.00  0.00     0.053 C 
BRANCH  80  81
ATOM     81  C   UNL A   1      30.420  25.657  24.696  1.00  0.00    -0.044 A 
ATOM     82  C   UNL A   1      30.501  24.845  23.562  1.00  0.00     0.024 A 
ATOM     83  C   UNL A   1      30.703  25.061  25.933  1.00  0.00     0.024 A 
ATOM     84  C   UNL A   1      30.879  23.516  23.705  1.00  0.00     0.111 A 
ATOM     85  C   UNL A   1      31.057  23.720  25.978  1.00  0.00     0.111 A 
ATOM     86  N   UNL A   1      31.163  22.935  24.887  1.00  0.00    -0.265 NA
ENDBRANCH  80  81
ENDBRANCH  71  80
ENDBRANCH  68  71
ENDBRANCH  66  67
ENDBRANCH  65  66
ENDBRANCH  64  65
ENDBRANCH   1  64
TORSDOF 15
ENDMDL
MODEL 3
REMARK VINA RESULT:     -11.6      3.958      8.881
REMARK SMILES O=C(NCCCCCCNC(=O)C1(Cc2ccncc2)Cc2ccccc2C1)c1ccc(-c2c3nc(c(-c4c(F)cccc4F)c4ccc([nH]4)c(-c4c(F)cccc4F)c4nc(c(-c5c(F)cccc5F)c5ccc2[nH]5)C=C4)C=C3)cc1
REMARK SMILES IDX 6 1 5 2 4 3 3 4 1 5 2 6 29 8 30 9 82 10 31 11 81 12 32 13
REMARK SMILES IDX 33 14 34 15 75 16 35 17 80 18 74 19 76 20 36 21 79 22 73 23
REMARK SMILES IDX 72 24 37 26 63 27 46 28 62 29 47 30 50 31 61 32 77 33 48 34
REMARK SMILES IDX 49 35 60 37 78 38 51 39 38 40 39 41 44 42 40 43 41 44 43 45
REMARK SMILES IDX 45 46 42 47 64 48 65 49 70 50 66 51 67 52 69 53 71 54 68 55
REMARK SMILES IDX 52 56 53 57 58 58 54 59 55 60 57 61 59 62 56 63 7 64 8 65
REMARK SMILES IDX 9 66 10 67 11 68 12 70 13 71 21 72 28 73 22 74 27 75 23 76
REMARK SMILES IDX 26 77 24 78 25 79 14 80 15 81 16 82 20 83 17 84 19 85 18 86
REMARK H PARENT 3 7 76 25 50 36 10 69
REMARK Flexibility Score: inf
ROOT
ATOM      1  C   UNL A   1      36.313  20.049  24.963  1.00  0.00     0.002 C 
ENDROOT
BRANCH   1   2
ATOM      2  C   UNL A   1      37.757  19.637  24.670  1.00  0.00     0.021 C 
BRANCH   2   3
ATOM      3  C   UNL A   1      38.759  20.103  25.720  1.00  0.00     0.116 C 
BRANCH   3   4
ATOM      4  N   UNL A   1      39.880  19.183  25.820  1.00  0.00    -0.352 N 
ATOM      5  O   UNL A   1      42.072  18.637  25.841  1.00  0.00    -0.269 OA
ATOM      6  C   UNL A   1      41.201  19.470  26.058  1.00  0.00     0.251 C 
ATOM      7  H   UNL A   1      39.664  18.230  25.703  1.00  0.00     0.163 HD
BRANCH   6   8
ATOM      8  C   UNL A   1      41.563  20.805  26.576  1.00  0.00     0.039 A 
ATOM      9  C   UNL A   1      41.561  21.049  27.953  1.00  0.00     0.014 A 
ATOM     10  C   UNL A   1      41.932  21.808  25.677  1.00  0.00     0.014 A 
ATOM     11  C   UNL A   1      41.832  22.327  28.428  1.00  0.00     0.010 A 
ATOM     12  C   UNL A   1      42.273  23.071  26.162  1.00  0.00     0.010 A 
ATOM     13  C   UNL A   1      42.214  23.342  27.539  1.00  0.00    -0.014 A 
BRANCH  13  14
ATOM     14  C   UNL A   1      42.632  24.664  28.062  1.00  0.00     0.031 A 
ATOM     15  C   UNL A   1      41.623  25.732  28.354  1.00  0.00     0.074 A 
ATOM     16  C   UNL A   1      43.946  24.905  28.225  1.00  0.00     0.049 A 
ATOM     17  N   UNL A   1      41.818  26.972  28.725  1.00  0.00    -0.248 NA
ATOM     18  C   UNL A   1      40.208  25.366  28.197  1.00  0.00     0.031 C 
ATOM     19  C   UNL A   1      45.018  23.942  27.959  1.00  0.00     0.029 A 
ATOM     20  N   UNL A   1      44.606  26.034  28.634  1.00  0.00    -0.354 N 
ATOM     21  C   UNL A   1      40.556  27.542  28.824  1.00  0.00     0.074 A 
ATOM     22  C   UNL A   1      39.603  26.517  28.450  1.00  0.00     0.031 C 
ATOM     23  C   UNL A   1      46.199  24.520  28.213  1.00  0.00     0.029 A 
ATOM     24  C   UNL A   1      45.973  25.908  28.596  1.00  0.00     0.049 A 
ATOM     25  H   UNL A   1      44.147  26.854  28.925  1.00  0.00     0.167 HD
ATOM     26  C   UNL A   1      40.228  28.803  29.194  1.00  0.00     0.037 A 
ATOM     27  C   UNL A   1      46.941  26.819  28.804  1.00  0.00     0.037 A 
ATOM     28  C   UNL A   1      41.191  29.811  29.561  1.00  0.00     0.049 A 
ATOM     29  C   UNL A   1      46.557  28.220  29.174  1.00  0.00     0.074 A 
ATOM     30  C   UNL A   1      40.961  31.103  30.001  1.00  0.00     0.029 A 
ATOM     31  N   UNL A   1      42.568  29.644  29.515  1.00  0.00    -0.354 N 
ATOM     32  N   UNL A   1      45.360  28.734  29.316  1.00  0.00    -0.248 NA
ATOM     33  C   UNL A   1      47.654  29.167  29.414  1.00  0.00     0.031 C 
ATOM     34  C   UNL A   1      42.197  31.736  30.162  1.00  0.00     0.029 A 
ATOM     35  C   UNL A   1      43.200  30.820  29.884  1.00  0.00     0.049 A 
ATOM     36  H   UNL A   1      43.028  28.813  29.258  1.00  0.00     0.167 HD
ATOM     37  C   UNL A   1      45.555  30.058  29.683  1.00  0.00     0.074 A 
ATOM     38  C   UNL A   1      46.989  30.266  29.747  1.00  0.00     0.031 C 
ATOM     39  C   UNL A   1      44.629  31.012  29.947  1.00  0.00     0.037 A 
BRANCH  26  40
ATOM     40  C   UNL A   1      38.772  29.172  29.178  1.00  0.00     0.057 A 
ATOM     41  C   UNL A   1      37.970  29.097  30.325  1.00  0.00     0.134 A 
ATOM     42  C   UNL A   1      38.165  29.622  27.998  1.00  0.00     0.134 A 
ATOM     43  F   UNL A   1      38.484  28.667  31.488  1.00  0.00    -0.206 F 
ATOM     44  C   UNL A   1      36.612  29.419  30.291  1.00  0.00     0.040 A 
ATOM     45  C   UNL A   1      36.814  29.973  27.958  1.00  0.00     0.040 A 
ATOM     46  F   UNL A   1      38.873  29.728  26.865  1.00  0.00    -0.206 F 
ATOM     47  C   UNL A   1      36.031  29.863  29.103  1.00  0.00     0.006 A 
ENDBRANCH  26  40
BRANCH  27  48
ATOM     48  C   UNL A   1      48.359  26.414  28.640  1.00  0.00     0.057 A 
ATOM     49  C   UNL A   1      49.100  25.917  29.715  1.00  0.00     0.134 A 
ATOM     50  C   UNL A   1      48.983  26.456  27.387  1.00  0.00     0.134 A 
ATOM     51  F   UNL A   1      48.560  25.864  30.942  1.00  0.00    -0.206 F 
ATOM     52  C   UNL A   1      50.414  25.475  29.552  1.00  0.00     0.040 A 
ATOM     53  C   UNL A   1      50.287  25.994  27.202  1.00  0.00     0.040 A 
ATOM     54  F   UNL A   1      48.318  26.909  26.313  1.00  0.00    -0.206 F 
ATOM     55  C   UNL A   1      51.006  25.504  28.289  1.00  0.00     0.006 A 
ENDBRANCH  27  48
BRANCH  39  56
ATOM     56  C   UNL A   1      45.129  32.362  30.367  1.00  0.00     0.057 A 
ATOM     57  C   UNL A   1      45.332  33.397  29.447  1.00  0.00     0.134 A 
ATOM     58  C   UNL A   1      45.342  32.647  31.722  1.00  0.00     0.134 A 
ATOM     59  F   UNL A   1      45.160  33.183  28.134  1.00  0.00    -0.206 F 
ATOM     60  C   UNL A   1      45.735  34.669  29.859  1.00  0.00     0.040 A 
ATOM     61  C   UNL A   1      45.721  33.921  32.149  1.00  0.00     0.040 A 
ATOM     62  F   UNL A   1      45.161  31.700  32.655  1.00  0.00    -0.206 F 
ATOM     63  C   UNL A   1      45.919  34.935  31.216  1.00  0.00     0.006 A 
ENDBRANCH  39  56
ENDBRANCH  13  14
ENDBRANCH   6   8
ENDBRANCH   3   4
ENDBRANCH   2   3
ENDBRANCH   1   2
BRANCH   1  64
ATOM     64  C   UNL A   1      36.122  21.544  25.232  1.00  0.00     0.002 C 
BRANCH  64  65
ATOM     65  C   UNL A   1      36.044  22.406  23.967  1.00  0.00     0.021 C 
BRANCH  65  66
ATOM     66  C   UNL A   1      34.663  23.017  23.721  1.00  0.00     0.116 C 
BRANCH  66  67
ATOM     67  N   UNL A   1      33.744  22.695  24.797  1.00  0.00    -0.356 N 
ATOM     68  C   UNL A   1      32.932  23.462  25.574  1.00  0.00     0.227 C 
ATOM     69  H   UNL A   1      33.700  21.734  25.006  1.00  0.00     0.163 HD
ATOM     70  O   UNL A   1      32.382  22.877  26.512  1.00  0.00    -0.274 OA
BRANCH  68  71
ATOM     71  C   UNL A   1      32.678  24.947  25.296  1.00  0.00     0.061 C 
ATOM     72  C   UNL A   1      31.738  25.463  26.435  1.00  0.00     0.053 C 
ATOM     73  C   UNL A   1      33.980  25.793  25.494  1.00  0.00     0.053 C 
ATOM     74  C   UNL A   1      32.176  26.883  26.604  1.00  0.00    -0.044 A 
ATOM     75  C   UNL A   1      33.433  27.083  26.029  1.00  0.00    -0.044 A 
ATOM     76  C   UNL A   1      31.495  27.917  27.224  1.00  0.00     0.004 A 
ATOM     77  C   UNL A   1      34.015  28.337  26.012  1.00  0.00     0.004 A 
ATOM     78  C   UNL A   1      32.076  29.186  27.213  1.00  0.00     0.000 A 
ATOM     79  C   UNL A   1      33.320  29.398  26.598  1.00  0.00     0.000 A 
BRANCH  71  80
ATOM     80  C   UNL A   1      32.091  25.278  23.891  1.00  0.00     0.053 C 
BRANCH  80  81
ATOM     81  C   UNL A   1      31.010  26.331  23.726  1.00  0.00    -0.044 A 
ATOM     82  C   UNL A   1      31.227  27.617  23.226  1.00  0.00     0.024 A 
ATOM     83  C   UNL A   1      29.682  25.955  23.971  1.00  0.00     0.024 A 
ATOM     84  C   UNL A   1      30.137  28.440  22.972  1.00  0.00     0.111 A 
ATOM     85  C   UNL A   1      28.659  26.852  23.702  1.00  0.00     0.111 A 
ATOM     86  N   UNL A   1      28.856  28.085  23.195  1.00  0.00    -0.265 NA
ENDBRANCH  80  81
ENDBRANCH  71  80
ENDBRANCH  68  71
ENDBRANCH  66  67
ENDBRANCH  65  66
ENDBRANCH  64  65
ENDBRANCH   1  64
TORSDOF 15
ENDMDL
