MODEL 1
REMARK VINA RESULT:     -12.4      0.000      0.000
REMARK SMILES COc1cc(-c2ccc(F)c(C(F)(F)F)c2)ccc1C(=O)NCCCCCCNC(=O)c1ccc(-c2c3nc(c(-c4c(F)cccc4F)c4ccc([nH]4)c(-c4c(F)cccc4F)c4nc(c(-c5c(F)cccc5F)c5ccc2[nH]5)C=C4)C=C3)cc1
REMARK SMILES IDX 25 1 24 2 23 3 22 4 20 5 21 6 19 8 3 9 4 10 5 11 18 12 17 13
REMARK SMILES IDX 2 14 1 15 6 16 7 17 16 18 8 19 11 20 9 21 10 22 12 23 13 24
REMARK SMILES IDX 14 25 15 26 26 27 27 28 28 29 29 30 30 31 31 33 32 34 33 35
REMARK SMILES IDX 85 36 34 37 84 38 35 39 36 40 37 41 78 42 38 43 83 44 77 45
REMARK SMILES IDX 79 46 39 47 82 48 76 49 75 50 40 52 66 53 49 54 65 55 50 56
REMARK SMILES IDX 53 57 64 58 80 59 51 60 52 61 63 63 81 64 54 65 41 66 42 67
REMARK SMILES IDX 47 68 43 69 44 70 46 71 48 72 45 73 67 74 68 75 73 76 69 77
REMARK SMILES IDX 70 78 72 79 74 80 71 81 55 82 56 83 61 84 57 85 58 86 60 87
REMARK SMILES IDX 62 88 59 89
REMARK H PARENT 22 7 29 32 79 51 53 62
REMARK Flexibility Score: inf
ROOT
ATOM      1  C   UNL A   1      32.432  29.548  26.472  1.00  0.00     0.002 C 
ENDROOT
BRANCH   1   2
ATOM      2  C   UNL A   1      31.856  28.373  27.269  1.00  0.00     0.021 C 
BRANCH   2   3
ATOM      3  C   UNL A   1      31.665  27.074  26.496  1.00  0.00     0.116 C 
BRANCH   3   4
ATOM      4  N   UNL A   1      30.583  27.078  25.536  1.00  0.00    -0.352 N 
ATOM      5  C   UNL A   1      30.043  26.027  24.830  1.00  0.00     0.255 C 
ATOM      6  O   UNL A   1      29.073  26.251  24.106  1.00  0.00    -0.269 OA
ATOM      7  H   UNL A   1      30.175  27.957  25.363  1.00  0.00     0.163 HD
BRANCH   5   8
ATOM      8  C   UNL A   1      30.633  24.656  24.832  1.00  0.00     0.081 A 
ATOM      9  C   UNL A   1      30.572  23.718  25.866  1.00  0.00     0.132 A 
ATOM     10  C   UNL A   1      31.346  22.552  25.806  1.00  0.00     0.056 A 
ATOM     11  C   UNL A   1      32.131  22.240  24.686  1.00  0.00    -0.015 A 
ATOM     12  C   UNL A   1      31.339  24.303  23.665  1.00  0.00     0.018 A 
ATOM     13  C   UNL A   1      32.072  23.110  23.591  1.00  0.00     0.010 A 
BRANCH   9  14
ATOM     14  O   UNL A   1      29.877  23.863  27.034  1.00  0.00    -0.496 OA
ATOM     15  C   UNL A   1      29.218  22.662  27.430  1.00  0.00     0.278 C 
ENDBRANCH   9  14
BRANCH  11  16
ATOM     16  C   UNL A   1      33.044  21.086  24.724  1.00  0.00    -0.017 A 
ATOM     17  C   UNL A   1      34.378  21.220  25.143  1.00  0.00     0.012 A 
ATOM     18  C   UNL A   1      32.626  19.834  24.233  1.00  0.00     0.025 A 
ATOM     19  C   UNL A   1      35.270  20.150  25.046  1.00  0.00     0.040 A 
ATOM     20  C   UNL A   1      33.517  18.753  24.127  1.00  0.00     0.092 A 
ATOM     21  C   UNL A   1      34.835  18.933  24.534  1.00  0.00     0.135 A 
ATOM     22  F   UNL A   1      35.714  17.929  24.419  1.00  0.00    -0.206 F 
BRANCH  20  23
ATOM     23  C   UNL A   1      33.099  17.434  23.554  1.00  0.00     0.419 C 
ATOM     24  F   UNL A   1      34.066  16.856  22.791  1.00  0.00    -0.166 F 
ATOM     25  F   UNL A   1      32.764  16.521  24.506  1.00  0.00    -0.166 F 
ATOM     26  F   UNL A   1      32.006  17.530  22.742  1.00  0.00    -0.166 F 
ENDBRANCH  20  23
ENDBRANCH  11  16
ENDBRANCH   5   8
ENDBRANCH   3   4
ENDBRANCH   2   3
ENDBRANCH   1   2
BRANCH   1  27
ATOM     27  C   UNL A   1      31.437  30.553  25.882  1.00  0.00     0.002 C 
BRANCH  27  28
ATOM     28  C   UNL A   1      31.317  31.908  26.584  1.00  0.00     0.021 C 
BRANCH  28  29
ATOM     29  C   UNL A   1      32.623  32.555  27.029  1.00  0.00     0.116 C 
BRANCH  29  30
ATOM     30  N   UNL A   1      32.452  33.906  27.535  1.00  0.00    -0.352 N 
ATOM     31  C   UNL A   1      33.138  34.569  28.520  1.00  0.00     0.251 C 
ATOM     32  H   UNL A   1      31.733  34.424  27.105  1.00  0.00     0.163 HD
ATOM     33  O   UNL A   1      32.765  35.685  28.880  1.00  0.00    -0.269 OA
BRANCH  31  34
ATOM     34  C   UNL A   1      34.306  33.942  29.178  1.00  0.00     0.039 A 
ATOM     35  C   UNL A   1      34.080  32.964  30.152  1.00  0.00     0.014 A 
ATOM     36  C   UNL A   1      35.613  34.315  28.855  1.00  0.00     0.014 A 
ATOM     37  C   UNL A   1      35.161  32.316  30.752  1.00  0.00     0.010 A 
ATOM     38  C   UNL A   1      36.689  33.615  29.397  1.00  0.00     0.010 A 
ATOM     39  C   UNL A   1      36.475  32.609  30.352  1.00  0.00    -0.014 A 
BRANCH  39  40
ATOM     40  C   UNL A   1      37.632  31.867  30.918  1.00  0.00     0.031 A 
ATOM     41  C   UNL A   1      38.134  32.181  32.301  1.00  0.00     0.074 A 
ATOM     42  C   UNL A   1      38.268  30.949  30.164  1.00  0.00     0.049 A 
ATOM     43  N   UNL A   1      39.163  31.685  32.941  1.00  0.00    -0.248 NA
ATOM     44  C   UNL A   1      37.398  33.207  33.056  1.00  0.00     0.031 C 
ATOM     45  C   UNL A   1      37.906  30.583  28.793  1.00  0.00     0.029 A 
ATOM     46  N   UNL A   1      39.359  30.162  30.440  1.00  0.00    -0.354 N 
ATOM     47  C   UNL A   1      39.203  32.344  34.163  1.00  0.00     0.074 A 
ATOM     48  C   UNL A   1      38.131  33.314  34.155  1.00  0.00     0.031 C 
ATOM     49  C   UNL A   1      38.742  29.627  28.357  1.00  0.00     0.029 A 
ATOM     50  C   UNL A   1      39.726  29.344  29.399  1.00  0.00     0.049 A 
ATOM     51  H   UNL A   1      39.833  30.182  31.302  1.00  0.00     0.167 HD
ATOM     52  C   UNL A   1      40.041  32.141  35.207  1.00  0.00     0.037 A 
ATOM     53  C   UNL A   1      40.745  28.470  29.289  1.00  0.00     0.037 A 
ATOM     54  C   UNL A   1      41.099  31.163  35.218  1.00  0.00     0.049 A 
ATOM     55  C   UNL A   1      41.677  28.282  30.455  1.00  0.00     0.074 A 
ATOM     56  C   UNL A   1      41.968  30.847  36.247  1.00  0.00     0.029 A 
ATOM     57  N   UNL A   1      41.434  30.350  34.146  1.00  0.00    -0.354 N 
ATOM     58  N   UNL A   1      41.661  28.863  31.630  1.00  0.00    -0.248 NA
ATOM     59  C   UNL A   1      42.767  27.312  30.281  1.00  0.00     0.031 C 
ATOM     60  C   UNL A   1      42.865  29.881  35.779  1.00  0.00     0.029 A 
ATOM     61  C   UNL A   1      42.516  29.551  34.480  1.00  0.00     0.049 A 
ATOM     62  H   UNL A   1      40.972  30.341  33.277  1.00  0.00     0.167 HD
ATOM     63  C   UNL A   1      42.714  28.307  32.344  1.00  0.00     0.074 A 
ATOM     64  C   UNL A   1      43.339  27.332  31.476  1.00  0.00     0.031 C 
ATOM     65  C   UNL A   1      43.125  28.579  33.607  1.00  0.00     0.037 A 
BRANCH  52  66
ATOM     66  C   UNL A   1      39.850  32.997  36.427  1.00  0.00     0.057 A 
ATOM     67  C   UNL A   1      38.951  32.648  37.444  1.00  0.00     0.134 A 
ATOM     68  C   UNL A   1      40.604  34.164  36.608  1.00  0.00     0.134 A 
ATOM     69  F   UNL A   1      38.190  31.548  37.330  1.00  0.00    -0.206 F 
ATOM     70  C   UNL A   1      38.786  33.442  38.580  1.00  0.00     0.040 A 
ATOM     71  C   UNL A   1      40.471  34.950  37.755  1.00  0.00     0.040 A 
ATOM     72  F   UNL A   1      41.490  34.554  35.681  1.00  0.00    -0.206 F 
ATOM     73  C   UNL A   1      39.554  34.593  38.742  1.00  0.00     0.006 A 
ENDBRANCH  52  66
BRANCH  53  74
ATOM     74  C   UNL A   1      40.933  27.696  28.035  1.00  0.00     0.057 A 
ATOM     75  C   UNL A   1      40.357  26.430  27.875  1.00  0.00     0.134 A 
ATOM     76  C   UNL A   1      41.703  28.191  26.977  1.00  0.00     0.134 A 
ATOM     77  F   UNL A   1      39.622  25.892  28.860  1.00  0.00    -0.206 F 
ATOM     78  C   UNL A   1      40.559  25.675  26.718  1.00  0.00     0.040 A 
ATOM     79  C   UNL A   1      41.891  27.459  25.803  1.00  0.00     0.040 A 
ATOM     80  F   UNL A   1      42.277  29.400  27.063  1.00  0.00    -0.206 F 
ATOM     81  C   UNL A   1      41.325  26.192  25.676  1.00  0.00     0.006 A 
ENDBRANCH  53  74
BRANCH  65  82
ATOM     82  C   UNL A   1      44.281  27.782  34.143  1.00  0.00     0.057 A 
ATOM     83  C   UNL A   1      44.112  26.508  34.700  1.00  0.00     0.134 A 
ATOM     84  C   UNL A   1      45.587  28.284  34.063  1.00  0.00     0.134 A 
ATOM     85  F   UNL A   1      42.887  25.975  34.818  1.00  0.00    -0.206 F 
ATOM     86  C   UNL A   1      45.197  25.774  35.182  1.00  0.00     0.040 A 
ATOM     87  C   UNL A   1      46.682  27.545  34.513  1.00  0.00     0.040 A 
ATOM     88  F   UNL A   1      45.822  29.493  33.532  1.00  0.00    -0.206 F 
ATOM     89  C   UNL A   1      46.487  26.289  35.082  1.00  0.00     0.006 A 
ENDBRANCH  65  82
ENDBRANCH  39  40
ENDBRANCH  31  34
ENDBRANCH  29  30
ENDBRANCH  28  29
ENDBRANCH  27  28
ENDBRANCH   1  27
TORSDOF 16
ENDMDL
MODEL 2
REMARK VINA RESULT:     -12.3      4.555      6.637
REMARK SMILES COc1cc(-c2ccc(F)c(C(F)(F)F)c2)ccc1C(=O)NCCCCCCNC(=O)c1ccc(-c2c3nc(c(-c4c(F)cccc4F)c4ccc([nH]4)c(-c4c(F)cccc4F)c4nc(c(-c5c(F)cccc5F)c5ccc2[nH]5)C=C4)C=C3)cc1
REMARK SMILES IDX 25 1 24 2 23 3 22 4 20 5 21 6 19 8 3 9 4 10 5 11 18 12 17 13
REMARK SMILES IDX 2 14 1 15 6 16 7 17 16 18 8 19 11 20 9 21 10 22 12 23 13 24
REMARK SMILES IDX 14 25 15 26 26 27 27 28 28 29 29 30 30 31 31 33 32 34 33 35
REMARK SMILES IDX 85 36 34 37 84 38 35 39 36 40 37 41 78 42 38 43 83 44 77 45
REMARK SMILES IDX 79 46 39 47 82 48 76 49 75 50 40 52 66 53 49 54 65 55 50 56
REMARK SMILES IDX 53 57 64 58 80 59 51 60 52 61 63 63 81 64 54 65 41 66 42 67
REMARK SMILES IDX 47 68 43 69 44 70 46 71 48 72 45 73 67 74 68 75 73 76 69 77
REMARK SMILES IDX 70 78 72 79 74 80 71 81 55 82 56 83 61 84 57 85 58 86 60 87
REMARK SMILES IDX 62 88 59 89
REMARK H PARENT 22 7 29 32 79 51 53 62
REMARK Flexibility Score: inf
ROOT
ATOM      1  C   UNL A   1      34.525  25.597  25.214  1.00  0.00     0.002 C 
ENDROOT
BRANCH   1   2
ATOM      2  C   UNL A   1      34.421  24.073  25.332  1.00  0.00     0.021 C 
BRANCH   2   3
ATOM      3  C   UNL A   1      34.783  23.282  24.082  1.00  0.00     0.116 C 
BRANCH   3   4
ATOM      4  N   UNL A   1      33.782  22.338  23.635  1.00  0.00    -0.352 N 
ATOM      5  C   UNL A   1      32.555  22.580  23.058  1.00  0.00     0.255 C 
ATOM      6  O   UNL A   1      31.885  21.613  22.694  1.00  0.00    -0.269 OA
ATOM      7  H   UNL A   1      34.009  21.389  23.762  1.00  0.00     0.163 HD
BRANCH   5   8
ATOM      8  C   UNL A   1      31.966  23.946  22.938  1.00  0.00     0.081 A 
ATOM      9  C   UNL A   1      32.305  24.926  22.001  1.00  0.00     0.132 A 
ATOM     10  C   UNL A   1      31.814  26.231  22.138  1.00  0.00     0.056 A 
ATOM     11  C   UNL A   1      30.909  26.579  23.152  1.00  0.00    -0.015 A 
ATOM     12  C   UNL A   1      30.983  24.263  23.895  1.00  0.00     0.018 A 
ATOM     13  C   UNL A   1      30.458  25.559  23.997  1.00  0.00     0.010 A 
BRANCH   9  14
ATOM     14  O   UNL A   1      33.182  24.768  20.965  1.00  0.00    -0.496 OA
ATOM     15  C   UNL A   1      32.635  25.193  19.718  1.00  0.00     0.278 C 
ENDBRANCH   9  14
BRANCH  11  16
ATOM     16  C   UNL A   1      30.536  27.989  23.355  1.00  0.00    -0.017 A 
ATOM     17  C   UNL A   1      31.250  28.817  24.238  1.00  0.00     0.012 A 
ATOM     18  C   UNL A   1      29.381  28.513  22.744  1.00  0.00     0.025 A 
ATOM     19  C   UNL A   1      30.806  30.109  24.523  1.00  0.00     0.040 A 
ATOM     20  C   UNL A   1      28.924  29.810  23.029  1.00  0.00     0.092 A 
ATOM     21  C   UNL A   1      29.648  30.590  23.925  1.00  0.00     0.135 A 
ATOM     22  F   UNL A   1      29.221  31.820  24.237  1.00  0.00    -0.206 F 
BRANCH  20  23
ATOM     23  C   UNL A   1      27.665  30.357  22.429  1.00  0.00     0.419 C 
ATOM     24  F   UNL A   1      27.686  30.366  21.069  1.00  0.00    -0.166 F 
ATOM     25  F   UNL A   1      26.554  29.659  22.792  1.00  0.00    -0.166 F 
ATOM     26  F   UNL A   1      27.419  31.649  22.796  1.00  0.00    -0.166 F 
ENDBRANCH  20  23
ENDBRANCH  11  16
ENDBRANCH   5   8
ENDBRANCH   3   4
ENDBRANCH   2   3
ENDBRANCH   1   2
BRANCH   1  27
ATOM     27  C   UNL A   1      33.459  26.432  25.931  1.00  0.00     0.002 C 
BRANCH  27  28
ATOM     28  C   UNL A   1      33.812  27.886  26.251  1.00  0.00     0.021 C 
BRANCH  28  29
ATOM     29  C   UNL A   1      33.333  28.415  27.598  1.00  0.00     0.116 C 
BRANCH  29  30
ATOM     30  N   UNL A   1      33.373  29.864  27.693  1.00  0.00    -0.352 N 
ATOM     31  C   UNL A   1      34.408  30.694  28.039  1.00  0.00     0.251 C 
ATOM     32  H   UNL A   1      32.527  30.320  27.476  1.00  0.00     0.163 HD
ATOM     33  O   UNL A   1      34.207  31.901  28.167  1.00  0.00    -0.269 OA
BRANCH  31  34
ATOM     34  C   UNL A   1      35.760  30.148  28.292  1.00  0.00     0.039 A 
ATOM     35  C   UNL A   1      36.681  30.129  27.239  1.00  0.00     0.014 A 
ATOM     36  C   UNL A   1      36.123  29.647  29.544  1.00  0.00     0.014 A 
ATOM     37  C   UNL A   1      37.981  29.670  27.460  1.00  0.00     0.010 A 
ATOM     38  C   UNL A   1      37.441  29.262  29.783  1.00  0.00     0.010 A 
ATOM     39  C   UNL A   1      38.384  29.268  28.744  1.00  0.00    -0.014 A 
BRANCH  39  40
ATOM     40  C   UNL A   1      39.787  28.859  29.015  1.00  0.00     0.031 A 
ATOM     41  C   UNL A   1      40.740  29.811  29.683  1.00  0.00     0.074 A 
ATOM     42  C   UNL A   1      40.218  27.650  28.607  1.00  0.00     0.049 A 
ATOM     43  N   UNL A   1      42.014  29.658  29.948  1.00  0.00    -0.248 NA
ATOM     44  C   UNL A   1      40.200  31.119  30.084  1.00  0.00     0.031 C 
ATOM     45  C   UNL A   1      39.404  26.651  27.911  1.00  0.00     0.029 A 
ATOM     46  N   UNL A   1      41.452  27.056  28.711  1.00  0.00    -0.354 N 
ATOM     47  C   UNL A   1      42.425  30.848  30.535  1.00  0.00     0.074 A 
ATOM     48  C   UNL A   1      41.283  31.735  30.535  1.00  0.00     0.031 C 
ATOM     49  C   UNL A   1      40.151  25.562  27.673  1.00  0.00     0.029 A 
ATOM     50  C   UNL A   1      41.508  25.799  28.159  1.00  0.00     0.049 A 
ATOM     51  H   UNL A   1      42.224  27.490  29.141  1.00  0.00     0.167 HD
ATOM     52  C   UNL A   1      43.638  31.164  31.048  1.00  0.00     0.037 A 
ATOM     53  C   UNL A   1      42.537  24.938  28.045  1.00  0.00     0.037 A 
ATOM     54  C   UNL A   1      44.769  30.273  31.059  1.00  0.00     0.049 A 
ATOM     55  C   UNL A   1      43.881  25.324  28.601  1.00  0.00     0.074 A 
ATOM     56  C   UNL A   1      46.025  30.483  31.602  1.00  0.00     0.029 A 
ATOM     57  N   UNL A   1      44.783  29.006  30.494  1.00  0.00    -0.354 N 
ATOM     58  N   UNL A   1      44.237  26.427  29.215  1.00  0.00    -0.248 NA
ATOM     59  C   UNL A   1      44.964  24.342  28.455  1.00  0.00     0.031 C 
ATOM     60  C   UNL A   1      46.816  29.364  31.317  1.00  0.00     0.029 A 
ATOM     61  C   UNL A   1      46.035  28.434  30.652  1.00  0.00     0.049 A 
ATOM     62  H   UNL A   1      44.018  28.578  30.048  1.00  0.00     0.167 HD
ATOM     63  C   UNL A   1      45.573  26.259  29.554  1.00  0.00     0.074 A 
ATOM     64  C   UNL A   1      45.959  24.942  29.093  1.00  0.00     0.031 C 
ATOM     65  C   UNL A   1      46.405  27.118  30.193  1.00  0.00     0.037 A 
BRANCH  52  66
ATOM     66  C   UNL A   1      43.805  32.535  31.640  1.00  0.00     0.057 A 
ATOM     67  C   UNL A   1      44.260  33.620  30.878  1.00  0.00     0.134 A 
ATOM     68  C   UNL A   1      43.470  32.783  32.977  1.00  0.00     0.134 A 
ATOM     69  F   UNL A   1      44.608  33.451  29.593  1.00  0.00    -0.206 F 
ATOM     70  C   UNL A   1      44.404  34.894  31.432  1.00  0.00     0.040 A 
ATOM     71  C   UNL A   1      43.580  34.060  33.534  1.00  0.00     0.040 A 
ATOM     72  F   UNL A   1      43.021  31.794  33.763  1.00  0.00    -0.206 F 
ATOM     73  C   UNL A   1      44.055  35.118  32.762  1.00  0.00     0.006 A 
ENDBRANCH  52  66
BRANCH  53  74
ATOM     74  C   UNL A   1      42.338  23.619  27.391  1.00  0.00     0.057 A 
ATOM     75  C   UNL A   1      42.021  22.480  28.141  1.00  0.00     0.134 A 
ATOM     76  C   UNL A   1      42.475  23.461  26.007  1.00  0.00     0.134 A 
ATOM     77  F   UNL A   1      41.894  22.563  29.474  1.00  0.00    -0.206 F 
ATOM     78  C   UNL A   1      41.872  21.228  27.542  1.00  0.00     0.040 A 
ATOM     79  C   UNL A   1      42.300  22.219  25.392  1.00  0.00     0.040 A 
ATOM     80  F   UNL A   1      42.770  24.513  25.229  1.00  0.00    -0.206 F 
ATOM     81  C   UNL A   1      42.007  21.097  26.163  1.00  0.00     0.006 A 
ENDBRANCH  53  74
BRANCH  65  82
ATOM     82  C   UNL A   1      47.804  26.646  30.468  1.00  0.00     0.057 A 
ATOM     83  C   UNL A   1      48.139  25.950  31.637  1.00  0.00     0.134 A 
ATOM     84  C   UNL A   1      48.823  26.859  29.531  1.00  0.00     0.134 A 
ATOM     85  F   UNL A   1      47.213  25.724  32.581  1.00  0.00    -0.206 F 
ATOM     86  C   UNL A   1      49.440  25.506  31.874  1.00  0.00     0.040 A 
ATOM     87  C   UNL A   1      50.121  26.393  29.742  1.00  0.00     0.040 A 
ATOM     88  F   UNL A   1      48.571  27.511  28.385  1.00  0.00    -0.206 F 
ATOM     89  C   UNL A   1      50.434  25.721  30.921  1.00  0.00     0.006 A 
ENDBRANCH  65  82
ENDBRANCH  39  40
ENDBRANCH  31  34
ENDBRANCH  29  30
ENDBRANCH  28  29
ENDBRANCH  27  28
ENDBRANCH   1  27
TORSDOF 16
ENDMDL
MODEL 3
REMARK VINA RESULT:     -12.3      5.004      7.260
REMARK SMILES COc1cc(-c2ccc(F)c(C(F)(F)F)c2)ccc1C(=O)NCCCCCCNC(=O)c1ccc(-c2c3nc(c(-c4c(F)cccc4F)c4ccc([nH]4)c(-c4c(F)cccc4F)c4nc(c(-c5c(F)cccc5F)c5ccc2[nH]5)C=C4)C=C3)cc1
REMARK SMILES IDX 25 1 24 2 23 3 22 4 20 5 21 6 19 8 3 9 4 10 5 11 18 12 17 13
REMARK SMILES IDX 2 14 1 15 6 16 7 17 16 18 8 19 11 20 9 21 10 22 12 23 13 24
REMARK SMILES IDX 14 25 15 26 26 27 27 28 28 29 29 30 30 31 31 33 32 34 33 35
REMARK SMILES IDX 85 36 34 37 84 38 35 39 36 40 37 41 78 42 38 43 83 44 77 45
REMARK SMILES IDX 79 46 39 47 82 48 76 49 75 50 40 52 66 53 49 54 65 55 50 56
REMARK SMILES IDX 53 57 64 58 80 59 51 60 52 61 63 63 81 64 54 65 41 66 42 67
REMARK SMILES IDX 47 68 43 69 44 70 46 71 48 72 45 73 67 74 68 75 73 76 69 77
REMARK SMILES IDX 70 78 72 79 74 80 71 81 55 82 56 83 61 84 57 85 58 86 60 87
REMARK SMILES IDX 62 88 59 89
REMARK H PARENT 22 7 29 32 79 51 53 62
REMARK Flexibility Score: inf
ROOT
ATOM      1  C   UNL A   1      31.771  27.075  26.507  1.00  0.00     0.002 C 
ENDROOT
BRANCH   1   2
ATOM      2  C   UNL A   1      31.985  25.558  26.487  1.00  0.00     0.021 C 
BRANCH   2   3
ATOM      3  C   UNL A   1      30.729  24.711  26.334  1.00  0.00     0.116 C 
BRANCH   3   4
ATOM      4  N   UNL A   1      30.705  23.842  25.177  1.00  0.00    -0.352 N 
ATOM      5  C   UNL A   1      30.588  24.170  23.845  1.00  0.00     0.255 C 
ATOM      6  O   UNL A   1      30.655  23.263  23.016  1.00  0.00    -0.269 OA
ATOM      7  H   UNL A   1      30.783  22.880  25.369  1.00  0.00     0.163 HD
BRANCH   5   8
ATOM      8  C   UNL A   1      30.292  25.554  23.370  1.00  0.00     0.081 A 
ATOM      9  C   UNL A   1      31.094  26.345  22.543  1.00  0.00     0.132 A 
ATOM     10  C   UNL A   1      30.786  27.698  22.348  1.00  0.00     0.056 A 
ATOM     11  C   UNL A   1      29.631  28.280  22.892  1.00  0.00    -0.015 A 
ATOM     12  C   UNL A   1      29.083  26.105  23.836  1.00  0.00     0.018 A 
ATOM     13  C   UNL A   1      28.754  27.447  23.596  1.00  0.00     0.010 A 
BRANCH   9  14
ATOM     14  O   UNL A   1      32.259  25.951  21.948  1.00  0.00    -0.496 OA
ATOM     15  C   UNL A   1      33.258  26.968  21.975  1.00  0.00     0.278 C 
ENDBRANCH   9  14
BRANCH  11  16
ATOM     16  C   UNL A   1      29.422  29.735  22.792  1.00  0.00    -0.017 A 
ATOM     17  C   UNL A   1      29.618  30.582  23.895  1.00  0.00     0.012 A 
ATOM     18  C   UNL A   1      28.911  30.298  21.607  1.00  0.00     0.025 A 
ATOM     19  C   UNL A   1      29.287  31.936  23.826  1.00  0.00     0.040 A 
ATOM     20  C   UNL A   1      28.570  31.658  21.529  1.00  0.00     0.092 A 
ATOM     21  C   UNL A   1      28.761  32.459  22.651  1.00  0.00     0.135 A 
ATOM     22  F   UNL A   1      28.419  33.753  22.615  1.00  0.00    -0.206 F 
BRANCH  20  23
ATOM     23  C   UNL A   1      27.973  32.256  20.293  1.00  0.00     0.419 C 
ATOM     24  F   UNL A   1      27.162  33.318  20.555  1.00  0.00    -0.166 F 
ATOM     25  F   UNL A   1      28.909  32.697  19.408  1.00  0.00    -0.166 F 
ATOM     26  F   UNL A   1      27.199  31.374  19.595  1.00  0.00    -0.166 F 
ENDBRANCH  20  23
ENDBRANCH  11  16
ENDBRANCH   5   8
ENDBRANCH   3   4
ENDBRANCH   2   3
ENDBRANCH   1   2
BRANCH   1  27
ATOM     27  C   UNL A   1      32.455  27.896  25.408  1.00  0.00     0.002 C 
BRANCH  27  28
ATOM     28  C   UNL A   1      33.537  28.884  25.848  1.00  0.00     0.021 C 
BRANCH  28  29
ATOM     29  C   UNL A   1      33.899  28.873  27.328  1.00  0.00     0.116 C 
BRANCH  29  30
ATOM     30  N   UNL A   1      33.869  30.191  27.937  1.00  0.00    -0.352 N 
ATOM     31  C   UNL A   1      34.843  30.860  28.633  1.00  0.00     0.251 C 
ATOM     32  H   UNL A   1      33.019  30.679  27.835  1.00  0.00     0.163 HD
ATOM     33  O   UNL A   1      34.582  31.937  29.168  1.00  0.00    -0.269 OA
BRANCH  31  34
ATOM     34  C   UNL A   1      36.199  30.285  28.773  1.00  0.00     0.039 A 
ATOM     35  C   UNL A   1      37.072  30.357  27.683  1.00  0.00     0.014 A 
ATOM     36  C   UNL A   1      36.612  29.669  29.957  1.00  0.00     0.014 A 
ATOM     37  C   UNL A   1      38.376  29.871  27.802  1.00  0.00     0.010 A 
ATOM     38  C   UNL A   1      37.935  29.256  30.101  1.00  0.00     0.010 A 
ATOM     39  C   UNL A   1      38.831  29.352  29.025  1.00  0.00    -0.014 A 
BRANCH  39  40
ATOM     40  C   UNL A   1      40.241  28.911  29.194  1.00  0.00     0.031 A 
ATOM     41  C   UNL A   1      41.264  29.845  29.777  1.00  0.00     0.074 A 
ATOM     42  C   UNL A   1      40.611  27.687  28.770  1.00  0.00     0.049 A 
ATOM     43  N   UNL A   1      42.550  29.663  29.947  1.00  0.00    -0.248 NA
ATOM     44  C   UNL A   1      40.787  31.171  30.202  1.00  0.00     0.031 C 
ATOM     45  C   UNL A   1      39.723  26.702  28.148  1.00  0.00     0.029 A 
ATOM     46  N   UNL A   1      41.835  27.064  28.787  1.00  0.00    -0.354 N 
ATOM     47  C   UNL A   1      43.033  30.849  30.486  1.00  0.00     0.074 A 
ATOM     48  C   UNL A   1      41.916  31.764  30.563  1.00  0.00     0.031 C 
ATOM     49  C   UNL A   1      40.424  25.592  27.868  1.00  0.00     0.029 A 
ATOM     50  C   UNL A   1      41.818  25.801  28.247  1.00  0.00     0.049 A 
ATOM     51  H   UNL A   1      42.647  27.483  29.152  1.00  0.00     0.167 HD
ATOM     52  C   UNL A   1      44.288  31.140  30.903  1.00  0.00     0.037 A 
ATOM     53  C   UNL A   1      42.815  24.913  28.066  1.00  0.00     0.037 A 
ATOM     54  C   UNL A   1      45.396  30.222  30.839  1.00  0.00     0.049 A 
ATOM     55  C   UNL A   1      44.206  25.272  28.515  1.00  0.00     0.074 A 
ATOM     56  C   UNL A   1      46.694  30.406  31.283  1.00  0.00     0.029 A 
ATOM     57  N   UNL A   1      45.337  28.950  30.290  1.00  0.00    -0.354 N 
ATOM     58  N   UNL A   1      44.634  26.372  29.086  1.00  0.00    -0.248 NA
ATOM     59  C   UNL A   1      45.251  24.262  28.298  1.00  0.00     0.031 C 
ATOM     60  C   UNL A   1      47.434  29.266  30.953  1.00  0.00     0.029 A 
ATOM     61  C   UNL A   1      46.583  28.348  30.360  1.00  0.00     0.049 A 
ATOM     62  H   UNL A   1      44.530  28.535  29.908  1.00  0.00     0.167 HD
ATOM     63  C   UNL A   1      45.987  26.174  29.326  1.00  0.00     0.074 A 
ATOM     64  C   UNL A   1      46.306  24.844  28.852  1.00  0.00     0.031 C 
ATOM     65  C   UNL A   1      46.885  27.019  29.890  1.00  0.00     0.037 A 
BRANCH  52  66
ATOM     66  C   UNL A   1      44.533  32.513  31.464  1.00  0.00     0.057 A 
ATOM     67  C   UNL A   1      44.387  32.792  32.829  1.00  0.00     0.134 A 
ATOM     68  C   UNL A   1      44.959  33.559  30.635  1.00  0.00     0.134 A 
ATOM     69  F   UNL A   1      43.973  31.838  33.678  1.00  0.00    -0.206 F 
ATOM     70  C   UNL A   1      44.626  34.067  33.345  1.00  0.00     0.040 A 
ATOM     71  C   UNL A   1      45.231  34.831  31.145  1.00  0.00     0.040 A 
ATOM     72  F   UNL A   1      45.128  33.362  29.320  1.00  0.00    -0.206 F 
ATOM     73  C   UNL A   1      45.057  35.089  32.503  1.00  0.00     0.006 A 
ENDBRANCH  52  66
BRANCH  53  74
ATOM     74  C   UNL A   1      42.536  23.594  27.444  1.00  0.00     0.057 A 
ATOM     75  C   UNL A   1      42.224  22.476  28.229  1.00  0.00     0.134 A 
ATOM     76  C   UNL A   1      42.590  23.412  26.057  1.00  0.00     0.134 A 
ATOM     77  F   UNL A   1      42.174  22.582  29.565  1.00  0.00    -0.206 F 
ATOM     78  C   UNL A   1      41.999  21.222  27.659  1.00  0.00     0.040 A 
ATOM     79  C   UNL A   1      42.339  22.169  25.472  1.00  0.00     0.040 A 
ATOM     80  F   UNL A   1      42.875  24.442  25.248  1.00  0.00    -0.206 F 
ATOM     81  C   UNL A   1      42.052  21.067  26.276  1.00  0.00     0.006 A 
ENDBRANCH  53  74
BRANCH  65  82
ATOM     82  C   UNL A   1      48.290  26.516  30.064  1.00  0.00     0.057 A 
ATOM     83  C   UNL A   1      49.285  26.739  29.103  1.00  0.00     0.134 A 
ATOM     84  C   UNL A   1      48.661  25.831  31.228  1.00  0.00     0.134 A 
ATOM     85  F   UNL A   1      48.994  27.377  27.959  1.00  0.00    -0.206 F 
ATOM     86  C   UNL A   1      50.589  26.277  29.283  1.00  0.00     0.040 A 
ATOM     87  C   UNL A   1      49.969  25.391  31.433  1.00  0.00     0.040 A 
ATOM     88  F   UNL A   1      47.760  25.590  32.194  1.00  0.00    -0.206 F 
ATOM     89  C   UNL A   1      50.936  25.608  30.455  1.00  0.00     0.006 A 
ENDBRANCH  65  82
ENDBRANCH  39  40
ENDBRANCH  31  34
ENDBRANCH  29  30
ENDBRANCH  28  29
ENDBRANCH  27  28
ENDBRANCH   1  27
TORSDOF 16
ENDMDL
