MODEL 1
REMARK VINA RESULT:     -11.6      0.000      0.000
REMARK SMILES CC(C)[C@@H](NC(=O)C1=Cc2cc(Br)ccc2OC1)C(=O)NCCCCCCNC(=O)c1ccc(-c2c3nc(c(-c4c(F)cccc4F)c4ccc([nH]4)c(-c4c(F)cccc4F)c4nc(c(-c5c(F)cccc5F)c5ccc2[nH]5)C=C4)C=C3)cc1
REMARK SMILES IDX 24 1 23 2 22 3 21 4 19 5 20 6 4 8 2 9 1 10 3 11 5 12 6 13
REMARK SMILES IDX 7 15 8 16 9 17 18 18 10 19 17 20 11 21 16 22 12 23 15 24
REMARK SMILES IDX 13 25 14 26 25 27 26 28 27 29 28 30 29 31 30 33 31 34 32 35
REMARK SMILES IDX 84 36 33 37 83 38 34 39 35 40 36 41 77 42 37 43 82 44 76 45
REMARK SMILES IDX 78 46 38 47 81 48 75 49 74 50 39 52 65 53 48 54 64 55 49 56
REMARK SMILES IDX 52 57 63 58 79 59 50 60 51 61 62 63 80 64 53 65 40 66 41 67
REMARK SMILES IDX 46 68 42 69 43 70 45 71 47 72 44 73 66 74 67 75 72 76 68 77
REMARK SMILES IDX 69 78 71 79 73 80 70 81 54 82 55 83 60 84 56 85 57 86 59 87
REMARK SMILES IDX 61 88 58 89
REMARK H PARENT 21 7 5 14 28 32 78 51 52 62
REMARK Flexibility Score: inf
ROOT
ATOM      1  C   UNL A   1      32.358  28.603  26.819  1.00  0.00     0.002 C 
ENDROOT
BRANCH   1   2
ATOM      2  C   UNL A   1      31.487  27.471  26.261  1.00  0.00     0.021 C 
BRANCH   2   3
ATOM      3  C   UNL A   1      32.151  26.100  26.309  1.00  0.00     0.116 C 
BRANCH   3   4
ATOM      4  N   UNL A   1      31.273  25.126  26.919  1.00  0.00    -0.354 N 
ATOM      5  C   UNL A   1      31.253  23.774  26.799  1.00  0.00     0.242 C 
ATOM      6  O   UNL A   1      30.315  23.161  27.318  1.00  0.00    -0.273 OA
ATOM      7  H   UNL A   1      30.583  25.501  27.513  1.00  0.00     0.163 HD
BRANCH   5   8
ATOM      8  C   UNL A   1      32.287  23.024  25.939  1.00  0.00     0.174 C 
BRANCH   8   9
ATOM      9  C   UNL A   1      33.094  22.034  26.844  1.00  0.00     0.015 C 
ATOM     10  C   UNL A   1      33.459  20.730  26.126  1.00  0.00     0.010 C 
ATOM     11  C   UNL A   1      34.385  22.661  27.397  1.00  0.00     0.010 C 
ENDBRANCH   8   9
BRANCH   8  12
ATOM     12  N   UNL A   1      31.708  22.348  24.755  1.00  0.00    -0.340 N 
ATOM     13  C   UNL A   1      31.993  22.517  23.426  1.00  0.00     0.251 C 
ATOM     14  H   UNL A   1      31.016  21.677  24.953  1.00  0.00     0.164 HD
ATOM     15  O   UNL A   1      31.839  21.573  22.654  1.00  0.00    -0.270 OA
BRANCH  13  16
ATOM     16  C   UNL A   1      32.246  23.870  22.898  1.00  0.00     0.055 C 
ATOM     17  C   UNL A   1      31.250  24.759  23.026  1.00  0.00     0.025 C 
ATOM     18  C   UNL A   1      33.523  24.237  22.219  1.00  0.00     0.271 C 
ATOM     19  C   UNL A   1      31.553  26.150  22.704  1.00  0.00     0.018 A 
ATOM     20  O   UNL A   1      33.911  25.611  22.419  1.00  0.00    -0.488 OA
ATOM     21  C   UNL A   1      30.565  27.137  22.781  1.00  0.00     0.027 A 
ATOM     22  C   UNL A   1      32.887  26.520  22.492  1.00  0.00     0.127 A 
ATOM     23  C   UNL A   1      30.927  28.485  22.714  1.00  0.00     0.018 A 
ATOM     24  C   UNL A   1      33.242  27.868  22.429  1.00  0.00     0.048 A 
ATOM     25  Br  UNL A   1      29.605  29.819  22.929  1.00  0.00    -0.051 Br
ATOM     26  C   UNL A   1      32.262  28.855  22.551  1.00  0.00     0.019 A 
ENDBRANCH  13  16
ENDBRANCH   8  12
ENDBRANCH   5   8
ENDBRANCH   3   4
ENDBRANCH   2   3
ENDBRANCH   1   2
BRANCH   1  27
ATOM     27  C   UNL A   1      32.309  29.908  26.020  1.00  0.00     0.002 C 
BRANCH  27  28
ATOM     28  C   UNL A   1      31.854  31.142  26.798  1.00  0.00     0.021 C 
BRANCH  28  29
ATOM     29  C   UNL A   1      32.987  32.056  27.232  1.00  0.00     0.116 C 
BRANCH  29  30
ATOM     30  N   UNL A   1      32.542  33.397  27.575  1.00  0.00    -0.352 N 
ATOM     31  C   UNL A   1      33.141  34.302  28.420  1.00  0.00     0.251 C 
ATOM     32  H   UNL A   1      31.705  33.694  27.149  1.00  0.00     0.163 HD
ATOM     33  O   UNL A   1      32.598  35.359  28.702  1.00  0.00    -0.269 OA
BRANCH  31  34
ATOM     34  C   UNL A   1      34.442  33.945  29.024  1.00  0.00     0.039 A 
ATOM     35  C   UNL A   1      35.633  34.319  28.400  1.00  0.00     0.014 A 
ATOM     36  C   UNL A   1      34.464  33.161  30.179  1.00  0.00     0.014 A 
ATOM     37  C   UNL A   1      36.830  33.760  28.823  1.00  0.00     0.010 A 
ATOM     38  C   UNL A   1      35.683  32.676  30.661  1.00  0.00     0.010 A 
ATOM     39  C   UNL A   1      36.870  32.926  29.953  1.00  0.00    -0.014 A 
BRANCH  39  40
ATOM     40  C   UNL A   1      38.164  32.315  30.351  1.00  0.00     0.031 A 
ATOM     41  C   UNL A   1      38.975  32.887  31.483  1.00  0.00     0.074 A 
ATOM     42  C   UNL A   1      38.566  31.185  29.737  1.00  0.00     0.049 A 
ATOM     43  N   UNL A   1      40.095  32.447  32.000  1.00  0.00    -0.248 NA
ATOM     44  C   UNL A   1      38.468  34.116  32.114  1.00  0.00     0.031 C 
ATOM     45  C   UNL A   1      37.863  30.531  28.631  1.00  0.00     0.029 A 
ATOM     46  N   UNL A   1      39.639  30.368  29.979  1.00  0.00    -0.354 N 
ATOM     47  C   UNL A   1      40.437  33.352  32.998  1.00  0.00     0.074 A 
ATOM     48  C   UNL A   1      39.422  34.383  32.995  1.00  0.00     0.031 C 
ATOM     49  C   UNL A   1      38.483  29.378  28.337  1.00  0.00     0.029 A 
ATOM     50  C   UNL A   1      39.658  29.245  29.189  1.00  0.00     0.049 A 
ATOM     51  H   UNL A   1      40.329  30.567  30.652  1.00  0.00     0.167 HD
ATOM     52  C   UNL A   1      41.491  33.321  33.848  1.00  0.00     0.037 A 
ATOM     53  C   UNL A   1      40.531  28.221  29.152  1.00  0.00     0.037 A 
ATOM     54  C   UNL A   1      42.492  32.285  33.864  1.00  0.00     0.049 A 
ATOM     55  C   UNL A   1      41.703  28.226  30.088  1.00  0.00     0.074 A 
ATOM     56  C   UNL A   1      43.595  32.158  34.690  1.00  0.00     0.029 A 
ATOM     57  N   UNL A   1      42.506  31.189  33.013  1.00  0.00    -0.354 N 
ATOM     58  N   UNL A   1      42.009  29.088  31.026  1.00  0.00    -0.248 NA
ATOM     59  C   UNL A   1      42.655  27.116  29.950  1.00  0.00     0.031 C 
ATOM     60  C   UNL A   1      44.294  31.003  34.318  1.00  0.00     0.029 A 
ATOM     61  C   UNL A   1      43.604  30.390  33.286  1.00  0.00     0.049 A 
ATOM     62  H   UNL A   1      41.835  31.007  32.316  1.00  0.00     0.167 HD
ATOM     63  C   UNL A   1      43.181  28.618  31.602  1.00  0.00     0.074 A 
ATOM     64  C   UNL A   1      43.514  27.382  30.924  1.00  0.00     0.031 C 
ATOM     65  C   UNL A   1      43.921  29.164  32.599  1.00  0.00     0.037 A 
BRANCH  52  66
ATOM     66  C   UNL A   1      41.626  34.458  34.820  1.00  0.00     0.057 A 
ATOM     67  C   UNL A   1      42.312  35.625  34.465  1.00  0.00     0.134 A 
ATOM     68  C   UNL A   1      41.089  34.392  36.114  1.00  0.00     0.134 A 
ATOM     69  F   UNL A   1      42.856  35.752  33.245  1.00  0.00    -0.206 F 
ATOM     70  C   UNL A   1      42.458  36.687  35.359  1.00  0.00     0.040 A 
ATOM     71  C   UNL A   1      41.208  35.458  37.008  1.00  0.00     0.040 A 
ATOM     72  F   UNL A   1      40.407  33.308  36.512  1.00  0.00    -0.206 F 
ATOM     73  C   UNL A   1      41.899  36.609  36.632  1.00  0.00     0.006 A 
ENDBRANCH  52  66
BRANCH  53  74
ATOM     74  C   UNL A   1      40.326  27.105  28.195  1.00  0.00     0.057 A 
ATOM     75  C   UNL A   1      40.931  27.106  26.933  1.00  0.00     0.134 A 
ATOM     76  C   UNL A   1      39.527  26.006  28.529  1.00  0.00     0.134 A 
ATOM     77  F   UNL A   1      41.704  28.134  26.554  1.00  0.00    -0.206 F 
ATOM     78  C   UNL A   1      40.742  26.058  26.033  1.00  0.00     0.040 A 
ATOM     79  C   UNL A   1      39.349  24.939  27.649  1.00  0.00     0.040 A 
ATOM     80  F   UNL A   1      38.934  25.943  29.731  1.00  0.00    -0.206 F 
ATOM     81  C   UNL A   1      39.956  24.966  26.394  1.00  0.00     0.006 A 
ENDBRANCH  53  74
BRANCH  65  82
ATOM     82  C   UNL A   1      45.142  28.404  33.021  1.00  0.00     0.057 A 
ATOM     83  C   UNL A   1      45.061  27.415  34.008  1.00  0.00     0.134 A 
ATOM     84  C   UNL A   1      46.396  28.643  32.443  1.00  0.00     0.134 A 
ATOM     85  F   UNL A   1      43.890  27.141  34.604  1.00  0.00    -0.206 F 
ATOM     86  C   UNL A   1      46.183  26.683  34.401  1.00  0.00     0.040 A 
ATOM     87  C   UNL A   1      47.519  27.900  32.809  1.00  0.00     0.040 A 
ATOM     88  F   UNL A   1      46.535  29.565  31.479  1.00  0.00    -0.206 F 
ATOM     89  C   UNL A   1      47.414  26.918  33.793  1.00  0.00     0.006 A 
ENDBRANCH  65  82
ENDBRANCH  39  40
ENDBRANCH  31  34
ENDBRANCH  29  30
ENDBRANCH  28  29
ENDBRANCH  27  28
ENDBRANCH   1  27
TORSDOF 16
ENDMDL
MODEL 2
REMARK VINA RESULT:     -11.6      1.369      2.208
REMARK SMILES CC(C)[C@@H](NC(=O)C1=Cc2cc(Br)ccc2OC1)C(=O)NCCCCCCNC(=O)c1ccc(-c2c3nc(c(-c4c(F)cccc4F)c4ccc([nH]4)c(-c4c(F)cccc4F)c4nc(c(-c5c(F)cccc5F)c5ccc2[nH]5)C=C4)C=C3)cc1
REMARK SMILES IDX 24 1 23 2 22 3 21 4 19 5 20 6 4 8 2 9 1 10 3 11 5 12 6 13
REMARK SMILES IDX 7 15 8 16 9 17 18 18 10 19 17 20 11 21 16 22 12 23 15 24
REMARK SMILES IDX 13 25 14 26 25 27 26 28 27 29 28 30 29 31 30 33 31 34 32 35
REMARK SMILES IDX 84 36 33 37 83 38 34 39 35 40 36 41 77 42 37 43 82 44 76 45
REMARK SMILES IDX 78 46 38 47 81 48 75 49 74 50 39 52 65 53 48 54 64 55 49 56
REMARK SMILES IDX 52 57 63 58 79 59 50 60 51 61 62 63 80 64 53 65 40 66 41 67
REMARK SMILES IDX 46 68 42 69 43 70 45 71 47 72 44 73 66 74 67 75 72 76 68 77
REMARK SMILES IDX 69 78 71 79 73 80 70 81 54 82 55 83 60 84 56 85 57 86 59 87
REMARK SMILES IDX 61 88 58 89
REMARK H PARENT 21 7 5 14 28 32 78 51 52 62
REMARK Flexibility Score: inf
ROOT
ATOM      1  C   UNL A   1      31.788  28.932  27.106  1.00  0.00     0.002 C 
ENDROOT
BRANCH   1   2
ATOM      2  C   UNL A   1      31.257  27.750  26.285  1.00  0.00     0.021 C 
BRANCH   2   3
ATOM      3  C   UNL A   1      32.173  26.531  26.293  1.00  0.00     0.116 C 
BRANCH   3   4
ATOM      4  N   UNL A   1      31.507  25.394  26.889  1.00  0.00    -0.354 N 
ATOM      5  C   UNL A   1      31.748  24.067  26.741  1.00  0.00     0.242 C 
ATOM      6  O   UNL A   1      30.953  23.273  27.253  1.00  0.00    -0.273 OA
ATOM      7  H   UNL A   1      30.764  25.617  27.495  1.00  0.00     0.163 HD
BRANCH   5   8
ATOM      8  C   UNL A   1      32.898  23.548  25.858  1.00  0.00     0.174 C 
BRANCH   8   9
ATOM      9  C   UNL A   1      33.869  22.679  26.727  1.00  0.00     0.015 C 
ATOM     10  C   UNL A   1      33.666  21.174  26.525  1.00  0.00     0.010 C 
ATOM     11  C   UNL A   1      35.347  23.010  26.466  1.00  0.00     0.010 C 
ENDBRANCH   8   9
BRANCH   8  12
ATOM     12  N   UNL A   1      32.447  22.831  24.642  1.00  0.00    -0.340 N 
ATOM     13  C   UNL A   1      32.610  23.159  23.323  1.00  0.00     0.251 C 
ATOM     14  H   UNL A   1      31.960  21.992  24.808  1.00  0.00     0.164 HD
ATOM     15  O   UNL A   1      32.660  22.264  22.483  1.00  0.00    -0.270 OA
BRANCH  13  16
ATOM     16  C   UNL A   1      32.484  24.565  22.898  1.00  0.00     0.055 C 
ATOM     17  C   UNL A   1      31.255  25.100  22.952  1.00  0.00     0.025 C 
ATOM     18  C   UNL A   1      33.645  25.355  22.394  1.00  0.00     0.271 C 
ATOM     19  C   UNL A   1      31.144  26.539  22.740  1.00  0.00     0.018 A 
ATOM     20  O   UNL A   1      33.570  26.761  22.708  1.00  0.00    -0.488 OA
ATOM     21  C   UNL A   1      29.897  27.174  22.750  1.00  0.00     0.027 A 
ATOM     22  C   UNL A   1      32.313  27.310  22.706  1.00  0.00     0.127 A 
ATOM     23  C   UNL A   1      29.832  28.568  22.794  1.00  0.00     0.018 A 
ATOM     24  C   UNL A   1      32.240  28.703  22.754  1.00  0.00     0.048 A 
ATOM     25  Br  UNL A   1      28.148  29.421  22.920  1.00  0.00    -0.051 Br
ATOM     26  C   UNL A   1      30.996  29.335  22.810  1.00  0.00     0.019 A 
ENDBRANCH  13  16
ENDBRANCH   8  12
ENDBRANCH   5   8
ENDBRANCH   3   4
ENDBRANCH   2   3
ENDBRANCH   1   2
BRANCH   1  27
ATOM     27  C   UNL A   1      32.252  30.134  26.280  1.00  0.00     0.002 C 
BRANCH  27  28
ATOM     28  C   UNL A   1      31.806  31.501  26.795  1.00  0.00     0.021 C 
BRANCH  28  29
ATOM     29  C   UNL A   1      32.941  32.375  27.301  1.00  0.00     0.116 C 
BRANCH  29  30
ATOM     30  N   UNL A   1      32.527  33.738  27.593  1.00  0.00    -0.352 N 
ATOM     31  C   UNL A   1      33.047  34.602  28.530  1.00  0.00     0.251 C 
ATOM     32  H   UNL A   1      31.781  34.087  27.053  1.00  0.00     0.163 HD
ATOM     33  O   UNL A   1      32.529  35.688  28.743  1.00  0.00    -0.269 OA
BRANCH  31  34
ATOM     34  C   UNL A   1      34.222  34.166  29.313  1.00  0.00     0.039 A 
ATOM     35  C   UNL A   1      35.507  34.541  28.918  1.00  0.00     0.014 A 
ATOM     36  C   UNL A   1      34.036  33.312  30.401  1.00  0.00     0.014 A 
ATOM     37  C   UNL A   1      36.606  33.918  29.493  1.00  0.00     0.010 A 
ATOM     38  C   UNL A   1      35.148  32.759  31.042  1.00  0.00     0.010 A 
ATOM     39  C   UNL A   1      36.440  33.014  30.556  1.00  0.00    -0.014 A 
BRANCH  39  40
ATOM     40  C   UNL A   1      37.637  32.338  31.118  1.00  0.00     0.031 A 
ATOM     41  C   UNL A   1      38.108  32.634  32.517  1.00  0.00     0.074 A 
ATOM     42  C   UNL A   1      38.253  31.389  30.386  1.00  0.00     0.049 A 
ATOM     43  N   UNL A   1      39.096  32.094  33.186  1.00  0.00    -0.248 NA
ATOM     44  C   UNL A   1      37.381  33.674  33.261  1.00  0.00     0.031 C 
ATOM     45  C   UNL A   1      37.885  31.008  29.020  1.00  0.00     0.029 A 
ATOM     46  N   UNL A   1      39.288  30.548  30.699  1.00  0.00    -0.354 N 
ATOM     47  C   UNL A   1      39.123  32.740  34.417  1.00  0.00     0.074 A 
ATOM     48  C   UNL A   1      38.071  33.734  34.391  1.00  0.00     0.031 C 
ATOM     49  C   UNL A   1      38.635  29.963  28.639  1.00  0.00     0.029 A 
ATOM     50  C   UNL A   1      39.575  29.643  29.706  1.00  0.00     0.049 A 
ATOM     51  H   UNL A   1      39.778  30.588  31.552  1.00  0.00     0.167 HD
ATOM     52  C   UNL A   1      39.939  32.519  35.475  1.00  0.00     0.037 A 
ATOM     53  C   UNL A   1      40.498  28.665  29.660  1.00  0.00     0.037 A 
ATOM     54  C   UNL A   1      40.974  31.517  35.508  1.00  0.00     0.049 A 
ATOM     55  C   UNL A   1      41.404  28.459  30.836  1.00  0.00     0.074 A 
ATOM     56  C   UNL A   1      41.849  31.209  36.535  1.00  0.00     0.029 A 
ATOM     57  N   UNL A   1      41.269  30.654  34.462  1.00  0.00    -0.354 N 
ATOM     58  N   UNL A   1      41.414  29.077  31.992  1.00  0.00    -0.248 NA
ATOM     59  C   UNL A   1      42.434  27.422  30.696  1.00  0.00     0.031 C 
ATOM     60  C   UNL A   1      42.694  30.181  36.099  1.00  0.00     0.029 A 
ATOM     61  C   UNL A   1      42.319  29.823  34.815  1.00  0.00     0.049 A 
ATOM     62  H   UNL A   1      40.801  30.635  33.596  1.00  0.00     0.167 HD
ATOM     63  C   UNL A   1      42.440  28.496  32.722  1.00  0.00     0.074 A 
ATOM     64  C   UNL A   1      43.011  27.458  31.889  1.00  0.00     0.031 C 
ATOM     65  C   UNL A   1      42.876  28.797  33.971  1.00  0.00     0.037 A 
BRANCH  52  66
ATOM     66  C   UNL A   1      39.755  33.395  36.681  1.00  0.00     0.057 A 
ATOM     67  C   UNL A   1      38.854  33.039  37.692  1.00  0.00     0.134 A 
ATOM     68  C   UNL A   1      40.460  34.596  36.837  1.00  0.00     0.134 A 
ATOM     69  F   UNL A   1      38.143  31.905  37.603  1.00  0.00    -0.206 F 
ATOM     70  C   UNL A   1      38.660  33.846  38.815  1.00  0.00     0.040 A 
ATOM     71  C   UNL A   1      40.292  35.399  37.968  1.00  0.00     0.040 A 
ATOM     72  F   UNL A   1      41.350  34.987  35.913  1.00  0.00    -0.206 F 
ATOM     73  C   UNL A   1      39.386  35.026  38.959  1.00  0.00     0.006 A 
ENDBRANCH  52  66
BRANCH  53  74
ATOM     74  C   UNL A   1      40.608  27.805  28.455  1.00  0.00     0.057 A 
ATOM     75  C   UNL A   1      39.927  26.585  28.366  1.00  0.00     0.134 A 
ATOM     76  C   UNL A   1      41.390  28.192  27.361  1.00  0.00     0.134 A 
ATOM     77  F   UNL A   1      39.166  26.158  29.384  1.00  0.00    -0.206 F 
ATOM     78  C   UNL A   1      40.027  25.775  27.234  1.00  0.00     0.040 A 
ATOM     79  C   UNL A   1      41.478  27.404  26.213  1.00  0.00     0.040 A 
ATOM     80  F   UNL A   1      42.051  29.359  27.383  1.00  0.00    -0.206 F 
ATOM     81  C   UNL A   1      40.798  26.189  26.151  1.00  0.00     0.006 A 
ENDBRANCH  53  74
BRANCH  65  82
ATOM     82  C   UNL A   1      44.007  27.970  34.504  1.00  0.00     0.057 A 
ATOM     83  C   UNL A   1      45.336  28.344  34.269  1.00  0.00     0.134 A 
ATOM     84  C   UNL A   1      43.782  26.811  35.258  1.00  0.00     0.134 A 
ATOM     85  F   UNL A   1      45.618  29.441  33.550  1.00  0.00    -0.206 F 
ATOM     86  C   UNL A   1      46.402  27.598  34.774  1.00  0.00     0.040 A 
ATOM     87  C   UNL A   1      44.840  26.072  35.789  1.00  0.00     0.040 A 
ATOM     88  F   UNL A   1      42.532  26.410  35.533  1.00  0.00    -0.206 F 
ATOM     89  C   UNL A   1      46.156  26.465  35.545  1.00  0.00     0.006 A 
ENDBRANCH  65  82
ENDBRANCH  39  40
ENDBRANCH  31  34
ENDBRANCH  29  30
ENDBRANCH  28  29
ENDBRANCH  27  28
ENDBRANCH   1  27
TORSDOF 16
ENDMDL
MODEL 3
REMARK VINA RESULT:     -11.6      3.635      8.772
REMARK SMILES CC(C)[C@@H](NC(=O)C1=Cc2cc(Br)ccc2OC1)C(=O)NCCCCCCNC(=O)c1ccc(-c2c3nc(c(-c4c(F)cccc4F)c4ccc([nH]4)c(-c4c(F)cccc4F)c4nc(c(-c5c(F)cccc5F)c5ccc2[nH]5)C=C4)C=C3)cc1
REMARK SMILES IDX 24 1 23 2 22 3 21 4 19 5 20 6 4 8 2 9 1 10 3 11 5 12 6 13
REMARK SMILES IDX 7 15 8 16 9 17 18 18 10 19 17 20 11 21 16 22 12 23 15 24
REMARK SMILES IDX 13 25 14 26 25 27 26 28 27 29 28 30 29 31 30 33 31 34 32 35
REMARK SMILES IDX 84 36 33 37 83 38 34 39 35 40 36 41 77 42 37 43 82 44 76 45
REMARK SMILES IDX 78 46 38 47 81 48 75 49 74 50 39 52 65 53 48 54 64 55 49 56
REMARK SMILES IDX 52 57 63 58 79 59 50 60 51 61 62 63 80 64 53 65 40 66 41 67
REMARK SMILES IDX 46 68 42 69 43 70 45 71 47 72 44 73 66 74 67 75 72 76 68 77
REMARK SMILES IDX 69 78 71 79 73 80 70 81 54 82 55 83 60 84 56 85 57 86 59 87
REMARK SMILES IDX 61 88 58 89
REMARK H PARENT 21 7 5 14 28 32 78 51 52 62
REMARK Flexibility Score: inf
ROOT
ATOM      1  C   UNL A   1      36.647  22.597  23.351  1.00  0.00     0.002 C 
ENDROOT
BRANCH   1   2
ATOM      2  C   UNL A   1      35.161  22.939  23.187  1.00  0.00     0.021 C 
BRANCH   2   3
ATOM      3  C   UNL A   1      34.733  24.203  23.924  1.00  0.00     0.116 C 
BRANCH   3   4
ATOM      4  N   UNL A   1      33.969  25.070  23.055  1.00  0.00    -0.354 N 
ATOM      5  C   UNL A   1      33.032  26.003  23.360  1.00  0.00     0.242 C 
ATOM      6  O   UNL A   1      32.415  26.529  22.428  1.00  0.00    -0.273 OA
ATOM      7  H   UNL A   1      34.157  24.967  22.094  1.00  0.00     0.163 HD
BRANCH   5   8
ATOM      8  C   UNL A   1      32.645  26.315  24.817  1.00  0.00     0.174 C 
BRANCH   8   9
ATOM      9  C   UNL A   1      32.955  27.818  25.126  1.00  0.00     0.015 C 
ATOM     10  C   UNL A   1      31.690  28.673  25.264  1.00  0.00     0.010 C 
ATOM     11  C   UNL A   1      33.802  27.996  26.397  1.00  0.00     0.010 C 
ENDBRANCH   8   9
BRANCH   8  12
ATOM     12  N   UNL A   1      31.251  25.952  25.162  1.00  0.00    -0.340 N 
ATOM     13  C   UNL A   1      30.784  25.010  26.038  1.00  0.00     0.251 C 
ATOM     14  H   UNL A   1      30.557  26.466  24.690  1.00  0.00     0.164 HD
ATOM     15  O   UNL A   1      29.697  25.184  26.585  1.00  0.00    -0.270 OA
BRANCH  13  16
ATOM     16  C   UNL A   1      31.460  23.704  26.138  1.00  0.00     0.055 C 
ATOM     17  C   UNL A   1      31.226  22.831  25.147  1.00  0.00     0.025 C 
ATOM     18  C   UNL A   1      32.332  23.340  27.293  1.00  0.00     0.271 C 
ATOM     19  C   UNL A   1      32.043  21.622  25.116  1.00  0.00     0.018 A 
ATOM     20  O   UNL A   1      33.419  22.459  26.944  1.00  0.00    -0.488 OA
ATOM     21  C   UNL A   1      31.845  20.645  24.135  1.00  0.00     0.027 A 
ATOM     22  C   UNL A   1      33.150  21.533  25.969  1.00  0.00     0.127 A 
ATOM     23  C   UNL A   1      32.789  19.628  23.971  1.00  0.00     0.018 A 
ATOM     24  C   UNL A   1      34.091  20.516  25.797  1.00  0.00     0.048 A 
ATOM     25  Br  UNL A   1      32.576  18.373  22.573  1.00  0.00    -0.051 Br
ATOM     26  C   UNL A   1      33.916  19.566  24.789  1.00  0.00     0.019 A 
ENDBRANCH  13  16
ENDBRANCH   8  12
ENDBRANCH   5   8
ENDBRANCH   3   4
ENDBRANCH   2   3
ENDBRANCH   1   2
BRANCH   1  27
ATOM     27  C   UNL A   1      37.053  22.145  24.755  1.00  0.00     0.002 C 
BRANCH  27  28
ATOM     28  C   UNL A   1      37.838  20.836  24.827  1.00  0.00     0.021 C 
BRANCH  28  29
ATOM     29  C   UNL A   1      38.889  20.801  25.924  1.00  0.00     0.116 C 
BRANCH  29  30
ATOM     30  N   UNL A   1      39.845  19.718  25.766  1.00  0.00    -0.352 N 
ATOM     31  C   UNL A   1      41.199  19.736  26.013  1.00  0.00     0.251 C 
ATOM     32  H   UNL A   1      39.479  18.864  25.440  1.00  0.00     0.163 HD
ATOM     33  O   UNL A   1      41.905  18.779  25.732  1.00  0.00    -0.269 OA
BRANCH  31  34
ATOM     34  C   UNL A   1      41.794  20.964  26.582  1.00  0.00     0.039 A 
ATOM     35  C   UNL A   1      41.888  21.122  27.966  1.00  0.00     0.014 A 
ATOM     36  C   UNL A   1      42.183  21.993  25.723  1.00  0.00     0.014 A 
ATOM     37  C   UNL A   1      42.197  22.369  28.490  1.00  0.00     0.010 A 
ATOM     38  C   UNL A   1      42.586  23.220  26.255  1.00  0.00     0.010 A 
ATOM     39  C   UNL A   1      42.541  23.436  27.642  1.00  0.00    -0.014 A 
BRANCH  39  40
ATOM     40  C   UNL A   1      42.826  24.766  28.239  1.00  0.00     0.031 A 
ATOM     41  C   UNL A   1      44.238  25.192  28.542  1.00  0.00     0.074 A 
ATOM     42  C   UNL A   1      41.806  25.625  28.432  1.00  0.00     0.049 A 
ATOM     43  N   UNL A   1      44.672  26.337  29.007  1.00  0.00    -0.248 NA
ATOM     44  C   UNL A   1      45.301  24.206  28.296  1.00  0.00     0.031 C 
ATOM     45  C   UNL A   1      40.395  25.329  28.171  1.00  0.00     0.029 A 
ATOM     46  N   UNL A   1      41.801  26.928  28.854  1.00  0.00    -0.354 N 
ATOM     47  C   UNL A   1      46.050  26.202  29.130  1.00  0.00     0.074 A 
ATOM     48  C   UNL A   1      46.377  24.855  28.718  1.00  0.00     0.031 C 
ATOM     49  C   UNL A   1      39.670  26.440  28.371  1.00  0.00     0.029 A 
ATOM     50  C   UNL A   1      40.554  27.503  28.833  1.00  0.00     0.049 A 
ATOM     51  H   UNL A   1      42.611  27.405  29.144  1.00  0.00     0.167 HD
ATOM     52  C   UNL A   1      46.960  27.120  29.536  1.00  0.00     0.037 A 
ATOM     53  C   UNL A   1      40.165  28.750  29.155  1.00  0.00     0.037 A 
ATOM     54  C   UNL A   1      46.636  28.468  29.928  1.00  0.00     0.049 A 
ATOM     55  C   UNL A   1      41.191  29.738  29.624  1.00  0.00     0.074 A 
ATOM     56  C   UNL A   1      47.487  29.476  30.348  1.00  0.00     0.029 A 
ATOM     57  N   UNL A   1      45.354  28.998  29.943  1.00  0.00    -0.354 N 
ATOM     58  N   UNL A   1      42.489  29.595  29.732  1.00  0.00    -0.248 NA
ATOM     59  C   UNL A   1      40.693  31.060  30.026  1.00  0.00     0.031 C 
ATOM     60  C   UNL A   1      46.716  30.606  30.647  1.00  0.00     0.029 A 
ATOM     61  C   UNL A   1      45.390  30.313  30.376  1.00  0.00     0.049 A 
ATOM     62  H   UNL A   1      44.538  28.510  29.685  1.00  0.00     0.167 HD
ATOM     63  C   UNL A   1      42.966  30.811  30.199  1.00  0.00     0.074 A 
ATOM     64  C   UNL A   1      41.820  31.687  30.328  1.00  0.00     0.031 C 
ATOM     65  C   UNL A   1      44.238  31.170  30.500  1.00  0.00     0.037 A 
BRANCH  52  66
ATOM     66  C   UNL A   1      48.397  26.685  29.594  1.00  0.00     0.057 A 
ATOM     67  C   UNL A   1      48.909  26.063  30.738  1.00  0.00     0.134 A 
ATOM     68  C   UNL A   1      49.277  26.896  28.524  1.00  0.00     0.134 A 
ATOM     69  F   UNL A   1      48.123  25.836  31.801  1.00  0.00    -0.206 F 
ATOM     70  C   UNL A   1      50.244  25.663  30.817  1.00  0.00     0.040 A 
ATOM     71  C   UNL A   1      50.609  26.478  28.581  1.00  0.00     0.040 A 
ATOM     72  F   UNL A   1      48.846  27.474  27.392  1.00  0.00    -0.206 F 
ATOM     73  C   UNL A   1      51.097  25.863  29.733  1.00  0.00     0.006 A 
ENDBRANCH  52  66
BRANCH  53  74
ATOM     74  C   UNL A   1      38.736  29.135  29.041  1.00  0.00     0.057 A 
ATOM     75  C   UNL A   1      38.198  29.591  27.832  1.00  0.00     0.134 A 
ATOM     76  C   UNL A   1      37.874  29.043  30.139  1.00  0.00     0.134 A 
ATOM     77  F   UNL A   1      38.975  29.706  26.745  1.00  0.00    -0.206 F 
ATOM     78  C   UNL A   1      36.854  29.952  27.721  1.00  0.00     0.040 A 
ATOM     79  C   UNL A   1      36.523  29.375  30.037  1.00  0.00     0.040 A 
ATOM     80  F   UNL A   1      38.330  28.596  31.319  1.00  0.00    -0.206 F 
ATOM     81  C   UNL A   1      36.012  29.836  28.824  1.00  0.00     0.006 A 
ENDBRANCH  53  74
BRANCH  65  82
ATOM     82  C   UNL A   1      44.444  32.578  30.973  1.00  0.00     0.057 A 
ATOM     83  C   UNL A   1      44.668  33.612  30.056  1.00  0.00     0.134 A 
ATOM     84  C   UNL A   1      44.409  32.912  32.333  1.00  0.00     0.134 A 
ATOM     85  F   UNL A   1      44.719  33.357  28.740  1.00  0.00    -0.206 F 
ATOM     86  C   UNL A   1      44.842  34.932  30.475  1.00  0.00     0.040 A 
ATOM     87  C   UNL A   1      44.555  34.232  32.761  1.00  0.00     0.040 A 
ATOM     88  F   UNL A   1      44.179  31.969  33.259  1.00  0.00    -0.206 F 
ATOM     89  C   UNL A   1      44.775  35.246  31.830  1.00  0.00     0.006 A 
ENDBRANCH  65  82
ENDBRANCH  39  40
ENDBRANCH  31  34
ENDBRANCH  29  30
ENDBRANCH  28  29
ENDBRANCH  27  28
ENDBRANCH   1  27
TORSDOF 16
ENDMDL
