MODEL 1
REMARK VINA RESULT:     -11.3      0.000      0.000
REMARK SMILES Cc1cnc(N2CCO[C@H](CC(=O)NCCCCCCNC(=O)c3ccc(-c4c5nc(c(-c6c(F)cccc6F)c6ccc([nH]6)c(-c6c(F)cccc6F)c6nc(c(-c7c(F)cccc7F)c7ccc4[nH]7)C=C6)C=C5)cc3)C2)c([N+](=O)[O-])c1
REMARK SMILES IDX 17 1 16 2 15 3 14 4 12 5 13 6 11 8 10 9 6 10 7 11 78 12 8 13
REMARK SMILES IDX 9 14 5 15 1 16 2 17 3 18 83 19 4 20 79 21 80 22 81 23 82 24
REMARK SMILES IDX 18 25 19 26 20 27 21 28 22 29 23 31 24 32 25 33 77 34 26 35
REMARK SMILES IDX 76 36 27 37 28 38 29 39 70 40 30 41 75 42 69 43 71 44 31 45
REMARK SMILES IDX 74 46 68 47 67 48 32 50 58 51 41 52 57 53 42 54 45 55 56 56
REMARK SMILES IDX 72 57 43 58 44 59 55 61 73 62 46 63 33 64 34 65 39 66 35 67
REMARK SMILES IDX 36 68 38 69 40 70 37 71 59 72 60 73 65 74 61 75 62 76 64 77
REMARK SMILES IDX 66 78 63 79 47 80 48 81 53 82 49 83 50 84 52 85 54 86 51 87
REMARK H PARENT 14 7 21 30 71 49 45 60
REMARK Flexibility Score: inf
ROOT
ATOM      1  C   UNL A   1      35.659  21.079  25.375  1.00  0.00     0.002 C 
ENDROOT
BRANCH   1   2
ATOM      2  C   UNL A   1      34.457  20.224  24.954  1.00  0.00     0.021 C 
BRANCH   2   3
ATOM      3  C   UNL A   1      33.138  20.992  24.989  1.00  0.00     0.116 C 
BRANCH   3   4
ATOM      4  N   UNL A   1      32.781  21.299  26.359  1.00  0.00    -0.356 N 
ATOM      5  C   UNL A   1      32.606  22.521  26.925  1.00  0.00     0.222 C 
ATOM      6  O   UNL A   1      32.551  22.617  28.150  1.00  0.00    -0.275 OA
ATOM      7  H   UNL A   1      32.650  20.525  26.954  1.00  0.00     0.163 HD
BRANCH   5   8
ATOM      8  C   UNL A   1      32.438  23.723  26.036  1.00  0.00     0.133 C 
BRANCH   8   9
ATOM      9  C   UNL A   1      33.653  24.666  26.065  1.00  0.00     0.147 C 
ATOM     10  N   UNL A   1      32.628  26.132  24.461  1.00  0.00    -0.346 N 
ATOM     11  C   UNL A   1      33.632  25.880  23.432  1.00  0.00     0.147 C 
ATOM     12  C   UNL A   1      33.179  26.114  25.818  1.00  0.00     0.151 C 
ATOM     13  C   UNL A   1      34.280  24.510  23.715  1.00  0.00     0.182 C 
ATOM     14  O   UNL A   1      34.676  24.321  25.092  1.00  0.00    -0.374 OA
BRANCH  10  15
ATOM     15  C   UNL A   1      31.476  26.831  24.225  1.00  0.00     0.208 A 
ATOM     16  C   UNL A   1      27.789  28.616  22.958  1.00  0.00     0.046 C 
ATOM     17  C   UNL A   1      29.086  28.039  23.424  1.00  0.00    -0.026 A 
ATOM     18  C   UNL A   1      29.194  26.694  23.746  1.00  0.00     0.117 A 
ATOM     19  C   UNL A   1      30.240  28.808  23.529  1.00  0.00     0.094 A 
ATOM     20  N   UNL A   1      30.343  26.091  24.132  1.00  0.00    -0.233 NA
ATOM     21  C   UNL A   1      31.436  28.196  23.932  1.00  0.00     0.311 A 
BRANCH  21  22
ATOM     22  N   UNL A   1      32.644  28.996  23.864  1.00  0.00     0.066 N 
ATOM     23  O   UNL A   1      33.092  29.484  24.910  1.00  0.00    -0.258 OA
ATOM     24  O   UNL A   1      33.119  29.201  22.737  1.00  0.00    -0.258 OA
ENDBRANCH  21  22
ENDBRANCH  10  15
ENDBRANCH   8   9
ENDBRANCH   5   8
ENDBRANCH   3   4
ENDBRANCH   2   3
ENDBRANCH   1   2
BRANCH   1  25
ATOM     25  C   UNL A   1      36.895  20.918  24.485  1.00  0.00     0.002 C 
BRANCH  25  26
ATOM     26  C   UNL A   1      37.839  19.789  24.906  1.00  0.00     0.021 C 
BRANCH  26  27
ATOM     27  C   UNL A   1      38.937  20.224  25.870  1.00  0.00     0.116 C 
BRANCH  27  28
ATOM     28  N   UNL A   1      40.068  19.309  25.850  1.00  0.00    -0.352 N 
ATOM     29  C   UNL A   1      41.398  19.571  26.057  1.00  0.00     0.251 C 
ATOM     30  H   UNL A   1      39.846  18.368  25.661  1.00  0.00     0.163 HD
ATOM     31  O   UNL A   1      42.246  18.723  25.801  1.00  0.00    -0.269 OA
BRANCH  29  32
ATOM     32  C   UNL A   1      41.806  20.891  26.579  1.00  0.00     0.039 A 
ATOM     33  C   UNL A   1      42.244  21.866  25.681  1.00  0.00     0.014 A 
ATOM     34  C   UNL A   1      41.756  21.162  27.949  1.00  0.00     0.014 A 
ATOM     35  C   UNL A   1      42.581  23.136  26.153  1.00  0.00     0.010 A 
ATOM     36  C   UNL A   1      42.024  22.447  28.409  1.00  0.00     0.010 A 
ATOM     37  C   UNL A   1      42.443  23.445  27.516  1.00  0.00    -0.014 A 
BRANCH  37  38
ATOM     38  C   UNL A   1      42.734  24.805  28.031  1.00  0.00     0.031 A 
ATOM     39  C   UNL A   1      44.129  25.169  28.453  1.00  0.00     0.074 A 
ATOM     40  C   UNL A   1      41.728  25.688  28.184  1.00  0.00     0.049 A 
ATOM     41  N   UNL A   1      44.566  26.272  29.005  1.00  0.00    -0.248 NA
ATOM     42  C   UNL A   1      45.169  24.146  28.253  1.00  0.00     0.031 C 
ATOM     43  C   UNL A   1      40.325  25.439  27.851  1.00  0.00     0.029 A 
ATOM     44  N   UNL A   1      41.731  26.971  28.672  1.00  0.00    -0.354 N 
ATOM     45  C   UNL A   1      45.921  26.071  29.231  1.00  0.00     0.074 A 
ATOM     46  C   UNL A   1      46.226  24.722  28.805  1.00  0.00     0.031 C 
ATOM     47  C   UNL A   1      39.606  26.539  28.128  1.00  0.00     0.029 A 
ATOM     48  C   UNL A   1      40.488  27.554  28.694  1.00  0.00     0.049 A 
ATOM     49  H   UNL A   1      42.547  27.428  28.979  1.00  0.00     0.167 HD
ATOM     50  C   UNL A   1      46.833  26.939  29.730  1.00  0.00     0.037 A 
ATOM     51  C   UNL A   1      40.102  28.767  29.131  1.00  0.00     0.037 A 
ATOM     52  C   UNL A   1      46.531  28.287  30.130  1.00  0.00     0.049 A 
ATOM     53  C   UNL A   1      41.133  29.709  29.689  1.00  0.00     0.074 A 
ATOM     54  C   UNL A   1      47.396  29.264  30.593  1.00  0.00     0.029 A 
ATOM     55  N   UNL A   1      45.263  28.848  30.119  1.00  0.00    -0.354 N 
ATOM     56  N   UNL A   1      42.422  29.529  29.839  1.00  0.00    -0.248 NA
ATOM     57  C   UNL A   1      40.654  31.025  30.136  1.00  0.00     0.031 C 
ATOM     58  C   UNL A   1      46.644  30.402  30.904  1.00  0.00     0.029 A 
ATOM     59  C   UNL A   1      45.319  30.151  30.588  1.00  0.00     0.049 A 
ATOM     60  H   UNL A   1      44.444  28.389  29.823  1.00  0.00     0.167 HD
ATOM     61  C   UNL A   1      42.914  30.716  30.365  1.00  0.00     0.074 A 
ATOM     62  C   UNL A   1      41.785  31.613  30.500  1.00  0.00     0.031 C 
ATOM     63  C   UNL A   1      44.187  31.035  30.705  1.00  0.00     0.037 A 
BRANCH  50  64
ATOM     64  C   UNL A   1      48.248  26.454  29.867  1.00  0.00     0.057 A 
ATOM     65  C   UNL A   1      49.189  26.622  28.843  1.00  0.00     0.134 A 
ATOM     66  C   UNL A   1      48.683  25.843  31.050  1.00  0.00     0.134 A 
ATOM     67  F   UNL A   1      48.835  27.189  27.680  1.00  0.00    -0.206 F 
ATOM     68  C   UNL A   1      50.505  26.176  28.980  1.00  0.00     0.040 A 
ATOM     69  C   UNL A   1      50.003  25.417  31.210  1.00  0.00     0.040 A 
ATOM     70  F   UNL A   1      47.836  25.656  32.073  1.00  0.00    -0.206 F 
ATOM     71  C   UNL A   1      50.916  25.577  30.169  1.00  0.00     0.006 A 
ENDBRANCH  50  64
BRANCH  51  72
ATOM     72  C   UNL A   1      38.676  29.171  29.041  1.00  0.00     0.057 A 
ATOM     73  C   UNL A   1      37.835  29.102  30.158  1.00  0.00     0.134 A 
ATOM     74  C   UNL A   1      38.119  29.628  27.840  1.00  0.00     0.134 A 
ATOM     75  F   UNL A   1      38.307  28.655  31.331  1.00  0.00    -0.206 F 
ATOM     76  C   UNL A   1      36.487  29.455  30.080  1.00  0.00     0.040 A 
ATOM     77  C   UNL A   1      36.778  30.008  27.756  1.00  0.00     0.040 A 
ATOM     78  F   UNL A   1      38.874  29.725  26.737  1.00  0.00    -0.206 F 
ATOM     79  C   UNL A   1      35.956  29.914  28.876  1.00  0.00     0.006 A 
ENDBRANCH  51  72
BRANCH  63  80
ATOM     80  C   UNL A   1      44.435  32.423  31.218  1.00  0.00     0.057 A 
ATOM     81  C   UNL A   1      44.418  32.723  32.585  1.00  0.00     0.134 A 
ATOM     82  C   UNL A   1      44.740  33.464  30.331  1.00  0.00     0.134 A 
ATOM     83  F   UNL A   1      44.120  31.773  33.485  1.00  0.00    -0.206 F 
ATOM     84  C   UNL A   1      44.676  34.012  33.051  1.00  0.00     0.040 A 
ATOM     85  C   UNL A   1      45.026  34.751  30.786  1.00  0.00     0.040 A 
ATOM     86  F   UNL A   1      44.781  33.241  29.008  1.00  0.00    -0.206 F 
ATOM     87  C   UNL A   1      44.990  35.029  32.150  1.00  0.00     0.006 A 
ENDBRANCH  63  80
ENDBRANCH  37  38
ENDBRANCH  29  32
ENDBRANCH  27  28
ENDBRANCH  26  27
ENDBRANCH  25  26
ENDBRANCH   1  25
TORSDOF 16
ENDMDL
MODEL 2
REMARK VINA RESULT:     -11.3      2.070      7.925
REMARK SMILES Cc1cnc(N2CCO[C@H](CC(=O)NCCCCCCNC(=O)c3ccc(-c4c5nc(c(-c6c(F)cccc6F)c6ccc([nH]6)c(-c6c(F)cccc6F)c6nc(c(-c7c(F)cccc7F)c7ccc4[nH]7)C=C6)C=C5)cc3)C2)c([N+](=O)[O-])c1
REMARK SMILES IDX 17 1 16 2 15 3 14 4 12 5 13 6 11 8 10 9 6 10 7 11 78 12 8 13
REMARK SMILES IDX 9 14 5 15 1 16 2 17 3 18 83 19 4 20 79 21 80 22 81 23 82 24
REMARK SMILES IDX 18 25 19 26 20 27 21 28 22 29 23 31 24 32 25 33 77 34 26 35
REMARK SMILES IDX 76 36 27 37 28 38 29 39 70 40 30 41 75 42 69 43 71 44 31 45
REMARK SMILES IDX 74 46 68 47 67 48 32 50 58 51 41 52 57 53 42 54 45 55 56 56
REMARK SMILES IDX 72 57 43 58 44 59 55 61 73 62 46 63 33 64 34 65 39 66 35 67
REMARK SMILES IDX 36 68 38 69 40 70 37 71 59 72 60 73 65 74 61 75 62 76 64 77
REMARK SMILES IDX 66 78 63 79 47 80 48 81 53 82 49 83 50 84 52 85 54 86 51 87
REMARK H PARENT 14 7 21 30 71 49 45 60
REMARK Flexibility Score: inf
ROOT
ATOM      1  C   UNL A   1      31.523  28.941  25.011  1.00  0.00     0.002 C 
ENDROOT
BRANCH   1   2
ATOM      2  C   UNL A   1      30.801  28.815  23.663  1.00  0.00     0.021 C 
BRANCH   2   3
ATOM      3  C   UNL A   1      30.550  27.365  23.255  1.00  0.00     0.116 C 
BRANCH   3   4
ATOM      4  N   UNL A   1      31.729  26.822  22.612  1.00  0.00    -0.356 N 
ATOM      5  C   UNL A   1      32.497  25.777  23.016  1.00  0.00     0.222 C 
ATOM      6  O   UNL A   1      33.598  25.601  22.498  1.00  0.00    -0.275 OA
ATOM      7  H   UNL A   1      32.009  27.267  21.780  1.00  0.00     0.163 HD
BRANCH   5   8
ATOM      8  C   UNL A   1      31.959  24.832  24.056  1.00  0.00     0.133 C 
BRANCH   8   9
ATOM      9  C   UNL A   1      32.101  25.372  25.489  1.00  0.00     0.147 C 
ATOM     10  N   UNL A   1      33.064  23.304  26.238  1.00  0.00    -0.346 N 
ATOM     11  C   UNL A   1      31.953  22.988  27.132  1.00  0.00     0.147 C 
ATOM     12  C   UNL A   1      33.342  24.738  26.152  1.00  0.00     0.151 C 
ATOM     13  C   UNL A   1      30.702  23.734  26.628  1.00  0.00     0.182 C 
ATOM     14  O   UNL A   1      30.933  25.127  26.318  1.00  0.00    -0.374 OA
BRANCH  10  15
ATOM     15  C   UNL A   1      34.066  22.418  25.952  1.00  0.00     0.208 A 
ATOM     16  C   UNL A   1      37.508  20.157  24.757  1.00  0.00     0.046 C 
ATOM     17  C   UNL A   1      36.281  20.900  25.176  1.00  0.00    -0.026 A 
ATOM     18  C   UNL A   1      36.369  22.029  25.977  1.00  0.00     0.117 A 
ATOM     19  C   UNL A   1      35.010  20.515  24.764  1.00  0.00     0.094 A 
ATOM     20  N   UNL A   1      35.308  22.778  26.360  1.00  0.00    -0.233 NA
ATOM     21  C   UNL A   1      33.903  21.281  25.157  1.00  0.00     0.311 A 
BRANCH  21  22
ATOM     22  N   UNL A   1      32.622  20.942  24.568  1.00  0.00     0.066 N 
ATOM     23  O   UNL A   1      31.878  20.158  25.173  1.00  0.00    -0.258 OA
ATOM     24  O   UNL A   1      32.377  21.412  23.446  1.00  0.00    -0.258 OA
ENDBRANCH  21  22
ENDBRANCH  10  15
ENDBRANCH   8   9
ENDBRANCH   5   8
ENDBRANCH   3   4
ENDBRANCH   2   3
ENDBRANCH   1   2
BRANCH   1  25
ATOM     25  C   UNL A   1      32.994  29.358  24.906  1.00  0.00     0.002 C 
BRANCH  25  26
ATOM     26  C   UNL A   1      33.960  28.489  25.715  1.00  0.00     0.021 C 
BRANCH  26  27
ATOM     27  C   UNL A   1      33.784  28.605  27.224  1.00  0.00     0.116 C 
BRANCH  27  28
ATOM     28  N   UNL A   1      33.728  29.993  27.658  1.00  0.00    -0.352 N 
ATOM     29  C   UNL A   1      34.665  30.725  28.342  1.00  0.00     0.251 C 
ATOM     30  H   UNL A   1      32.901  30.474  27.427  1.00  0.00     0.163 HD
ATOM     31  O   UNL A   1      34.377  31.821  28.810  1.00  0.00    -0.269 OA
BRANCH  29  32
ATOM     32  C   UNL A   1      36.024  30.176  28.525  1.00  0.00     0.039 A 
ATOM     33  C   UNL A   1      36.921  30.221  27.455  1.00  0.00     0.014 A 
ATOM     34  C   UNL A   1      36.408  29.618  29.747  1.00  0.00     0.014 A 
ATOM     35  C   UNL A   1      38.225  29.756  27.629  1.00  0.00     0.010 A 
ATOM     36  C   UNL A   1      37.727  29.221  29.940  1.00  0.00     0.010 A 
ATOM     37  C   UNL A   1      38.647  29.282  28.882  1.00  0.00    -0.014 A 
BRANCH  37  38
ATOM     38  C   UNL A   1      40.045  28.842  29.109  1.00  0.00     0.031 A 
ATOM     39  C   UNL A   1      41.042  29.784  29.722  1.00  0.00     0.074 A 
ATOM     40  C   UNL A   1      40.433  27.619  28.697  1.00  0.00     0.049 A 
ATOM     41  N   UNL A   1      42.324  29.617  29.921  1.00  0.00    -0.248 NA
ATOM     42  C   UNL A   1      40.535  31.101  30.142  1.00  0.00     0.031 C 
ATOM     43  C   UNL A   1      39.569  26.630  28.051  1.00  0.00     0.029 A 
ATOM     44  N   UNL A   1      41.659  27.005  28.751  1.00  0.00    -0.354 N 
ATOM     45  C   UNL A   1      42.779  30.808  30.473  1.00  0.00     0.074 A 
ATOM     46  C   UNL A   1      41.647  31.707  30.531  1.00  0.00     0.031 C 
ATOM     47  C   UNL A   1      40.288  25.527  27.784  1.00  0.00     0.029 A 
ATOM     48  C   UNL A   1      41.669  25.746  28.203  1.00  0.00     0.049 A 
ATOM     49  H   UNL A   1      42.457  27.428  29.144  1.00  0.00     0.167 HD
ATOM     50  C   UNL A   1      44.022  31.116  30.912  1.00  0.00     0.037 A 
ATOM     51  C   UNL A   1      42.679  24.871  28.046  1.00  0.00     0.037 A 
ATOM     52  C   UNL A   1      45.139  30.210  30.876  1.00  0.00     0.049 A 
ATOM     53  C   UNL A   1      44.053  25.241  28.534  1.00  0.00     0.074 A 
ATOM     54  C   UNL A   1      46.425  30.407  31.350  1.00  0.00     0.029 A 
ATOM     55  N   UNL A   1      45.105  28.935  30.330  1.00  0.00    -0.354 N 
ATOM     56  N   UNL A   1      44.455  26.346  29.112  1.00  0.00    -0.248 NA
ATOM     57  C   UNL A   1      45.113  24.239  28.350  1.00  0.00     0.031 C 
ATOM     58  C   UNL A   1      47.180  29.268  31.051  1.00  0.00     0.029 A 
ATOM     59  C   UNL A   1      46.352  28.342  30.436  1.00  0.00     0.049 A 
ATOM     60  H   UNL A   1      44.311  28.514  29.927  1.00  0.00     0.167 HD
ATOM     61  C   UNL A   1      45.803  26.162  29.391  1.00  0.00     0.074 A 
ATOM     62  C   UNL A   1      46.148  24.834  28.926  1.00  0.00     0.031 C 
ATOM     63  C   UNL A   1      46.676  27.015  29.979  1.00  0.00     0.037 A 
BRANCH  50  64
ATOM     64  C   UNL A   1      44.237  32.492  31.474  1.00  0.00     0.057 A 
ATOM     65  C   UNL A   1      44.082  32.766  32.838  1.00  0.00     0.134 A 
ATOM     66  C   UNL A   1      44.639  33.548  30.644  1.00  0.00     0.134 A 
ATOM     67  F   UNL A   1      43.689  31.803  33.685  1.00  0.00    -0.206 F 
ATOM     68  C   UNL A   1      44.291  34.046  33.355  1.00  0.00     0.040 A 
ATOM     69  C   UNL A   1      44.878  34.825  31.153  1.00  0.00     0.040 A 
ATOM     70  F   UNL A   1      44.813  33.354  29.328  1.00  0.00    -0.206 F 
ATOM     71  C   UNL A   1      44.697  35.078  32.512  1.00  0.00     0.006 A 
ENDBRANCH  50  64
BRANCH  51  72
ATOM     72  C   UNL A   1      42.428  23.550  27.417  1.00  0.00     0.057 A 
ATOM     73  C   UNL A   1      42.574  23.369  26.037  1.00  0.00     0.134 A 
ATOM     74  C   UNL A   1      42.033  22.441  28.175  1.00  0.00     0.134 A 
ATOM     75  F   UNL A   1      42.932  24.399  25.256  1.00  0.00    -0.206 F 
ATOM     76  C   UNL A   1      42.317  22.139  25.430  1.00  0.00     0.040 A 
ATOM     77  C   UNL A   1      41.798  21.198  27.584  1.00  0.00     0.040 A 
ATOM     78  F   UNL A   1      41.884  22.547  29.504  1.00  0.00    -0.206 F 
ATOM     79  C   UNL A   1      41.931  21.047  26.205  1.00  0.00     0.006 A 
ENDBRANCH  51  72
BRANCH  63  80
ATOM     80  C   UNL A   1      48.079  26.526  30.191  1.00  0.00     0.057 A 
ATOM     81  C   UNL A   1      49.093  26.749  29.251  1.00  0.00     0.134 A 
ATOM     82  C   UNL A   1      48.428  25.862  31.374  1.00  0.00     0.134 A 
ATOM     83  F   UNL A   1      48.820  27.368  28.092  1.00  0.00    -0.206 F 
ATOM     84  C   UNL A   1      50.399  26.313  29.472  1.00  0.00     0.040 A 
ATOM     85  C   UNL A   1      49.737  25.444  31.618  1.00  0.00     0.040 A 
ATOM     86  F   UNL A   1      47.506  25.624  32.319  1.00  0.00    -0.206 F 
ATOM     87  C   UNL A   1      50.726  25.665  30.662  1.00  0.00     0.006 A 
ENDBRANCH  63  80
ENDBRANCH  37  38
ENDBRANCH  29  32
ENDBRANCH  27  28
ENDBRANCH  26  27
ENDBRANCH  25  26
ENDBRANCH   1  25
TORSDOF 16
ENDMDL
MODEL 3
REMARK VINA RESULT:     -11.3      2.135      7.773
REMARK SMILES Cc1cnc(N2CCO[C@H](CC(=O)NCCCCCCNC(=O)c3ccc(-c4c5nc(c(-c6c(F)cccc6F)c6ccc([nH]6)c(-c6c(F)cccc6F)c6nc(c(-c7c(F)cccc7F)c7ccc4[nH]7)C=C6)C=C5)cc3)C2)c([N+](=O)[O-])c1
REMARK SMILES IDX 17 1 16 2 15 3 14 4 12 5 13 6 11 8 10 9 6 10 7 11 78 12 8 13
REMARK SMILES IDX 9 14 5 15 1 16 2 17 3 18 83 19 4 20 79 21 80 22 81 23 82 24
REMARK SMILES IDX 18 25 19 26 20 27 21 28 22 29 23 31 24 32 25 33 77 34 26 35
REMARK SMILES IDX 76 36 27 37 28 38 29 39 70 40 30 41 75 42 69 43 71 44 31 45
REMARK SMILES IDX 74 46 68 47 67 48 32 50 58 51 41 52 57 53 42 54 45 55 56 56
REMARK SMILES IDX 72 57 43 58 44 59 55 61 73 62 46 63 33 64 34 65 39 66 35 67
REMARK SMILES IDX 36 68 38 69 40 70 37 71 59 72 60 73 65 74 61 75 62 76 64 77
REMARK SMILES IDX 66 78 63 79 47 80 48 81 53 82 49 83 50 84 52 85 54 86 51 87
REMARK H PARENT 14 7 21 30 71 49 45 60
REMARK Flexibility Score: inf
ROOT
ATOM      1  C   UNL A   1      32.814  28.948  23.346  1.00  0.00     0.002 C 
ENDROOT
BRANCH   1   2
ATOM      2  C   UNL A   1      31.400  28.808  22.767  1.00  0.00     0.021 C 
BRANCH   2   3
ATOM      3  C   UNL A   1      31.052  27.371  22.388  1.00  0.00     0.116 C 
BRANCH   3   4
ATOM      4  N   UNL A   1      32.251  26.658  22.001  1.00  0.00    -0.356 N 
ATOM      5  C   UNL A   1      32.825  25.589  22.614  1.00  0.00     0.222 C 
ATOM      6  O   UNL A   1      33.969  25.260  22.307  1.00  0.00    -0.275 OA
ATOM      7  H   UNL A   1      32.708  26.989  21.194  1.00  0.00     0.163 HD
BRANCH   5   8
ATOM      8  C   UNL A   1      32.028  24.807  23.622  1.00  0.00     0.133 C 
BRANCH   8   9
ATOM      9  C   UNL A   1      32.079  25.418  25.033  1.00  0.00     0.147 C 
ATOM     10  N   UNL A   1      32.992  23.391  25.941  1.00  0.00    -0.346 N 
ATOM     11  C   UNL A   1      31.827  23.117  26.779  1.00  0.00     0.147 C 
ATOM     12  C   UNL A   1      33.275  24.821  25.802  1.00  0.00     0.151 C 
ATOM     13  C   UNL A   1      30.610  23.833  26.160  1.00  0.00     0.182 C 
ATOM     14  O   UNL A   1      30.861  25.210  25.798  1.00  0.00    -0.374 OA
BRANCH  10  15
ATOM     15  C   UNL A   1      34.010  22.495  25.763  1.00  0.00     0.208 A 
ATOM     16  C   UNL A   1      37.485  20.163  24.832  1.00  0.00     0.046 C 
ATOM     17  C   UNL A   1      36.248  20.931  25.165  1.00  0.00    -0.026 A 
ATOM     18  C   UNL A   1      36.321  22.160  25.803  1.00  0.00     0.117 A 
ATOM     19  C   UNL A   1      34.981  20.467  24.831  1.00  0.00     0.094 A 
ATOM     20  N   UNL A   1      35.249  22.933  26.097  1.00  0.00    -0.233 NA
ATOM     21  C   UNL A   1      33.861  21.257  25.134  1.00  0.00     0.311 A 
BRANCH  21  22
ATOM     22  N   UNL A   1      32.580  20.814  24.618  1.00  0.00     0.066 N 
ATOM     23  O   UNL A   1      31.989  19.897  25.203  1.00  0.00    -0.258 OA
ATOM     24  O   UNL A   1      32.185  21.344  23.568  1.00  0.00    -0.258 OA
ENDBRANCH  21  22
ENDBRANCH  10  15
ENDBRANCH   8   9
ENDBRANCH   5   8
ENDBRANCH   3   4
ENDBRANCH   2   3
ENDBRANCH   1   2
BRANCH   1  25
ATOM     25  C   UNL A   1      32.857  29.245  24.849  1.00  0.00     0.002 C 
BRANCH  25  26
ATOM     26  C   UNL A   1      33.996  28.553  25.602  1.00  0.00     0.021 C 
BRANCH  26  27
ATOM     27  C   UNL A   1      33.851  28.590  27.119  1.00  0.00     0.116 C 
BRANCH  27  28
ATOM     28  N   UNL A   1      33.770  29.954  27.620  1.00  0.00    -0.352 N 
ATOM     29  C   UNL A   1      34.689  30.664  28.350  1.00  0.00     0.251 C 
ATOM     30  H   UNL A   1      32.938  30.433  27.406  1.00  0.00     0.163 HD
ATOM     31  O   UNL A   1      34.380  31.730  28.870  1.00  0.00    -0.269 OA
BRANCH  29  32
ATOM     32  C   UNL A   1      36.055  30.127  28.519  1.00  0.00     0.039 A 
ATOM     33  C   UNL A   1      36.944  30.193  27.445  1.00  0.00     0.014 A 
ATOM     34  C   UNL A   1      36.451  29.559  29.733  1.00  0.00     0.014 A 
ATOM     35  C   UNL A   1      38.255  29.740  27.607  1.00  0.00     0.010 A 
ATOM     36  C   UNL A   1      37.775  29.173  29.914  1.00  0.00     0.010 A 
ATOM     37  C   UNL A   1      38.688  29.255  28.852  1.00  0.00    -0.014 A 
BRANCH  37  38
ATOM     38  C   UNL A   1      40.092  28.827  29.065  1.00  0.00     0.031 A 
ATOM     39  C   UNL A   1      41.088  29.779  29.664  1.00  0.00     0.074 A 
ATOM     40  C   UNL A   1      40.485  27.606  28.655  1.00  0.00     0.049 A 
ATOM     41  N   UNL A   1      42.374  29.623  29.851  1.00  0.00    -0.248 NA
ATOM     42  C   UNL A   1      40.576  31.094  30.084  1.00  0.00     0.031 C 
ATOM     43  C   UNL A   1      39.622  26.607  28.022  1.00  0.00     0.029 A 
ATOM     44  N   UNL A   1      41.716  27.001  28.698  1.00  0.00    -0.354 N 
ATOM     45  C   UNL A   1      42.825  30.819  30.393  1.00  0.00     0.074 A 
ATOM     46  C   UNL A   1      41.687  31.710  30.458  1.00  0.00     0.031 C 
ATOM     47  C   UNL A   1      40.346  25.508  27.752  1.00  0.00     0.029 A 
ATOM     48  C   UNL A   1      41.730  25.740  28.155  1.00  0.00     0.049 A 
ATOM     49  H   UNL A   1      42.515  27.432  29.082  1.00  0.00     0.167 HD
ATOM     50  C   UNL A   1      44.071  31.138  30.817  1.00  0.00     0.037 A 
ATOM     51  C   UNL A   1      42.745  24.871  27.992  1.00  0.00     0.037 A 
ATOM     52  C   UNL A   1      45.194  30.241  30.773  1.00  0.00     0.049 A 
ATOM     53  C   UNL A   1      44.121  25.254  28.464  1.00  0.00     0.074 A 
ATOM     54  C   UNL A   1      46.483  30.450  31.232  1.00  0.00     0.029 A 
ATOM     55  N   UNL A   1      45.163  28.964  30.233  1.00  0.00    -0.354 N 
ATOM     56  N   UNL A   1      44.521  26.364  29.033  1.00  0.00    -0.248 NA
ATOM     57  C   UNL A   1      45.186  24.259  28.273  1.00  0.00     0.031 C 
ATOM     58  C   UNL A   1      47.244  29.315  30.931  1.00  0.00     0.029 A 
ATOM     59  C   UNL A   1      46.416  28.380  30.329  1.00  0.00     0.049 A 
ATOM     60  H   UNL A   1      44.369  28.535  29.840  1.00  0.00     0.167 HD
ATOM     61  C   UNL A   1      45.873  26.191  29.298  1.00  0.00     0.074 A 
ATOM     62  C   UNL A   1      46.223  24.865  28.835  1.00  0.00     0.031 C 
ATOM     63  C   UNL A   1      46.746  27.054  29.874  1.00  0.00     0.037 A 
BRANCH  50  64
ATOM     64  C   UNL A   1      44.281  32.518  31.371  1.00  0.00     0.057 A 
ATOM     65  C   UNL A   1      44.655  33.593  30.555  1.00  0.00     0.134 A 
ATOM     66  C   UNL A   1      44.072  32.782  32.731  1.00  0.00     0.134 A 
ATOM     67  F   UNL A   1      44.883  33.407  29.246  1.00  0.00    -0.206 F 
ATOM     68  C   UNL A   1      44.842  34.876  31.075  1.00  0.00     0.040 A 
ATOM     69  C   UNL A   1      44.227  34.065  33.258  1.00  0.00     0.040 A 
ATOM     70  F   UNL A   1      43.705  31.800  33.568  1.00  0.00    -0.206 F 
ATOM     71  C   UNL A   1      44.621  35.115  32.430  1.00  0.00     0.006 A 
ENDBRANCH  50  64
BRANCH  51  72
ATOM     72  C   UNL A   1      42.497  23.546  27.371  1.00  0.00     0.057 A 
ATOM     73  C   UNL A   1      42.113  22.446  28.148  1.00  0.00     0.134 A 
ATOM     74  C   UNL A   1      42.643  23.344  25.994  1.00  0.00     0.134 A 
ATOM     75  F   UNL A   1      41.974  22.574  29.476  1.00  0.00    -0.206 F 
ATOM     76  C   UNL A   1      41.901  21.189  27.580  1.00  0.00     0.040 A 
ATOM     77  C   UNL A   1      42.410  22.097  25.410  1.00  0.00     0.040 A 
ATOM     78  F   UNL A   1      43.002  24.359  25.194  1.00  0.00    -0.206 F 
ATOM     79  C   UNL A   1      42.045  21.013  26.206  1.00  0.00     0.006 A 
ENDBRANCH  51  72
BRANCH  63  80
ATOM     80  C   UNL A   1      48.154  26.576  30.073  1.00  0.00     0.057 A 
ATOM     81  C   UNL A   1      48.547  25.883  31.224  1.00  0.00     0.134 A 
ATOM     82  C   UNL A   1      49.118  26.773  29.075  1.00  0.00     0.134 A 
ATOM     83  F   UNL A   1      47.674  25.674  32.222  1.00  0.00    -0.206 F 
ATOM     84  C   UNL A   1      49.853  25.420  31.385  1.00  0.00     0.040 A 
ATOM     85  C   UNL A   1      50.420  26.292  29.213  1.00  0.00     0.040 A 
ATOM     86  F   UNL A   1      48.805  27.421  27.943  1.00  0.00    -0.206 F 
ATOM     87  C   UNL A   1      50.792  25.617  30.374  1.00  0.00     0.006 A 
ENDBRANCH  63  80
ENDBRANCH  37  38
ENDBRANCH  29  32
ENDBRANCH  27  28
ENDBRANCH  26  27
ENDBRANCH  25  26
ENDBRANCH   1  25
TORSDOF 16
ENDMDL
