MODEL 1
REMARK VINA RESULT:     -10.5      0.000      0.000
REMARK SMILES C[C@@H](NC(=O)NCCC(=O)NC1CC1)C(=O)NCCCCCCNC(=O)c1ccc(-c2c3nc(c(-c4c(F)cccc4F)c4ccc([nH]4)c(-c4c(F)cccc4F)c4nc(c(-c5c(F)cccc5F)c5ccc2[nH]5)C=C4)C=C3)cc1
REMARK SMILES IDX 19 1 18 2 17 3 15 4 16 5 2 7 1 8 3 9 4 10 5 12 6 13 7 15
REMARK SMILES IDX 8 16 9 17 10 18 11 19 12 21 13 22 14 23 20 24 21 25 22 26
REMARK SMILES IDX 23 27 24 28 25 29 26 31 27 32 28 33 80 34 29 35 79 36 30 37
REMARK SMILES IDX 31 38 32 39 73 40 33 41 78 42 72 43 74 44 34 45 77 46 71 47
REMARK SMILES IDX 70 48 35 50 61 51 44 52 60 53 45 54 48 55 59 56 75 57 46 58
REMARK SMILES IDX 47 59 58 61 76 62 49 63 36 64 37 65 42 66 38 67 39 68 41 69
REMARK SMILES IDX 43 70 40 71 62 72 63 73 68 74 64 75 65 76 67 77 69 78 66 79
REMARK SMILES IDX 50 80 51 81 56 82 52 83 53 84 55 85 57 86 54 87
REMARK H PARENT 17 6 3 11 6 14 11 20 24 30 74 49 48 60
REMARK Flexibility Score: inf
ROOT
ATOM      1  C   UNL A   1      36.102  23.678  24.625  1.00  0.00     0.021 C 
ENDROOT
BRANCH   1   2
ATOM      2  C   UNL A   1      34.683  24.226  24.564  1.00  0.00     0.116 C 
BRANCH   2   3
ATOM      3  N   UNL A   1      34.365  24.647  23.216  1.00  0.00    -0.354 N 
ATOM      4  C   UNL A   1      33.635  25.708  22.785  1.00  0.00     0.242 C 
ATOM      5  O   UNL A   1      33.457  25.815  21.568  1.00  0.00    -0.273 OA
ATOM      6  H   UNL A   1      34.733  24.077  22.502  1.00  0.00     0.163 HD
BRANCH   4   7
ATOM      7  C   UNL A   1      32.925  26.665  23.757  1.00  0.00     0.170 C 
ATOM      8  C   UNL A   1      33.825  27.902  23.880  1.00  0.00     0.041 C 
BRANCH   7   9
ATOM      9  N   UNL A   1      31.579  27.114  23.421  1.00  0.00    -0.327 N 
ATOM     10  C   UNL A   1      30.371  26.559  23.458  1.00  0.00     0.315 C 
ATOM     11  H   UNL A   1      31.560  28.039  23.088  1.00  0.00     0.166 HD
ATOM     12  O   UNL A   1      29.409  27.272  23.158  1.00  0.00    -0.249 OA
ATOM     13  N   UNL A   1      30.134  25.269  23.681  1.00  0.00    -0.338 N 
ATOM     14  H   UNL A   1      29.228  25.015  23.389  1.00  0.00     0.165 HD
BRANCH  13  15
ATOM     15  C   UNL A   1      30.848  24.135  24.237  1.00  0.00     0.127 C 
BRANCH  15  16
ATOM     16  C   UNL A   1      31.110  24.296  25.733  1.00  0.00     0.121 C 
BRANCH  16  17
ATOM     17  C   UNL A   1      30.693  23.094  26.558  1.00  0.00     0.221 C 
ATOM     18  O   UNL A   1      29.785  23.177  27.388  1.00  0.00    -0.275 OA
ATOM     19  N   UNL A   1      31.320  21.888  26.384  1.00  0.00    -0.353 N 
ATOM     20  H   UNL A   1      30.909  21.128  26.858  1.00  0.00     0.163 HD
BRANCH  19  21
ATOM     21  C   UNL A   1      32.481  21.573  25.619  1.00  0.00     0.082 C 
ATOM     22  C   UNL A   1      32.924  20.126  25.588  1.00  0.00     0.027 C 
ATOM     23  C   UNL A   1      32.427  20.789  24.341  1.00  0.00     0.027 C 
ENDBRANCH  19  21
ENDBRANCH  16  17
ENDBRANCH  15  16
ENDBRANCH  13  15
ENDBRANCH   7   9
ENDBRANCH   4   7
ENDBRANCH   2   3
ENDBRANCH   1   2
BRANCH   1  24
ATOM     24  C   UNL A   1      36.220  22.259  24.049  1.00  0.00     0.002 C 
BRANCH  24  25
ATOM     25  C   UNL A   1      36.413  21.151  25.091  1.00  0.00     0.002 C 
BRANCH  25  26
ATOM     26  C   UNL A   1      37.622  20.242  24.864  1.00  0.00     0.021 C 
BRANCH  26  27
ATOM     27  C   UNL A   1      38.850  20.582  25.701  1.00  0.00     0.116 C 
BRANCH  27  28
ATOM     28  N   UNL A   1      39.831  19.511  25.726  1.00  0.00    -0.352 N 
ATOM     29  C   UNL A   1      41.154  19.578  26.084  1.00  0.00     0.251 C 
ATOM     30  H   UNL A   1      39.505  18.624  25.452  1.00  0.00     0.163 HD
ATOM     31  O   UNL A   1      41.896  18.613  25.928  1.00  0.00    -0.269 OA
BRANCH  29  32
ATOM     32  C   UNL A   1      41.689  20.844  26.627  1.00  0.00     0.039 A 
ATOM     33  C   UNL A   1      42.184  21.800  25.740  1.00  0.00     0.014 A 
ATOM     34  C   UNL A   1      41.665  21.097  28.002  1.00  0.00     0.014 A 
ATOM     35  C   UNL A   1      42.602  23.040  26.228  1.00  0.00     0.010 A 
ATOM     36  C   UNL A   1      42.010  22.358  28.477  1.00  0.00     0.010 A 
ATOM     37  C   UNL A   1      42.485  23.341  27.594  1.00  0.00    -0.014 A 
BRANCH  37  38
ATOM     38  C   UNL A   1      42.855  24.681  28.118  1.00  0.00     0.031 A 
ATOM     39  C   UNL A   1      41.794  25.722  28.343  1.00  0.00     0.074 A 
ATOM     40  C   UNL A   1      44.152  24.978  28.334  1.00  0.00     0.049 A 
ATOM     41  N   UNL A   1      41.924  26.963  28.741  1.00  0.00    -0.248 NA
ATOM     42  C   UNL A   1      40.404  25.327  28.057  1.00  0.00     0.031 C 
ATOM     43  C   UNL A   1      45.279  24.070  28.109  1.00  0.00     0.029 A 
ATOM     44  N   UNL A   1      44.743  26.133  28.783  1.00  0.00    -0.354 N 
ATOM     45  C   UNL A   1      40.642  27.498  28.735  1.00  0.00     0.074 A 
ATOM     46  C   UNL A   1      39.753  26.466  28.248  1.00  0.00     0.031 C 
ATOM     47  C   UNL A   1      46.420  24.694  28.444  1.00  0.00     0.029 A 
ATOM     48  C   UNL A   1      46.112  26.056  28.867  1.00  0.00     0.049 A 
ATOM     49  H   UNL A   1      44.234  26.940  29.024  1.00  0.00     0.167 HD
ATOM     50  C   UNL A   1      40.240  28.732  29.119  1.00  0.00     0.037 A 
ATOM     51  C   UNL A   1      47.018  26.983  29.233  1.00  0.00     0.037 A 
ATOM     52  C   UNL A   1      41.123  29.745  29.633  1.00  0.00     0.049 A 
ATOM     53  C   UNL A   1      46.542  28.349  29.648  1.00  0.00     0.074 A 
ATOM     54  C   UNL A   1      40.801  30.998  30.124  1.00  0.00     0.029 A 
ATOM     55  N   UNL A   1      42.502  29.625  29.716  1.00  0.00    -0.354 N 
ATOM     56  N   UNL A   1      45.317  28.812  29.721  1.00  0.00    -0.248 NA
ATOM     57  C   UNL A   1      47.574  29.321  30.035  1.00  0.00     0.031 C 
ATOM     58  C   UNL A   1      41.990  31.658  30.450  1.00  0.00     0.029 A 
ATOM     59  C   UNL A   1      43.048  30.794  30.219  1.00  0.00     0.049 A 
ATOM     60  H   UNL A   1      43.016  28.827  29.455  1.00  0.00     0.167 HD
ATOM     61  C   UNL A   1      45.430  30.113  30.196  1.00  0.00     0.074 A 
ATOM     62  C   UNL A   1      46.840  30.360  30.407  1.00  0.00     0.031 C 
ATOM     63  C   UNL A   1      44.453  31.021  30.436  1.00  0.00     0.037 A 
BRANCH  50  64
ATOM     64  C   UNL A   1      38.780  29.063  28.997  1.00  0.00     0.057 A 
ATOM     65  C   UNL A   1      37.906  28.984  30.089  1.00  0.00     0.134 A 
ATOM     66  C   UNL A   1      38.254  29.521  27.782  1.00  0.00     0.134 A 
ATOM     67  F   UNL A   1      38.342  28.543  31.280  1.00  0.00    -0.206 F 
ATOM     68  C   UNL A   1      36.558  29.328  29.973  1.00  0.00     0.040 A 
ATOM     69  C   UNL A   1      36.915  29.895  27.660  1.00  0.00     0.040 A 
ATOM     70  F   UNL A   1      39.036  29.627  26.697  1.00  0.00    -0.206 F 
ATOM     71  C   UNL A   1      36.061  29.794  28.757  1.00  0.00     0.006 A 
ENDBRANCH  50  64
BRANCH  51  72
ATOM     72  C   UNL A   1      48.469  26.658  29.238  1.00  0.00     0.057 A 
ATOM     73  C   UNL A   1      49.273  26.925  28.123  1.00  0.00     0.134 A 
ATOM     74  C   UNL A   1      49.078  26.042  30.337  1.00  0.00     0.134 A 
ATOM     75  F   UNL A   1      48.745  27.497  27.031  1.00  0.00    -0.206 F 
ATOM     76  C   UNL A   1      50.621  26.562  28.088  1.00  0.00     0.040 A 
ATOM     77  C   UNL A   1      50.432  25.701  30.328  1.00  0.00     0.040 A 
ATOM     78  F   UNL A   1      48.367  25.766  31.440  1.00  0.00    -0.206 F 
ATOM     79  C   UNL A   1      51.205  25.951  29.195  1.00  0.00     0.006 A 
ENDBRANCH  51  72
BRANCH  63  80
ATOM     80  C   UNL A   1      44.870  32.350  30.997  1.00  0.00     0.057 A 
ATOM     81  C   UNL A   1      45.154  33.448  30.175  1.00  0.00     0.134 A 
ATOM     82  C   UNL A   1      44.948  32.543  32.382  1.00  0.00     0.134 A 
ATOM     83  F   UNL A   1      45.110  33.328  28.840  1.00  0.00    -0.206 F 
ATOM     84  C   UNL A   1      45.525  34.682  30.711  1.00  0.00     0.040 A 
ATOM     85  C   UNL A   1      45.287  33.779  32.931  1.00  0.00     0.040 A 
ATOM     86  F   UNL A   1      44.679  31.534  33.227  1.00  0.00    -0.206 F 
ATOM     87  C   UNL A   1      45.585  34.853  32.093  1.00  0.00     0.006 A 
ENDBRANCH  63  80
ENDBRANCH  37  38
ENDBRANCH  29  32
ENDBRANCH  27  28
ENDBRANCH  26  27
ENDBRANCH  25  26
ENDBRANCH  24  25
ENDBRANCH   1  24
TORSDOF 18
ENDMDL
MODEL 2
REMARK VINA RESULT:     -10.5      4.308      8.886
REMARK SMILES C[C@@H](NC(=O)NCCC(=O)NC1CC1)C(=O)NCCCCCCNC(=O)c1ccc(-c2c3nc(c(-c4c(F)cccc4F)c4ccc([nH]4)c(-c4c(F)cccc4F)c4nc(c(-c5c(F)cccc5F)c5ccc2[nH]5)C=C4)C=C3)cc1
REMARK SMILES IDX 19 1 18 2 17 3 15 4 16 5 2 7 1 8 3 9 4 10 5 12 6 13 7 15
REMARK SMILES IDX 8 16 9 17 10 18 11 19 12 21 13 22 14 23 20 24 21 25 22 26
REMARK SMILES IDX 23 27 24 28 25 29 26 31 27 32 28 33 80 34 29 35 79 36 30 37
REMARK SMILES IDX 31 38 32 39 73 40 33 41 78 42 72 43 74 44 34 45 77 46 71 47
REMARK SMILES IDX 70 48 35 50 61 51 44 52 60 53 45 54 48 55 59 56 75 57 46 58
REMARK SMILES IDX 47 59 58 61 76 62 49 63 36 64 37 65 42 66 38 67 39 68 41 69
REMARK SMILES IDX 43 70 40 71 62 72 63 73 68 74 64 75 65 76 67 77 69 78 66 79
REMARK SMILES IDX 50 80 51 81 56 82 52 83 53 84 55 85 57 86 54 87
REMARK H PARENT 17 6 3 11 6 14 11 20 24 30 74 49 48 60
REMARK Flexibility Score: inf
ROOT
ATOM      1  C   UNL A   1      32.658  28.336  26.694  1.00  0.00     0.021 C 
ENDROOT
BRANCH   1   2
ATOM      2  C   UNL A   1      31.553  27.493  26.073  1.00  0.00     0.116 C 
BRANCH   2   3
ATOM      3  N   UNL A   1      31.885  27.160  24.704  1.00  0.00    -0.354 N 
ATOM      4  C   UNL A   1      32.255  25.970  24.164  1.00  0.00     0.242 C 
ATOM      5  O   UNL A   1      32.549  25.960  22.965  1.00  0.00    -0.273 OA
ATOM      6  H   UNL A   1      31.838  27.909  24.068  1.00  0.00     0.163 HD
BRANCH   4   7
ATOM      7  C   UNL A   1      32.451  24.706  25.018  1.00  0.00     0.170 C 
ATOM      8  C   UNL A   1      33.781  24.889  25.761  1.00  0.00     0.041 C 
BRANCH   7   9
ATOM      9  N   UNL A   1      31.424  24.372  25.998  1.00  0.00    -0.327 N 
ATOM     10  C   UNL A   1      30.958  23.239  26.516  1.00  0.00     0.315 C 
ATOM     11  H   UNL A   1      30.971  25.167  26.358  1.00  0.00     0.166 HD
ATOM     12  O   UNL A   1      30.106  23.329  27.404  1.00  0.00    -0.249 OA
ATOM     13  N   UNL A   1      31.254  22.021  26.071  1.00  0.00    -0.338 N 
ATOM     14  H   UNL A   1      30.604  21.354  26.389  1.00  0.00     0.165 HD
BRANCH  13  15
ATOM     15  C   UNL A   1      32.277  21.410  25.241  1.00  0.00     0.127 C 
BRANCH  15  16
ATOM     16  C   UNL A   1      33.279  20.603  26.064  1.00  0.00     0.121 C 
BRANCH  16  17
ATOM     17  C   UNL A   1      34.228  21.460  26.880  1.00  0.00     0.221 C 
ATOM     18  O   UNL A   1      33.840  22.050  27.890  1.00  0.00    -0.275 OA
ATOM     19  N   UNL A   1      35.540  21.584  26.505  1.00  0.00    -0.353 N 
ATOM     20  H   UNL A   1      36.121  22.046  27.153  1.00  0.00     0.163 HD
BRANCH  19  21
ATOM     21  C   UNL A   1      36.187  21.142  25.314  1.00  0.00     0.082 C 
ATOM     22  C   UNL A   1      36.579  22.197  24.301  1.00  0.00     0.027 C 
ATOM     23  C   UNL A   1      37.633  21.416  25.022  1.00  0.00     0.027 C 
ENDBRANCH  19  21
ENDBRANCH  16  17
ENDBRANCH  15  16
ENDBRANCH  13  15
ENDBRANCH   7   9
ENDBRANCH   4   7
ENDBRANCH   2   3
ENDBRANCH   1   2
BRANCH   1  24
ATOM     24  C   UNL A   1      32.150  29.677  27.245  1.00  0.00     0.002 C 
BRANCH  24  25
ATOM     25  C   UNL A   1      31.666  30.672  26.184  1.00  0.00     0.002 C 
BRANCH  25  26
ATOM     26  C   UNL A   1      31.408  32.093  26.689  1.00  0.00     0.021 C 
BRANCH  26  27
ATOM     27  C   UNL A   1      32.638  32.822  27.215  1.00  0.00     0.116 C 
BRANCH  27  28
ATOM     28  N   UNL A   1      32.353  34.187  27.626  1.00  0.00    -0.352 N 
ATOM     29  C   UNL A   1      32.971  34.927  28.603  1.00  0.00     0.251 C 
ATOM     30  H   UNL A   1      31.625  34.637  27.141  1.00  0.00     0.163 HD
ATOM     31  O   UNL A   1      32.532  36.026  28.929  1.00  0.00    -0.269 OA
BRANCH  29  32
ATOM     32  C   UNL A   1      34.153  34.367  29.289  1.00  0.00     0.039 A 
ATOM     33  C   UNL A   1      33.969  33.659  30.477  1.00  0.00     0.014 A 
ATOM     34  C   UNL A   1      35.431  34.513  28.741  1.00  0.00     0.014 A 
ATOM     35  C   UNL A   1      35.063  33.040  31.086  1.00  0.00     0.010 A 
ATOM     36  C   UNL A   1      36.505  33.834  29.307  1.00  0.00     0.010 A 
ATOM     37  C   UNL A   1      36.333  33.094  30.487  1.00  0.00    -0.014 A 
BRANCH  37  38
ATOM     38  C   UNL A   1      37.491  32.379  31.082  1.00  0.00     0.031 A 
ATOM     39  C   UNL A   1      38.107  32.876  32.361  1.00  0.00     0.074 A 
ATOM     40  C   UNL A   1      38.023  31.320  30.441  1.00  0.00     0.049 A 
ATOM     41  N   UNL A   1      39.152  32.422  33.006  1.00  0.00    -0.248 NA
ATOM     42  C   UNL A   1      37.483  34.054  32.986  1.00  0.00     0.031 C 
ATOM     43  C   UNL A   1      37.546  30.772  29.169  1.00  0.00     0.029 A 
ATOM     44  N   UNL A   1      39.090  30.521  30.765  1.00  0.00    -0.354 N 
ATOM     45  C   UNL A   1      39.321  33.267  34.095  1.00  0.00     0.074 A 
ATOM     46  C   UNL A   1      38.302  34.289  34.001  1.00  0.00     0.031 C 
ATOM     47  C   UNL A   1      38.301  29.712  28.836  1.00  0.00     0.029 A 
ATOM     48  C   UNL A   1      39.340  29.532  29.845  1.00  0.00     0.049 A 
ATOM     49  H   UNL A   1      39.627  30.643  31.581  1.00  0.00     0.167 HD
ATOM     50  C   UNL A   1      40.231  33.187  35.095  1.00  0.00     0.037 A 
ATOM     51  C   UNL A   1      40.304  28.592  29.812  1.00  0.00     0.037 A 
ATOM     52  C   UNL A   1      41.222  32.149  35.202  1.00  0.00     0.049 A 
ATOM     53  C   UNL A   1      41.306  28.531  30.933  1.00  0.00     0.074 A 
ATOM     54  C   UNL A   1      42.136  31.934  36.218  1.00  0.00     0.029 A 
ATOM     55  N   UNL A   1      41.434  31.157  34.257  1.00  0.00    -0.354 N 
ATOM     56  N   UNL A   1      41.399  29.284  32.002  1.00  0.00    -0.248 NA
ATOM     57  C   UNL A   1      42.337  27.488  30.844  1.00  0.00     0.031 C 
ATOM     58  C   UNL A   1      42.939  30.847  35.861  1.00  0.00     0.029 A 
ATOM     59  C   UNL A   1      42.487  30.348  34.651  1.00  0.00     0.049 A 
ATOM     60  H   UNL A   1      40.914  31.044  33.428  1.00  0.00     0.167 HD
ATOM     61  C   UNL A   1      42.471  28.783  32.730  1.00  0.00     0.074 A 
ATOM     62  C   UNL A   1      42.988  27.654  31.987  1.00  0.00     0.031 C 
ATOM     63  C   UNL A   1      42.982  29.218  33.907  1.00  0.00     0.037 A 
BRANCH  50  64
ATOM     64  C   UNL A   1      40.203  34.250  36.154  1.00  0.00     0.057 A 
ATOM     65  C   UNL A   1      40.914  35.449  36.024  1.00  0.00     0.134 A 
ATOM     66  C   UNL A   1      39.406  34.094  37.296  1.00  0.00     0.134 A 
ATOM     67  F   UNL A   1      41.705  35.659  34.959  1.00  0.00    -0.206 F 
ATOM     68  C   UNL A   1      40.852  36.446  36.999  1.00  0.00     0.040 A 
ATOM     69  C   UNL A   1      39.312  35.095  38.264  1.00  0.00     0.040 A 
ATOM     70  F   UNL A   1      38.692  32.973  37.482  1.00  0.00    -0.206 F 
ATOM     71  C   UNL A   1      40.041  36.274  38.119  1.00  0.00     0.006 A 
ENDBRANCH  50  64
BRANCH  51  72
ATOM     72  C   UNL A   1      40.371  27.620  28.689  1.00  0.00     0.057 A 
ATOM     73  C   UNL A   1      41.133  27.888  27.545  1.00  0.00     0.134 A 
ATOM     74  C   UNL A   1      39.650  26.420  28.714  1.00  0.00     0.134 A 
ATOM     75  F   UNL A   1      41.832  29.029  27.453  1.00  0.00    -0.206 F 
ATOM     76  C   UNL A   1      41.150  27.016  26.455  1.00  0.00     0.040 A 
ATOM     77  C   UNL A   1      39.681  25.525  27.644  1.00  0.00     0.040 A 
ATOM     78  F   UNL A   1      38.906  26.098  29.783  1.00  0.00    -0.206 F 
ATOM     79  C   UNL A   1      40.425  25.828  26.504  1.00  0.00     0.006 A 
ENDBRANCH  51  72
BRANCH  63  80
ATOM     80  C   UNL A   1      44.131  28.445  34.488  1.00  0.00     0.057 A 
ATOM     81  C   UNL A   1      45.463  28.811  34.263  1.00  0.00     0.134 A 
ATOM     82  C   UNL A   1      43.895  27.342  35.319  1.00  0.00     0.134 A 
ATOM     83  F   UNL A   1      45.758  29.850  33.467  1.00  0.00    -0.206 F 
ATOM     84  C   UNL A   1      46.521  28.092  34.823  1.00  0.00     0.040 A 
ATOM     85  C   UNL A   1      44.942  26.635  35.910  1.00  0.00     0.040 A 
ATOM     86  F   UNL A   1      42.641  26.944  35.585  1.00  0.00    -0.206 F 
ATOM     87  C   UNL A   1      46.261  27.005  35.656  1.00  0.00     0.006 A 
ENDBRANCH  63  80
ENDBRANCH  37  38
ENDBRANCH  29  32
ENDBRANCH  27  28
ENDBRANCH  26  27
ENDBRANCH  25  26
ENDBRANCH  24  25
ENDBRANCH   1  24
TORSDOF 18
ENDMDL
MODEL 3
REMARK VINA RESULT:     -10.4      1.161      3.012
REMARK SMILES C[C@@H](NC(=O)NCCC(=O)NC1CC1)C(=O)NCCCCCCNC(=O)c1ccc(-c2c3nc(c(-c4c(F)cccc4F)c4ccc([nH]4)c(-c4c(F)cccc4F)c4nc(c(-c5c(F)cccc5F)c5ccc2[nH]5)C=C4)C=C3)cc1
REMARK SMILES IDX 19 1 18 2 17 3 15 4 16 5 2 7 1 8 3 9 4 10 5 12 6 13 7 15
REMARK SMILES IDX 8 16 9 17 10 18 11 19 12 21 13 22 14 23 20 24 21 25 22 26
REMARK SMILES IDX 23 27 24 28 25 29 26 31 27 32 28 33 80 34 29 35 79 36 30 37
REMARK SMILES IDX 31 38 32 39 73 40 33 41 78 42 72 43 74 44 34 45 77 46 71 47
REMARK SMILES IDX 70 48 35 50 61 51 44 52 60 53 45 54 48 55 59 56 75 57 46 58
REMARK SMILES IDX 47 59 58 61 76 62 49 63 36 64 37 65 42 66 38 67 39 68 41 69
REMARK SMILES IDX 43 70 40 71 62 72 63 73 68 74 64 75 65 76 67 77 69 78 66 79
REMARK SMILES IDX 50 80 51 81 56 82 52 83 53 84 55 85 57 86 54 87
REMARK H PARENT 17 6 3 11 6 14 11 20 24 30 74 49 48 60
REMARK Flexibility Score: inf
ROOT
ATOM      1  C   UNL A   1      34.381  21.520  26.995  1.00  0.00     0.021 C 
ENDROOT
BRANCH   1   2
ATOM      2  C   UNL A   1      33.720  22.891  26.977  1.00  0.00     0.116 C 
BRANCH   2   3
ATOM      3  N   UNL A   1      32.305  22.770  27.255  1.00  0.00    -0.354 N 
ATOM      4  C   UNL A   1      31.275  23.576  26.888  1.00  0.00     0.242 C 
ATOM      5  O   UNL A   1      30.151  23.284  27.309  1.00  0.00    -0.273 OA
ATOM      6  H   UNL A   1      32.049  21.986  27.792  1.00  0.00     0.163 HD
BRANCH   4   7
ATOM      7  C   UNL A   1      31.492  24.884  26.108  1.00  0.00     0.170 C 
ATOM      8  C   UNL A   1      30.403  24.928  25.027  1.00  0.00     0.041 C 
BRANCH   7   9
ATOM      9  N   UNL A   1      31.451  26.140  26.847  1.00  0.00    -0.327 N 
ATOM     10  C   UNL A   1      32.099  27.299  26.760  1.00  0.00     0.315 C 
ATOM     11  H   UNL A   1      30.793  26.128  27.579  1.00  0.00     0.166 HD
ATOM     12  O   UNL A   1      31.753  28.201  27.528  1.00  0.00    -0.249 OA
ATOM     13  N   UNL A   1      33.163  27.518  25.995  1.00  0.00    -0.338 N 
ATOM     14  H   UNL A   1      33.654  28.322  26.283  1.00  0.00     0.165 HD
BRANCH  13  15
ATOM     15  C   UNL A   1      33.799  26.893  24.849  1.00  0.00     0.127 C 
BRANCH  15  16
ATOM     16  C   UNL A   1      33.903  27.843  23.658  1.00  0.00     0.121 C 
BRANCH  16  17
ATOM     17  C   UNL A   1      33.239  27.318  22.400  1.00  0.00     0.221 C 
ATOM     18  O   UNL A   1      33.816  26.513  21.667  1.00  0.00    -0.275 OA
ATOM     19  N   UNL A   1      31.977  27.732  22.063  1.00  0.00    -0.353 N 
ATOM     20  H   UNL A   1      31.564  27.252  21.309  1.00  0.00     0.163 HD
BRANCH  19  21
ATOM     21  C   UNL A   1      31.175  28.757  22.645  1.00  0.00     0.082 C 
ATOM     22  C   UNL A   1      29.672  28.619  22.525  1.00  0.00     0.027 C 
ATOM     23  C   UNL A   1      30.332  28.538  23.867  1.00  0.00     0.027 C 
ENDBRANCH  19  21
ENDBRANCH  16  17
ENDBRANCH  15  16
ENDBRANCH  13  15
ENDBRANCH   7   9
ENDBRANCH   4   7
ENDBRANCH   2   3
ENDBRANCH   1   2
BRANCH   1  24
ATOM     24  C   UNL A   1      34.718  20.999  25.590  1.00  0.00     0.002 C 
BRANCH  24  25
ATOM     25  C   UNL A   1      36.057  21.484  25.023  1.00  0.00     0.002 C 
BRANCH  25  26
ATOM     26  C   UNL A   1      37.147  20.417  24.917  1.00  0.00     0.021 C 
BRANCH  26  27
ATOM     27  C   UNL A   1      38.483  20.797  25.547  1.00  0.00     0.116 C 
BRANCH  27  28
ATOM     28  N   UNL A   1      39.434  19.698  25.559  1.00  0.00    -0.352 N 
ATOM     29  C   UNL A   1      40.749  19.716  25.953  1.00  0.00     0.251 C 
ATOM     30  H   UNL A   1      39.091  18.831  25.245  1.00  0.00     0.163 HD
ATOM     31  O   UNL A   1      41.468  18.737  25.782  1.00  0.00    -0.269 OA
BRANCH  29  32
ATOM     32  C   UNL A   1      41.302  20.947  26.553  1.00  0.00     0.039 A 
ATOM     33  C   UNL A   1      41.930  21.877  25.723  1.00  0.00     0.014 A 
ATOM     34  C   UNL A   1      41.168  21.196  27.922  1.00  0.00     0.014 A 
ATOM     35  C   UNL A   1      42.371  23.089  26.258  1.00  0.00     0.010 A 
ATOM     36  C   UNL A   1      41.539  22.434  28.438  1.00  0.00     0.010 A 
ATOM     37  C   UNL A   1      42.148  23.392  27.611  1.00  0.00    -0.014 A 
BRANCH  37  38
ATOM     38  C   UNL A   1      42.544  24.706  28.178  1.00  0.00     0.031 A 
ATOM     39  C   UNL A   1      41.510  25.775  28.396  1.00  0.00     0.074 A 
ATOM     40  C   UNL A   1      43.842  24.956  28.440  1.00  0.00     0.049 A 
ATOM     41  N   UNL A   1      41.667  27.001  28.828  1.00  0.00    -0.248 NA
ATOM     42  C   UNL A   1      40.118  25.433  28.060  1.00  0.00     0.031 C 
ATOM     43  C   UNL A   1      44.946  24.017  28.226  1.00  0.00     0.029 A 
ATOM     44  N   UNL A   1      44.456  26.079  28.934  1.00  0.00    -0.354 N 
ATOM     45  C   UNL A   1      40.404  27.578  28.797  1.00  0.00     0.074 A 
ATOM     46  C   UNL A   1      39.498  26.587  28.259  1.00  0.00     0.031 C 
ATOM     47  C   UNL A   1      46.096  24.595  28.611  1.00  0.00     0.029 A 
ATOM     48  C   UNL A   1      45.819  25.957  29.057  1.00  0.00     0.049 A 
ATOM     49  H   UNL A   1      43.965  26.897  29.179  1.00  0.00     0.167 HD
ATOM     50  C   UNL A   1      40.029  28.815  29.199  1.00  0.00     0.037 A 
ATOM     51  C   UNL A   1      46.742  26.845  29.473  1.00  0.00     0.037 A 
ATOM     52  C   UNL A   1      40.928  29.787  29.764  1.00  0.00     0.049 A 
ATOM     53  C   UNL A   1      46.297  28.215  29.906  1.00  0.00     0.074 A 
ATOM     54  C   UNL A   1      40.631  31.038  30.276  1.00  0.00     0.029 A 
ATOM     55  N   UNL A   1      42.299  29.620  29.884  1.00  0.00    -0.354 N 
ATOM     56  N   UNL A   1      45.086  28.716  29.954  1.00  0.00    -0.248 NA
ATOM     57  C   UNL A   1      47.347  29.144  30.348  1.00  0.00     0.031 C 
ATOM     58  C   UNL A   1      41.830  31.651  30.653  1.00  0.00     0.029 A 
ATOM     59  C   UNL A   1      42.866  30.759  30.432  1.00  0.00     0.049 A 
ATOM     60  H   UNL A   1      42.795  28.812  29.620  1.00  0.00     0.167 HD
ATOM     61  C   UNL A   1      45.225  30.001  30.464  1.00  0.00     0.074 A 
ATOM     62  C   UNL A   1      46.635  30.197  30.722  1.00  0.00     0.031 C 
ATOM     63  C   UNL A   1      44.271  30.935  30.696  1.00  0.00     0.037 A 
BRANCH  50  64
ATOM     64  C   UNL A   1      38.585  29.196  29.042  1.00  0.00     0.057 A 
ATOM     65  C   UNL A   1      37.690  29.177  30.119  1.00  0.00     0.134 A 
ATOM     66  C   UNL A   1      38.098  29.641  27.807  1.00  0.00     0.134 A 
ATOM     67  F   UNL A   1      38.088  28.751  31.328  1.00  0.00    -0.206 F 
ATOM     68  C   UNL A   1      36.357  29.567  29.969  1.00  0.00     0.040 A 
ATOM     69  C   UNL A   1      36.776  30.061  27.650  1.00  0.00     0.040 A 
ATOM     70  F   UNL A   1      38.902  29.691  26.734  1.00  0.00    -0.206 F 
ATOM     71  C   UNL A   1      35.900  30.020  28.733  1.00  0.00     0.006 A 
ENDBRANCH  50  64
BRANCH  51  72
ATOM     72  C   UNL A   1      48.181  26.473  29.512  1.00  0.00     0.057 A 
ATOM     73  C   UNL A   1      49.025  26.732  28.426  1.00  0.00     0.134 A 
ATOM     74  C   UNL A   1      48.738  25.819  30.618  1.00  0.00     0.134 A 
ATOM     75  F   UNL A   1      48.547  27.339  27.329  1.00  0.00    -0.206 F 
ATOM     76  C   UNL A   1      50.361  26.326  28.423  1.00  0.00     0.040 A 
ATOM     77  C   UNL A   1      50.080  25.435  30.641  1.00  0.00     0.040 A 
ATOM     78  F   UNL A   1      47.987  25.548  31.695  1.00  0.00    -0.206 F 
ATOM     79  C   UNL A   1      50.892  25.678  29.535  1.00  0.00     0.006 A 
ENDBRANCH  51  72
BRANCH  63  80
ATOM     80  C   UNL A   1      44.712  32.236  31.302  1.00  0.00     0.057 A 
ATOM     81  C   UNL A   1      44.806  32.417  32.687  1.00  0.00     0.134 A 
ATOM     82  C   UNL A   1      45.089  33.309  30.483  1.00  0.00     0.134 A 
ATOM     83  F   UNL A   1      44.449  31.434  33.527  1.00  0.00    -0.206 F 
ATOM     84  C   UNL A   1      45.233  33.627  33.237  1.00  0.00     0.040 A 
ATOM     85  C   UNL A   1      45.546  34.512  31.019  1.00  0.00     0.040 A 
ATOM     86  F   UNL A   1      45.033  33.198  29.146  1.00  0.00    -0.206 F 
ATOM     87  C   UNL A   1      45.612  34.677  32.402  1.00  0.00     0.006 A 
ENDBRANCH  63  80
ENDBRANCH  37  38
ENDBRANCH  29  32
ENDBRANCH  27  28
ENDBRANCH  26  27
ENDBRANCH  25  26
ENDBRANCH  24  25
ENDBRANCH   1  24
TORSDOF 18
ENDMDL
