MODEL 1
REMARK VINA RESULT:     -11.5      0.000      0.000
REMARK SMILES C[C@@H](C(=O)NCCCCCCNC(=O)c1ccc(-c2c3nc(c(-c4c(F)cccc4F)c4ccc([nH]4)c(-c4c(F)cccc4F)c4nc(c(-c5c(F)cccc5F)c5ccc2[nH]5)C=C4)C=C3)cc1)c1cc(C(=O)c2ccccc2)ccc1O
REMARK SMILES IDX 8 1 7 2 6 3 5 4 3 5 4 6 2 8 1 9 69 10 70 11 82 12 71 13
REMARK SMILES IDX 81 14 80 15 83 16 72 18 73 19 74 20 75 21 79 22 76 23 78 24
REMARK SMILES IDX 77 25 9 26 10 27 11 28 12 29 13 30 14 32 15 33 16 34 68 35
REMARK SMILES IDX 17 36 67 37 18 38 19 39 20 40 61 41 21 42 66 43 60 44 62 45
REMARK SMILES IDX 22 46 65 47 59 48 58 49 23 51 49 52 32 53 48 54 33 55 36 56
REMARK SMILES IDX 47 57 63 58 34 59 35 60 46 62 64 63 37 64 24 65 25 66 30 67
REMARK SMILES IDX 26 68 27 69 29 70 31 71 28 72 50 73 51 74 56 75 52 76 53 77
REMARK SMILES IDX 55 78 57 79 54 80 38 81 39 82 44 83 40 84 41 85 43 86 45 87
REMARK SMILES IDX 42 88
REMARK H PARENT 5 7 83 17 12 31 62 50 36 61
REMARK Flexibility Score: inf
ROOT
ATOM      1  C   UNL A   1      31.758  29.421  26.515  1.00  0.00     0.002 C 
ENDROOT
BRANCH   1   2
ATOM      2  C   UNL A   1      33.176  29.298  27.092  1.00  0.00     0.021 C 
BRANCH   2   3
ATOM      3  C   UNL A   1      34.143  28.483  26.227  1.00  0.00     0.116 C 
BRANCH   3   4
ATOM      4  N   UNL A   1      34.007  28.855  24.835  1.00  0.00    -0.356 N 
ATOM      5  C   UNL A   1      33.972  28.077  23.719  1.00  0.00     0.227 C 
ATOM      6  O   UNL A   1      34.135  28.660  22.641  1.00  0.00    -0.274 OA
ATOM      7  H   UNL A   1      33.927  29.822  24.669  1.00  0.00     0.163 HD
BRANCH   5   8
ATOM      8  C   UNL A   1      33.726  26.562  23.817  1.00  0.00     0.109 C 
ATOM      9  C   UNL A   1      33.807  25.851  22.464  1.00  0.00     0.023 C 
BRANCH   8  10
ATOM     10  C   UNL A   1      32.388  26.220  24.478  1.00  0.00     0.007 A 
ATOM     11  C   UNL A   1      31.199  26.732  23.926  1.00  0.00     0.020 A 
ATOM     12  C   UNL A   1      32.286  25.467  25.658  1.00  0.00     0.119 A 
ATOM     13  C   UNL A   1      29.957  26.498  24.541  1.00  0.00     0.023 A 
ATOM     14  C   UNL A   1      31.063  25.228  26.274  1.00  0.00     0.047 A 
ATOM     15  C   UNL A   1      29.894  25.727  25.707  1.00  0.00     0.016 A 
BRANCH  12  16
ATOM     16  O   UNL A   1      33.377  24.898  26.250  1.00  0.00    -0.508 OA
ATOM     17  H   UNL A   1      33.266  24.310  26.971  1.00  0.00     0.293 HD
ENDBRANCH  12  16
BRANCH  13  18
ATOM     18  C   UNL A   1      28.729  27.057  23.909  1.00  0.00     0.193 C 
ATOM     19  O   UNL A   1      27.651  26.485  24.047  1.00  0.00    -0.289 OA
BRANCH  18  20
ATOM     20  C   UNL A   1      28.780  28.318  23.132  1.00  0.00     0.022 A 
ATOM     21  C   UNL A   1      30.020  28.773  22.676  1.00  0.00     0.012 A 
ATOM     22  C   UNL A   1      27.616  29.044  22.853  1.00  0.00     0.012 A 
ATOM     23  C   UNL A   1      30.090  29.928  21.897  1.00  0.00     0.001 A 
ATOM     24  C   UNL A   1      27.691  30.197  22.071  1.00  0.00     0.001 A 
ATOM     25  C   UNL A   1      28.925  30.633  21.587  1.00  0.00     0.000 A 
ENDBRANCH  18  20
ENDBRANCH  13  18
ENDBRANCH   8  10
ENDBRANCH   5   8
ENDBRANCH   3   4
ENDBRANCH   2   3
ENDBRANCH   1   2
BRANCH   1  26
ATOM     26  C   UNL A   1      31.420  30.779  25.891  1.00  0.00     0.002 C 
BRANCH  26  27
ATOM     27  C   UNL A   1      31.410  31.957  26.866  1.00  0.00     0.021 C 
BRANCH  27  28
ATOM     28  C   UNL A   1      32.677  32.806  26.857  1.00  0.00     0.116 C 
BRANCH  28  29
ATOM     29  N   UNL A   1      32.495  34.077  27.537  1.00  0.00    -0.352 N 
ATOM     30  C   UNL A   1      33.141  34.568  28.641  1.00  0.00     0.251 C 
ATOM     31  H   UNL A   1      31.809  34.668  27.151  1.00  0.00     0.163 HD
ATOM     32  O   UNL A   1      32.735  35.598  29.183  1.00  0.00    -0.269 OA
BRANCH  30  33
ATOM     33  C   UNL A   1      34.316  33.863  29.199  1.00  0.00     0.039 A 
ATOM     34  C   UNL A   1      35.594  34.300  28.840  1.00  0.00     0.014 A 
ATOM     35  C   UNL A   1      34.165  32.754  30.038  1.00  0.00     0.014 A 
ATOM     36  C   UNL A   1      36.720  33.647  29.347  1.00  0.00     0.010 A 
ATOM     37  C   UNL A   1      35.288  32.144  30.593  1.00  0.00     0.010 A 
ATOM     38  C   UNL A   1      36.575  32.572  30.238  1.00  0.00    -0.014 A 
BRANCH  38  39
ATOM     39  C   UNL A   1      37.762  31.860  30.773  1.00  0.00     0.031 A 
ATOM     40  C   UNL A   1      38.288  32.197  32.143  1.00  0.00     0.074 A 
ATOM     41  C   UNL A   1      38.393  30.944  30.016  1.00  0.00     0.049 A 
ATOM     42  N   UNL A   1      39.328  31.712  32.772  1.00  0.00    -0.248 NA
ATOM     43  C   UNL A   1      37.565  33.236  32.891  1.00  0.00     0.031 C 
ATOM     44  C   UNL A   1      38.010  30.559  28.657  1.00  0.00     0.029 A 
ATOM     45  N   UNL A   1      39.495  30.170  30.283  1.00  0.00    -0.354 N 
ATOM     46  C   UNL A   1      39.396  32.401  33.976  1.00  0.00     0.074 A 
ATOM     47  C   UNL A   1      38.321  33.368  33.971  1.00  0.00     0.031 C 
ATOM     48  C   UNL A   1      38.845  29.602  28.220  1.00  0.00     0.029 A 
ATOM     49  C   UNL A   1      39.835  29.325  29.256  1.00  0.00     0.049 A 
ATOM     50  H   UNL A   1      39.992  30.216  31.131  1.00  0.00     0.167 HD
ATOM     51  C   UNL A   1      40.263  32.230  35.003  1.00  0.00     0.037 A 
ATOM     52  C   UNL A   1      40.831  28.423  29.166  1.00  0.00     0.037 A 
ATOM     53  C   UNL A   1      41.305  31.238  35.027  1.00  0.00     0.049 A 
ATOM     54  C   UNL A   1      41.762  28.232  30.330  1.00  0.00     0.074 A 
ATOM     55  C   UNL A   1      42.186  30.936  36.050  1.00  0.00     0.029 A 
ATOM     56  N   UNL A   1      41.602  30.383  33.977  1.00  0.00    -0.354 N 
ATOM     57  N   UNL A   1      41.773  28.843  31.489  1.00  0.00    -0.248 NA
ATOM     58  C   UNL A   1      42.815  27.218  30.174  1.00  0.00     0.031 C 
ATOM     59  C   UNL A   1      43.039  29.918  35.607  1.00  0.00     0.029 A 
ATOM     60  C   UNL A   1      42.663  29.562  34.322  1.00  0.00     0.049 A 
ATOM     61  H   UNL A   1      41.129  30.361  33.114  1.00  0.00     0.167 HD
ATOM     62  C   UNL A   1      42.807  28.266  32.214  1.00  0.00     0.074 A 
ATOM     63  C   UNL A   1      43.398  27.252  31.364  1.00  0.00     0.031 C 
ATOM     64  C   UNL A   1      43.230  28.549  33.470  1.00  0.00     0.037 A 
BRANCH  51  65
ATOM     65  C   UNL A   1      40.114  33.138  36.188  1.00  0.00     0.057 A 
ATOM     66  C   UNL A   1      39.238  32.842  37.240  1.00  0.00     0.134 A 
ATOM     67  C   UNL A   1      40.873  34.310  36.288  1.00  0.00     0.134 A 
ATOM     68  F   UNL A   1      38.473  31.741  37.199  1.00  0.00    -0.206 F 
ATOM     69  C   UNL A   1      39.100  33.695  38.337  1.00  0.00     0.040 A 
ATOM     70  C   UNL A   1      40.763  35.159  37.392  1.00  0.00     0.040 A 
ATOM     71  F   UNL A   1      41.735  34.650  35.319  1.00  0.00    -0.206 F 
ATOM     72  C   UNL A   1      39.868  34.856  38.416  1.00  0.00     0.006 A 
ENDBRANCH  51  65
BRANCH  52  73
ATOM     73  C   UNL A   1      40.972  27.594  27.943  1.00  0.00     0.057 A 
ATOM     74  C   UNL A   1      41.774  28.021  26.877  1.00  0.00     0.134 A 
ATOM     75  C   UNL A   1      40.309  26.370  27.805  1.00  0.00     0.134 A 
ATOM     76  F   UNL A   1      42.417  29.195  26.945  1.00  0.00    -0.206 F 
ATOM     77  C   UNL A   1      41.898  27.266  25.710  1.00  0.00     0.040 A 
ATOM     78  C   UNL A   1      40.442  25.595  26.651  1.00  0.00     0.040 A 
ATOM     79  F   UNL A   1      39.533  25.905  28.795  1.00  0.00    -0.206 F 
ATOM     80  C   UNL A   1      41.234  26.047  25.597  1.00  0.00     0.006 A 
ENDBRANCH  52  73
BRANCH  64  81
ATOM     81  C   UNL A   1      44.355  27.723  34.016  1.00  0.00     0.057 A 
ATOM     82  C   UNL A   1      45.690  28.129  33.907  1.00  0.00     0.134 A 
ATOM     83  C   UNL A   1      44.095  26.520  34.684  1.00  0.00     0.134 A 
ATOM     84  F   UNL A   1      46.005  29.265  33.266  1.00  0.00    -0.206 F 
ATOM     85  C   UNL A   1      46.730  27.356  34.426  1.00  0.00     0.040 A 
ATOM     86  C   UNL A   1      45.123  25.750  35.227  1.00  0.00     0.040 A 
ATOM     87  F   UNL A   1      42.836  26.079  34.828  1.00  0.00    -0.206 F 
ATOM     88  C   UNL A   1      46.447  26.166  35.093  1.00  0.00     0.006 A 
ENDBRANCH  64  81
ENDBRANCH  38  39
ENDBRANCH  30  33
ENDBRANCH  28  29
ENDBRANCH  27  28
ENDBRANCH  26  27
ENDBRANCH   1  26
TORSDOF 17
ENDMDL
MODEL 2
REMARK VINA RESULT:     -11.4      3.833      8.382
REMARK SMILES C[C@@H](C(=O)NCCCCCCNC(=O)c1ccc(-c2c3nc(c(-c4c(F)cccc4F)c4ccc([nH]4)c(-c4c(F)cccc4F)c4nc(c(-c5c(F)cccc5F)c5ccc2[nH]5)C=C4)C=C3)cc1)c1cc(C(=O)c2ccccc2)ccc1O
REMARK SMILES IDX 8 1 7 2 6 3 5 4 3 5 4 6 2 8 1 9 69 10 70 11 82 12 71 13
REMARK SMILES IDX 81 14 80 15 83 16 72 18 73 19 74 20 75 21 79 22 76 23 78 24
REMARK SMILES IDX 77 25 9 26 10 27 11 28 12 29 13 30 14 32 15 33 16 34 68 35
REMARK SMILES IDX 17 36 67 37 18 38 19 39 20 40 61 41 21 42 66 43 60 44 62 45
REMARK SMILES IDX 22 46 65 47 59 48 58 49 23 51 49 52 32 53 48 54 33 55 36 56
REMARK SMILES IDX 47 57 63 58 34 59 35 60 46 62 64 63 37 64 24 65 25 66 30 67
REMARK SMILES IDX 26 68 27 69 29 70 31 71 28 72 50 73 51 74 56 75 52 76 53 77
REMARK SMILES IDX 55 78 57 79 54 80 38 81 39 82 44 83 40 84 41 85 43 86 45 87
REMARK SMILES IDX 42 88
REMARK H PARENT 5 7 83 17 12 31 62 50 36 61
REMARK Flexibility Score: inf
ROOT
ATOM      1  C   UNL A   1      33.815  23.396  22.593  1.00  0.00     0.002 C 
ENDROOT
BRANCH   1   2
ATOM      2  C   UNL A   1      32.598  24.273  22.262  1.00  0.00     0.021 C 
BRANCH   2   3
ATOM      3  C   UNL A   1      32.918  25.504  21.407  1.00  0.00     0.116 C 
BRANCH   3   4
ATOM      4  N   UNL A   1      31.765  26.376  21.332  1.00  0.00    -0.356 N 
ATOM      5  C   UNL A   1      31.445  27.472  22.072  1.00  0.00     0.227 C 
ATOM      6  O   UNL A   1      30.275  27.862  21.993  1.00  0.00    -0.274 OA
ATOM      7  H   UNL A   1      31.110  26.139  20.636  1.00  0.00     0.163 HD
BRANCH   5   8
ATOM      8  C   UNL A   1      32.502  28.178  22.938  1.00  0.00     0.109 C 
ATOM      9  C   UNL A   1      33.932  27.961  22.436  1.00  0.00     0.023 C 
BRANCH   8  10
ATOM     10  C   UNL A   1      32.427  27.773  24.413  1.00  0.00     0.007 A 
ATOM     11  C   UNL A   1      31.846  26.538  24.757  1.00  0.00     0.020 A 
ATOM     12  C   UNL A   1      32.853  28.606  25.459  1.00  0.00     0.119 A 
ATOM     13  C   UNL A   1      31.696  26.161  26.103  1.00  0.00     0.023 A 
ATOM     14  C   UNL A   1      32.712  28.242  26.793  1.00  0.00     0.047 A 
ATOM     15  C   UNL A   1      32.150  27.011  27.117  1.00  0.00     0.016 A 
BRANCH  12  16
ATOM     16  O   UNL A   1      33.461  29.807  25.226  1.00  0.00    -0.508 OA
ATOM     17  H   UNL A   1      33.178  30.345  24.514  1.00  0.00     0.293 HD
ENDBRANCH  12  16
BRANCH  13  18
ATOM     18  C   UNL A   1      31.082  24.839  26.411  1.00  0.00     0.193 C 
ATOM     19  O   UNL A   1      29.919  24.776  26.801  1.00  0.00    -0.289 OA
BRANCH  18  20
ATOM     20  C   UNL A   1      31.847  23.583  26.228  1.00  0.00     0.022 A 
ATOM     21  C   UNL A   1      31.325  22.597  25.386  1.00  0.00     0.012 A 
ATOM     22  C   UNL A   1      33.071  23.380  26.878  1.00  0.00     0.012 A 
ATOM     23  C   UNL A   1      32.051  21.429  25.155  1.00  0.00     0.001 A 
ATOM     24  C   UNL A   1      33.793  22.210  26.641  1.00  0.00     0.001 A 
ATOM     25  C   UNL A   1      33.288  21.241  25.774  1.00  0.00     0.000 A 
ENDBRANCH  18  20
ENDBRANCH  13  18
ENDBRANCH   8  10
ENDBRANCH   5   8
ENDBRANCH   3   4
ENDBRANCH   2   3
ENDBRANCH   1   2
BRANCH   1  26
ATOM     26  C   UNL A   1      34.835  24.023  23.547  1.00  0.00     0.002 C 
BRANCH  26  27
ATOM     27  C   UNL A   1      36.069  23.166  23.832  1.00  0.00     0.021 C 
BRANCH  27  28
ATOM     28  C   UNL A   1      36.889  23.606  25.040  1.00  0.00     0.116 C 
BRANCH  28  29
ATOM     29  N   UNL A   1      37.802  22.572  25.495  1.00  0.00    -0.352 N 
ATOM     30  C   UNL A   1      38.988  22.699  26.169  1.00  0.00     0.251 C 
ATOM     31  H   UNL A   1      37.529  21.648  25.289  1.00  0.00     0.163 HD
ATOM     32  O   UNL A   1      39.715  21.715  26.323  1.00  0.00    -0.269 OA
BRANCH  30  33
ATOM     33  C   UNL A   1      39.413  24.011  26.700  1.00  0.00     0.039 A 
ATOM     34  C   UNL A   1      40.087  24.893  25.852  1.00  0.00     0.014 A 
ATOM     35  C   UNL A   1      39.188  24.361  28.036  1.00  0.00     0.014 A 
ATOM     36  C   UNL A   1      40.508  26.137  26.332  1.00  0.00     0.010 A 
ATOM     37  C   UNL A   1      39.550  25.625  28.496  1.00  0.00     0.010 A 
ATOM     38  C   UNL A   1      40.230  26.517  27.653  1.00  0.00    -0.014 A 
BRANCH  38  39
ATOM     39  C   UNL A   1      40.682  27.828  28.180  1.00  0.00     0.031 A 
ATOM     40  C   UNL A   1      42.151  28.150  28.241  1.00  0.00     0.074 A 
ATOM     41  C   UNL A   1      39.779  28.713  28.642  1.00  0.00     0.049 A 
ATOM     42  N   UNL A   1      42.745  29.224  28.696  1.00  0.00    -0.248 NA
ATOM     43  C   UNL A   1      43.075  27.115  27.752  1.00  0.00     0.031 C 
ATOM     44  C   UNL A   1      38.330  28.504  28.679  1.00  0.00     0.029 A 
ATOM     45  N   UNL A   1      39.948  29.967  29.174  1.00  0.00    -0.354 N 
ATOM     46  C   UNL A   1      44.107  28.984  28.569  1.00  0.00     0.074 A 
ATOM     47  C   UNL A   1      44.254  27.648  28.036  1.00  0.00     0.031 C 
ATOM     48  C   UNL A   1      37.742  29.604  29.179  1.00  0.00     0.029 A 
ATOM     49  C   UNL A   1      38.771  30.582  29.520  1.00  0.00     0.049 A 
ATOM     50  H   UNL A   1      40.831  30.386  29.294  1.00  0.00     0.167 HD
ATOM     51  C   UNL A   1      45.143  29.810  28.850  1.00  0.00     0.037 A 
ATOM     52  C   UNL A   1      38.547  31.801  30.046  1.00  0.00     0.037 A 
ATOM     53  C   UNL A   1      44.997  31.156  29.337  1.00  0.00     0.049 A 
ATOM     54  C   UNL A   1      39.712  32.710  30.322  1.00  0.00     0.074 A 
ATOM     55  C   UNL A   1      45.980  32.099  29.582  1.00  0.00     0.029 A 
ATOM     56  N   UNL A   1      43.785  31.753  29.652  1.00  0.00    -0.354 N 
ATOM     57  N   UNL A   1      40.991  32.497  30.133  1.00  0.00    -0.248 NA
ATOM     58  C   UNL A   1      39.398  34.034  30.879  1.00  0.00     0.031 C 
ATOM     59  C   UNL A   1      45.366  33.255  30.075  1.00  0.00     0.029 A 
ATOM     60  C   UNL A   1      43.997  33.045  30.101  1.00  0.00     0.049 A 
ATOM     61  H   UNL A   1      42.904  31.321  29.567  1.00  0.00     0.167 HD
ATOM     62  C   UNL A   1      41.632  33.668  30.512  1.00  0.00     0.074 A 
ATOM     63  C   UNL A   1      40.600  34.591  30.938  1.00  0.00     0.031 C 
ATOM     64  C   UNL A   1      42.957  33.955  30.508  1.00  0.00     0.037 A 
BRANCH  51  65
ATOM     65  C   UNL A   1      46.528  29.278  28.631  1.00  0.00     0.057 A 
ATOM     66  C   UNL A   1      47.237  28.622  29.646  1.00  0.00     0.134 A 
ATOM     67  C   UNL A   1      47.152  29.404  27.383  1.00  0.00     0.134 A 
ATOM     68  F   UNL A   1      46.700  28.480  30.867  1.00  0.00    -0.206 F 
ATOM     69  C   UNL A   1      48.529  28.136  29.437  1.00  0.00     0.040 A 
ATOM     70  C   UNL A   1      48.434  28.899  27.155  1.00  0.00     0.040 A 
ATOM     71  F   UNL A   1      46.528  30.016  26.367  1.00  0.00    -0.206 F 
ATOM     72  C   UNL A   1      49.129  28.270  28.186  1.00  0.00     0.006 A 
ENDBRANCH  51  65
BRANCH  52  73
ATOM     73  C   UNL A   1      37.159  32.255  30.303  1.00  0.00     0.057 A 
ATOM     74  C   UNL A   1      36.465  33.010  29.349  1.00  0.00     0.134 A 
ATOM     75  C   UNL A   1      36.496  31.955  31.498  1.00  0.00     0.134 A 
ATOM     76  F   UNL A   1      37.056  33.344  28.194  1.00  0.00    -0.206 F 
ATOM     77  C   UNL A   1      35.166  33.466  29.584  1.00  0.00     0.040 A 
ATOM     78  C   UNL A   1      35.190  32.387  31.736  1.00  0.00     0.040 A 
ATOM     79  F   UNL A   1      37.106  31.228  32.446  1.00  0.00    -0.206 F 
ATOM     80  C   UNL A   1      34.525  33.150  30.779  1.00  0.00     0.006 A 
ENDBRANCH  52  73
BRANCH  64  81
ATOM     81  C   UNL A   1      43.360  35.334  30.935  1.00  0.00     0.057 A 
ATOM     82  C   UNL A   1      43.620  35.647  32.274  1.00  0.00     0.134 A 
ATOM     83  C   UNL A   1      43.518  36.354  29.988  1.00  0.00     0.134 A 
ATOM     84  F   UNL A   1      43.473  34.717  33.230  1.00  0.00    -0.206 F 
ATOM     85  C   UNL A   1      44.002  36.932  32.660  1.00  0.00     0.040 A 
ATOM     86  C   UNL A   1      43.922  37.637  30.358  1.00  0.00     0.040 A 
ATOM     87  F   UNL A   1      43.291  36.116  28.687  1.00  0.00    -0.206 F 
ATOM     88  C   UNL A   1      44.159  37.930  31.699  1.00  0.00     0.006 A 
ENDBRANCH  64  81
ENDBRANCH  38  39
ENDBRANCH  30  33
ENDBRANCH  28  29
ENDBRANCH  27  28
ENDBRANCH  26  27
ENDBRANCH   1  26
TORSDOF 17
ENDMDL
MODEL 3
REMARK VINA RESULT:     -11.4      1.068      6.251
REMARK SMILES C[C@@H](C(=O)NCCCCCCNC(=O)c1ccc(-c2c3nc(c(-c4c(F)cccc4F)c4ccc([nH]4)c(-c4c(F)cccc4F)c4nc(c(-c5c(F)cccc5F)c5ccc2[nH]5)C=C4)C=C3)cc1)c1cc(C(=O)c2ccccc2)ccc1O
REMARK SMILES IDX 8 1 7 2 6 3 5 4 3 5 4 6 2 8 1 9 69 10 70 11 82 12 71 13
REMARK SMILES IDX 81 14 80 15 83 16 72 18 73 19 74 20 75 21 79 22 76 23 78 24
REMARK SMILES IDX 77 25 9 26 10 27 11 28 12 29 13 30 14 32 15 33 16 34 68 35
REMARK SMILES IDX 17 36 67 37 18 38 19 39 20 40 61 41 21 42 66 43 60 44 62 45
REMARK SMILES IDX 22 46 65 47 59 48 58 49 23 51 49 52 32 53 48 54 33 55 36 56
REMARK SMILES IDX 47 57 63 58 34 59 35 60 46 62 64 63 37 64 24 65 25 66 30 67
REMARK SMILES IDX 26 68 27 69 29 70 31 71 28 72 50 73 51 74 56 75 52 76 53 77
REMARK SMILES IDX 55 78 57 79 54 80 38 81 39 82 44 83 40 84 41 85 43 86 45 87
REMARK SMILES IDX 42 88
REMARK H PARENT 5 7 83 17 12 31 62 50 36 61
REMARK Flexibility Score: inf
ROOT
ATOM      1  C   UNL A   1      31.809  29.416  26.673  1.00  0.00     0.002 C 
ENDROOT
BRANCH   1   2
ATOM      2  C   UNL A   1      33.240  29.318  27.223  1.00  0.00     0.021 C 
BRANCH   2   3
ATOM      3  C   UNL A   1      34.221  28.576  26.308  1.00  0.00     0.116 C 
BRANCH   3   4
ATOM      4  N   UNL A   1      33.996  28.945  24.927  1.00  0.00    -0.356 N 
ATOM      5  C   UNL A   1      33.915  28.167  23.814  1.00  0.00     0.227 C 
ATOM      6  O   UNL A   1      34.003  28.753  22.729  1.00  0.00    -0.274 OA
ATOM      7  H   UNL A   1      33.885  29.911  24.768  1.00  0.00     0.163 HD
BRANCH   5   8
ATOM      8  C   UNL A   1      33.709  26.647  23.924  1.00  0.00     0.109 C 
ATOM      9  C   UNL A   1      33.873  25.920  22.586  1.00  0.00     0.023 C 
BRANCH   8  10
ATOM     10  C   UNL A   1      32.353  26.274  24.529  1.00  0.00     0.007 A 
ATOM     11  C   UNL A   1      31.179  26.802  23.960  1.00  0.00     0.020 A 
ATOM     12  C   UNL A   1      32.219  25.475  25.675  1.00  0.00     0.119 A 
ATOM     13  C   UNL A   1      29.920  26.539  24.527  1.00  0.00     0.023 A 
ATOM     14  C   UNL A   1      30.978  25.207  26.243  1.00  0.00     0.047 A 
ATOM     15  C   UNL A   1      29.825  25.723  25.660  1.00  0.00     0.016 A 
BRANCH  12  16
ATOM     16  O   UNL A   1      33.294  24.888  26.279  1.00  0.00    -0.508 OA
ATOM     17  H   UNL A   1      33.163  24.273  26.972  1.00  0.00     0.293 HD
ENDBRANCH  12  16
BRANCH  13  18
ATOM     18  C   UNL A   1      28.709  27.117  23.878  1.00  0.00     0.193 C 
ATOM     19  O   UNL A   1      27.622  26.559  23.998  1.00  0.00    -0.289 OA
BRANCH  18  20
ATOM     20  C   UNL A   1      28.789  28.380  23.107  1.00  0.00     0.022 A 
ATOM     21  C   UNL A   1      27.647  29.181  23.015  1.00  0.00     0.012 A 
ATOM     22  C   UNL A   1      29.978  28.772  22.481  1.00  0.00     0.012 A 
ATOM     23  C   UNL A   1      27.710  30.400  22.340  1.00  0.00     0.001 A 
ATOM     24  C   UNL A   1      30.035  29.993  21.809  1.00  0.00     0.001 A 
ATOM     25  C   UNL A   1      28.905  30.809  21.746  1.00  0.00     0.000 A 
ENDBRANCH  18  20
ENDBRANCH  13  18
ENDBRANCH   8  10
ENDBRANCH   5   8
ENDBRANCH   3   4
ENDBRANCH   2   3
ENDBRANCH   1   2
BRANCH   1  26
ATOM     26  C   UNL A   1      31.458  30.743  25.995  1.00  0.00     0.002 C 
BRANCH  26  27
ATOM     27  C   UNL A   1      31.375  31.949  26.933  1.00  0.00     0.021 C 
BRANCH  27  28
ATOM     28  C   UNL A   1      32.651  32.781  27.020  1.00  0.00     0.116 C 
BRANCH  28  29
ATOM     29  N   UNL A   1      32.431  34.062  27.667  1.00  0.00    -0.352 N 
ATOM     30  C   UNL A   1      33.127  34.645  28.693  1.00  0.00     0.251 C 
ATOM     31  H   UNL A   1      31.674  34.586  27.319  1.00  0.00     0.163 HD
ATOM     32  O   UNL A   1      32.692  35.665  29.230  1.00  0.00    -0.269 OA
BRANCH  30  33
ATOM     33  C   UNL A   1      34.393  34.051  29.174  1.00  0.00     0.039 A 
ATOM     34  C   UNL A   1      34.353  33.172  30.260  1.00  0.00     0.014 A 
ATOM     35  C   UNL A   1      35.620  34.384  28.590  1.00  0.00     0.014 A 
ATOM     36  C   UNL A   1      35.535  32.604  30.741  1.00  0.00     0.010 A 
ATOM     37  C   UNL A   1      36.790  33.768  29.028  1.00  0.00     0.010 A 
ATOM     38  C   UNL A   1      36.761  32.887  30.119  1.00  0.00    -0.014 A 
BRANCH  38  39
ATOM     39  C   UNL A   1      38.026  32.301  30.626  1.00  0.00     0.031 A 
ATOM     40  C   UNL A   1      38.574  31.041  30.010  1.00  0.00     0.074 A 
ATOM     41  C   UNL A   1      38.662  32.874  31.666  1.00  0.00     0.049 A 
ATOM     42  N   UNL A   1      39.643  30.360  30.332  1.00  0.00    -0.248 NA
ATOM     43  C   UNL A   1      37.800  30.457  28.903  1.00  0.00     0.031 C 
ATOM     44  C   UNL A   1      38.211  34.070  32.378  1.00  0.00     0.029 A 
ATOM     45  N   UNL A   1      39.824  32.522  32.306  1.00  0.00    -0.354 N 
ATOM     46  C   UNL A   1      39.657  29.258  29.486  1.00  0.00     0.074 A 
ATOM     47  C   UNL A   1      38.469  29.338  28.667  1.00  0.00     0.031 C 
ATOM     48  C   UNL A   1      39.103  34.369  33.339  1.00  0.00     0.029 A 
ATOM     49  C   UNL A   1      40.169  33.373  33.326  1.00  0.00     0.049 A 
ATOM     50  H   UNL A   1      40.358  31.734  32.056  1.00  0.00     0.167 HD
ATOM     51  C   UNL A   1      40.588  28.279  29.385  1.00  0.00     0.037 A 
ATOM     52  C   UNL A   1      41.232  33.354  34.152  1.00  0.00     0.037 A 
ATOM     53  C   UNL A   1      41.793  28.223  30.169  1.00  0.00     0.049 A 
ATOM     54  C   UNL A   1      42.266  32.273  34.001  1.00  0.00     0.074 A 
ATOM     55  C   UNL A   1      42.834  27.314  30.090  1.00  0.00     0.029 A 
ATOM     56  N   UNL A   1      42.121  29.119  31.176  1.00  0.00    -0.354 N 
ATOM     57  N   UNL A   1      42.301  31.277  33.151  1.00  0.00    -0.248 NA
ATOM     58  C   UNL A   1      43.411  32.321  34.921  1.00  0.00     0.031 C 
ATOM     59  C   UNL A   1      43.777  27.641  31.071  1.00  0.00     0.029 A 
ATOM     60  C   UNL A   1      43.340  28.776  31.735  1.00  0.00     0.049 A 
ATOM     61  H   UNL A   1      41.568  29.886  31.451  1.00  0.00     0.167 HD
ATOM     62  C   UNL A   1      43.486  30.600  33.408  1.00  0.00     0.074 A 
ATOM     63  C   UNL A   1      44.143  31.303  34.491  1.00  0.00     0.031 C 
ATOM     64  C   UNL A   1      43.986  29.495  32.802  1.00  0.00     0.037 A 
BRANCH  51  65
ATOM     65  C   UNL A   1      40.336  27.189  28.386  1.00  0.00     0.057 A 
ATOM     66  C   UNL A   1      40.883  27.228  27.097  1.00  0.00     0.134 A 
ATOM     67  C   UNL A   1      39.554  26.077  28.724  1.00  0.00     0.134 A 
ATOM     68  F   UNL A   1      41.630  28.271  26.706  1.00  0.00    -0.206 F 
ATOM     69  C   UNL A   1      40.638  26.213  26.170  1.00  0.00     0.040 A 
ATOM     70  C   UNL A   1      39.323  25.044  27.813  1.00  0.00     0.040 A 
ATOM     71  F   UNL A   1      39.005  25.975  29.943  1.00  0.00    -0.206 F 
ATOM     72  C   UNL A   1      39.860  25.115  26.529  1.00  0.00     0.006 A 
ENDBRANCH  51  65
BRANCH  52  73
ATOM     73  C   UNL A   1      41.401  34.423  35.167  1.00  0.00     0.057 A 
ATOM     74  C   UNL A   1      40.899  34.263  36.465  1.00  0.00     0.134 A 
ATOM     75  C   UNL A   1      42.055  35.623  34.869  1.00  0.00     0.134 A 
ATOM     76  F   UNL A   1      40.246  33.142  36.802  1.00  0.00    -0.206 F 
ATOM     77  C   UNL A   1      41.026  35.267  37.425  1.00  0.00     0.040 A 
ATOM     78  C   UNL A   1      42.208  36.627  35.828  1.00  0.00     0.040 A 
ATOM     79  F   UNL A   1      42.564  35.831  33.646  1.00  0.00    -0.206 F 
ATOM     80  C   UNL A   1      41.687  36.452  37.108  1.00  0.00     0.006 A 
ENDBRANCH  52  73
BRANCH  64  81
ATOM     81  C   UNL A   1      45.325  29.008  33.267  1.00  0.00     0.057 A 
ATOM     82  C   UNL A   1      45.455  28.100  34.324  1.00  0.00     0.134 A 
ATOM     83  C   UNL A   1      46.497  29.430  32.626  1.00  0.00     0.134 A 
ATOM     84  F   UNL A   1      44.372  27.668  34.986  1.00  0.00    -0.206 F 
ATOM     85  C   UNL A   1      46.707  27.646  34.743  1.00  0.00     0.040 A 
ATOM     86  C   UNL A   1      47.752  28.966  33.021  1.00  0.00     0.040 A 
ATOM     87  F   UNL A   1      46.439  30.294  31.601  1.00  0.00    -0.206 F 
ATOM     88  C   UNL A   1      47.859  28.075  34.087  1.00  0.00     0.006 A 
ENDBRANCH  64  81
ENDBRANCH  38  39
ENDBRANCH  30  33
ENDBRANCH  28  29
ENDBRANCH  27  28
ENDBRANCH  26  27
ENDBRANCH   1  26
TORSDOF 17
ENDMDL
