MODEL 1
REMARK VINA RESULT:     -11.8      0.000      0.000
REMARK SMILES [NH3+][C@H](CS[C@@H]1CC(=O)N(c2ccc3ccccc3c2)C1=O)C(=O)NCCCCCCNC(=O)c1ccc(-c2c3nc(c(-c4c(F)cccc4F)c4ccc([nH]4)c(-c4c(F)cccc4F)c4nc(c(-c5c(F)cccc5F)c5ccc2[nH]5)C=C4)C=C3)cc1
REMARK SMILES IDX 26 1 25 2 24 3 22 4 23 5 2 7 1 8 3 12 4 13 5 14 6 15 20 16
REMARK SMILES IDX 7 17 9 18 21 19 8 20 10 21 11 22 19 23 12 24 18 25 13 26
REMARK SMILES IDX 17 27 14 28 16 29 15 30 27 31 28 32 29 33 30 34 31 35 32 36
REMARK SMILES IDX 33 38 34 39 35 40 87 41 36 42 86 43 37 44 38 45 39 46 80 47
REMARK SMILES IDX 40 48 85 49 79 50 81 51 41 52 84 53 78 54 77 55 42 57 68 58
REMARK SMILES IDX 51 59 67 60 52 61 55 62 66 63 82 64 53 65 54 66 65 68 83 69
REMARK SMILES IDX 56 70 43 71 44 72 49 73 45 74 46 75 48 76 50 77 47 78 69 79
REMARK SMILES IDX 70 80 75 81 71 82 72 83 74 84 76 85 73 86 57 87 58 88 63 89
REMARK SMILES IDX 59 90 60 91 62 92 64 93 61 94
REMARK H PARENT 24 6 1 9 1 10 1 11 31 37 81 56 55 67
REMARK Flexibility Score: inf
ROOT
ATOM      1  C   UNL A   1      37.428  22.382  25.139  1.00  0.00     0.021 C 
ENDROOT
BRANCH   1   2
ATOM      2  C   UNL A   1      36.175  21.697  25.707  1.00  0.00     0.116 C 
BRANCH   2   3
ATOM      3  N   UNL A   1      35.787  20.441  25.083  1.00  0.00    -0.351 N 
ATOM      4  C   UNL A   1      34.621  19.731  25.037  1.00  0.00     0.279 C 
ATOM      5  O   UNL A   1      34.611  18.721  24.325  1.00  0.00    -0.268 OA
ATOM      6  H   UNL A   1      36.521  20.011  24.588  1.00  0.00     0.163 HD
BRANCH   4   7
ATOM      7  C   UNL A   1      33.387  20.072  25.876  1.00  0.00     0.280 C 
BRANCH   7   8
ATOM      8  N   UNL A   1      32.844  18.874  26.550  1.00  0.00    -0.347 N 
ATOM      9  H   UNL A   1      33.476  18.086  26.406  1.00  0.00     0.345 HD
ATOM     10  H   UNL A   1      31.928  18.650  26.160  1.00  0.00     0.345 HD
ATOM     11  H   UNL A   1      32.753  19.059  27.550  1.00  0.00     0.345 HD
ENDBRANCH   7   8
BRANCH   7  12
ATOM     12  C   UNL A   1      32.389  21.049  25.211  1.00  0.00     0.145 C 
BRANCH  12  13
ATOM     13  S   UNL A   1      31.829  22.535  26.084  1.00  0.00    -0.141 SA
BRANCH  13  14
ATOM     14  C   UNL A   1      31.052  23.701  24.856  1.00  0.00     0.146 C 
ATOM     15  C   UNL A   1      31.449  23.992  23.415  1.00  0.00     0.125 C 
ATOM     16  C   UNL A   1      31.020  25.068  25.455  1.00  0.00     0.247 C 
ATOM     17  C   UNL A   1      32.013  25.369  23.422  1.00  0.00     0.235 C 
ATOM     18  N   UNL A   1      31.750  25.909  24.644  1.00  0.00    -0.250 N 
ATOM     19  O   UNL A   1      30.381  25.353  26.460  1.00  0.00    -0.273 OA
ATOM     20  O   UNL A   1      32.551  25.887  22.447  1.00  0.00    -0.274 OA
BRANCH  18  21
ATOM     21  C   UNL A   1      32.046  27.218  25.040  1.00  0.00     0.052 A 
ATOM     22  C   UNL A   1      31.197  28.291  24.774  1.00  0.00     0.027 A 
ATOM     23  C   UNL A   1      33.209  27.407  25.788  1.00  0.00     0.035 A 
ATOM     24  C   UNL A   1      31.464  29.530  25.363  1.00  0.00     0.011 A 
ATOM     25  C   UNL A   1      33.500  28.636  26.351  1.00  0.00    -0.016 A 
ATOM     26  C   UNL A   1      32.603  29.710  26.171  1.00  0.00    -0.018 A 
ATOM     27  C   UNL A   1      34.659  28.782  27.116  1.00  0.00     0.009 A 
ATOM     28  C   UNL A   1      32.883  30.917  26.822  1.00  0.00     0.009 A 
ATOM     29  C   UNL A   1      34.927  29.991  27.743  1.00  0.00     0.001 A 
ATOM     30  C   UNL A   1      34.034  31.052  27.606  1.00  0.00     0.001 A 
ENDBRANCH  18  21
ENDBRANCH  13  14
ENDBRANCH  12  13
ENDBRANCH   7  12
ENDBRANCH   4   7
ENDBRANCH   2   3
ENDBRANCH   1   2
BRANCH   1  31
ATOM     31  C   UNL A   1      38.488  22.864  26.130  1.00  0.00     0.002 C 
BRANCH  31  32
ATOM     32  C   UNL A   1      39.714  21.976  26.264  1.00  0.00     0.002 C 
BRANCH  32  33
ATOM     33  C   UNL A   1      40.490  22.190  27.556  1.00  0.00     0.021 C 
BRANCH  33  34
ATOM     34  C   UNL A   1      41.763  23.010  27.394  1.00  0.00     0.116 C 
BRANCH  34  35
ATOM     35  N   UNL A   1      41.748  23.823  26.189  1.00  0.00    -0.352 N 
ATOM     36  C   UNL A   1      41.460  25.162  26.084  1.00  0.00     0.251 C 
ATOM     37  H   UNL A   1      41.971  23.360  25.349  1.00  0.00     0.163 HD
ATOM     38  O   UNL A   1      41.295  25.693  24.993  1.00  0.00    -0.269 OA
BRANCH  36  39
ATOM     39  C   UNL A   1      41.319  25.943  27.328  1.00  0.00     0.039 A 
ATOM     40  C   UNL A   1      42.322  26.846  27.677  1.00  0.00     0.014 A 
ATOM     41  C   UNL A   1      40.151  25.840  28.091  1.00  0.00     0.014 A 
ATOM     42  C   UNL A   1      42.127  27.690  28.770  1.00  0.00     0.010 A 
ATOM     43  C   UNL A   1      39.921  26.746  29.118  1.00  0.00     0.010 A 
ATOM     44  C   UNL A   1      40.913  27.671  29.477  1.00  0.00    -0.014 A 
BRANCH  44  45
ATOM     45  C   UNL A   1      40.674  28.613  30.599  1.00  0.00     0.031 A 
ATOM     46  C   UNL A   1      41.510  28.531  31.846  1.00  0.00     0.074 A 
ATOM     47  C   UNL A   1      39.683  29.521  30.507  1.00  0.00     0.049 A 
ATOM     48  N   UNL A   1      41.474  29.283  32.916  1.00  0.00    -0.248 NA
ATOM     49  C   UNL A   1      42.500  27.444  31.911  1.00  0.00     0.031 C 
ATOM     50  C   UNL A   1      38.765  29.662  29.374  1.00  0.00     0.029 A 
ATOM     51  N   UNL A   1      39.288  30.504  31.379  1.00  0.00    -0.354 N 
ATOM     52  C   UNL A   1      42.422  28.752  33.782  1.00  0.00     0.074 A 
ATOM     53  C   UNL A   1      42.970  27.578  33.141  1.00  0.00     0.031 C 
ATOM     54  C   UNL A   1      37.951  30.705  29.597  1.00  0.00     0.029 A 
ATOM     55  C   UNL A   1      38.262  31.283  30.901  1.00  0.00     0.049 A 
ATOM     56  H   UNL A   1      39.699  30.638  32.262  1.00  0.00     0.167 HD
ATOM     57  C   UNL A   1      42.821  29.217  34.991  1.00  0.00     0.037 A 
ATOM     58  C   UNL A   1      37.651  32.351  31.448  1.00  0.00     0.037 A 
ATOM     59  C   UNL A   1      42.284  30.398  35.615  1.00  0.00     0.049 A 
ATOM     60  C   UNL A   1      38.106  32.842  32.794  1.00  0.00     0.074 A 
ATOM     61  C   UNL A   1      42.669  30.996  36.801  1.00  0.00     0.029 A 
ATOM     62  N   UNL A   1      41.236  31.152  35.107  1.00  0.00    -0.354 N 
ATOM     63  N   UNL A   1      39.068  32.388  33.561  1.00  0.00    -0.248 NA
ATOM     64  C   UNL A   1      37.391  34.000  33.347  1.00  0.00     0.031 C 
ATOM     65  C   UNL A   1      41.812  32.076  37.043  1.00  0.00     0.029 A 
ATOM     66  C   UNL A   1      40.935  32.189  35.976  1.00  0.00     0.049 A 
ATOM     67  H   UNL A   1      40.773  30.976  34.256  1.00  0.00     0.167 HD
ATOM     68  C   UNL A   1      39.095  33.224  34.672  1.00  0.00     0.074 A 
ATOM     69  C   UNL A   1      38.065  34.220  34.467  1.00  0.00     0.031 C 
ATOM     70  C   UNL A   1      39.901  33.171  35.761  1.00  0.00     0.037 A 
BRANCH  57  71
ATOM     71  C   UNL A   1      43.880  28.434  35.715  1.00  0.00     0.057 A 
ATOM     72  C   UNL A   1      45.248  28.653  35.501  1.00  0.00     0.134 A 
ATOM     73  C   UNL A   1      43.524  27.449  36.646  1.00  0.00     0.134 A 
ATOM     74  F   UNL A   1      45.660  29.570  34.613  1.00  0.00    -0.206 F 
ATOM     75  C   UNL A   1      46.221  27.896  36.156  1.00  0.00     0.040 A 
ATOM     76  C   UNL A   1      44.488  26.710  37.333  1.00  0.00     0.040 A 
ATOM     77  F   UNL A   1      42.234  27.190  36.906  1.00  0.00    -0.206 F 
ATOM     78  C   UNL A   1      45.843  26.925  37.081  1.00  0.00     0.006 A 
ENDBRANCH  57  71
BRANCH  58  79
ATOM     79  C   UNL A   1      36.577  33.058  30.704  1.00  0.00     0.057 A 
ATOM     80  C   UNL A   1      35.230  32.875  31.041  1.00  0.00     0.134 A 
ATOM     81  C   UNL A   1      36.864  33.924  29.643  1.00  0.00     0.134 A 
ATOM     82  F   UNL A   1      34.891  32.044  32.036  1.00  0.00    -0.206 F 
ATOM     83  C   UNL A   1      34.207  33.510  30.336  1.00  0.00     0.040 A 
ATOM     84  C   UNL A   1      35.851  34.587  28.948  1.00  0.00     0.040 A 
ATOM     85  F   UNL A   1      38.134  34.151  29.276  1.00  0.00    -0.206 F 
ATOM     86  C   UNL A   1      34.517  34.375  29.289  1.00  0.00     0.006 A 
ENDBRANCH  58  79
BRANCH  70  87
ATOM     87  C   UNL A   1      39.715  34.241  36.799  1.00  0.00     0.057 A 
ATOM     88  C   UNL A   1      38.942  34.035  37.950  1.00  0.00     0.134 A 
ATOM     89  C   UNL A   1      40.327  35.492  36.650  1.00  0.00     0.134 A 
ATOM     90  F   UNL A   1      38.318  32.865  38.150  1.00  0.00    -0.206 F 
ATOM     91  C   UNL A   1      38.753  35.047  38.894  1.00  0.00     0.040 A 
ATOM     92  C   UNL A   1      40.174  36.499  37.603  1.00  0.00     0.040 A 
ATOM     93  F   UNL A   1      41.090  35.754  35.577  1.00  0.00    -0.206 F 
ATOM     94  C   UNL A   1      39.376  36.282  38.723  1.00  0.00     0.006 A 
ENDBRANCH  70  87
ENDBRANCH  44  45
ENDBRANCH  36  39
ENDBRANCH  34  35
ENDBRANCH  33  34
ENDBRANCH  32  33
ENDBRANCH  31  32
ENDBRANCH   1  31
TORSDOF 18
ENDMDL
MODEL 2
REMARK VINA RESULT:     -11.7      4.244      5.919
REMARK SMILES [NH3+][C@H](CS[C@@H]1CC(=O)N(c2ccc3ccccc3c2)C1=O)C(=O)NCCCCCCNC(=O)c1ccc(-c2c3nc(c(-c4c(F)cccc4F)c4ccc([nH]4)c(-c4c(F)cccc4F)c4nc(c(-c5c(F)cccc5F)c5ccc2[nH]5)C=C4)C=C3)cc1
REMARK SMILES IDX 26 1 25 2 24 3 22 4 23 5 2 7 1 8 3 12 4 13 5 14 6 15 20 16
REMARK SMILES IDX 7 17 9 18 21 19 8 20 10 21 11 22 19 23 12 24 18 25 13 26
REMARK SMILES IDX 17 27 14 28 16 29 15 30 27 31 28 32 29 33 30 34 31 35 32 36
REMARK SMILES IDX 33 38 34 39 35 40 87 41 36 42 86 43 37 44 38 45 39 46 80 47
REMARK SMILES IDX 40 48 85 49 79 50 81 51 41 52 84 53 78 54 77 55 42 57 68 58
REMARK SMILES IDX 51 59 67 60 52 61 55 62 66 63 82 64 53 65 54 66 65 68 83 69
REMARK SMILES IDX 56 70 43 71 44 72 49 73 45 74 46 75 48 76 50 77 47 78 69 79
REMARK SMILES IDX 70 80 75 81 71 82 72 83 74 84 76 85 73 86 57 87 58 88 63 89
REMARK SMILES IDX 59 90 60 91 62 92 64 93 61 94
REMARK H PARENT 24 6 1 9 1 10 1 11 31 37 81 56 55 67
REMARK Flexibility Score: inf
ROOT
ATOM      1  C   UNL A   1      36.783  22.460  25.346  1.00  0.00     0.021 C 
ENDROOT
BRANCH   1   2
ATOM      2  C   UNL A   1      35.619  21.842  26.135  1.00  0.00     0.116 C 
BRANCH   2   3
ATOM      3  N   UNL A   1      34.936  20.720  25.506  1.00  0.00    -0.351 N 
ATOM      4  C   UNL A   1      33.729  20.579  24.883  1.00  0.00     0.279 C 
ATOM      5  O   UNL A   1      33.492  19.480  24.371  1.00  0.00    -0.268 OA
ATOM      6  H   UNL A   1      35.456  19.884  25.537  1.00  0.00     0.163 HD
BRANCH   4   7
ATOM      7  C   UNL A   1      32.650  21.664  24.870  1.00  0.00     0.280 C 
BRANCH   7   8
ATOM      8  N   UNL A   1      31.607  21.401  25.884  1.00  0.00    -0.347 N 
ATOM      9  H   UNL A   1      30.911  20.762  25.498  1.00  0.00     0.345 HD
ATOM     10  H   UNL A   1      31.155  22.278  26.143  1.00  0.00     0.345 HD
ATOM     11  H   UNL A   1      32.034  20.981  26.710  1.00  0.00     0.345 HD
ENDBRANCH   7   8
BRANCH   7  12
ATOM     12  C   UNL A   1      32.200  22.126  23.465  1.00  0.00     0.145 C 
BRANCH  12  13
ATOM     13  S   UNL A   1      33.374  22.909  22.328  1.00  0.00    -0.141 SA
BRANCH  13  14
ATOM     14  C   UNL A   1      33.665  24.666  22.876  1.00  0.00     0.146 C 
ATOM     15  C   UNL A   1      33.848  25.223  24.281  1.00  0.00     0.125 C 
ATOM     16  C   UNL A   1      32.560  25.518  22.342  1.00  0.00     0.247 C 
ATOM     17  C   UNL A   1      32.609  25.996  24.573  1.00  0.00     0.235 C 
ATOM     18  N   UNL A   1      31.909  26.095  23.410  1.00  0.00    -0.250 N 
ATOM     19  O   UNL A   1      32.356  25.692  21.147  1.00  0.00    -0.273 OA
ATOM     20  O   UNL A   1      32.357  26.483  25.672  1.00  0.00    -0.274 OA
BRANCH  18  21
ATOM     21  C   UNL A   1      30.718  26.807  23.230  1.00  0.00     0.052 A 
ATOM     22  C   UNL A   1      29.493  26.352  23.716  1.00  0.00     0.027 A 
ATOM     23  C   UNL A   1      30.809  28.048  22.598  1.00  0.00     0.035 A 
ATOM     24  C   UNL A   1      28.385  27.202  23.667  1.00  0.00     0.011 A 
ATOM     25  C   UNL A   1      29.713  28.886  22.515  1.00  0.00    -0.016 A 
ATOM     26  C   UNL A   1      28.487  28.482  23.086  1.00  0.00    -0.018 A 
ATOM     27  C   UNL A   1      29.847  30.132  21.899  1.00  0.00     0.009 A 
ATOM     28  C   UNL A   1      27.419  29.386  23.060  1.00  0.00     0.009 A 
ATOM     29  C   UNL A   1      28.772  31.010  21.871  1.00  0.00     0.001 A 
ATOM     30  C   UNL A   1      27.565  30.642  22.461  1.00  0.00     0.001 A 
ENDBRANCH  18  21
ENDBRANCH  13  14
ENDBRANCH  12  13
ENDBRANCH   7  12
ENDBRANCH   4   7
ENDBRANCH   2   3
ENDBRANCH   1   2
BRANCH   1  31
ATOM     31  C   UNL A   1      37.795  23.309  26.116  1.00  0.00     0.002 C 
BRANCH  31  32
ATOM     32  C   UNL A   1      39.118  22.631  26.430  1.00  0.00     0.002 C 
BRANCH  32  33
ATOM     33  C   UNL A   1      39.328  21.318  25.688  1.00  0.00     0.021 C 
BRANCH  33  34
ATOM     34  C   UNL A   1      39.776  20.163  26.574  1.00  0.00     0.116 C 
BRANCH  34  35
ATOM     35  N   UNL A   1      40.874  19.411  25.990  1.00  0.00    -0.352 N 
ATOM     36  C   UNL A   1      42.168  19.829  25.797  1.00  0.00     0.251 C 
ATOM     37  H   UNL A   1      40.666  18.494  25.699  1.00  0.00     0.163 HD
ATOM     38  O   UNL A   1      42.954  19.174  25.124  1.00  0.00    -0.269 OA
BRANCH  36  39
ATOM     39  C   UNL A   1      42.582  21.113  26.397  1.00  0.00     0.039 A 
ATOM     40  C   UNL A   1      42.909  22.178  25.559  1.00  0.00     0.014 A 
ATOM     41  C   UNL A   1      42.553  21.277  27.786  1.00  0.00     0.014 A 
ATOM     42  C   UNL A   1      43.158  23.431  26.117  1.00  0.00     0.010 A 
ATOM     43  C   UNL A   1      42.708  22.546  28.329  1.00  0.00     0.010 A 
ATOM     44  C   UNL A   1      43.025  23.634  27.502  1.00  0.00    -0.014 A 
BRANCH  44  45
ATOM     45  C   UNL A   1      43.223  24.980  28.093  1.00  0.00     0.031 A 
ATOM     46  C   UNL A   1      44.602  25.445  28.469  1.00  0.00     0.074 A 
ATOM     47  C   UNL A   1      42.156  25.771  28.322  1.00  0.00     0.049 A 
ATOM     48  N   UNL A   1      44.980  26.596  28.966  1.00  0.00    -0.248 NA
ATOM     49  C   UNL A   1      45.700  24.482  28.288  1.00  0.00     0.031 C 
ATOM     50  C   UNL A   1      40.762  25.411  28.054  1.00  0.00     0.029 A 
ATOM     51  N   UNL A   1      42.080  27.047  28.821  1.00  0.00    -0.354 N 
ATOM     52  C   UNL A   1      46.350  26.487  29.169  1.00  0.00     0.074 A 
ATOM     53  C   UNL A   1      46.727  25.140  28.803  1.00  0.00     0.031 C 
ATOM     54  C   UNL A   1      39.976  26.460  28.342  1.00  0.00     0.029 A 
ATOM     55  C   UNL A   1      40.803  27.551  28.848  1.00  0.00     0.049 A 
ATOM     56  H   UNL A   1      42.865  27.552  29.131  1.00  0.00     0.167 HD
ATOM     57  C   UNL A   1      47.222  27.433  29.595  1.00  0.00     0.037 A 
ATOM     58  C   UNL A   1      40.352  28.762  29.226  1.00  0.00     0.037 A 
ATOM     59  C   UNL A   1      46.843  28.778  29.940  1.00  0.00     0.049 A 
ATOM     60  C   UNL A   1      41.338  29.792  29.704  1.00  0.00     0.074 A 
ATOM     61  C   UNL A   1      47.656  29.834  30.311  1.00  0.00     0.029 A 
ATOM     62  N   UNL A   1      45.538  29.247  29.969  1.00  0.00    -0.354 N 
ATOM     63  N   UNL A   1      42.643  29.708  29.800  1.00  0.00    -0.248 NA
ATOM     64  C   UNL A   1      40.785  31.088  30.118  1.00  0.00     0.031 C 
ATOM     65  C   UNL A   1      46.837  30.925  30.626  1.00  0.00     0.029 A 
ATOM     66  C   UNL A   1      45.519  30.568  30.389  1.00  0.00     0.049 A 
ATOM     67  H   UNL A   1      44.742  28.721  29.728  1.00  0.00     0.167 HD
ATOM     68  C   UNL A   1      43.071  30.950  30.257  1.00  0.00     0.074 A 
ATOM     69  C   UNL A   1      41.886  31.771  30.398  1.00  0.00     0.031 C 
ATOM     70  C   UNL A   1      44.330  31.372  30.532  1.00  0.00     0.037 A 
BRANCH  57  71
ATOM     71  C   UNL A   1      48.665  27.034  29.720  1.00  0.00     0.057 A 
ATOM     72  C   UNL A   1      49.193  26.502  30.905  1.00  0.00     0.134 A 
ATOM     73  C   UNL A   1      49.540  27.179  28.635  1.00  0.00     0.134 A 
ATOM     74  F   UNL A   1      48.416  26.348  31.988  1.00  0.00    -0.206 F 
ATOM     75  C   UNL A   1      50.543  26.165  31.018  1.00  0.00     0.040 A 
ATOM     76  C   UNL A   1      50.884  26.814  28.726  1.00  0.00     0.040 A 
ATOM     77  F   UNL A   1      49.103  27.676  27.468  1.00  0.00    -0.206 F 
ATOM     78  C   UNL A   1      51.393  26.315  29.924  1.00  0.00     0.006 A 
ENDBRANCH  57  71
BRANCH  58  79
ATOM     79  C   UNL A   1      38.906  29.085  29.124  1.00  0.00     0.057 A 
ATOM     80  C   UNL A   1      38.342  29.479  27.904  1.00  0.00     0.134 A 
ATOM     81  C   UNL A   1      38.055  29.015  30.233  1.00  0.00     0.134 A 
ATOM     82  F   UNL A   1      39.109  29.583  26.809  1.00  0.00    -0.206 F 
ATOM     83  C   UNL A   1      36.991  29.812  27.795  1.00  0.00     0.040 A 
ATOM     84  C   UNL A   1      36.697  29.317  30.132  1.00  0.00     0.040 A 
ATOM     85  F   UNL A   1      38.530  28.635  31.429  1.00  0.00    -0.206 F 
ATOM     86  C   UNL A   1      36.162  29.725  28.912  1.00  0.00     0.006 A 
ENDBRANCH  58  79
BRANCH  70  87
ATOM     87  C   UNL A   1      44.488  32.795  30.986  1.00  0.00     0.057 A 
ATOM     88  C   UNL A   1      44.480  33.148  32.342  1.00  0.00     0.134 A 
ATOM     89  C   UNL A   1      44.662  33.825  30.053  1.00  0.00     0.134 A 
ATOM     90  F   UNL A   1      44.305  32.213  33.288  1.00  0.00    -0.206 F 
ATOM     91  C   UNL A   1      44.599  34.478  32.751  1.00  0.00     0.040 A 
ATOM     92  C   UNL A   1      44.817  35.153  30.451  1.00  0.00     0.040 A 
ATOM     93  F   UNL A   1      44.691  33.557  28.738  1.00  0.00    -0.206 F 
ATOM     94  C   UNL A   1      44.774  35.485  31.803  1.00  0.00     0.006 A 
ENDBRANCH  70  87
ENDBRANCH  44  45
ENDBRANCH  36  39
ENDBRANCH  34  35
ENDBRANCH  33  34
ENDBRANCH  32  33
ENDBRANCH  31  32
ENDBRANCH   1  31
TORSDOF 18
ENDMDL
MODEL 3
REMARK VINA RESULT:     -11.7      2.652      8.377
REMARK SMILES [NH3+][C@H](CS[C@@H]1CC(=O)N(c2ccc3ccccc3c2)C1=O)C(=O)NCCCCCCNC(=O)c1ccc(-c2c3nc(c(-c4c(F)cccc4F)c4ccc([nH]4)c(-c4c(F)cccc4F)c4nc(c(-c5c(F)cccc5F)c5ccc2[nH]5)C=C4)C=C3)cc1
REMARK SMILES IDX 26 1 25 2 24 3 22 4 23 5 2 7 1 8 3 12 4 13 5 14 6 15 20 16
REMARK SMILES IDX 7 17 9 18 21 19 8 20 10 21 11 22 19 23 12 24 18 25 13 26
REMARK SMILES IDX 17 27 14 28 16 29 15 30 27 31 28 32 29 33 30 34 31 35 32 36
REMARK SMILES IDX 33 38 34 39 35 40 87 41 36 42 86 43 37 44 38 45 39 46 80 47
REMARK SMILES IDX 40 48 85 49 79 50 81 51 41 52 84 53 78 54 77 55 42 57 68 58
REMARK SMILES IDX 51 59 67 60 52 61 55 62 66 63 82 64 53 65 54 66 65 68 83 69
REMARK SMILES IDX 56 70 43 71 44 72 49 73 45 74 46 75 48 76 50 77 47 78 69 79
REMARK SMILES IDX 70 80 75 81 71 82 72 83 74 84 76 85 73 86 57 87 58 88 63 89
REMARK SMILES IDX 59 90 60 91 62 92 64 93 61 94
REMARK H PARENT 24 6 1 9 1 10 1 11 31 37 81 56 55 67
REMARK Flexibility Score: inf
ROOT
ATOM      1  C   UNL A   1      34.606  31.422  28.484  1.00  0.00     0.021 C 
ENDROOT
BRANCH   1   2
ATOM      2  C   UNL A   1      34.278  30.474  27.320  1.00  0.00     0.116 C 
BRANCH   2   3
ATOM      3  N   UNL A   1      33.144  29.582  27.513  1.00  0.00    -0.351 N 
ATOM      4  C   UNL A   1      32.187  29.079  26.679  1.00  0.00     0.279 C 
ATOM      5  O   UNL A   1      31.403  28.256  27.163  1.00  0.00    -0.268 OA
ATOM      6  H   UNL A   1      33.046  29.277  28.444  1.00  0.00     0.163 HD
BRANCH   4   7
ATOM      7  C   UNL A   1      31.993  29.544  25.233  1.00  0.00     0.280 C 
BRANCH   7   8
ATOM      8  N   UNL A   1      31.060  30.687  25.153  1.00  0.00    -0.347 N 
ATOM      9  H   UNL A   1      30.153  30.413  25.534  1.00  0.00     0.345 HD
ATOM     10  H   UNL A   1      30.948  30.968  24.179  1.00  0.00     0.345 HD
ATOM     11  H   UNL A   1      31.433  31.468  25.693  1.00  0.00     0.345 HD
ENDBRANCH   7   8
BRANCH   7  12
ATOM     12  C   UNL A   1      31.845  28.409  24.193  1.00  0.00     0.145 C 
BRANCH  12  13
ATOM     13  S   UNL A   1      30.206  27.798  23.718  1.00  0.00    -0.141 SA
BRANCH  13  14
ATOM     14  C   UNL A   1      30.008  26.053  24.340  1.00  0.00     0.146 C 
ATOM     15  C   UNL A   1      29.819  25.550  25.764  1.00  0.00     0.125 C 
ATOM     16  C   UNL A   1      31.178  25.249  23.875  1.00  0.00     0.247 C 
ATOM     17  C   UNL A   1      31.094  24.870  26.124  1.00  0.00     0.235 C 
ATOM     18  N   UNL A   1      31.832  24.763  24.986  1.00  0.00    -0.250 N 
ATOM     19  O   UNL A   1      31.427  25.034  22.695  1.00  0.00    -0.273 OA
ATOM     20  O   UNL A   1      31.344  24.450  27.251  1.00  0.00    -0.274 OA
BRANCH  18  21
ATOM     21  C   UNL A   1      33.069  24.119  24.871  1.00  0.00     0.052 A 
ATOM     22  C   UNL A   1      34.281  24.807  24.940  1.00  0.00     0.027 A 
ATOM     23  C   UNL A   1      33.053  22.728  24.755  1.00  0.00     0.035 A 
ATOM     24  C   UNL A   1      35.471  24.079  25.008  1.00  0.00     0.011 A 
ATOM     25  C   UNL A   1      34.227  21.998  24.791  1.00  0.00    -0.016 A 
ATOM     26  C   UNL A   1      35.457  22.672  24.955  1.00  0.00    -0.018 A 
ATOM     27  C   UNL A   1      34.172  20.606  24.699  1.00  0.00     0.009 A 
ATOM     28  C   UNL A   1      36.619  21.900  25.072  1.00  0.00     0.009 A 
ATOM     29  C   UNL A   1      35.336  19.859  24.803  1.00  0.00     0.001 A 
ATOM     30  C   UNL A   1      36.555  20.504  25.001  1.00  0.00     0.001 A 
ENDBRANCH  18  21
ENDBRANCH  13  14
ENDBRANCH  12  13
ENDBRANCH   7  12
ENDBRANCH   4   7
ENDBRANCH   2   3
ENDBRANCH   1   2
BRANCH   1  31
ATOM     31  C   UNL A   1      35.079  32.835  28.141  1.00  0.00     0.002 C 
BRANCH  31  32
ATOM     32  C   UNL A   1      34.861  33.881  29.222  1.00  0.00     0.002 C 
BRANCH  32  33
ATOM     33  C   UNL A   1      33.564  34.663  29.068  1.00  0.00     0.021 C 
BRANCH  33  34
ATOM     34  C   UNL A   1      33.571  36.026  29.748  1.00  0.00     0.116 C 
BRANCH  34  35
ATOM     35  N   UNL A   1      32.528  36.149  30.753  1.00  0.00    -0.352 N 
ATOM     36  C   UNL A   1      32.505  35.594  32.009  1.00  0.00     0.251 C 
ATOM     37  H   UNL A   1      31.747  36.693  30.504  1.00  0.00     0.163 HD
ATOM     38  O   UNL A   1      31.489  35.612  32.693  1.00  0.00    -0.269 OA
BRANCH  36  39
ATOM     39  C   UNL A   1      33.733  34.942  32.505  1.00  0.00     0.039 A 
ATOM     40  C   UNL A   1      33.681  33.602  32.887  1.00  0.00     0.014 A 
ATOM     41  C   UNL A   1      34.946  35.638  32.500  1.00  0.00     0.014 A 
ATOM     42  C   UNL A   1      34.864  32.943  33.216  1.00  0.00     0.010 A 
ATOM     43  C   UNL A   1      36.131  34.953  32.736  1.00  0.00     0.010 A 
ATOM     44  C   UNL A   1      36.101  33.601  33.109  1.00  0.00    -0.014 A 
BRANCH  44  45
ATOM     45  C   UNL A   1      37.369  32.885  33.393  1.00  0.00     0.031 A 
ATOM     46  C   UNL A   1      38.124  33.159  34.665  1.00  0.00     0.074 A 
ATOM     47  C   UNL A   1      37.856  32.010  32.492  1.00  0.00     0.049 A 
ATOM     48  N   UNL A   1      39.228  32.612  35.104  1.00  0.00    -0.248 NA
ATOM     49  C   UNL A   1      37.582  34.205  35.546  1.00  0.00     0.031 C 
ATOM     50  C   UNL A   1      37.247  31.700  31.197  1.00  0.00     0.029 A 
ATOM     51  N   UNL A   1      38.972  31.212  32.533  1.00  0.00    -0.354 N 
ATOM     52  C   UNL A   1      39.518  33.256  36.300  1.00  0.00     0.074 A 
ATOM     53  C   UNL A   1      38.511  34.277  36.486  1.00  0.00     0.031 C 
ATOM     54  C   UNL A   1      37.967  30.743  30.591  1.00  0.00     0.029 A 
ATOM     55  C   UNL A   1      39.106  30.397  31.436  1.00  0.00     0.049 A 
ATOM     56  H   UNL A   1      39.616  31.224  33.277  1.00  0.00     0.167 HD
ATOM     57  C   UNL A   1      40.516  33.001  37.181  1.00  0.00     0.037 A 
ATOM     58  C   UNL A   1      40.036  29.466  31.151  1.00  0.00     0.037 A 
ATOM     59  C   UNL A   1      41.504  31.971  37.000  1.00  0.00     0.049 A 
ATOM     60  C   UNL A   1      41.138  29.208  32.139  1.00  0.00     0.074 A 
ATOM     61  C   UNL A   1      42.512  31.581  37.864  1.00  0.00     0.029 A 
ATOM     62  N   UNL A   1      41.616  31.175  35.869  1.00  0.00    -0.354 N 
ATOM     63  N   UNL A   1      41.347  29.758  33.311  1.00  0.00    -0.248 NA
ATOM     64  C   UNL A   1      42.132  28.193  31.765  1.00  0.00     0.031 C 
ATOM     65  C   UNL A   1      43.273  30.592  37.229  1.00  0.00     0.029 A 
ATOM     66  C   UNL A   1      42.700  30.321  35.996  1.00  0.00     0.049 A 
ATOM     67  H   UNL A   1      41.015  31.211  35.090  1.00  0.00     0.167 HD
ATOM     68  C   UNL A   1      42.476  29.134  33.829  1.00  0.00     0.074 A 
ATOM     69  C   UNL A   1      42.894  28.153  32.849  1.00  0.00     0.031 C 
ATOM     70  C   UNL A   1      43.109  29.353  35.008  1.00  0.00     0.037 A 
BRANCH  57  71
ATOM     71  C   UNL A   1      40.588  33.864  38.410  1.00  0.00     0.057 A 
ATOM     72  C   UNL A   1      39.859  33.571  39.571  1.00  0.00     0.134 A 
ATOM     73  C   UNL A   1      41.404  35.002  38.433  1.00  0.00     0.134 A 
ATOM     74  F   UNL A   1      39.046  32.505  39.615  1.00  0.00    -0.206 F 
ATOM     75  C   UNL A   1      39.910  34.399  40.694  1.00  0.00     0.040 A 
ATOM     76  C   UNL A   1      41.490  35.818  39.562  1.00  0.00     0.040 A 
ATOM     77  F   UNL A   1      42.134  35.340  37.359  1.00  0.00    -0.206 F 
ATOM     78  C   UNL A   1      40.732  35.524  40.694  1.00  0.00     0.006 A 
ENDBRANCH  57  71
BRANCH  58  79
ATOM     79  C   UNL A   1      39.939  28.675  29.897  1.00  0.00     0.057 A 
ATOM     80  C   UNL A   1      39.202  27.485  29.853  1.00  0.00     0.134 A 
ATOM     81  C   UNL A   1      40.578  29.079  28.720  1.00  0.00     0.134 A 
ATOM     82  F   UNL A   1      38.582  27.035  30.954  1.00  0.00    -0.206 F 
ATOM     83  C   UNL A   1      39.122  26.715  28.692  1.00  0.00     0.040 A 
ATOM     84  C   UNL A   1      40.483  28.334  27.544  1.00  0.00     0.040 A 
ATOM     85  F   UNL A   1      41.293  30.214  28.691  1.00  0.00    -0.206 F 
ATOM     86  C   UNL A   1      39.760  27.143  27.530  1.00  0.00     0.006 A 
ENDBRANCH  58  79
BRANCH  70  87
ATOM     87  C   UNL A   1      44.302  28.493  35.311  1.00  0.00     0.057 A 
ATOM     88  C   UNL A   1      45.603  28.875  34.959  1.00  0.00     0.134 A 
ATOM     89  C   UNL A   1      44.148  27.270  35.976  1.00  0.00     0.134 A 
ATOM     90  F   UNL A   1      45.821  30.028  34.309  1.00  0.00    -0.206 F 
ATOM     91  C   UNL A   1      46.703  28.054  35.220  1.00  0.00     0.040 A 
ATOM     92  C   UNL A   1      45.242  26.456  36.274  1.00  0.00     0.040 A 
ATOM     93  F   UNL A   1      42.931  26.847  36.354  1.00  0.00    -0.206 F 
ATOM     94  C   UNL A   1      46.523  26.842  35.886  1.00  0.00     0.006 A 
ENDBRANCH  70  87
ENDBRANCH  44  45
ENDBRANCH  36  39
ENDBRANCH  34  35
ENDBRANCH  33  34
ENDBRANCH  32  33
ENDBRANCH  31  32
ENDBRANCH   1  31
TORSDOF 18
ENDMDL
