MODEL 1
REMARK VINA RESULT:     -10.6      0.000      0.000
REMARK SMILES CC[NH2+][C@@]1(C(=O)NCCCCCCNC(=O)c2ccc(-c3c4nc(c(-c5c(F)cccc5F)c5ccc([nH]5)c(-c5c(F)cccc5F)c5nc(c(-c6c(F)cccc6F)c6ccc3[nH]6)C=C5)C=C4)cc2)CC[C@@H]([N@@H+](C)Cc2nccn2C)C1
REMARK SMILES IDX 10 1 9 2 8 3 7 4 5 5 6 6 4 8 71 9 83 10 72 11 73 12 3 13
REMARK SMILES IDX 2 16 1 17 74 18 75 19 76 21 77 22 78 23 81 24 79 25 80 26
REMARK SMILES IDX 82 27 11 28 12 29 13 30 14 31 15 32 16 34 17 35 18 36 70 37
REMARK SMILES IDX 19 38 69 39 20 40 21 41 22 42 63 43 23 44 68 45 62 46 64 47
REMARK SMILES IDX 24 48 67 49 61 50 60 51 25 53 51 54 34 55 50 56 35 57 38 58
REMARK SMILES IDX 49 59 65 60 36 61 37 62 48 64 66 65 39 66 26 67 27 68 32 69
REMARK SMILES IDX 28 70 29 71 31 72 33 73 30 74 52 75 53 76 58 77 54 78 55 79
REMARK SMILES IDX 57 80 59 81 56 82 40 83 41 84 46 85 42 86 43 87 45 88 47 89
REMARK SMILES IDX 44 90
REMARK H PARENT 7 7 3 14 3 15 74 20 14 33 64 52 38 63
REMARK Flexibility Score: inf
ROOT
ATOM      1  C   UNL A   1      37.616  21.874  25.503  1.00  0.00     0.002 C 
ENDROOT
BRANCH   1   2
ATOM      2  C   UNL A   1      36.997  23.156  24.968  1.00  0.00     0.021 C 
BRANCH   2   3
ATOM      3  C   UNL A   1      36.057  23.836  25.935  1.00  0.00     0.116 C 
BRANCH   3   4
ATOM      4  N   UNL A   1      35.480  22.999  26.936  1.00  0.00    -0.351 N 
ATOM      5  C   UNL A   1      34.224  22.484  26.964  1.00  0.00     0.281 C 
ATOM      6  O   UNL A   1      34.119  21.440  27.629  1.00  0.00    -0.268 OA
ATOM      7  H   UNL A   1      36.060  22.769  27.697  1.00  0.00     0.163 HD
BRANCH   5   8
ATOM      8  C   UNL A   1      32.966  23.047  26.154  1.00  0.00     0.181 C 
ATOM      9  C   UNL A   1      32.775  22.170  24.903  1.00  0.00     0.085 C 
ATOM     10  C   UNL A   1      32.898  24.492  25.590  1.00  0.00     0.144 C 
ATOM     11  C   UNL A   1      33.320  22.956  23.712  1.00  0.00     0.072 C 
ATOM     12  C   UNL A   1      33.253  24.449  24.083  1.00  0.00     0.191 C 
BRANCH   8  13
ATOM     13  N   UNL A   1      31.772  22.855  27.061  1.00  0.00    -0.334 N 
ATOM     14  H   UNL A   1      31.788  21.902  27.423  1.00  0.00     0.347 HD
ATOM     15  H   UNL A   1      31.842  23.547  27.808  1.00  0.00     0.347 HD
BRANCH  13  16
ATOM     16  C   UNL A   1      30.486  23.077  26.371  1.00  0.00     0.257 C 
ATOM     17  C   UNL A   1      29.331  22.610  27.246  1.00  0.00     0.071 C 
ENDBRANCH  13  16
ENDBRANCH   8  13
BRANCH  12  18
ATOM     18  N   UNL A   1      32.614  25.414  23.174  1.00  0.00    -0.328 N 
ATOM     19  C   UNL A   1      32.848  25.057  21.767  1.00  0.00     0.333 C 
ATOM     20  H   UNL A   1      33.095  26.282  23.414  1.00  0.00     0.348 HD
BRANCH  18  21
ATOM     21  C   UNL A   1      31.205  25.776  23.408  1.00  0.00     0.338 C 
BRANCH  21  22
ATOM     22  C   UNL A   1      30.864  27.228  23.230  1.00  0.00     0.164 A 
ATOM     23  N   UNL A   1      30.376  27.774  22.127  1.00  0.00    -0.236 NA
ATOM     24  N   UNL A   1      30.938  28.174  24.229  1.00  0.00    -0.333 N 
ATOM     25  C   UNL A   1      30.014  29.051  22.460  1.00  0.00     0.131 A 
ATOM     26  C   UNL A   1      30.338  29.316  23.767  1.00  0.00     0.107 A 
ATOM     27  C   UNL A   1      31.476  28.018  25.559  1.00  0.00     0.151 C 
ENDBRANCH  21  22
ENDBRANCH  18  21
ENDBRANCH  12  18
ENDBRANCH   5   8
ENDBRANCH   3   4
ENDBRANCH   2   3
ENDBRANCH   1   2
BRANCH   1  28
ATOM     28  C   UNL A   1      37.323  20.615  24.678  1.00  0.00     0.002 C 
BRANCH  28  29
ATOM     29  C   UNL A   1      38.250  19.420  24.924  1.00  0.00     0.021 C 
BRANCH  29  30
ATOM     30  C   UNL A   1      39.188  19.565  26.119  1.00  0.00     0.116 C 
BRANCH  30  31
ATOM     31  N   UNL A   1      40.427  18.829  25.930  1.00  0.00    -0.352 N 
ATOM     32  C   UNL A   1      41.719  19.280  25.900  1.00  0.00     0.251 C 
ATOM     33  H   UNL A   1      40.320  17.858  25.807  1.00  0.00     0.163 HD
ATOM     34  O   UNL A   1      42.623  18.551  25.516  1.00  0.00    -0.269 OA
BRANCH  32  35
ATOM     35  C   UNL A   1      42.012  20.664  26.319  1.00  0.00     0.039 A 
ATOM     36  C   UNL A   1      42.153  20.940  27.680  1.00  0.00     0.014 A 
ATOM     37  C   UNL A   1      42.152  21.678  25.369  1.00  0.00     0.014 A 
ATOM     38  C   UNL A   1      42.507  22.227  28.086  1.00  0.00     0.010 A 
ATOM     39  C   UNL A   1      42.571  22.942  25.769  1.00  0.00     0.010 A 
ATOM     40  C   UNL A   1      42.759  23.224  27.130  1.00  0.00    -0.014 A 
BRANCH  40  41
ATOM     41  C   UNL A   1      43.254  24.563  27.530  1.00  0.00     0.031 A 
ATOM     42  C   UNL A   1      42.289  25.626  27.966  1.00  0.00     0.074 A 
ATOM     43  C   UNL A   1      44.568  24.837  27.421  1.00  0.00     0.049 A 
ATOM     44  N   UNL A   1      42.521  26.880  28.260  1.00  0.00    -0.248 NA
ATOM     45  C   UNL A   1      40.874  25.236  28.062  1.00  0.00     0.031 C 
ATOM     46  C   UNL A   1      45.595  23.894  26.972  1.00  0.00     0.029 A 
ATOM     47  N   UNL A   1      45.263  25.994  27.663  1.00  0.00    -0.354 N 
ATOM     48  C   UNL A   1      41.282  27.430  28.565  1.00  0.00     0.074 A 
ATOM     49  C   UNL A   1      40.298  26.387  28.373  1.00  0.00     0.031 C 
ATOM     50  C   UNL A   1      46.789  24.506  26.984  1.00  0.00     0.029 A 
ATOM     51  C   UNL A   1      46.607  25.895  27.395  1.00  0.00     0.049 A 
ATOM     52  H   UNL A   1      44.840  26.819  27.996  1.00  0.00     0.167 HD
ATOM     53  C   UNL A   1      40.999  28.686  28.984  1.00  0.00     0.037 A 
ATOM     54  C   UNL A   1      47.579  26.824  27.453  1.00  0.00     0.037 A 
ATOM     55  C   UNL A   1      41.987  29.713  29.182  1.00  0.00     0.049 A 
ATOM     56  C   UNL A   1      47.230  28.222  27.881  1.00  0.00     0.074 A 
ATOM     57  C   UNL A   1      41.810  30.999  29.663  1.00  0.00     0.029 A 
ATOM     58  N   UNL A   1      43.338  29.576  28.896  1.00  0.00    -0.354 N 
ATOM     59  N   UNL A   1      46.066  28.709  28.239  1.00  0.00    -0.248 NA
ATOM     60  C   UNL A   1      48.327  29.198  27.911  1.00  0.00     0.031 C 
ATOM     61  C   UNL A   1      43.043  31.657  29.615  1.00  0.00     0.029 A 
ATOM     62  C   UNL A   1      43.999  30.766  29.156  1.00  0.00     0.049 A 
ATOM     63  H   UNL A   1      43.763  28.755  28.559  1.00  0.00     0.167 HD
ATOM     64  C   UNL A   1      46.294  30.042  28.554  1.00  0.00     0.074 A 
ATOM     65  C   UNL A   1      47.711  30.280  28.366  1.00  0.00     0.031 C 
ATOM     66  C   UNL A   1      45.410  30.986  28.960  1.00  0.00     0.037 A 
BRANCH  53  67
ATOM     67  C   UNL A   1      39.560  29.019  29.254  1.00  0.00     0.057 A 
ATOM     68  C   UNL A   1      38.703  29.471  28.242  1.00  0.00     0.134 A 
ATOM     69  C   UNL A   1      39.014  28.849  30.532  1.00  0.00     0.134 A 
ATOM     70  F   UNL A   1      39.164  29.665  26.996  1.00  0.00    -0.206 F 
ATOM     71  C   UNL A   1      37.362  29.767  28.497  1.00  0.00     0.040 A 
ATOM     72  C   UNL A   1      37.668  29.114  30.794  1.00  0.00     0.040 A 
ATOM     73  F   UNL A   1      39.776  28.414  31.547  1.00  0.00    -0.206 F 
ATOM     74  C   UNL A   1      36.840  29.581  29.775  1.00  0.00     0.006 A 
ENDBRANCH  53  67
BRANCH  54  75
ATOM     75  C   UNL A   1      48.975  26.464  27.094  1.00  0.00     0.057 A 
ATOM     76  C   UNL A   1      49.422  26.540  25.770  1.00  0.00     0.134 A 
ATOM     77  C   UNL A   1      49.891  26.031  28.060  1.00  0.00     0.134 A 
ATOM     78  F   UNL A   1      48.585  26.929  24.796  1.00  0.00    -0.206 F 
ATOM     79  C   UNL A   1      50.722  26.177  25.415  1.00  0.00     0.040 A 
ATOM     80  C   UNL A   1      51.203  25.693  27.724  1.00  0.00     0.040 A 
ATOM     81  F   UNL A   1      49.528  25.945  29.348  1.00  0.00    -0.206 F 
ATOM     82  C   UNL A   1      51.619  25.757  26.395  1.00  0.00     0.006 A 
ENDBRANCH  54  75
BRANCH  66  83
ATOM     83  C   UNL A   1      45.950  32.358  29.241  1.00  0.00     0.057 A 
ATOM     84  C   UNL A   1      46.487  32.696  30.490  1.00  0.00     0.134 A 
ATOM     85  C   UNL A   1      45.975  33.336  28.239  1.00  0.00     0.134 A 
ATOM     86  F   UNL A   1      46.479  31.810  31.497  1.00  0.00    -0.206 F 
ATOM     87  C   UNL A   1      47.014  33.965  30.737  1.00  0.00     0.040 A 
ATOM     88  C   UNL A   1      46.525  34.599  28.465  1.00  0.00     0.040 A 
ATOM     89  F   UNL A   1      45.486  33.075  27.018  1.00  0.00    -0.206 F 
ATOM     90  C   UNL A   1      47.041  34.917  29.719  1.00  0.00     0.006 A 
ENDBRANCH  66  83
ENDBRANCH  40  41
ENDBRANCH  32  35
ENDBRANCH  30  31
ENDBRANCH  29  30
ENDBRANCH  28  29
ENDBRANCH   1  28
TORSDOF 18
ENDMDL
MODEL 2
REMARK VINA RESULT:     -10.5      1.599      2.873
REMARK SMILES CC[NH2+][C@@]1(C(=O)NCCCCCCNC(=O)c2ccc(-c3c4nc(c(-c5c(F)cccc5F)c5ccc([nH]5)c(-c5c(F)cccc5F)c5nc(c(-c6c(F)cccc6F)c6ccc3[nH]6)C=C5)C=C4)cc2)CC[C@@H]([N@@H+](C)Cc2nccn2C)C1
REMARK SMILES IDX 10 1 9 2 8 3 7 4 5 5 6 6 4 8 71 9 83 10 72 11 73 12 3 13
REMARK SMILES IDX 2 16 1 17 74 18 75 19 76 21 77 22 78 23 81 24 79 25 80 26
REMARK SMILES IDX 82 27 11 28 12 29 13 30 14 31 15 32 16 34 17 35 18 36 70 37
REMARK SMILES IDX 19 38 69 39 20 40 21 41 22 42 63 43 23 44 68 45 62 46 64 47
REMARK SMILES IDX 24 48 67 49 61 50 60 51 25 53 51 54 34 55 50 56 35 57 38 58
REMARK SMILES IDX 49 59 65 60 36 61 37 62 48 64 66 65 39 66 26 67 27 68 32 69
REMARK SMILES IDX 28 70 29 71 31 72 33 73 30 74 52 75 53 76 58 77 54 78 55 79
REMARK SMILES IDX 57 80 59 81 56 82 40 83 41 84 46 85 42 86 43 87 45 88 47 89
REMARK SMILES IDX 44 90
REMARK H PARENT 7 7 3 14 3 15 74 20 14 33 64 52 38 63
REMARK Flexibility Score: inf
ROOT
ATOM      1  C   UNL A   1      35.146  21.253  25.090  1.00  0.00     0.002 C 
ENDROOT
BRANCH   1   2
ATOM      2  C   UNL A   1      34.112  21.079  26.191  1.00  0.00     0.021 C 
BRANCH   2   3
ATOM      3  C   UNL A   1      32.701  21.415  25.769  1.00  0.00     0.116 C 
BRANCH   3   4
ATOM      4  N   UNL A   1      31.948  22.206  26.687  1.00  0.00    -0.351 N 
ATOM      5  C   UNL A   1      31.216  23.318  26.417  1.00  0.00     0.281 C 
ATOM      6  O   UNL A   1      30.296  23.528  27.225  1.00  0.00    -0.268 OA
ATOM      7  H   UNL A   1      31.960  21.913  27.626  1.00  0.00     0.163 HD
BRANCH   5   8
ATOM      8  C   UNL A   1      31.389  24.262  25.139  1.00  0.00     0.181 C 
ATOM      9  C   UNL A   1      32.715  25.030  25.291  1.00  0.00     0.085 C 
ATOM     10  C   UNL A   1      30.374  25.375  24.762  1.00  0.00     0.144 C 
ATOM     11  C   UNL A   1      32.366  26.452  25.730  1.00  0.00     0.072 C 
ATOM     12  C   UNL A   1      30.929  26.735  25.255  1.00  0.00     0.191 C 
BRANCH   8  13
ATOM     13  N   UNL A   1      31.508  23.333  23.952  1.00  0.00    -0.334 N 
ATOM     14  H   UNL A   1      31.996  22.489  24.248  1.00  0.00     0.347 HD
ATOM     15  H   UNL A   1      30.562  23.131  23.628  1.00  0.00     0.347 HD
BRANCH  13  16
ATOM     16  C   UNL A   1      32.245  23.935  22.823  1.00  0.00     0.257 C 
ATOM     17  C   UNL A   1      33.340  22.992  22.346  1.00  0.00     0.071 C 
ENDBRANCH  13  16
ENDBRANCH   8  13
BRANCH  12  18
ATOM     18  N   UNL A   1      30.626  27.949  24.481  1.00  0.00    -0.328 N 
ATOM     19  C   UNL A   1      31.718  28.929  24.578  1.00  0.00     0.333 C 
ATOM     20  H   UNL A   1      29.786  28.293  24.947  1.00  0.00     0.348 HD
BRANCH  18  21
ATOM     21  C   UNL A   1      30.160  27.801  23.091  1.00  0.00     0.338 C 
BRANCH  21  22
ATOM     22  C   UNL A   1      29.456  28.992  22.507  1.00  0.00     0.164 A 
ATOM     23  N   UNL A   1      30.022  29.935  21.770  1.00  0.00    -0.236 NA
ATOM     24  N   UNL A   1      28.099  29.215  22.594  1.00  0.00    -0.333 N 
ATOM     25  C   UNL A   1      29.000  30.698  21.274  1.00  0.00     0.131 A 
ATOM     26  C   UNL A   1      27.794  30.257  21.759  1.00  0.00     0.107 A 
ATOM     27  C   UNL A   1      27.126  28.470  23.356  1.00  0.00     0.151 C 
ENDBRANCH  21  22
ENDBRANCH  18  21
ENDBRANCH  12  18
ENDBRANCH   5   8
ENDBRANCH   3   4
ENDBRANCH   2   3
ENDBRANCH   1   2
BRANCH   1  28
ATOM     28  C   UNL A   1      36.197  20.140  25.001  1.00  0.00     0.002 C 
BRANCH  28  29
ATOM     29  C   UNL A   1      37.609  20.581  24.599  1.00  0.00     0.021 C 
BRANCH  29  30
ATOM     30  C   UNL A   1      38.594  20.728  25.757  1.00  0.00     0.116 C 
BRANCH  30  31
ATOM     31  N   UNL A   1      39.600  19.679  25.751  1.00  0.00    -0.352 N 
ATOM     32  C   UNL A   1      40.943  19.752  26.008  1.00  0.00     0.251 C 
ATOM     33  H   UNL A   1      39.265  18.780  25.531  1.00  0.00     0.163 HD
ATOM     34  O   UNL A   1      41.677  18.808  25.747  1.00  0.00    -0.269 OA
BRANCH  32  35
ATOM     35  C   UNL A   1      41.503  20.987  26.587  1.00  0.00     0.039 A 
ATOM     36  C   UNL A   1      42.040  21.949  25.730  1.00  0.00     0.014 A 
ATOM     37  C   UNL A   1      41.489  21.193  27.969  1.00  0.00     0.014 A 
ATOM     38  C   UNL A   1      42.501  23.156  26.256  1.00  0.00     0.010 A 
ATOM     39  C   UNL A   1      41.886  22.421  28.485  1.00  0.00     0.010 A 
ATOM     40  C   UNL A   1      42.387  23.415  27.631  1.00  0.00    -0.014 A 
BRANCH  40  41
ATOM     41  C   UNL A   1      42.757  24.735  28.196  1.00  0.00     0.031 A 
ATOM     42  C   UNL A   1      41.709  25.789  28.405  1.00  0.00     0.074 A 
ATOM     43  C   UNL A   1      44.053  25.004  28.444  1.00  0.00     0.049 A 
ATOM     44  N   UNL A   1      41.853  27.030  28.795  1.00  0.00    -0.248 NA
ATOM     45  C   UNL A   1      40.319  25.405  28.114  1.00  0.00     0.031 C 
ATOM     46  C   UNL A   1      45.164  24.071  28.243  1.00  0.00     0.029 A 
ATOM     47  N   UNL A   1      44.658  26.147  28.901  1.00  0.00    -0.354 N 
ATOM     48  C   UNL A   1      40.576  27.577  28.787  1.00  0.00     0.074 A 
ATOM     49  C   UNL A   1      39.678  26.549  28.306  1.00  0.00     0.031 C 
ATOM     50  C   UNL A   1      46.312  24.674  28.589  1.00  0.00     0.029 A 
ATOM     51  C   UNL A   1      46.026  26.048  28.990  1.00  0.00     0.049 A 
ATOM     52  H   UNL A   1      44.160  26.961  29.144  1.00  0.00     0.167 HD
ATOM     53  C   UNL A   1      40.189  28.818  29.165  1.00  0.00     0.037 A 
ATOM     54  C   UNL A   1      46.946  26.967  29.334  1.00  0.00     0.037 A 
ATOM     55  C   UNL A   1      41.089  29.831  29.652  1.00  0.00     0.049 A 
ATOM     56  C   UNL A   1      46.494  28.350  29.708  1.00  0.00     0.074 A 
ATOM     57  C   UNL A   1      40.789  31.099  30.117  1.00  0.00     0.029 A 
ATOM     58  N   UNL A   1      42.468  29.694  29.723  1.00  0.00    -0.354 N 
ATOM     59  N   UNL A   1      45.276  28.833  29.769  1.00  0.00    -0.248 NA
ATOM     60  C   UNL A   1      47.542  29.317  30.059  1.00  0.00     0.031 C 
ATOM     61  C   UNL A   1      41.990  31.750  30.417  1.00  0.00     0.029 A 
ATOM     62  C   UNL A   1      43.035  30.869  30.191  1.00  0.00     0.049 A 
ATOM     63  H   UNL A   1      42.969  28.883  29.478  1.00  0.00     0.167 HD
ATOM     64  C   UNL A   1      45.410  30.152  30.182  1.00  0.00     0.074 A 
ATOM     65  C   UNL A   1      46.826  30.386  30.378  1.00  0.00     0.031 C 
ATOM     66  C   UNL A   1      44.448  31.087  30.377  1.00  0.00     0.037 A 
BRANCH  53  67
ATOM     67  C   UNL A   1      38.730  29.151  29.062  1.00  0.00     0.057 A 
ATOM     68  C   UNL A   1      37.868  29.050  30.163  1.00  0.00     0.134 A 
ATOM     69  C   UNL A   1      38.184  29.616  27.858  1.00  0.00     0.134 A 
ATOM     70  F   UNL A   1      38.322  28.602  31.343  1.00  0.00    -0.206 F 
ATOM     71  C   UNL A   1      36.513  29.375  30.063  1.00  0.00     0.040 A 
ATOM     72  C   UNL A   1      36.839  29.971  27.753  1.00  0.00     0.040 A 
ATOM     73  F   UNL A   1      38.953  29.742  26.766  1.00  0.00    -0.206 F 
ATOM     74  C   UNL A   1      35.997  29.843  28.857  1.00  0.00     0.006 A 
ENDBRANCH  53  67
BRANCH  54  75
ATOM     75  C   UNL A   1      48.389  26.611  29.338  1.00  0.00     0.057 A 
ATOM     76  C   UNL A   1      49.007  26.119  30.494  1.00  0.00     0.134 A 
ATOM     77  C   UNL A   1      49.183  26.759  28.196  1.00  0.00     0.134 A 
ATOM     78  F   UNL A   1      48.303  25.973  31.626  1.00  0.00    -0.206 F 
ATOM     79  C   UNL A   1      50.367  25.808  30.520  1.00  0.00     0.040 A 
ATOM     80  C   UNL A   1      50.538  26.425  28.199  1.00  0.00     0.040 A 
ATOM     81  F   UNL A   1      48.649  27.218  27.054  1.00  0.00    -0.206 F 
ATOM     82  C   UNL A   1      51.136  25.956  29.366  1.00  0.00     0.006 A 
ENDBRANCH  54  75
BRANCH  66  83
ATOM     83  C   UNL A   1      44.892  32.443  30.841  1.00  0.00     0.057 A 
ATOM     84  C   UNL A   1      45.179  33.474  29.937  1.00  0.00     0.134 A 
ATOM     85  C   UNL A   1      44.991  32.734  32.208  1.00  0.00     0.134 A 
ATOM     86  F   UNL A   1      45.119  33.256  28.615  1.00  0.00    -0.206 F 
ATOM     87  C   UNL A   1      45.565  34.741  30.376  1.00  0.00     0.040 A 
ATOM     88  C   UNL A   1      45.349  34.005  32.659  1.00  0.00     0.040 A 
ATOM     89  F   UNL A   1      44.722  31.795  33.127  1.00  0.00    -0.206 F 
ATOM     90  C   UNL A   1      45.642  35.011  31.742  1.00  0.00     0.006 A 
ENDBRANCH  66  83
ENDBRANCH  40  41
ENDBRANCH  32  35
ENDBRANCH  30  31
ENDBRANCH  29  30
ENDBRANCH  28  29
ENDBRANCH   1  28
TORSDOF 18
ENDMDL
MODEL 3
REMARK VINA RESULT:     -10.4      5.226     10.353
REMARK SMILES CC[NH2+][C@@]1(C(=O)NCCCCCCNC(=O)c2ccc(-c3c4nc(c(-c5c(F)cccc5F)c5ccc([nH]5)c(-c5c(F)cccc5F)c5nc(c(-c6c(F)cccc6F)c6ccc3[nH]6)C=C5)C=C4)cc2)CC[C@@H]([N@@H+](C)Cc2nccn2C)C1
REMARK SMILES IDX 10 1 9 2 8 3 7 4 5 5 6 6 4 8 71 9 83 10 72 11 73 12 3 13
REMARK SMILES IDX 2 16 1 17 74 18 75 19 76 21 77 22 78 23 81 24 79 25 80 26
REMARK SMILES IDX 82 27 11 28 12 29 13 30 14 31 15 32 16 34 17 35 18 36 70 37
REMARK SMILES IDX 19 38 69 39 20 40 21 41 22 42 63 43 23 44 68 45 62 46 64 47
REMARK SMILES IDX 24 48 67 49 61 50 60 51 25 53 51 54 34 55 50 56 35 57 38 58
REMARK SMILES IDX 49 59 65 60 36 61 37 62 48 64 66 65 39 66 26 67 27 68 32 69
REMARK SMILES IDX 28 70 29 71 31 72 33 73 30 74 52 75 53 76 58 77 54 78 55 79
REMARK SMILES IDX 57 80 59 81 56 82 40 83 41 84 46 85 42 86 43 87 45 88 47 89
REMARK SMILES IDX 44 90
REMARK H PARENT 7 7 3 14 3 15 74 20 14 33 64 52 38 63
REMARK Flexibility Score: inf
ROOT
ATOM      1  C   UNL A   1      32.653  29.730  27.104  1.00  0.00     0.002 C 
ENDROOT
BRANCH   1   2
ATOM      2  C   UNL A   1      32.531  28.217  27.005  1.00  0.00     0.021 C 
BRANCH   2   3
ATOM      3  C   UNL A   1      33.696  27.550  26.312  1.00  0.00     0.116 C 
BRANCH   3   4
ATOM      4  N   UNL A   1      33.469  27.142  24.964  1.00  0.00    -0.351 N 
ATOM      5  C   UNL A   1      33.077  25.919  24.523  1.00  0.00     0.281 C 
ATOM      6  O   UNL A   1      32.489  25.939  23.428  1.00  0.00    -0.268 OA
ATOM      7  H   UNL A   1      33.615  27.826  24.272  1.00  0.00     0.163 HD
BRANCH   5   8
ATOM      8  C   UNL A   1      33.223  24.545  25.327  1.00  0.00     0.181 C 
ATOM      9  C   UNL A   1      34.576  24.567  26.062  1.00  0.00     0.085 C 
ATOM     10  C   UNL A   1      33.214  23.154  24.638  1.00  0.00     0.144 C 
ATOM     11  C   UNL A   1      35.535  23.680  25.269  1.00  0.00     0.072 C 
ATOM     12  C   UNL A   1      34.678  22.673  24.482  1.00  0.00     0.191 C 
BRANCH   8  13
ATOM     13  N   UNL A   1      32.118  24.550  26.357  1.00  0.00    -0.334 N 
ATOM     14  H   UNL A   1      32.412  25.125  27.147  1.00  0.00     0.347 HD
ATOM     15  H   UNL A   1      31.282  24.923  25.906  1.00  0.00     0.347 HD
BRANCH  13  16
ATOM     16  C   UNL A   1      31.789  23.199  26.853  1.00  0.00     0.257 C 
ATOM     17  C   UNL A   1      30.282  22.989  26.852  1.00  0.00     0.071 C 
ENDBRANCH  13  16
ENDBRANCH   8  13
BRANCH  12  18
ATOM     18  N   UNL A   1      34.965  21.232  24.557  1.00  0.00    -0.328 N 
ATOM     19  C   UNL A   1      36.305  20.983  25.110  1.00  0.00     0.333 C 
ATOM     20  H   UNL A   1      34.919  20.954  23.576  1.00  0.00     0.348 HD
BRANCH  18  21
ATOM     21  C   UNL A   1      33.960  20.344  25.169  1.00  0.00     0.338 C 
BRANCH  21  22
ATOM     22  C   UNL A   1      33.386  19.287  24.269  1.00  0.00     0.164 A 
ATOM     23  N   UNL A   1      32.307  19.423  23.513  1.00  0.00    -0.236 NA
ATOM     24  N   UNL A   1      33.962  18.055  24.050  1.00  0.00    -0.333 N 
ATOM     25  C   UNL A   1      32.264  18.319  22.707  1.00  0.00     0.131 A 
ATOM     26  C   UNL A   1      33.293  17.462  23.010  1.00  0.00     0.107 A 
ATOM     27  C   UNL A   1      35.104  17.479  24.717  1.00  0.00     0.151 C 
ENDBRANCH  21  22
ENDBRANCH  18  21
ENDBRANCH  12  18
ENDBRANCH   5   8
ENDBRANCH   3   4
ENDBRANCH   2   3
ENDBRANCH   1   2
BRANCH   1  28
ATOM     28  C   UNL A   1      31.711  30.520  26.188  1.00  0.00     0.002 C 
BRANCH  28  29
ATOM     29  C   UNL A   1      31.482  31.988  26.567  1.00  0.00     0.021 C 
BRANCH  29  30
ATOM     30  C   UNL A   1      32.610  32.632  27.368  1.00  0.00     0.116 C 
BRANCH  30  31
ATOM     31  N   UNL A   1      32.369  34.045  27.607  1.00  0.00    -0.352 N 
ATOM     32  C   UNL A   1      32.953  34.894  28.510  1.00  0.00     0.251 C 
ATOM     33  H   UNL A   1      31.682  34.455  27.033  1.00  0.00     0.163 HD
ATOM     34  O   UNL A   1      32.475  36.001  28.721  1.00  0.00    -0.269 OA
BRANCH  32  35
ATOM     35  C   UNL A   1      34.156  34.455  29.241  1.00  0.00     0.039 A 
ATOM     36  C   UNL A   1      34.006  33.902  30.514  1.00  0.00     0.014 A 
ATOM     37  C   UNL A   1      35.423  34.583  28.665  1.00  0.00     0.014 A 
ATOM     38  C   UNL A   1      35.126  33.411  31.185  1.00  0.00     0.010 A 
ATOM     39  C   UNL A   1      36.527  34.033  29.304  1.00  0.00     0.010 A 
ATOM     40  C   UNL A   1      36.386  33.435  30.566  1.00  0.00    -0.014 A 
BRANCH  40  41
ATOM     41  C   UNL A   1      37.568  32.810  31.206  1.00  0.00     0.031 A 
ATOM     42  C   UNL A   1      38.207  31.598  30.593  1.00  0.00     0.074 A 
ATOM     43  C   UNL A   1      38.009  33.292  32.383  1.00  0.00     0.049 A 
ATOM     44  N   UNL A   1      39.183  30.857  31.055  1.00  0.00    -0.248 NA
ATOM     45  C   UNL A   1      37.663  31.144  29.304  1.00  0.00     0.031 C 
ATOM     46  C   UNL A   1      37.443  34.441  33.093  1.00  0.00     0.029 A 
ATOM     47  N   UNL A   1      39.026  32.867  33.200  1.00  0.00    -0.354 N 
ATOM     48  C   UNL A   1      39.362  29.847  30.120  1.00  0.00     0.074 A 
ATOM     49  C   UNL A   1      38.363  30.040  29.091  1.00  0.00     0.031 C 
ATOM     50  C   UNL A   1      38.127  34.637  34.230  1.00  0.00     0.029 A 
ATOM     51  C   UNL A   1      39.149  33.602  34.354  1.00  0.00     0.049 A 
ATOM     52  H   UNL A   1      39.612  32.106  32.981  1.00  0.00     0.167 HD
ATOM     53  C   UNL A   1      40.289  28.860  30.114  1.00  0.00     0.037 A 
ATOM     54  C   UNL A   1      39.977  33.446  35.403  1.00  0.00     0.037 A 
ATOM     55  C   UNL A   1      41.286  28.682  31.137  1.00  0.00     0.049 A 
ATOM     56  C   UNL A   1      40.968  32.317  35.391  1.00  0.00     0.074 A 
ATOM     57  C   UNL A   1      42.308  27.751  31.193  1.00  0.00     0.029 A 
ATOM     58  N   UNL A   1      41.376  29.445  32.293  1.00  0.00    -0.354 N 
ATOM     59  N   UNL A   1      41.178  31.412  34.465  1.00  0.00    -0.248 NA
ATOM     60  C   UNL A   1      41.835  32.184  36.569  1.00  0.00     0.031 C 
ATOM     61  C   UNL A   1      42.982  27.914  32.408  1.00  0.00     0.029 A 
ATOM     62  C   UNL A   1      42.415  28.981  33.084  1.00  0.00     0.049 A 
ATOM     63  H   UNL A   1      40.790  30.203  32.517  1.00  0.00     0.167 HD
ATOM     64  C   UNL A   1      42.212  30.616  34.939  1.00  0.00     0.074 A 
ATOM     65  C   UNL A   1      42.601  31.158  36.225  1.00  0.00     0.031 C 
ATOM     66  C   UNL A   1      42.786  29.531  34.364  1.00  0.00     0.037 A 
BRANCH  53  67
ATOM     67  C   UNL A   1      40.266  27.893  28.966  1.00  0.00     0.057 A 
ATOM     68  C   UNL A   1      39.521  26.708  29.011  1.00  0.00     0.134 A 
ATOM     69  C   UNL A   1      40.967  28.168  27.784  1.00  0.00     0.134 A 
ATOM     70  F   UNL A   1      38.834  26.378  30.116  1.00  0.00    -0.206 F 
ATOM     71  C   UNL A   1      39.493  25.819  27.934  1.00  0.00     0.040 A 
ATOM     72  C   UNL A   1      40.925  27.302  26.690  1.00  0.00     0.040 A 
ATOM     73  F   UNL A   1      41.698  29.288  27.670  1.00  0.00    -0.206 F 
ATOM     74  C   UNL A   1      40.191  26.120  26.767  1.00  0.00     0.006 A 
ENDBRANCH  53  67
BRANCH  54  75
ATOM     75  C   UNL A   1      39.902  34.381  36.556  1.00  0.00     0.057 A 
ATOM     76  C   UNL A   1      39.134  34.075  37.685  1.00  0.00     0.134 A 
ATOM     77  C   UNL A   1      40.588  35.601  36.554  1.00  0.00     0.134 A 
ATOM     78  F   UNL A   1      38.439  32.929  37.738  1.00  0.00    -0.206 F 
ATOM     79  C   UNL A   1      39.033  34.957  38.762  1.00  0.00     0.040 A 
ATOM     80  C   UNL A   1      40.519  36.480  37.636  1.00  0.00     0.040 A 
ATOM     81  F   UNL A   1      41.349  35.950  35.506  1.00  0.00    -0.206 F 
ATOM     82  C   UNL A   1      39.732  36.162  38.741  1.00  0.00     0.006 A 
ENDBRANCH  54  75
BRANCH  66  83
ATOM     83  C   UNL A   1      43.905  28.868  35.113  1.00  0.00     0.057 A 
ATOM     84  C   UNL A   1      43.671  27.814  36.006  1.00  0.00     0.134 A 
ATOM     85  C   UNL A   1      45.235  29.258  34.905  1.00  0.00     0.134 A 
ATOM     86  F   UNL A   1      42.420  27.403  36.262  1.00  0.00    -0.206 F 
ATOM     87  C   UNL A   1      44.719  27.183  36.679  1.00  0.00     0.040 A 
ATOM     88  C   UNL A   1      46.292  28.615  35.550  1.00  0.00     0.040 A 
ATOM     89  F   UNL A   1      45.529  30.254  34.057  1.00  0.00    -0.206 F 
ATOM     90  C   UNL A   1      46.035  27.578  36.444  1.00  0.00     0.006 A 
ENDBRANCH  66  83
ENDBRANCH  40  41
ENDBRANCH  32  35
ENDBRANCH  30  31
ENDBRANCH  29  30
ENDBRANCH  28  29
ENDBRANCH   1  28
TORSDOF 18
ENDMDL
