MODEL 1
REMARK VINA RESULT:     -11.7      0.000      0.000
REMARK SMILES CC[C@@]1(C(=O)NCCCCCCNC(=O)c2ccc(-c3c4nc(c(-c5c(F)cccc5F)c5ccc([nH]5)c(-c5c(F)cccc5F)c5nc(c(-c6c(F)cccc6F)c6ccc3[nH]6)C=C5)C=C4)cc2)CCC[N@@H+](Cc2ccc(C3CC3)cc2)C1
REMARK SMILES IDX 9 1 8 2 7 3 6 4 4 5 5 6 3 8 70 9 84 10 71 11 73 12 72 13
REMARK SMILES IDX 2 15 1 16 74 17 75 18 76 19 83 20 77 21 82 22 78 23 79 24
REMARK SMILES IDX 80 25 81 26 10 27 11 28 12 29 13 30 14 31 15 33 16 34 17 35
REMARK SMILES IDX 69 36 18 37 68 38 19 39 20 40 21 41 62 42 22 43 67 44 61 45
REMARK SMILES IDX 63 46 23 47 66 48 60 49 59 50 24 52 50 53 33 54 49 55 34 56
REMARK SMILES IDX 37 57 48 58 64 59 35 60 36 61 47 63 65 64 38 65 25 66 26 67
REMARK SMILES IDX 31 68 27 69 28 70 30 71 32 72 29 73 51 74 52 75 57 76 53 77
REMARK SMILES IDX 54 78 56 79 58 80 55 81 39 82 40 83 45 84 41 85 42 86 44 87
REMARK SMILES IDX 46 88 43 89
REMARK H PARENT 6 7 73 14 13 32 63 51 37 62
REMARK Flexibility Score: inf
ROOT
ATOM      1  C   UNL A   1      32.751  29.927  25.849  1.00  0.00     0.002 C 
ENDROOT
BRANCH   1   2
ATOM      2  C   UNL A   1      33.194  29.107  24.631  1.00  0.00     0.021 C 
BRANCH   2   3
ATOM      3  C   UNL A   1      33.808  27.755  24.994  1.00  0.00     0.116 C 
BRANCH   3   4
ATOM      4  N   UNL A   1      33.936  26.929  23.818  1.00  0.00    -0.355 N 
ATOM      5  C   UNL A   1      33.910  25.594  23.594  1.00  0.00     0.231 C 
ATOM      6  O   UNL A   1      34.206  25.277  22.433  1.00  0.00    -0.274 OA
ATOM      7  H   UNL A   1      34.072  27.453  22.995  1.00  0.00     0.163 HD
BRANCH   5   8
ATOM      8  C   UNL A   1      33.342  24.542  24.582  1.00  0.00     0.098 C 
ATOM      9  C   UNL A   1      33.074  23.105  24.090  1.00  0.00     0.028 C 
ATOM     10  C   UNL A   1      31.952  25.067  25.054  1.00  0.00     0.279 C 
ATOM     11  C   UNL A   1      32.028  23.076  22.982  1.00  0.00     0.063 C 
ATOM     12  N   UNL A   1      30.882  24.998  24.034  1.00  0.00    -0.330 N 
ATOM     13  C   UNL A   1      30.708  23.652  23.482  1.00  0.00     0.262 C 
ATOM     14  H   UNL A   1      31.191  25.584  23.259  1.00  0.00     0.348 HD
BRANCH   8  15
ATOM     15  C   UNL A   1      34.383  24.507  25.752  1.00  0.00     0.019 C 
ATOM     16  C   UNL A   1      35.788  24.024  25.409  1.00  0.00     0.005 C 
ENDBRANCH   8  15
BRANCH  12  17
ATOM     17  C   UNL A   1      29.607  25.572  24.524  1.00  0.00     0.299 C 
BRANCH  17  18
ATOM     18  C   UNL A   1      29.136  26.821  23.800  1.00  0.00     0.006 A 
ATOM     19  C   UNL A   1      27.780  27.161  23.762  1.00  0.00     0.010 A 
ATOM     20  C   UNL A   1      30.058  27.715  23.246  1.00  0.00     0.010 A 
ATOM     21  C   UNL A   1      27.376  28.406  23.266  1.00  0.00     0.004 A 
ATOM     22  C   UNL A   1      29.648  28.968  22.782  1.00  0.00     0.004 A 
ATOM     23  C   UNL A   1      28.300  29.359  22.802  1.00  0.00    -0.045 A 
BRANCH  23  24
ATOM     24  C   UNL A   1      27.825  30.733  22.369  1.00  0.00     0.019 C 
ATOM     25  C   UNL A   1      27.765  31.884  23.348  1.00  0.00     0.009 C 
ATOM     26  C   UNL A   1      28.790  31.886  22.249  1.00  0.00     0.009 C 
ENDBRANCH  23  24
ENDBRANCH  17  18
ENDBRANCH  12  17
ENDBRANCH   5   8
ENDBRANCH   3   4
ENDBRANCH   2   3
ENDBRANCH   1   2
BRANCH   1  27
ATOM     27  C   UNL A   1      31.373  30.583  25.715  1.00  0.00     0.002 C 
BRANCH  27  28
ATOM     28  C   UNL A   1      31.233  31.931  26.425  1.00  0.00     0.021 C 
BRANCH  28  29
ATOM     29  C   UNL A   1      32.503  32.416  27.115  1.00  0.00     0.116 C 
BRANCH  29  30
ATOM     30  N   UNL A   1      32.408  33.811  27.509  1.00  0.00    -0.352 N 
ATOM     31  C   UNL A   1      33.125  34.495  28.455  1.00  0.00     0.251 C 
ATOM     32  H   UNL A   1      31.732  34.340  27.027  1.00  0.00     0.163 HD
ATOM     33  O   UNL A   1      32.775  35.617  28.807  1.00  0.00    -0.269 OA
BRANCH  31  34
ATOM     34  C   UNL A   1      34.317  33.870  29.066  1.00  0.00     0.039 A 
ATOM     35  C   UNL A   1      34.135  32.866  30.020  1.00  0.00     0.014 A 
ATOM     36  C   UNL A   1      35.605  34.284  28.713  1.00  0.00     0.014 A 
ATOM     37  C   UNL A   1      35.247  32.243  30.585  1.00  0.00     0.010 A 
ATOM     38  C   UNL A   1      36.713  33.613  29.225  1.00  0.00     0.010 A 
ATOM     39  C   UNL A   1      36.545  32.594  30.173  1.00  0.00    -0.014 A 
BRANCH  39  40
ATOM     40  C   UNL A   1      37.730  31.895  30.730  1.00  0.00     0.031 A 
ATOM     41  C   UNL A   1      38.247  32.246  32.096  1.00  0.00     0.074 A 
ATOM     42  C   UNL A   1      38.365  30.973  29.982  1.00  0.00     0.049 A 
ATOM     43  N   UNL A   1      39.269  31.748  32.745  1.00  0.00    -0.248 NA
ATOM     44  C   UNL A   1      37.540  33.313  32.822  1.00  0.00     0.031 C 
ATOM     45  C   UNL A   1      37.994  30.588  28.618  1.00  0.00     0.029 A 
ATOM     46  N   UNL A   1      39.457  30.192  30.262  1.00  0.00    -0.354 N 
ATOM     47  C   UNL A   1      39.332  32.446  33.944  1.00  0.00     0.074 A 
ATOM     48  C   UNL A   1      38.281  33.439  33.911  1.00  0.00     0.031 C 
ATOM     49  C   UNL A   1      38.825  29.623  28.193  1.00  0.00     0.029 A 
ATOM     50  C   UNL A   1      39.803  29.343  29.239  1.00  0.00     0.049 A 
ATOM     51  H   UNL A   1      39.947  30.236  31.115  1.00  0.00     0.167 HD
ATOM     52  C   UNL A   1      40.174  32.258  34.989  1.00  0.00     0.037 A 
ATOM     53  C   UNL A   1      40.794  28.436  29.157  1.00  0.00     0.037 A 
ATOM     54  C   UNL A   1      41.203  31.253  35.028  1.00  0.00     0.049 A 
ATOM     55  C   UNL A   1      41.704  28.235  30.335  1.00  0.00     0.074 A 
ATOM     56  C   UNL A   1      42.069  30.943  36.062  1.00  0.00     0.029 A 
ATOM     57  N   UNL A   1      41.509  30.396  33.980  1.00  0.00    -0.354 N 
ATOM     58  N   UNL A   1      41.704  28.849  31.494  1.00  0.00    -0.248 NA
ATOM     59  C   UNL A   1      42.747  27.208  30.200  1.00  0.00     0.031 C 
ATOM     60  C   UNL A   1      42.926  29.926  35.626  1.00  0.00     0.029 A 
ATOM     61  C   UNL A   1      42.562  29.569  34.337  1.00  0.00     0.049 A 
ATOM     62  H   UNL A   1      41.046  30.378  33.112  1.00  0.00     0.167 HD
ATOM     63  C   UNL A   1      42.721  28.263  32.235  1.00  0.00     0.074 A 
ATOM     64  C   UNL A   1      43.310  27.237  31.399  1.00  0.00     0.031 C 
ATOM     65  C   UNL A   1      43.131  28.548  33.496  1.00  0.00     0.037 A 
BRANCH  52  66
ATOM     66  C   UNL A   1      40.009  33.157  36.180  1.00  0.00     0.057 A 
ATOM     67  C   UNL A   1      39.123  32.849  37.222  1.00  0.00     0.134 A 
ATOM     68  C   UNL A   1      40.766  34.330  36.303  1.00  0.00     0.134 A 
ATOM     69  F   UNL A   1      38.360  31.748  37.162  1.00  0.00    -0.206 F 
ATOM     70  C   UNL A   1      38.976  33.688  38.328  1.00  0.00     0.040 A 
ATOM     71  C   UNL A   1      40.648  35.162  37.419  1.00  0.00     0.040 A 
ATOM     72  F   UNL A   1      41.638  34.682  35.346  1.00  0.00    -0.206 F 
ATOM     73  C   UNL A   1      39.745  34.845  38.431  1.00  0.00     0.006 A 
ENDBRANCH  52  66
BRANCH  53  74
ATOM     74  C   UNL A   1      40.949  27.619  27.927  1.00  0.00     0.057 A 
ATOM     75  C   UNL A   1      40.316  26.376  27.802  1.00  0.00     0.134 A 
ATOM     76  C   UNL A   1      41.727  28.058  26.850  1.00  0.00     0.134 A 
ATOM     77  F   UNL A   1      39.570  25.894  28.808  1.00  0.00    -0.206 F 
ATOM     78  C   UNL A   1      40.466  25.591  26.658  1.00  0.00     0.040 A 
ATOM     79  C   UNL A   1      41.865  27.295  25.690  1.00  0.00     0.040 A 
ATOM     80  F   UNL A   1      42.351  29.245  26.904  1.00  0.00    -0.206 F 
ATOM     81  C   UNL A   1      41.239  26.054  25.594  1.00  0.00     0.006 A 
ENDBRANCH  53  74
BRANCH  65  82
ATOM     82  C   UNL A   1      44.242  27.713  34.060  1.00  0.00     0.057 A 
ATOM     83  C   UNL A   1      45.581  28.116  33.993  1.00  0.00     0.134 A 
ATOM     84  C   UNL A   1      43.962  26.504  34.711  1.00  0.00     0.134 A 
ATOM     85  F   UNL A   1      45.917  29.258  33.372  1.00  0.00    -0.206 F 
ATOM     86  C   UNL A   1      46.606  27.335  34.530  1.00  0.00     0.040 A 
ATOM     87  C   UNL A   1      44.975  25.728  35.275  1.00  0.00     0.040 A 
ATOM     88  F   UNL A   1      42.699  26.064  34.819  1.00  0.00    -0.206 F 
ATOM     89  C   UNL A   1      46.302  26.140  35.180  1.00  0.00     0.006 A 
ENDBRANCH  65  82
ENDBRANCH  39  40
ENDBRANCH  31  34
ENDBRANCH  29  30
ENDBRANCH  28  29
ENDBRANCH  27  28
ENDBRANCH   1  27
TORSDOF 17
ENDMDL
MODEL 2
REMARK VINA RESULT:     -11.5      1.709      4.329
REMARK SMILES CC[C@@]1(C(=O)NCCCCCCNC(=O)c2ccc(-c3c4nc(c(-c5c(F)cccc5F)c5ccc([nH]5)c(-c5c(F)cccc5F)c5nc(c(-c6c(F)cccc6F)c6ccc3[nH]6)C=C5)C=C4)cc2)CCC[N@@H+](Cc2ccc(C3CC3)cc2)C1
REMARK SMILES IDX 9 1 8 2 7 3 6 4 4 5 5 6 3 8 70 9 84 10 71 11 73 12 72 13
REMARK SMILES IDX 2 15 1 16 74 17 75 18 76 19 83 20 77 21 82 22 78 23 79 24
REMARK SMILES IDX 80 25 81 26 10 27 11 28 12 29 13 30 14 31 15 33 16 34 17 35
REMARK SMILES IDX 69 36 18 37 68 38 19 39 20 40 21 41 62 42 22 43 67 44 61 45
REMARK SMILES IDX 63 46 23 47 66 48 60 49 59 50 24 52 50 53 33 54 49 55 34 56
REMARK SMILES IDX 37 57 48 58 64 59 35 60 36 61 47 63 65 64 38 65 25 66 26 67
REMARK SMILES IDX 31 68 27 69 28 70 30 71 32 72 29 73 51 74 52 75 57 76 53 77
REMARK SMILES IDX 54 78 56 79 58 80 55 81 39 82 40 83 45 84 41 85 42 86 44 87
REMARK SMILES IDX 46 88 43 89
REMARK H PARENT 6 7 73 14 13 32 63 51 37 62
REMARK Flexibility Score: inf
ROOT
ATOM      1  C   UNL A   1      32.399  29.957  26.844  1.00  0.00     0.002 C 
ENDROOT
BRANCH   1   2
ATOM      2  C   UNL A   1      31.773  28.795  27.626  1.00  0.00     0.021 C 
BRANCH   2   3
ATOM      3  C   UNL A   1      31.413  27.594  26.752  1.00  0.00     0.116 C 
BRANCH   3   4
ATOM      4  N   UNL A   1      32.583  26.787  26.503  1.00  0.00    -0.355 N 
ATOM      5  C   UNL A   1      33.066  26.135  25.419  1.00  0.00     0.231 C 
ATOM      6  O   UNL A   1      34.051  25.422  25.663  1.00  0.00    -0.274 OA
ATOM      7  H   UNL A   1      33.157  26.689  27.296  1.00  0.00     0.163 HD
BRANCH   5   8
ATOM      8  C   UNL A   1      32.624  26.400  23.956  1.00  0.00     0.098 C 
ATOM      9  C   UNL A   1      31.122  26.495  23.622  1.00  0.00     0.028 C 
ATOM     10  C   UNL A   1      33.149  25.207  23.101  1.00  0.00     0.279 C 
ATOM     11  C   UNL A   1      30.395  25.190  23.926  1.00  0.00     0.063 C 
ATOM     12  N   UNL A   1      32.432  23.930  23.309  1.00  0.00    -0.330 N 
ATOM     13  C   UNL A   1      30.986  24.050  23.104  1.00  0.00     0.262 C 
ATOM     14  H   UNL A   1      32.559  23.691  24.291  1.00  0.00     0.348 HD
BRANCH   8  15
ATOM     15  C   UNL A   1      33.329  27.748  23.578  1.00  0.00     0.019 C 
ATOM     16  C   UNL A   1      32.431  28.885  23.104  1.00  0.00     0.005 C 
ENDBRANCH   8  15
BRANCH  12  17
ATOM     17  C   UNL A   1      33.020  22.825  22.517  1.00  0.00     0.299 C 
BRANCH  17  18
ATOM     18  C   UNL A   1      32.833  21.436  23.101  1.00  0.00     0.006 A 
ATOM     19  C   UNL A   1      32.153  20.443  22.390  1.00  0.00     0.010 A 
ATOM     20  C   UNL A   1      33.427  21.088  24.319  1.00  0.00     0.010 A 
ATOM     21  C   UNL A   1      32.153  19.119  22.845  1.00  0.00     0.004 A 
ATOM     22  C   UNL A   1      33.449  19.758  24.749  1.00  0.00     0.004 A 
ATOM     23  C   UNL A   1      32.835  18.733  24.012  1.00  0.00    -0.045 A 
BRANCH  23  24
ATOM     24  C   UNL A   1      32.894  17.271  24.412  1.00  0.00     0.019 C 
ATOM     25  C   UNL A   1      33.973  16.356  23.876  1.00  0.00     0.009 C 
ATOM     26  C   UNL A   1      33.981  16.758  25.324  1.00  0.00     0.009 C 
ENDBRANCH  23  24
ENDBRANCH  17  18
ENDBRANCH  12  17
ENDBRANCH   5   8
ENDBRANCH   3   4
ENDBRANCH   2   3
ENDBRANCH   1   2
BRANCH   1  27
ATOM     27  C   UNL A   1      31.400  30.826  26.075  1.00  0.00     0.002 C 
BRANCH  27  28
ATOM     28  C   UNL A   1      31.366  32.295  26.502  1.00  0.00     0.021 C 
BRANCH  28  29
ATOM     29  C   UNL A   1      32.664  32.804  27.118  1.00  0.00     0.116 C 
BRANCH  29  30
ATOM     30  N   UNL A   1      32.530  34.157  27.628  1.00  0.00    -0.352 N 
ATOM     31  C   UNL A   1      33.188  34.761  28.667  1.00  0.00     0.251 C 
ATOM     32  H   UNL A   1      31.873  34.720  27.160  1.00  0.00     0.163 HD
ATOM     33  O   UNL A   1      32.805  35.844  29.097  1.00  0.00    -0.269 OA
BRANCH  31  34
ATOM     34  C   UNL A   1      34.355  34.095  29.282  1.00  0.00     0.039 A 
ATOM     35  C   UNL A   1      34.134  33.115  30.252  1.00  0.00     0.014 A 
ATOM     36  C   UNL A   1      35.658  34.448  28.918  1.00  0.00     0.014 A 
ATOM     37  C   UNL A   1      35.222  32.453  30.823  1.00  0.00     0.010 A 
ATOM     38  C   UNL A   1      36.738  33.738  29.436  1.00  0.00     0.010 A 
ATOM     39  C   UNL A   1      36.531  32.742  30.400  1.00  0.00    -0.014 A 
BRANCH  39  40
ATOM     40  C   UNL A   1      37.688  32.002  30.962  1.00  0.00     0.031 A 
ATOM     41  C   UNL A   1      38.188  32.310  32.345  1.00  0.00     0.074 A 
ATOM     42  C   UNL A   1      38.314  31.080  30.206  1.00  0.00     0.049 A 
ATOM     43  N   UNL A   1      39.186  31.773  33.001  1.00  0.00    -0.248 NA
ATOM     44  C   UNL A   1      37.494  33.378  33.081  1.00  0.00     0.031 C 
ATOM     45  C   UNL A   1      37.959  30.734  28.828  1.00  0.00     0.029 A 
ATOM     46  N   UNL A   1      39.381  30.266  30.488  1.00  0.00    -0.354 N 
ATOM     47  C   UNL A   1      39.244  32.442  34.216  1.00  0.00     0.074 A 
ATOM     48  C   UNL A   1      38.219  33.462  34.187  1.00  0.00     0.031 C 
ATOM     49  C   UNL A   1      38.773  29.758  28.397  1.00  0.00     0.029 A 
ATOM     50  C   UNL A   1      39.725  29.430  29.454  1.00  0.00     0.049 A 
ATOM     51  H   UNL A   1      39.856  30.280  31.351  1.00  0.00     0.167 HD
ATOM     52  C   UNL A   1      40.061  32.211  35.272  1.00  0.00     0.037 A 
ATOM     53  C   UNL A   1      40.694  28.500  29.370  1.00  0.00     0.037 A 
ATOM     54  C   UNL A   1      41.064  31.180  35.307  1.00  0.00     0.049 A 
ATOM     55  C   UNL A   1      41.577  28.252  30.560  1.00  0.00     0.074 A 
ATOM     56  C   UNL A   1      41.902  30.826  36.350  1.00  0.00     0.029 A 
ATOM     57  N   UNL A   1      41.368  30.338  34.247  1.00  0.00    -0.354 N 
ATOM     58  N   UNL A   1      41.571  28.840  31.731  1.00  0.00    -0.248 NA
ATOM     59  C   UNL A   1      42.597  27.202  30.420  1.00  0.00     0.031 C 
ATOM     60  C   UNL A   1      42.742  29.797  35.908  1.00  0.00     0.029 A 
ATOM     61  C   UNL A   1      42.393  29.477  34.605  1.00  0.00     0.049 A 
ATOM     62  H   UNL A   1      40.920  30.350  33.370  1.00  0.00     0.167 HD
ATOM     63  C   UNL A   1      42.559  28.213  32.478  1.00  0.00     0.074 A 
ATOM     64  C   UNL A   1      43.138  27.191  31.630  1.00  0.00     0.031 C 
ATOM     65  C   UNL A   1      42.952  28.461  33.751  1.00  0.00     0.037 A 
BRANCH  52  66
ATOM     66  C   UNL A   1      39.896  33.089  36.479  1.00  0.00     0.057 A 
ATOM     67  C   UNL A   1      38.970  32.791  37.488  1.00  0.00     0.134 A 
ATOM     68  C   UNL A   1      40.693  34.228  36.652  1.00  0.00     0.134 A 
ATOM     69  F   UNL A   1      38.168  31.722  37.381  1.00  0.00    -0.206 F 
ATOM     70  C   UNL A   1      38.823  33.610  38.610  1.00  0.00     0.040 A 
ATOM     71  C   UNL A   1      40.576  35.038  37.783  1.00  0.00     0.040 A 
ATOM     72  F   UNL A   1      41.605  34.568  35.728  1.00  0.00    -0.206 F 
ATOM     73  C   UNL A   1      39.633  34.733  38.762  1.00  0.00     0.006 A 
ENDBRANCH  52  66
BRANCH  53  74
ATOM     74  C   UNL A   1      40.851  27.707  28.125  1.00  0.00     0.057 A 
ATOM     75  C   UNL A   1      41.643  28.171  27.068  1.00  0.00     0.134 A 
ATOM     76  C   UNL A   1      40.219  26.469  27.962  1.00  0.00     0.134 A 
ATOM     77  F   UNL A   1      42.260  29.359  27.159  1.00  0.00    -0.206 F 
ATOM     78  C   UNL A   1      41.785  27.442  25.886  1.00  0.00     0.040 A 
ATOM     79  C   UNL A   1      40.373  25.717  26.796  1.00  0.00     0.040 A 
ATOM     80  F   UNL A   1      39.455  25.964  28.943  1.00  0.00    -0.206 F 
ATOM     81  C   UNL A   1      41.153  26.207  25.751  1.00  0.00     0.006 A 
ENDBRANCH  53  74
BRANCH  65  82
ATOM     82  C   UNL A   1      44.031  27.586  34.317  1.00  0.00     0.057 A 
ATOM     83  C   UNL A   1      43.748  26.355  34.921  1.00  0.00     0.134 A 
ATOM     84  C   UNL A   1      45.376  27.966  34.223  1.00  0.00     0.134 A 
ATOM     85  F   UNL A   1      42.479  25.938  35.053  1.00  0.00    -0.206 F 
ATOM     86  C   UNL A   1      44.761  25.544  35.435  1.00  0.00     0.040 A 
ATOM     87  C   UNL A   1      46.400  27.153  34.710  1.00  0.00     0.040 A 
ATOM     88  F   UNL A   1      45.718  29.129  33.648  1.00  0.00    -0.206 F 
ATOM     89  C   UNL A   1      46.093  25.940  35.324  1.00  0.00     0.006 A 
ENDBRANCH  65  82
ENDBRANCH  39  40
ENDBRANCH  31  34
ENDBRANCH  29  30
ENDBRANCH  28  29
ENDBRANCH  27  28
ENDBRANCH   1  27
TORSDOF 17
ENDMDL
MODEL 3
REMARK VINA RESULT:     -11.5      0.960      6.174
REMARK SMILES CC[C@@]1(C(=O)NCCCCCCNC(=O)c2ccc(-c3c4nc(c(-c5c(F)cccc5F)c5ccc([nH]5)c(-c5c(F)cccc5F)c5nc(c(-c6c(F)cccc6F)c6ccc3[nH]6)C=C5)C=C4)cc2)CCC[N@@H+](Cc2ccc(C3CC3)cc2)C1
REMARK SMILES IDX 9 1 8 2 7 3 6 4 4 5 5 6 3 8 70 9 84 10 71 11 73 12 72 13
REMARK SMILES IDX 2 15 1 16 74 17 75 18 76 19 83 20 77 21 82 22 78 23 79 24
REMARK SMILES IDX 80 25 81 26 10 27 11 28 12 29 13 30 14 31 15 33 16 34 17 35
REMARK SMILES IDX 69 36 18 37 68 38 19 39 20 40 21 41 62 42 22 43 67 44 61 45
REMARK SMILES IDX 63 46 23 47 66 48 60 49 59 50 24 52 50 53 33 54 49 55 34 56
REMARK SMILES IDX 37 57 48 58 64 59 35 60 36 61 47 63 65 64 38 65 25 66 26 67
REMARK SMILES IDX 31 68 27 69 28 70 30 71 32 72 29 73 51 74 52 75 57 76 53 77
REMARK SMILES IDX 54 78 56 79 58 80 55 81 39 82 40 83 45 84 41 85 42 86 44 87
REMARK SMILES IDX 46 88 43 89
REMARK H PARENT 6 7 73 14 13 32 63 51 37 62
REMARK Flexibility Score: inf
ROOT
ATOM      1  C   UNL A   1      32.594  29.652  26.107  1.00  0.00     0.002 C 
ENDROOT
BRANCH   1   2
ATOM      2  C   UNL A   1      33.281  28.926  24.942  1.00  0.00     0.021 C 
BRANCH   2   3
ATOM      3  C   UNL A   1      33.720  27.502  25.282  1.00  0.00     0.116 C 
BRANCH   3   4
ATOM      4  N   UNL A   1      33.974  26.754  24.075  1.00  0.00    -0.355 N 
ATOM      5  C   UNL A   1      34.014  25.435  23.772  1.00  0.00     0.231 C 
ATOM      6  O   UNL A   1      34.417  25.198  22.625  1.00  0.00    -0.274 OA
ATOM      7  H   UNL A   1      34.160  27.330  23.299  1.00  0.00     0.163 HD
BRANCH   5   8
ATOM      8  C   UNL A   1      33.402  24.308  24.645  1.00  0.00     0.098 C 
ATOM      9  C   UNL A   1      33.110  22.932  24.013  1.00  0.00     0.028 C 
ATOM     10  C   UNL A   1      32.016  24.821  25.142  1.00  0.00     0.279 C 
ATOM     11  C   UNL A   1      32.085  23.035  22.890  1.00  0.00     0.063 C 
ATOM     12  N   UNL A   1      30.965  24.876  24.103  1.00  0.00    -0.330 N 
ATOM     13  C   UNL A   1      30.770  23.594  23.421  1.00  0.00     0.262 C 
ATOM     14  H   UNL A   1      31.303  25.525  23.393  1.00  0.00     0.348 HD
BRANCH   8  15
ATOM     15  C   UNL A   1      34.420  24.135  25.824  1.00  0.00     0.019 C 
ATOM     16  C   UNL A   1      35.857  23.790  25.448  1.00  0.00     0.005 C 
ENDBRANCH   8  15
BRANCH  12  17
ATOM     17  C   UNL A   1      29.695  25.433  24.624  1.00  0.00     0.299 C 
BRANCH  17  18
ATOM     18  C   UNL A   1      29.192  26.678  23.915  1.00  0.00     0.006 A 
ATOM     19  C   UNL A   1      27.824  26.953  23.829  1.00  0.00     0.010 A 
ATOM     20  C   UNL A   1      30.091  27.633  23.426  1.00  0.00     0.010 A 
ATOM     21  C   UNL A   1      27.378  28.191  23.351  1.00  0.00     0.004 A 
ATOM     22  C   UNL A   1      29.638  28.877  22.980  1.00  0.00     0.004 A 
ATOM     23  C   UNL A   1      28.272  29.201  22.953  1.00  0.00    -0.045 A 
BRANCH  23  24
ATOM     24  C   UNL A   1      27.747  30.563  22.539  1.00  0.00     0.019 C 
ATOM     25  C   UNL A   1      27.616  31.688  23.540  1.00  0.00     0.009 C 
ATOM     26  C   UNL A   1      28.663  31.758  22.465  1.00  0.00     0.009 C 
ENDBRANCH  23  24
ENDBRANCH  17  18
ENDBRANCH  12  17
ENDBRANCH   5   8
ENDBRANCH   3   4
ENDBRANCH   2   3
ENDBRANCH   1   2
BRANCH   1  27
ATOM     27  C   UNL A   1      31.451  30.585  25.697  1.00  0.00     0.002 C 
BRANCH  27  28
ATOM     28  C   UNL A   1      31.262  31.804  26.602  1.00  0.00     0.021 C 
BRANCH  28  29
ATOM     29  C   UNL A   1      32.562  32.434  27.091  1.00  0.00     0.116 C 
BRANCH  29  30
ATOM     30  N   UNL A   1      32.382  33.824  27.470  1.00  0.00    -0.352 N 
ATOM     31  C   UNL A   1      33.073  34.569  28.391  1.00  0.00     0.251 C 
ATOM     32  H   UNL A   1      31.661  34.300  26.998  1.00  0.00     0.163 HD
ATOM     33  O   UNL A   1      32.656  35.669  28.736  1.00  0.00    -0.269 OA
BRANCH  31  34
ATOM     34  C   UNL A   1      34.317  34.033  28.981  1.00  0.00     0.039 A 
ATOM     35  C   UNL A   1      34.230  33.241  30.128  1.00  0.00     0.014 A 
ATOM     36  C   UNL A   1      35.563  34.325  28.418  1.00  0.00     0.014 A 
ATOM     37  C   UNL A   1      35.390  32.702  30.683  1.00  0.00     0.010 A 
ATOM     38  C   UNL A   1      36.712  33.729  28.931  1.00  0.00     0.010 A 
ATOM     39  C   UNL A   1      36.638  32.920  30.073  1.00  0.00    -0.014 A 
BRANCH  39  40
ATOM     40  C   UNL A   1      37.869  32.302  30.626  1.00  0.00     0.031 A 
ATOM     41  C   UNL A   1      38.420  31.039  30.028  1.00  0.00     0.074 A 
ATOM     42  C   UNL A   1      38.466  32.861  31.696  1.00  0.00     0.049 A 
ATOM     43  N   UNL A   1      39.479  30.353  30.378  1.00  0.00    -0.248 NA
ATOM     44  C   UNL A   1      37.671  30.452  28.906  1.00  0.00     0.031 C 
ATOM     45  C   UNL A   1      37.992  34.054  32.401  1.00  0.00     0.029 A 
ATOM     46  N   UNL A   1      39.598  32.499  32.379  1.00  0.00    -0.354 N 
ATOM     47  C   UNL A   1      39.516  29.255  29.529  1.00  0.00     0.074 A 
ATOM     48  C   UNL A   1      38.345  29.334  28.684  1.00  0.00     0.031 C 
ATOM     49  C   UNL A   1      38.845  34.343  33.397  1.00  0.00     0.029 A 
ATOM     50  C   UNL A   1      39.906  33.341  33.420  1.00  0.00     0.049 A 
ATOM     51  H   UNL A   1      40.140  31.709  32.146  1.00  0.00     0.167 HD
ATOM     52  C   UNL A   1      40.455  28.282  29.444  1.00  0.00     0.037 A 
ATOM     53  C   UNL A   1      40.932  33.311  34.291  1.00  0.00     0.037 A 
ATOM     54  C   UNL A   1      41.631  28.220  30.271  1.00  0.00     0.049 A 
ATOM     55  C   UNL A   1      41.969  32.231  34.166  1.00  0.00     0.074 A 
ATOM     56  C   UNL A   1      42.672  27.309  30.224  1.00  0.00     0.029 A 
ATOM     57  N   UNL A   1      41.920  29.104  31.301  1.00  0.00    -0.354 N 
ATOM     58  N   UNL A   1      42.033  31.242  33.308  1.00  0.00    -0.248 NA
ATOM     59  C   UNL A   1      43.084  32.269  35.124  1.00  0.00     0.031 C 
ATOM     60  C   UNL A   1      43.571  27.618  31.251  1.00  0.00     0.029 A 
ATOM     61  C   UNL A   1      43.114  28.750  31.907  1.00  0.00     0.049 A 
ATOM     62  H   UNL A   1      41.359  29.870  31.560  1.00  0.00     0.167 HD
ATOM     63  C   UNL A   1      43.207  30.560  33.600  1.00  0.00     0.074 A 
ATOM     64  C   UNL A   1      43.829  31.255  34.709  1.00  0.00     0.031 C 
ATOM     65  C   UNL A   1      43.723  29.457  33.004  1.00  0.00     0.037 A 
BRANCH  52  66
ATOM     66  C   UNL A   1      40.249  27.210  28.413  1.00  0.00     0.057 A 
ATOM     67  C   UNL A   1      40.828  27.287  27.140  1.00  0.00     0.134 A 
ATOM     68  C   UNL A   1      39.487  26.071  28.706  1.00  0.00     0.134 A 
ATOM     69  F   UNL A   1      41.560  28.356  26.790  1.00  0.00    -0.206 F 
ATOM     70  C   UNL A   1      40.635  26.285  26.186  1.00  0.00     0.040 A 
ATOM     71  C   UNL A   1      39.311  25.049  27.771  1.00  0.00     0.040 A 
ATOM     72  F   UNL A   1      38.909  25.928  29.909  1.00  0.00    -0.206 F 
ATOM     73  C   UNL A   1      39.880  25.159  26.504  1.00  0.00     0.006 A 
ENDBRANCH  52  66
BRANCH  53  74
ATOM     74  C   UNL A   1      41.049  34.363  35.331  1.00  0.00     0.057 A 
ATOM     75  C   UNL A   1      41.695  35.576  35.062  1.00  0.00     0.134 A 
ATOM     76  C   UNL A   1      40.520  34.186  36.614  1.00  0.00     0.134 A 
ATOM     77  F   UNL A   1      42.238  35.798  33.855  1.00  0.00    -0.206 F 
ATOM     78  C   UNL A   1      41.826  36.566  36.036  1.00  0.00     0.040 A 
ATOM     79  C   UNL A   1      40.621  35.178  37.590  1.00  0.00     0.040 A 
ATOM     80  F   UNL A   1      39.880  33.050  36.932  1.00  0.00    -0.206 F 
ATOM     81  C   UNL A   1      41.282  36.371  37.304  1.00  0.00     0.006 A 
ENDBRANCH  53  74
BRANCH  65  82
ATOM     82  C   UNL A   1      45.044  28.959  33.513  1.00  0.00     0.057 A 
ATOM     83  C   UNL A   1      45.134  27.990  34.520  1.00  0.00     0.134 A 
ATOM     84  C   UNL A   1      46.241  29.432  32.961  1.00  0.00     0.134 A 
ATOM     85  F   UNL A   1      44.024  27.506  35.098  1.00  0.00    -0.206 F 
ATOM     86  C   UNL A   1      46.368  27.527  34.978  1.00  0.00     0.040 A 
ATOM     87  C   UNL A   1      47.481  28.958  33.392  1.00  0.00     0.040 A 
ATOM     88  F   UNL A   1      46.226  30.354  31.986  1.00  0.00    -0.206 F 
ATOM     89  C   UNL A   1      47.547  28.007  34.409  1.00  0.00     0.006 A 
ENDBRANCH  65  82
ENDBRANCH  39  40
ENDBRANCH  31  34
ENDBRANCH  29  30
ENDBRANCH  28  29
ENDBRANCH  27  28
ENDBRANCH   1  27
TORSDOF 17
ENDMDL
