MODEL 1
REMARK VINA RESULT:     -11.5      0.000      0.000
REMARK SMILES COc1ccc(NC(=O)c2cccn2CC(=O)NCCCCCCNC(=O)c2ccc(-c3c4nc(c(-c5c(F)cccc5F)c5ccc([nH]5)c(-c5c(F)cccc5F)c5nc(c(-c6c(F)cccc6F)c6ccc3[nH]6)C=C5)C=C4)cc2)cc1F
REMARK SMILES IDX 20 1 19 2 18 3 16 4 17 5 15 7 14 8 10 9 11 10 12 11 13 12
REMARK SMILES IDX 8 13 7 14 9 16 6 17 3 18 4 19 83 20 5 21 82 22 84 23 2 24
REMARK SMILES IDX 1 25 21 26 22 27 23 28 24 29 25 30 26 31 27 33 28 34 29 35
REMARK SMILES IDX 81 36 30 37 80 38 31 39 32 40 33 41 74 42 34 43 79 44 73 45
REMARK SMILES IDX 75 46 35 47 78 48 72 49 71 50 36 52 62 53 45 54 61 55 46 56
REMARK SMILES IDX 49 57 60 58 76 59 47 60 48 61 59 63 77 64 50 65 37 66 38 67
REMARK SMILES IDX 43 68 39 69 40 70 42 71 44 72 41 73 63 74 64 75 69 76 65 77
REMARK SMILES IDX 66 78 68 79 70 80 67 81 51 82 52 83 57 84 53 85 54 86 56 87
REMARK SMILES IDX 58 88 55 89
REMARK H PARENT 18 6 7 15 25 32 75 51 49 62
REMARK Flexibility Score: inf
ROOT
ATOM      1  C   UNL A   1      32.003  26.867  26.492  1.00  0.00     0.021 C 
ENDROOT
BRANCH   1   2
ATOM      2  C   UNL A   1      30.984  25.990  25.772  1.00  0.00     0.116 C 
BRANCH   2   3
ATOM      3  N   UNL A   1      30.504  24.938  26.641  1.00  0.00    -0.355 N 
ATOM      4  C   UNL A   1      31.111  23.757  26.965  1.00  0.00     0.239 C 
ATOM      5  O   UNL A   1      30.476  22.945  27.640  1.00  0.00    -0.273 OA
ATOM      6  H   UNL A   1      29.624  25.093  27.053  1.00  0.00     0.163 HD
BRANCH   4   7
ATOM      7  C   UNL A   1      32.545  23.498  26.553  1.00  0.00     0.222 C 
BRANCH   7   8
ATOM      8  N   UNL A   1      32.694  22.575  25.431  1.00  0.00    -0.334 N 
ATOM      9  C   UNL A   1      33.789  22.471  24.587  1.00  0.00     0.107 A 
ATOM     10  C   UNL A   1      33.619  21.295  23.868  1.00  0.00     0.033 A 
ATOM     11  C   UNL A   1      32.325  20.797  24.139  1.00  0.00     0.020 A 
ATOM     12  C   UNL A   1      31.770  21.614  25.096  1.00  0.00     0.087 A 
BRANCH   9  13
ATOM     13  C   UNL A   1      34.903  23.392  24.542  1.00  0.00     0.272 C 
ATOM     14  N   UNL A   1      34.792  24.615  23.907  1.00  0.00    -0.321 N 
ATOM     15  H   UNL A   1      35.654  25.085  23.830  1.00  0.00     0.170 HD
ATOM     16  O   UNL A   1      35.973  23.147  25.093  1.00  0.00    -0.267 OA
BRANCH  14  17
ATOM     17  C   UNL A   1      33.722  25.342  23.345  1.00  0.00     0.044 A 
ATOM     18  C   UNL A   1      31.675  26.951  22.268  1.00  0.00     0.154 A 
ATOM     19  C   UNL A   1      31.571  25.572  22.218  1.00  0.00     0.052 A 
ATOM     20  C   UNL A   1      32.769  27.532  22.906  1.00  0.00     0.167 A 
ATOM     21  C   UNL A   1      32.586  24.781  22.759  1.00  0.00     0.030 A 
ATOM     22  C   UNL A   1      33.789  26.739  23.434  1.00  0.00     0.069 A 
ATOM     23  F   UNL A   1      32.857  28.863  23.035  1.00  0.00    -0.203 F 
BRANCH  18  24
ATOM     24  O   UNL A   1      30.649  27.660  21.712  1.00  0.00    -0.494 OA
ATOM     25  C   UNL A   1      29.763  28.120  22.732  1.00  0.00     0.278 C 
ENDBRANCH  18  24
ENDBRANCH  14  17
ENDBRANCH   9  13
ENDBRANCH   7   8
ENDBRANCH   4   7
ENDBRANCH   2   3
ENDBRANCH   1   2
BRANCH   1  26
ATOM     26  C   UNL A   1      31.393  28.022  27.286  1.00  0.00     0.002 C 
BRANCH  26  27
ATOM     27  C   UNL A   1      32.208  29.320  27.234  1.00  0.00     0.002 C 
BRANCH  27  28
ATOM     28  C   UNL A   1      33.380  29.325  26.235  1.00  0.00     0.021 C 
BRANCH  28  29
ATOM     29  C   UNL A   1      34.750  29.150  26.895  1.00  0.00     0.116 C 
BRANCH  29  30
ATOM     30  N   UNL A   1      35.321  30.451  27.203  1.00  0.00    -0.352 N 
ATOM     31  C   UNL A   1      36.387  30.823  27.971  1.00  0.00     0.251 C 
ATOM     32  H   UNL A   1      34.852  31.205  26.777  1.00  0.00     0.163 HD
ATOM     33  O   UNL A   1      36.437  31.994  28.349  1.00  0.00    -0.269 OA
BRANCH  31  34
ATOM     34  C   UNL A   1      37.474  29.897  28.366  1.00  0.00     0.039 A 
ATOM     35  C   UNL A   1      38.585  29.819  27.510  1.00  0.00     0.014 A 
ATOM     36  C   UNL A   1      37.389  29.035  29.463  1.00  0.00     0.014 A 
ATOM     37  C   UNL A   1      39.621  28.926  27.770  1.00  0.00     0.010 A 
ATOM     38  C   UNL A   1      38.431  28.150  29.739  1.00  0.00     0.010 A 
ATOM     39  C   UNL A   1      39.558  28.112  28.905  1.00  0.00    -0.014 A 
BRANCH  39  40
ATOM     40  C   UNL A   1      40.782  27.409  29.358  1.00  0.00     0.031 A 
ATOM     41  C   UNL A   1      41.058  26.143  28.505  1.00  0.00     0.074 A 
ATOM     42  C   UNL A   1      41.481  27.968  30.397  1.00  0.00     0.049 A 
ATOM     43  N   UNL A   1      41.951  25.213  28.653  1.00  0.00    -0.248 NA
ATOM     44  C   UNL A   1      40.218  25.868  27.302  1.00  0.00     0.031 C 
ATOM     45  C   UNL A   1      41.089  29.205  31.110  1.00  0.00     0.029 A 
ATOM     46  N   UNL A   1      42.643  27.629  31.066  1.00  0.00    -0.354 N 
ATOM     47  C   UNL A   1      41.931  24.399  27.493  1.00  0.00     0.074 A 
ATOM     48  C   UNL A   1      40.787  24.799  26.738  1.00  0.00     0.031 C 
ATOM     49  C   UNL A   1      41.930  29.461  32.138  1.00  0.00     0.029 A 
ATOM     50  C   UNL A   1      42.971  28.450  32.182  1.00  0.00     0.049 A 
ATOM     51  H   UNL A   1      43.207  26.871  30.789  1.00  0.00     0.167 HD
ATOM     52  C   UNL A   1      42.930  23.520  27.181  1.00  0.00     0.037 A 
ATOM     53  C   UNL A   1      43.996  28.321  33.082  1.00  0.00     0.037 A 
ATOM     54  C   UNL A   1      43.847  23.440  28.262  1.00  0.00     0.049 A 
ATOM     55  C   UNL A   1      44.892  27.318  32.503  1.00  0.00     0.074 A 
ATOM     56  C   UNL A   1      43.725  22.874  29.502  1.00  0.00     0.029 A 
ATOM     57  N   UNL A   1      44.915  24.301  28.249  1.00  0.00    -0.354 N 
ATOM     58  N   UNL A   1      45.672  27.542  31.488  1.00  0.00    -0.248 NA
ATOM     59  C   UNL A   1      44.921  25.969  33.076  1.00  0.00     0.031 C 
ATOM     60  C   UNL A   1      44.433  23.759  30.331  1.00  0.00     0.029 A 
ATOM     61  C   UNL A   1      45.138  24.681  29.547  1.00  0.00     0.049 A 
ATOM     62  H   UNL A   1      45.423  24.591  27.458  1.00  0.00     0.167 HD
ATOM     63  C   UNL A   1      45.988  26.270  31.090  1.00  0.00     0.074 A 
ATOM     64  C   UNL A   1      45.795  25.412  32.241  1.00  0.00     0.031 C 
ATOM     65  C   UNL A   1      45.801  25.938  29.787  1.00  0.00     0.037 A 
BRANCH  52  66
ATOM     66  C   UNL A   1      43.312  22.797  25.920  1.00  0.00     0.057 A 
ATOM     67  C   UNL A   1      43.931  23.416  24.834  1.00  0.00     0.134 A 
ATOM     68  C   UNL A   1      43.404  21.385  25.948  1.00  0.00     0.134 A 
ATOM     69  F   UNL A   1      43.907  24.743  24.691  1.00  0.00    -0.206 F 
ATOM     70  C   UNL A   1      44.682  22.697  23.892  1.00  0.00     0.040 A 
ATOM     71  C   UNL A   1      44.176  20.659  25.036  1.00  0.00     0.040 A 
ATOM     72  F   UNL A   1      42.805  20.672  26.914  1.00  0.00    -0.206 F 
ATOM     73  C   UNL A   1      44.841  21.321  24.015  1.00  0.00     0.006 A 
ENDBRANCH  52  66
BRANCH  53  74
ATOM     74  C   UNL A   1      44.448  28.857  34.427  1.00  0.00     0.057 A 
ATOM     75  C   UNL A   1      45.494  29.828  34.487  1.00  0.00     0.134 A 
ATOM     76  C   UNL A   1      44.062  28.371  35.676  1.00  0.00     0.134 A 
ATOM     77  F   UNL A   1      45.896  30.508  33.405  1.00  0.00    -0.206 F 
ATOM     78  C   UNL A   1      46.213  30.139  35.645  1.00  0.00     0.040 A 
ATOM     79  C   UNL A   1      44.739  28.726  36.864  1.00  0.00     0.040 A 
ATOM     80  F   UNL A   1      43.034  27.526  35.806  1.00  0.00    -0.206 F 
ATOM     81  C   UNL A   1      45.848  29.568  36.845  1.00  0.00     0.006 A 
ENDBRANCH  53  74
BRANCH  65  82
ATOM     82  C   UNL A   1      45.919  27.105  28.827  1.00  0.00     0.057 A 
ATOM     83  C   UNL A   1      44.840  27.698  28.155  1.00  0.00     0.134 A 
ATOM     84  C   UNL A   1      47.155  27.750  28.670  1.00  0.00     0.134 A 
ATOM     85  F   UNL A   1      43.618  27.175  28.225  1.00  0.00    -0.206 F 
ATOM     86  C   UNL A   1      44.969  28.862  27.382  1.00  0.00     0.040 A 
ATOM     87  C   UNL A   1      47.301  28.918  27.907  1.00  0.00     0.040 A 
ATOM     88  F   UNL A   1      48.252  27.259  29.266  1.00  0.00    -0.206 F 
ATOM     89  C   UNL A   1      46.205  29.480  27.262  1.00  0.00     0.006 A 
ENDBRANCH  65  82
ENDBRANCH  39  40
ENDBRANCH  31  34
ENDBRANCH  29  30
ENDBRANCH  28  29
ENDBRANCH  27  28
ENDBRANCH  26  27
ENDBRANCH   1  26
TORSDOF 17
ENDMDL
MODEL 2
REMARK VINA RESULT:     -11.4      1.810      3.247
REMARK SMILES COc1ccc(NC(=O)c2cccn2CC(=O)NCCCCCCNC(=O)c2ccc(-c3c4nc(c(-c5c(F)cccc5F)c5ccc([nH]5)c(-c5c(F)cccc5F)c5nc(c(-c6c(F)cccc6F)c6ccc3[nH]6)C=C5)C=C4)cc2)cc1F
REMARK SMILES IDX 20 1 19 2 18 3 16 4 17 5 15 7 14 8 10 9 11 10 12 11 13 12
REMARK SMILES IDX 8 13 7 14 9 16 6 17 3 18 4 19 83 20 5 21 82 22 84 23 2 24
REMARK SMILES IDX 1 25 21 26 22 27 23 28 24 29 25 30 26 31 27 33 28 34 29 35
REMARK SMILES IDX 81 36 30 37 80 38 31 39 32 40 33 41 74 42 34 43 79 44 73 45
REMARK SMILES IDX 75 46 35 47 78 48 72 49 71 50 36 52 62 53 45 54 61 55 46 56
REMARK SMILES IDX 49 57 60 58 76 59 47 60 48 61 59 63 77 64 50 65 37 66 38 67
REMARK SMILES IDX 43 68 39 69 40 70 42 71 44 72 41 73 63 74 64 75 69 76 65 77
REMARK SMILES IDX 66 78 68 79 70 80 67 81 51 82 52 83 57 84 53 85 54 86 56 87
REMARK SMILES IDX 58 88 55 89
REMARK H PARENT 18 6 7 15 25 32 75 51 49 62
REMARK Flexibility Score: inf
ROOT
ATOM      1  C   UNL A   1      31.897  26.526  26.423  1.00  0.00     0.021 C 
ENDROOT
BRANCH   1   2
ATOM      2  C   UNL A   1      30.865  25.626  25.752  1.00  0.00     0.116 C 
BRANCH   2   3
ATOM      3  N   UNL A   1      30.140  24.850  26.734  1.00  0.00    -0.355 N 
ATOM      4  C   UNL A   1      30.102  23.493  26.890  1.00  0.00     0.239 C 
ATOM      5  O   UNL A   1      29.327  23.026  27.727  1.00  0.00    -0.273 OA
ATOM      6  H   UNL A   1      29.604  25.368  27.375  1.00  0.00     0.163 HD
BRANCH   4   7
ATOM      7  C   UNL A   1      31.038  22.608  26.092  1.00  0.00     0.222 C 
BRANCH   7   8
ATOM      8  N   UNL A   1      32.426  22.634  26.545  1.00  0.00    -0.334 N 
ATOM      9  C   UNL A   1      33.537  22.962  25.783  1.00  0.00     0.107 A 
ATOM     10  C   UNL A   1      34.587  23.133  26.675  1.00  0.00     0.033 A 
ATOM     11  C   UNL A   1      34.153  22.712  27.952  1.00  0.00     0.020 A 
ATOM     12  C   UNL A   1      32.819  22.396  27.840  1.00  0.00     0.087 A 
BRANCH   9  13
ATOM     13  C   UNL A   1      33.543  23.149  24.349  1.00  0.00     0.272 C 
ATOM     14  N   UNL A   1      33.534  22.066  23.488  1.00  0.00    -0.321 N 
ATOM     15  H   UNL A   1      33.677  22.324  22.549  1.00  0.00     0.170 HD
ATOM     16  O   UNL A   1      33.520  24.265  23.837  1.00  0.00    -0.267 OA
BRANCH  14  17
ATOM     17  C   UNL A   1      33.365  20.676  23.654  1.00  0.00     0.044 A 
ATOM     18  C   UNL A   1      33.192  17.895  24.074  1.00  0.00     0.154 A 
ATOM     19  C   UNL A   1      32.171  18.562  23.420  1.00  0.00     0.052 A 
ATOM     20  C   UNL A   1      34.328  18.600  24.467  1.00  0.00     0.167 A 
ATOM     21  C   UNL A   1      32.265  19.939  23.211  1.00  0.00     0.030 A 
ATOM     22  C   UNL A   1      34.415  19.979  24.268  1.00  0.00     0.069 A 
ATOM     23  F   UNL A   1      35.364  17.966  25.033  1.00  0.00    -0.203 F 
BRANCH  18  24
ATOM     24  O   UNL A   1      33.027  16.551  24.251  1.00  0.00    -0.494 OA
ATOM     25  C   UNL A   1      32.714  16.273  25.615  1.00  0.00     0.278 C 
ENDBRANCH  18  24
ENDBRANCH  14  17
ENDBRANCH   9  13
ENDBRANCH   7   8
ENDBRANCH   4   7
ENDBRANCH   2   3
ENDBRANCH   1   2
BRANCH   1  26
ATOM     26  C   UNL A   1      31.300  27.642  27.279  1.00  0.00     0.002 C 
BRANCH  26  27
ATOM     27  C   UNL A   1      32.066  28.969  27.206  1.00  0.00     0.002 C 
BRANCH  27  28
ATOM     28  C   UNL A   1      33.196  29.022  26.162  1.00  0.00     0.021 C 
BRANCH  28  29
ATOM     29  C   UNL A   1      34.597  28.917  26.770  1.00  0.00     0.116 C 
BRANCH  29  30
ATOM     30  N   UNL A   1      35.102  30.243  27.083  1.00  0.00    -0.352 N 
ATOM     31  C   UNL A   1      36.140  30.666  27.864  1.00  0.00     0.251 C 
ATOM     32  H   UNL A   1      34.603  30.974  26.652  1.00  0.00     0.163 HD
ATOM     33  O   UNL A   1      36.129  31.838  28.242  1.00  0.00    -0.269 OA
BRANCH  31  34
ATOM     34  C   UNL A   1      37.265  29.793  28.272  1.00  0.00     0.039 A 
ATOM     35  C   UNL A   1      38.361  29.717  27.396  1.00  0.00     0.014 A 
ATOM     36  C   UNL A   1      37.231  28.973  29.404  1.00  0.00     0.014 A 
ATOM     37  C   UNL A   1      39.432  28.870  27.670  1.00  0.00     0.010 A 
ATOM     38  C   UNL A   1      38.309  28.135  29.693  1.00  0.00     0.010 A 
ATOM     39  C   UNL A   1      39.418  28.100  28.837  1.00  0.00    -0.014 A 
BRANCH  39  40
ATOM     40  C   UNL A   1      40.674  27.458  29.292  1.00  0.00     0.031 A 
ATOM     41  C   UNL A   1      40.988  26.181  28.468  1.00  0.00     0.074 A 
ATOM     42  C   UNL A   1      41.364  28.069  30.306  1.00  0.00     0.049 A 
ATOM     43  N   UNL A   1      41.919  25.290  28.627  1.00  0.00    -0.248 NA
ATOM     44  C   UNL A   1      40.145  25.842  27.283  1.00  0.00     0.031 C 
ATOM     45  C   UNL A   1      40.934  29.309  30.992  1.00  0.00     0.029 A 
ATOM     46  N   UNL A   1      42.547  27.793  30.968  1.00  0.00    -0.354 N 
ATOM     47  C   UNL A   1      41.915  24.446  27.489  1.00  0.00     0.074 A 
ATOM     48  C   UNL A   1      40.747  24.782  26.739  1.00  0.00     0.031 C 
ATOM     49  C   UNL A   1      41.778  29.624  32.002  1.00  0.00     0.029 A 
ATOM     50  C   UNL A   1      42.857  28.655  32.058  1.00  0.00     0.049 A 
ATOM     51  H   UNL A   1      43.136  27.050  30.703  1.00  0.00     0.167 HD
ATOM     52  C   UNL A   1      42.943  23.598  27.186  1.00  0.00     0.037 A 
ATOM     53  C   UNL A   1      43.898  28.589  32.947  1.00  0.00     0.037 A 
ATOM     54  C   UNL A   1      43.877  23.582  28.256  1.00  0.00     0.049 A 
ATOM     55  C   UNL A   1      44.825  27.607  32.381  1.00  0.00     0.074 A 
ATOM     56  C   UNL A   1      43.792  23.043  29.512  1.00  0.00     0.029 A 
ATOM     57  N   UNL A   1      44.910  24.482  28.207  1.00  0.00    -0.354 N 
ATOM     58  N   UNL A   1      45.582  27.834  31.351  1.00  0.00    -0.248 NA
ATOM     59  C   UNL A   1      44.912  26.275  32.988  1.00  0.00     0.031 C 
ATOM     60  C   UNL A   1      44.476  23.977  30.308  1.00  0.00     0.029 A 
ATOM     61  C   UNL A   1      45.135  24.904  29.492  1.00  0.00     0.049 A 
ATOM     62  H   UNL A   1      45.397  24.770  27.401  1.00  0.00     0.167 HD
ATOM     63  C   UNL A   1      45.942  26.564  30.981  1.00  0.00     0.074 A 
ATOM     64  C   UNL A   1      45.797  25.731  32.156  1.00  0.00     0.031 C 
ATOM     65  C   UNL A   1      45.751  26.191  29.690  1.00  0.00     0.037 A 
BRANCH  52  66
ATOM     66  C   UNL A   1      43.337  22.857  25.939  1.00  0.00     0.057 A 
ATOM     67  C   UNL A   1      43.999  23.452  24.865  1.00  0.00     0.134 A 
ATOM     68  C   UNL A   1      43.392  21.443  25.977  1.00  0.00     0.134 A 
ATOM     69  F   UNL A   1      44.013  24.779  24.715  1.00  0.00    -0.206 F 
ATOM     70  C   UNL A   1      44.754  22.709  23.946  1.00  0.00     0.040 A 
ATOM     71  C   UNL A   1      44.167  20.692  25.089  1.00  0.00     0.040 A 
ATOM     72  F   UNL A   1      42.750  20.752  26.933  1.00  0.00    -0.206 F 
ATOM     73  C   UNL A   1      44.874  21.329  24.081  1.00  0.00     0.006 A 
ENDBRANCH  52  66
BRANCH  53  74
ATOM     74  C   UNL A   1      44.346  29.177  34.271  1.00  0.00     0.057 A 
ATOM     75  C   UNL A   1      43.575  28.938  35.449  1.00  0.00     0.134 A 
ATOM     76  C   UNL A   1      45.374  30.101  34.452  1.00  0.00     0.134 A 
ATOM     77  F   UNL A   1      42.639  27.980  35.505  1.00  0.00    -0.206 F 
ATOM     78  C   UNL A   1      43.687  29.681  36.628  1.00  0.00     0.040 A 
ATOM     79  C   UNL A   1      45.541  30.815  35.661  1.00  0.00     0.040 A 
ATOM     80  F   UNL A   1      46.248  30.371  33.477  1.00  0.00    -0.206 F 
ATOM     81  C   UNL A   1      44.667  30.645  36.731  1.00  0.00     0.006 A 
ENDBRANCH  53  74
BRANCH  65  82
ATOM     82  C   UNL A   1      45.813  27.337  28.699  1.00  0.00     0.057 A 
ATOM     83  C   UNL A   1      44.700  27.884  28.042  1.00  0.00     0.134 A 
ATOM     84  C   UNL A   1      47.026  28.010  28.492  1.00  0.00     0.134 A 
ATOM     85  F   UNL A   1      43.495  27.330  28.158  1.00  0.00    -0.206 F 
ATOM     86  C   UNL A   1      44.777  29.030  27.238  1.00  0.00     0.040 A 
ATOM     87  C   UNL A   1      47.120  29.161  27.696  1.00  0.00     0.040 A 
ATOM     88  F   UNL A   1      48.151  27.563  29.069  1.00  0.00    -0.206 F 
ATOM     89  C   UNL A   1      45.992  29.678  27.068  1.00  0.00     0.006 A 
ENDBRANCH  65  82
ENDBRANCH  39  40
ENDBRANCH  31  34
ENDBRANCH  29  30
ENDBRANCH  28  29
ENDBRANCH  27  28
ENDBRANCH  26  27
ENDBRANCH   1  26
TORSDOF 17
ENDMDL
MODEL 3
REMARK VINA RESULT:     -11.4      1.756      3.356
REMARK SMILES COc1ccc(NC(=O)c2cccn2CC(=O)NCCCCCCNC(=O)c2ccc(-c3c4nc(c(-c5c(F)cccc5F)c5ccc([nH]5)c(-c5c(F)cccc5F)c5nc(c(-c6c(F)cccc6F)c6ccc3[nH]6)C=C5)C=C4)cc2)cc1F
REMARK SMILES IDX 20 1 19 2 18 3 16 4 17 5 15 7 14 8 10 9 11 10 12 11 13 12
REMARK SMILES IDX 8 13 7 14 9 16 6 17 3 18 4 19 83 20 5 21 82 22 84 23 2 24
REMARK SMILES IDX 1 25 21 26 22 27 23 28 24 29 25 30 26 31 27 33 28 34 29 35
REMARK SMILES IDX 81 36 30 37 80 38 31 39 32 40 33 41 74 42 34 43 79 44 73 45
REMARK SMILES IDX 75 46 35 47 78 48 72 49 71 50 36 52 62 53 45 54 61 55 46 56
REMARK SMILES IDX 49 57 60 58 76 59 47 60 48 61 59 63 77 64 50 65 37 66 38 67
REMARK SMILES IDX 43 68 39 69 40 70 42 71 44 72 41 73 63 74 64 75 69 76 65 77
REMARK SMILES IDX 66 78 68 79 70 80 67 81 51 82 52 83 57 84 53 85 54 86 56 87
REMARK SMILES IDX 58 88 55 89
REMARK H PARENT 18 6 7 15 25 32 75 51 49 62
REMARK Flexibility Score: inf
ROOT
ATOM      1  C   UNL A   1      31.599  26.573  25.409  1.00  0.00     0.021 C 
ENDROOT
BRANCH   1   2
ATOM      2  C   UNL A   1      31.177  25.814  24.155  1.00  0.00     0.116 C 
BRANCH   2   3
ATOM      3  N   UNL A   1      32.104  26.056  23.071  1.00  0.00    -0.355 N 
ATOM      4  C   UNL A   1      33.060  25.221  22.565  1.00  0.00     0.239 C 
ATOM      5  O   UNL A   1      33.825  25.666  21.707  1.00  0.00    -0.273 OA
ATOM      6  H   UNL A   1      32.037  26.938  22.641  1.00  0.00     0.163 HD
BRANCH   4   7
ATOM      7  C   UNL A   1      33.123  23.774  23.012  1.00  0.00     0.222 C 
BRANCH   7   8
ATOM      8  N   UNL A   1      34.203  23.478  23.950  1.00  0.00    -0.334 N 
ATOM      9  C   UNL A   1      34.071  22.922  25.213  1.00  0.00     0.107 A 
ATOM     10  C   UNL A   1      35.349  22.559  25.617  1.00  0.00     0.033 A 
ATOM     11  C   UNL A   1      36.270  23.078  24.680  1.00  0.00     0.020 A 
ATOM     12  C   UNL A   1      35.537  23.653  23.669  1.00  0.00     0.087 A 
BRANCH   9  13
ATOM     13  C   UNL A   1      32.820  22.716  25.910  1.00  0.00     0.272 C 
ATOM     14  N   UNL A   1      32.100  21.545  25.754  1.00  0.00    -0.321 N 
ATOM     15  H   UNL A   1      31.210  21.586  26.171  1.00  0.00     0.170 HD
ATOM     16  O   UNL A   1      32.365  23.547  26.691  1.00  0.00    -0.267 OA
BRANCH  14  17
ATOM     17  C   UNL A   1      32.357  20.306  25.132  1.00  0.00     0.044 A 
ATOM     18  C   UNL A   1      32.838  17.912  23.726  1.00  0.00     0.154 A 
ATOM     19  C   UNL A   1      32.935  17.936  25.105  1.00  0.00     0.052 A 
ATOM     20  C   UNL A   1      32.444  19.064  23.048  1.00  0.00     0.167 A 
ATOM     21  C   UNL A   1      32.690  19.124  25.797  1.00  0.00     0.030 A 
ATOM     22  C   UNL A   1      32.211  20.253  23.740  1.00  0.00     0.069 A 
ATOM     23  F   UNL A   1      32.268  19.047  21.719  1.00  0.00    -0.203 F 
BRANCH  18  24
ATOM     24  O   UNL A   1      33.100  16.718  23.117  1.00  0.00    -0.494 OA
ATOM     25  C   UNL A   1      34.504  16.575  22.905  1.00  0.00     0.278 C 
ENDBRANCH  18  24
ENDBRANCH  14  17
ENDBRANCH   9  13
ENDBRANCH   7   8
ENDBRANCH   4   7
ENDBRANCH   2   3
ENDBRANCH   1   2
BRANCH   1  26
ATOM     26  C   UNL A   1      32.372  27.863  25.138  1.00  0.00     0.002 C 
BRANCH  26  27
ATOM     27  C   UNL A   1      32.097  28.985  26.146  1.00  0.00     0.002 C 
BRANCH  27  28
ATOM     28  C   UNL A   1      33.088  29.073  27.322  1.00  0.00     0.021 C 
BRANCH  28  29
ATOM     29  C   UNL A   1      34.555  29.111  26.887  1.00  0.00     0.116 C 
BRANCH  29  30
ATOM     30  N   UNL A   1      35.120  30.421  27.164  1.00  0.00    -0.352 N 
ATOM     31  C   UNL A   1      36.186  30.816  27.921  1.00  0.00     0.251 C 
ATOM     32  H   UNL A   1      34.645  31.163  26.723  1.00  0.00     0.163 HD
ATOM     33  O   UNL A   1      36.230  31.995  28.273  1.00  0.00    -0.269 OA
BRANCH  31  34
ATOM     34  C   UNL A   1      37.279  29.905  28.332  1.00  0.00     0.039 A 
ATOM     35  C   UNL A   1      38.406  29.844  27.495  1.00  0.00     0.014 A 
ATOM     36  C   UNL A   1      37.188  29.039  29.426  1.00  0.00     0.014 A 
ATOM     37  C   UNL A   1      39.450  28.965  27.771  1.00  0.00     0.010 A 
ATOM     38  C   UNL A   1      38.239  28.169  29.718  1.00  0.00     0.010 A 
ATOM     39  C   UNL A   1      39.379  28.148  28.903  1.00  0.00    -0.014 A 
BRANCH  39  40
ATOM     40  C   UNL A   1      40.605  27.462  29.376  1.00  0.00     0.031 A 
ATOM     41  C   UNL A   1      40.902  26.190  28.538  1.00  0.00     0.074 A 
ATOM     42  C   UNL A   1      41.288  28.038  30.415  1.00  0.00     0.049 A 
ATOM     43  N   UNL A   1      41.803  25.270  28.704  1.00  0.00    -0.248 NA
ATOM     44  C   UNL A   1      40.077  25.894  27.329  1.00  0.00     0.031 C 
ATOM     45  C   UNL A   1      40.877  29.278  31.112  1.00  0.00     0.029 A 
ATOM     46  N   UNL A   1      42.447  27.718  31.099  1.00  0.00    -0.354 N 
ATOM     47  C   UNL A   1      41.802  24.444  27.553  1.00  0.00     0.074 A 
ATOM     48  C   UNL A   1      40.661  24.826  26.782  1.00  0.00     0.031 C 
ATOM     49  C   UNL A   1      41.706  29.553  32.145  1.00  0.00     0.029 A 
ATOM     50  C   UNL A   1      42.756  28.553  32.210  1.00  0.00     0.049 A 
ATOM     51  H   UNL A   1      43.021  26.962  30.836  1.00  0.00     0.167 HD
ATOM     52  C   UNL A   1      42.812  23.572  27.260  1.00  0.00     0.037 A 
ATOM     53  C   UNL A   1      43.773  28.443  33.122  1.00  0.00     0.037 A 
ATOM     54  C   UNL A   1      43.719  23.512  28.350  1.00  0.00     0.049 A 
ATOM     55  C   UNL A   1      44.685  27.443  32.561  1.00  0.00     0.074 A 
ATOM     56  C   UNL A   1      43.590  22.957  29.595  1.00  0.00     0.029 A 
ATOM     57  N   UNL A   1      44.779  24.383  28.339  1.00  0.00    -0.354 N 
ATOM     58  N   UNL A   1      45.472  27.664  31.552  1.00  0.00    -0.248 NA
ATOM     59  C   UNL A   1      44.720  26.101  33.148  1.00  0.00     0.031 C 
ATOM     60  C   UNL A   1      44.281  23.858  30.421  1.00  0.00     0.029 A 
ATOM     61  C   UNL A   1      44.986  24.778  29.636  1.00  0.00     0.049 A 
ATOM     62  H   UNL A   1      45.292  24.670  27.550  1.00  0.00     0.167 HD
ATOM     63  C   UNL A   1      45.804  26.391  31.170  1.00  0.00     0.074 A 
ATOM     64  C   UNL A   1      45.608  25.544  32.328  1.00  0.00     0.031 C 
ATOM     65  C   UNL A   1      45.633  26.044  29.869  1.00  0.00     0.037 A 
BRANCH  52  66
ATOM     66  C   UNL A   1      43.213  22.840  26.010  1.00  0.00     0.057 A 
ATOM     67  C   UNL A   1      43.824  23.457  24.918  1.00  0.00     0.134 A 
ATOM     68  C   UNL A   1      43.335  21.431  26.057  1.00  0.00     0.134 A 
ATOM     69  F   UNL A   1      43.773  24.781  24.757  1.00  0.00    -0.206 F 
ATOM     70  C   UNL A   1      44.593  22.741  23.988  1.00  0.00     0.040 A 
ATOM     71  C   UNL A   1      44.125  20.709  25.158  1.00  0.00     0.040 A 
ATOM     72  F   UNL A   1      42.746  20.718  27.031  1.00  0.00    -0.206 F 
ATOM     73  C   UNL A   1      44.780  21.370  24.131  1.00  0.00     0.006 A 
ENDBRANCH  52  66
BRANCH  53  74
ATOM     74  C   UNL A   1      44.206  28.997  34.465  1.00  0.00     0.057 A 
ATOM     75  C   UNL A   1      45.414  29.754  34.563  1.00  0.00     0.134 A 
ATOM     76  C   UNL A   1      43.628  28.702  35.700  1.00  0.00     0.134 A 
ATOM     77  F   UNL A   1      46.031  30.251  33.482  1.00  0.00    -0.206 F 
ATOM     78  C   UNL A   1      46.080  30.022  35.762  1.00  0.00     0.040 A 
ATOM     79  C   UNL A   1      44.260  29.023  36.922  1.00  0.00     0.040 A 
ATOM     80  F   UNL A   1      42.448  28.080  35.784  1.00  0.00    -0.206 F 
ATOM     81  C   UNL A   1      45.510  29.635  36.956  1.00  0.00     0.006 A 
ENDBRANCH  53  74
BRANCH  65  82
ATOM     82  C   UNL A   1      45.750  27.203  28.899  1.00  0.00     0.057 A 
ATOM     83  C   UNL A   1      44.662  27.854  28.298  1.00  0.00     0.134 A 
ATOM     84  C   UNL A   1      47.006  27.779  28.655  1.00  0.00     0.134 A 
ATOM     85  F   UNL A   1      43.420  27.398  28.453  1.00  0.00    -0.206 F 
ATOM     86  C   UNL A   1      44.802  29.008  27.514  1.00  0.00     0.040 A 
ATOM     87  C   UNL A   1      47.164  28.936  27.878  1.00  0.00     0.040 A 
ATOM     88  F   UNL A   1      48.112  27.228  29.177  1.00  0.00    -0.206 F 
ATOM     89  C   UNL A   1      46.058  29.558  27.307  1.00  0.00     0.006 A 
ENDBRANCH  65  82
ENDBRANCH  39  40
ENDBRANCH  31  34
ENDBRANCH  29  30
ENDBRANCH  28  29
ENDBRANCH  27  28
ENDBRANCH  26  27
ENDBRANCH   1  26
TORSDOF 17
ENDMDL
