MODEL 1
REMARK VINA RESULT:     -12.1      0.000      0.000
REMARK SMILES C[C@H]1OCC[C@@H]1C(=O)Nc1sc2c(c1C(=O)NCCCCCCNC(=O)c1ccc(-c3c4nc(c(-c5c(F)cccc5F)c5ccc([nH]5)c(-c5c(F)cccc5F)c5nc(c(-c6c(F)cccc6F)c6ccc3[nH]6)C=C5)C=C4)cc1)CCC2
REMARK SMILES IDX 20 1 19 2 18 3 17 4 15 5 16 6 14 8 10 9 11 10 12 11 13 12
REMARK SMILES IDX 83 13 81 14 82 15 9 16 7 17 8 18 6 20 1 21 2 22 3 23 4 24
REMARK SMILES IDX 5 25 21 26 22 27 23 28 24 29 25 30 26 32 27 33 28 34 80 35
REMARK SMILES IDX 29 36 79 37 30 38 31 39 32 40 73 41 33 42 78 43 72 44 74 45
REMARK SMILES IDX 34 46 77 47 71 48 70 49 35 51 61 52 44 53 60 54 45 55 48 56
REMARK SMILES IDX 59 57 75 58 46 59 47 60 58 62 76 63 49 64 36 65 37 66 42 67
REMARK SMILES IDX 38 68 39 69 41 70 43 71 40 72 62 73 63 74 68 75 64 76 65 77
REMARK SMILES IDX 67 78 69 79 66 80 50 81 51 82 56 83 52 84 53 85 55 86 57 87
REMARK SMILES IDX 54 88
REMARK H PARENT 17 7 9 19 24 31 74 50 48 61
REMARK Flexibility Score: inf
ROOT
ATOM      1  C   UNL A   1      39.240  21.816  26.068  1.00  0.00     0.002 C 
ENDROOT
BRANCH   1   2
ATOM      2  C   UNL A   1      38.917  23.239  26.543  1.00  0.00     0.021 C 
BRANCH   2   3
ATOM      3  C   UNL A   1      37.739  23.877  25.813  1.00  0.00     0.116 C 
BRANCH   3   4
ATOM      4  N   UNL A   1      37.437  23.285  24.540  1.00  0.00    -0.352 N 
ATOM      5  C   UNL A   1      36.274  23.114  23.837  1.00  0.00     0.254 C 
ATOM      6  O   UNL A   1      36.453  22.975  22.622  1.00  0.00    -0.269 OA
ATOM      7  H   UNL A   1      38.229  22.930  24.077  1.00  0.00     0.163 HD
BRANCH   5   8
ATOM      8  C   UNL A   1      34.915  23.073  24.402  1.00  0.00     0.078 A 
ATOM      9  C   UNL A   1      33.878  23.753  23.744  1.00  0.00     0.108 A 
ATOM     10  S   UNL A   1      32.535  24.114  24.747  1.00  0.00    -0.122 S 
ATOM     11  C   UNL A   1      33.130  23.088  25.909  1.00  0.00     0.011 A 
ATOM     12  C   UNL A   1      34.362  22.547  25.628  1.00  0.00    -0.019 A 
ATOM     13  C   UNL A   1      32.565  22.732  27.231  1.00  0.00     0.047 C 
ATOM     14  C   UNL A   1      34.764  21.691  26.783  1.00  0.00     0.038 C 
ATOM     15  C   UNL A   1      33.454  21.527  27.606  1.00  0.00     0.010 C 
BRANCH   9  16
ATOM     16  N   UNL A   1      33.745  24.365  22.522  1.00  0.00    -0.317 N 
ATOM     17  C   UNL A   1      33.281  25.596  22.183  1.00  0.00     0.230 C 
ATOM     18  O   UNL A   1      33.244  25.850  20.969  1.00  0.00    -0.274 OA
ATOM     19  H   UNL A   1      34.037  23.817  21.758  1.00  0.00     0.170 HD
BRANCH  17  20
ATOM     20  C   UNL A   1      32.939  26.727  23.150  1.00  0.00     0.110 C 
ATOM     21  C   UNL A   1      30.715  27.601  23.978  1.00  0.00     0.039 C 
ATOM     22  C   UNL A   1      31.684  27.512  22.798  1.00  0.00     0.127 C 
ATOM     23  O   UNL A   1      32.114  28.839  22.464  1.00  0.00    -0.378 OA
ATOM     24  C   UNL A   1      33.346  29.086  23.141  1.00  0.00     0.161 C 
ATOM     25  C   UNL A   1      34.011  27.756  23.403  1.00  0.00     0.044 C 
ENDBRANCH  17  20
ENDBRANCH   9  16
ENDBRANCH   5   8
ENDBRANCH   3   4
ENDBRANCH   2   3
ENDBRANCH   1   2
BRANCH   1  26
ATOM     26  C   UNL A   1      40.367  21.113  26.844  1.00  0.00     0.002 C 
BRANCH  26  27
ATOM     27  C   UNL A   1      41.023  19.918  26.130  1.00  0.00     0.021 C 
BRANCH  27  28
ATOM     28  C   UNL A   1      42.377  19.542  26.710  1.00  0.00     0.116 C 
BRANCH  28  29
ATOM     29  N   UNL A   1      43.390  19.466  25.668  1.00  0.00    -0.352 N 
ATOM     30  C   UNL A   1      43.996  20.484  24.970  1.00  0.00     0.251 C 
ATOM     31  H   UNL A   1      43.683  18.557  25.429  1.00  0.00     0.163 HD
ATOM     32  O   UNL A   1      44.548  20.260  23.905  1.00  0.00    -0.269 OA
BRANCH  30  33
ATOM     33  C   UNL A   1      43.965  21.852  25.515  1.00  0.00     0.039 A 
ATOM     34  C   UNL A   1      43.050  22.776  25.000  1.00  0.00     0.014 A 
ATOM     35  C   UNL A   1      44.864  22.220  26.516  1.00  0.00     0.014 A 
ATOM     36  C   UNL A   1      42.996  24.052  25.548  1.00  0.00     0.010 A 
ATOM     37  C   UNL A   1      44.747  23.452  27.123  1.00  0.00     0.010 A 
ATOM     38  C   UNL A   1      43.834  24.379  26.624  1.00  0.00    -0.014 A 
BRANCH  38  39
ATOM     39  C   UNL A   1      43.645  25.643  27.329  1.00  0.00     0.031 A 
ATOM     40  C   UNL A   1      44.630  26.706  26.978  1.00  0.00     0.074 A 
ATOM     41  C   UNL A   1      42.550  25.923  28.066  1.00  0.00     0.049 A 
ATOM     42  N   UNL A   1      45.464  27.300  27.765  1.00  0.00    -0.248 NA
ATOM     43  C   UNL A   1      44.786  27.075  25.561  1.00  0.00     0.031 C 
ATOM     44  C   UNL A   1      41.362  25.089  28.268  1.00  0.00     0.029 A 
ATOM     45  N   UNL A   1      42.216  27.082  28.699  1.00  0.00    -0.354 N 
ATOM     46  C   UNL A   1      46.123  28.253  26.991  1.00  0.00     0.074 A 
ATOM     47  C   UNL A   1      45.785  27.958  25.623  1.00  0.00     0.031 C 
ATOM     48  C   UNL A   1      40.361  25.847  28.765  1.00  0.00     0.029 A 
ATOM     49  C   UNL A   1      40.874  27.176  29.050  1.00  0.00     0.049 A 
ATOM     50  H   UNL A   1      42.870  27.792  28.893  1.00  0.00     0.167 HD
ATOM     51  C   UNL A   1      46.710  29.341  27.563  1.00  0.00     0.037 A 
ATOM     52  C   UNL A   1      40.224  28.277  29.504  1.00  0.00     0.037 A 
ATOM     53  C   UNL A   1      46.899  29.141  28.978  1.00  0.00     0.049 A 
ATOM     54  C   UNL A   1      41.254  29.211  30.023  1.00  0.00     0.074 A 
ATOM     55  C   UNL A   1      47.562  28.204  29.748  1.00  0.00     0.029 A 
ATOM     56  N   UNL A   1      46.042  29.785  29.836  1.00  0.00    -0.354 N 
ATOM     57  N   UNL A   1      41.945  28.997  31.107  1.00  0.00    -0.248 NA
ATOM     58  C   UNL A   1      41.824  30.183  29.102  1.00  0.00     0.031 C 
ATOM     59  C   UNL A   1      46.722  27.998  30.880  1.00  0.00     0.029 A 
ATOM     60  C   UNL A   1      45.638  28.869  30.770  1.00  0.00     0.049 A 
ATOM     61  H   UNL A   1      45.769  30.730  29.788  1.00  0.00     0.167 HD
ATOM     62  C   UNL A   1      43.222  29.438  30.796  1.00  0.00     0.074 A 
ATOM     63  C   UNL A   1      43.063  30.259  29.598  1.00  0.00     0.031 C 
ATOM     64  C   UNL A   1      44.321  28.855  31.360  1.00  0.00     0.037 A 
BRANCH  51  65
ATOM     65  C   UNL A   1      46.762  30.721  26.944  1.00  0.00     0.057 A 
ATOM     66  C   UNL A   1      47.977  31.434  26.971  1.00  0.00     0.134 A 
ATOM     67  C   UNL A   1      45.629  31.493  26.618  1.00  0.00     0.134 A 
ATOM     68  F   UNL A   1      49.133  30.817  27.260  1.00  0.00    -0.206 F 
ATOM     69  C   UNL A   1      48.041  32.822  26.802  1.00  0.00     0.040 A 
ATOM     70  C   UNL A   1      45.690  32.873  26.396  1.00  0.00     0.040 A 
ATOM     71  F   UNL A   1      44.391  30.987  26.593  1.00  0.00    -0.206 F 
ATOM     72  C   UNL A   1      46.891  33.549  26.529  1.00  0.00     0.006 A 
ENDBRANCH  51  65
BRANCH  52  73
ATOM     73  C   UNL A   1      38.806  28.677  29.341  1.00  0.00     0.057 A 
ATOM     74  C   UNL A   1      37.940  28.729  30.445  1.00  0.00     0.134 A 
ATOM     75  C   UNL A   1      38.328  29.273  28.161  1.00  0.00     0.134 A 
ATOM     76  F   UNL A   1      38.309  28.219  31.628  1.00  0.00    -0.206 F 
ATOM     77  C   UNL A   1      36.694  29.371  30.390  1.00  0.00     0.040 A 
ATOM     78  C   UNL A   1      37.081  29.905  28.089  1.00  0.00     0.040 A 
ATOM     79  F   UNL A   1      39.087  29.344  27.059  1.00  0.00    -0.206 F 
ATOM     80  C   UNL A   1      36.267  29.972  29.211  1.00  0.00     0.006 A 
ENDBRANCH  52  73
BRANCH  64  81
ATOM     81  C   UNL A   1      44.113  27.924  32.521  1.00  0.00     0.057 A 
ATOM     82  C   UNL A   1      43.927  26.539  32.397  1.00  0.00     0.134 A 
ATOM     83  C   UNL A   1      44.266  28.427  33.817  1.00  0.00     0.134 A 
ATOM     84  F   UNL A   1      43.872  25.948  31.197  1.00  0.00    -0.206 F 
ATOM     85  C   UNL A   1      43.855  25.702  33.514  1.00  0.00     0.040 A 
ATOM     86  C   UNL A   1      44.231  27.597  34.939  1.00  0.00     0.040 A 
ATOM     87  F   UNL A   1      44.504  29.735  34.011  1.00  0.00    -0.206 F 
ATOM     88  C   UNL A   1      44.014  26.230  34.790  1.00  0.00     0.006 A 
ENDBRANCH  64  81
ENDBRANCH  38  39
ENDBRANCH  30  33
ENDBRANCH  28  29
ENDBRANCH  27  28
ENDBRANCH  26  27
ENDBRANCH   1  26
TORSDOF 15
ENDMDL
MODEL 2
REMARK VINA RESULT:     -11.9      1.373      2.847
REMARK SMILES C[C@H]1OCC[C@@H]1C(=O)Nc1sc2c(c1C(=O)NCCCCCCNC(=O)c1ccc(-c3c4nc(c(-c5c(F)cccc5F)c5ccc([nH]5)c(-c5c(F)cccc5F)c5nc(c(-c6c(F)cccc6F)c6ccc3[nH]6)C=C5)C=C4)cc1)CCC2
REMARK SMILES IDX 20 1 19 2 18 3 17 4 15 5 16 6 14 8 10 9 11 10 12 11 13 12
REMARK SMILES IDX 83 13 81 14 82 15 9 16 7 17 8 18 6 20 1 21 2 22 3 23 4 24
REMARK SMILES IDX 5 25 21 26 22 27 23 28 24 29 25 30 26 32 27 33 28 34 80 35
REMARK SMILES IDX 29 36 79 37 30 38 31 39 32 40 73 41 33 42 78 43 72 44 74 45
REMARK SMILES IDX 34 46 77 47 71 48 70 49 35 51 61 52 44 53 60 54 45 55 48 56
REMARK SMILES IDX 59 57 75 58 46 59 47 60 58 62 76 63 49 64 36 65 37 66 42 67
REMARK SMILES IDX 38 68 39 69 41 70 43 71 40 72 62 73 63 74 68 75 64 76 65 77
REMARK SMILES IDX 67 78 69 79 66 80 50 81 51 82 56 83 52 84 53 85 55 86 57 87
REMARK SMILES IDX 54 88
REMARK H PARENT 17 7 9 19 24 31 74 50 48 61
REMARK Flexibility Score: inf
ROOT
ATOM      1  C   UNL A   1      38.939  21.950  26.222  1.00  0.00     0.002 C 
ENDROOT
BRANCH   1   2
ATOM      2  C   UNL A   1      38.787  23.476  26.165  1.00  0.00     0.021 C 
BRANCH   2   3
ATOM      3  C   UNL A   1      37.337  23.946  26.102  1.00  0.00     0.116 C 
BRANCH   3   4
ATOM      4  N   UNL A   1      36.630  23.537  24.921  1.00  0.00    -0.352 N 
ATOM      5  C   UNL A   1      35.511  24.007  24.287  1.00  0.00     0.254 C 
ATOM      6  O   UNL A   1      35.459  23.698  23.091  1.00  0.00    -0.269 OA
ATOM      7  H   UNL A   1      37.033  22.758  24.475  1.00  0.00     0.163 HD
BRANCH   5   8
ATOM      8  C   UNL A   1      34.429  24.794  24.902  1.00  0.00     0.078 A 
ATOM      9  C   UNL A   1      33.716  24.254  25.984  1.00  0.00     0.108 A 
ATOM     10  S   UNL A   1      32.175  24.965  26.227  1.00  0.00    -0.122 S 
ATOM     11  C   UNL A   1      32.579  26.192  25.185  1.00  0.00     0.011 A 
ATOM     12  C   UNL A   1      33.799  26.050  24.568  1.00  0.00    -0.019 A 
ATOM     13  C   UNL A   1      31.788  27.373  24.768  1.00  0.00     0.047 C 
ATOM     14  C   UNL A   1      33.984  27.207  23.643  1.00  0.00     0.038 C 
ATOM     15  C   UNL A   1      32.878  28.213  24.068  1.00  0.00     0.010 C 
BRANCH   9  16
ATOM     16  N   UNL A   1      33.876  23.159  26.798  1.00  0.00    -0.317 N 
ATOM     17  C   UNL A   1      33.821  21.829  26.529  1.00  0.00     0.230 C 
ATOM     18  O   UNL A   1      33.968  21.070  27.501  1.00  0.00    -0.274 OA
ATOM     19  H   UNL A   1      34.063  23.377  27.740  1.00  0.00     0.170 HD
BRANCH  17  20
ATOM     20  C   UNL A   1      33.738  21.192  25.145  1.00  0.00     0.110 C 
ATOM     21  C   UNL A   1      32.165  21.607  23.208  1.00  0.00     0.039 C 
ATOM     22  C   UNL A   1      32.326  21.012  24.607  1.00  0.00     0.127 C 
ATOM     23  O   UNL A   1      32.097  19.598  24.527  1.00  0.00    -0.378 OA
ATOM     24  C   UNL A   1      33.363  18.956  24.377  1.00  0.00     0.161 C 
ATOM     25  C   UNL A   1      34.419  19.860  24.964  1.00  0.00     0.044 C 
ENDBRANCH  17  20
ENDBRANCH   9  16
ENDBRANCH   5   8
ENDBRANCH   3   4
ENDBRANCH   2   3
ENDBRANCH   1   2
BRANCH   1  26
ATOM     26  C   UNL A   1      40.251  21.451  26.852  1.00  0.00     0.002 C 
BRANCH  26  27
ATOM     27  C   UNL A   1      40.885  20.219  26.184  1.00  0.00     0.021 C 
BRANCH  27  28
ATOM     28  C   UNL A   1      42.176  19.772  26.851  1.00  0.00     0.116 C 
BRANCH  28  29
ATOM     29  N   UNL A   1      43.253  19.653  25.879  1.00  0.00    -0.352 N 
ATOM     30  C   UNL A   1      43.922  20.643  25.199  1.00  0.00     0.251 C 
ATOM     31  H   UNL A   1      43.544  18.733  25.682  1.00  0.00     0.163 HD
ATOM     32  O   UNL A   1      44.538  20.383  24.178  1.00  0.00    -0.269 OA
BRANCH  30  33
ATOM     33  C   UNL A   1      43.880  22.025  25.708  1.00  0.00     0.039 A 
ATOM     34  C   UNL A   1      43.025  22.952  25.107  1.00  0.00     0.014 A 
ATOM     35  C   UNL A   1      44.713  22.400  26.763  1.00  0.00     0.014 A 
ATOM     36  C   UNL A   1      42.958  24.243  25.619  1.00  0.00     0.010 A 
ATOM     37  C   UNL A   1      44.578  23.648  27.330  1.00  0.00     0.010 A 
ATOM     38  C   UNL A   1      43.723  24.580  26.745  1.00  0.00    -0.014 A 
BRANCH  38  39
ATOM     39  C   UNL A   1      43.512  25.865  27.404  1.00  0.00     0.031 A 
ATOM     40  C   UNL A   1      44.493  26.925  27.036  1.00  0.00     0.074 A 
ATOM     41  C   UNL A   1      42.401  26.159  28.113  1.00  0.00     0.049 A 
ATOM     42  N   UNL A   1      45.308  27.552  27.818  1.00  0.00    -0.248 NA
ATOM     43  C   UNL A   1      44.672  27.249  25.611  1.00  0.00     0.031 C 
ATOM     44  C   UNL A   1      41.217  25.321  28.321  1.00  0.00     0.029 A 
ATOM     45  N   UNL A   1      42.045  27.335  28.701  1.00  0.00    -0.354 N 
ATOM     46  C   UNL A   1      45.972  28.485  27.024  1.00  0.00     0.074 A 
ATOM     47  C   UNL A   1      45.661  28.143  25.661  1.00  0.00     0.031 C 
ATOM     48  C   UNL A   1      40.201  26.085  28.775  1.00  0.00     0.029 A 
ATOM     49  C   UNL A   1      40.697  27.428  29.025  1.00  0.00     0.049 A 
ATOM     50  H   UNL A   1      42.690  28.057  28.883  1.00  0.00     0.167 HD
ATOM     51  C   UNL A   1      46.540  29.596  27.570  1.00  0.00     0.037 A 
ATOM     52  C   UNL A   1      40.030  28.537  29.431  1.00  0.00     0.037 A 
ATOM     53  C   UNL A   1      46.705  29.444  28.995  1.00  0.00     0.049 A 
ATOM     54  C   UNL A   1      41.041  29.497  29.938  1.00  0.00     0.074 A 
ATOM     55  C   UNL A   1      47.362  28.539  29.807  1.00  0.00     0.029 A 
ATOM     56  N   UNL A   1      45.827  30.108  29.816  1.00  0.00    -0.354 N 
ATOM     57  N   UNL A   1      41.715  29.325  31.039  1.00  0.00    -0.248 NA
ATOM     58  C   UNL A   1      41.620  30.443  28.995  1.00  0.00     0.031 C 
ATOM     59  C   UNL A   1      46.504  28.363  30.930  1.00  0.00     0.029 A 
ATOM     60  C   UNL A   1      45.414  29.220  30.772  1.00  0.00     0.049 A 
ATOM     61  H   UNL A   1      45.547  31.049  29.732  1.00  0.00     0.167 HD
ATOM     62  C   UNL A   1      42.994  29.767  30.737  1.00  0.00     0.074 A 
ATOM     63  C   UNL A   1      42.849  30.547  29.510  1.00  0.00     0.031 C 
ATOM     64  C   UNL A   1      44.088  29.214  31.339  1.00  0.00     0.037 A 
BRANCH  51  65
ATOM     65  C   UNL A   1      46.591  30.955  26.907  1.00  0.00     0.057 A 
ATOM     66  C   UNL A   1      47.807  31.668  26.907  1.00  0.00     0.134 A 
ATOM     67  C   UNL A   1      45.458  31.718  26.561  1.00  0.00     0.134 A 
ATOM     68  F   UNL A   1      48.963  31.059  27.211  1.00  0.00    -0.206 F 
ATOM     69  C   UNL A   1      47.871  33.050  26.694  1.00  0.00     0.040 A 
ATOM     70  C   UNL A   1      45.519  33.090  26.295  1.00  0.00     0.040 A 
ATOM     71  F   UNL A   1      44.219  31.213  26.557  1.00  0.00    -0.206 F 
ATOM     72  C   UNL A   1      46.722  33.769  26.402  1.00  0.00     0.006 A 
ENDBRANCH  51  65
BRANCH  52  73
ATOM     73  C   UNL A   1      38.611  28.918  29.230  1.00  0.00     0.057 A 
ATOM     74  C   UNL A   1      37.716  28.962  30.311  1.00  0.00     0.134 A 
ATOM     75  C   UNL A   1      38.157  29.506  28.037  1.00  0.00     0.134 A 
ATOM     76  F   UNL A   1      38.060  28.458  31.505  1.00  0.00    -0.206 F 
ATOM     77  C   UNL A   1      36.463  29.587  30.222  1.00  0.00     0.040 A 
ATOM     78  C   UNL A   1      36.904  30.122  27.930  1.00  0.00     0.040 A 
ATOM     79  F   UNL A   1      38.943  29.585  26.955  1.00  0.00    -0.206 F 
ATOM     80  C   UNL A   1      36.060  30.180  29.031  1.00  0.00     0.006 A 
ENDBRANCH  52  73
BRANCH  64  81
ATOM     81  C   UNL A   1      43.867  28.319  32.526  1.00  0.00     0.057 A 
ATOM     82  C   UNL A   1      43.710  26.926  32.446  1.00  0.00     0.134 A 
ATOM     83  C   UNL A   1      43.975  28.869  33.807  1.00  0.00     0.134 A 
ATOM     84  F   UNL A   1      43.699  26.294  31.267  1.00  0.00    -0.206 F 
ATOM     85  C   UNL A   1      43.625  26.128  33.589  1.00  0.00     0.040 A 
ATOM     86  C   UNL A   1      43.926  28.078  34.956  1.00  0.00     0.040 A 
ATOM     87  F   UNL A   1      44.183  30.187  33.961  1.00  0.00    -0.206 F 
ATOM     88  C   UNL A   1      43.740  26.702  34.850  1.00  0.00     0.006 A 
ENDBRANCH  64  81
ENDBRANCH  38  39
ENDBRANCH  30  33
ENDBRANCH  28  29
ENDBRANCH  27  28
ENDBRANCH  26  27
ENDBRANCH   1  26
TORSDOF 15
ENDMDL
MODEL 3
REMARK VINA RESULT:     -11.6      3.642      9.056
REMARK SMILES C[C@H]1OCC[C@@H]1C(=O)Nc1sc2c(c1C(=O)NCCCCCCNC(=O)c1ccc(-c3c4nc(c(-c5c(F)cccc5F)c5ccc([nH]5)c(-c5c(F)cccc5F)c5nc(c(-c6c(F)cccc6F)c6ccc3[nH]6)C=C5)C=C4)cc1)CCC2
REMARK SMILES IDX 20 1 19 2 18 3 17 4 15 5 16 6 14 8 10 9 11 10 12 11 13 12
REMARK SMILES IDX 83 13 81 14 82 15 9 16 7 17 8 18 6 20 1 21 2 22 3 23 4 24
REMARK SMILES IDX 5 25 21 26 22 27 23 28 24 29 25 30 26 32 27 33 28 34 80 35
REMARK SMILES IDX 29 36 79 37 30 38 31 39 32 40 73 41 33 42 78 43 72 44 74 45
REMARK SMILES IDX 34 46 77 47 71 48 70 49 35 51 61 52 44 53 60 54 45 55 48 56
REMARK SMILES IDX 59 57 75 58 46 59 47 60 58 62 76 63 49 64 36 65 37 66 42 67
REMARK SMILES IDX 38 68 39 69 41 70 43 71 40 72 62 73 63 74 68 75 64 76 65 77
REMARK SMILES IDX 67 78 69 79 66 80 50 81 51 82 56 83 52 84 53 85 55 86 57 87
REMARK SMILES IDX 54 88
REMARK H PARENT 17 7 9 19 24 31 74 50 48 61
REMARK Flexibility Score: inf
ROOT
ATOM      1  C   UNL A   1      34.543  31.830  28.306  1.00  0.00     0.002 C 
ENDROOT
BRANCH   1   2
ATOM      2  C   UNL A   1      34.771  30.715  27.277  1.00  0.00     0.021 C 
BRANCH   2   3
ATOM      3  C   UNL A   1      33.570  29.791  27.097  1.00  0.00     0.116 C 
BRANCH   3   4
ATOM      4  N   UNL A   1      33.902  28.400  26.977  1.00  0.00    -0.352 N 
ATOM      5  C   UNL A   1      33.376  27.369  26.244  1.00  0.00     0.254 C 
ATOM      6  O   UNL A   1      34.174  26.444  26.057  1.00  0.00    -0.269 OA
ATOM      7  H   UNL A   1      34.666  28.130  27.536  1.00  0.00     0.163 HD
BRANCH   5   8
ATOM      8  C   UNL A   1      32.005  27.292  25.711  1.00  0.00     0.078 A 
ATOM      9  C   UNL A   1      31.211  26.177  26.021  1.00  0.00     0.108 A 
ATOM     10  S   UNL A   1      29.917  25.918  24.926  1.00  0.00    -0.122 S 
ATOM     11  C   UNL A   1      30.163  27.428  24.282  1.00  0.00     0.011 A 
ATOM     12  C   UNL A   1      31.251  28.101  24.783  1.00  0.00    -0.019 A 
ATOM     13  C   UNL A   1      29.430  28.121  23.197  1.00  0.00     0.047 C 
ATOM     14  C   UNL A   1      31.351  29.410  24.072  1.00  0.00     0.038 C 
ATOM     15  C   UNL A   1      29.980  29.555  23.352  1.00  0.00     0.010 C 
BRANCH   9  16
ATOM     16  N   UNL A   1      31.320  25.124  26.896  1.00  0.00    -0.317 N 
ATOM     17  C   UNL A   1      31.832  23.876  26.734  1.00  0.00     0.230 C 
ATOM     18  O   UNL A   1      31.748  23.120  27.716  1.00  0.00    -0.274 OA
ATOM     19  H   UNL A   1      30.966  25.304  27.796  1.00  0.00     0.170 HD
BRANCH  17  20
ATOM     20  C   UNL A   1      32.613  23.372  25.522  1.00  0.00     0.110 C 
ATOM     21  C   UNL A   1      31.880  22.864  23.156  1.00  0.00     0.039 C 
ATOM     22  C   UNL A   1      31.847  22.418  24.618  1.00  0.00     0.127 C 
ATOM     23  O   UNL A   1      32.503  21.147  24.719  1.00  0.00    -0.378 OA
ATOM     24  C   UNL A   1      33.865  21.381  25.077  1.00  0.00     0.161 C 
ATOM     25  C   UNL A   1      33.938  22.708  25.794  1.00  0.00     0.044 C 
ENDBRANCH  17  20
ENDBRANCH   9  16
ENDBRANCH   5   8
ENDBRANCH   3   4
ENDBRANCH   2   3
ENDBRANCH   1   2
BRANCH   1  26
ATOM     26  C   UNL A   1      35.335  33.123  28.047  1.00  0.00     0.002 C 
BRANCH  26  27
ATOM     27  C   UNL A   1      34.691  34.416  28.578  1.00  0.00     0.021 C 
BRANCH  27  28
ATOM     28  C   UNL A   1      33.347  34.187  29.248  1.00  0.00     0.116 C 
BRANCH  28  29
ATOM     29  N   UNL A   1      33.222  34.985  30.458  1.00  0.00    -0.352 N 
ATOM     30  C   UNL A   1      33.844  34.821  31.674  1.00  0.00     0.251 C 
ATOM     31  H   UNL A   1      32.607  35.751  30.398  1.00  0.00     0.163 HD
ATOM     32  O   UNL A   1      33.382  35.339  32.679  1.00  0.00    -0.269 OA
BRANCH  30  33
ATOM     33  C   UNL A   1      35.067  34.006  31.757  1.00  0.00     0.039 A 
ATOM     34  C   UNL A   1      34.963  32.612  31.795  1.00  0.00     0.014 A 
ATOM     35  C   UNL A   1      36.313  34.630  31.823  1.00  0.00     0.014 A 
ATOM     36  C   UNL A   1      36.123  31.847  31.829  1.00  0.00     0.010 A 
ATOM     37  C   UNL A   1      37.463  33.873  31.761  1.00  0.00     0.010 A 
ATOM     38  C   UNL A   1      37.372  32.483  31.792  1.00  0.00    -0.014 A 
BRANCH  38  39
ATOM     39  C   UNL A   1      38.584  31.686  31.628  1.00  0.00     0.031 A 
ATOM     40  C   UNL A   1      39.303  31.375  32.896  1.00  0.00     0.074 A 
ATOM     41  C   UNL A   1      38.922  31.082  30.469  1.00  0.00     0.049 A 
ATOM     42  N   UNL A   1      40.509  31.702  33.221  1.00  0.00    -0.248 NA
ATOM     43  C   UNL A   1      38.554  30.718  33.981  1.00  0.00     0.031 C 
ATOM     44  C   UNL A   1      38.167  31.056  29.213  1.00  0.00     0.029 A 
ATOM     45  N   UNL A   1      39.970  30.252  30.208  1.00  0.00    -0.354 N 
ATOM     46  C   UNL A   1      40.746  31.135  34.471  1.00  0.00     0.074 A 
ATOM     47  C   UNL A   1      39.467  30.686  34.954  1.00  0.00     0.031 C 
ATOM     48  C   UNL A   1      38.651  30.077  28.419  1.00  0.00     0.029 A 
ATOM     49  C   UNL A   1      39.833  29.507  29.043  1.00  0.00     0.049 A 
ATOM     50  H   UNL A   1      40.758  30.187  30.795  1.00  0.00     0.167 HD
ATOM     51  C   UNL A   1      42.014  30.882  34.901  1.00  0.00     0.037 A 
ATOM     52  C   UNL A   1      40.611  28.471  28.641  1.00  0.00     0.037 A 
ATOM     53  C   UNL A   1      42.978  31.619  34.123  1.00  0.00     0.049 A 
ATOM     54  C   UNL A   1      41.895  28.574  29.377  1.00  0.00     0.074 A 
ATOM     55  C   UNL A   1      43.189  32.958  33.850  1.00  0.00     0.029 A 
ATOM     56  N   UNL A   1      43.703  30.931  33.181  1.00  0.00    -0.354 N 
ATOM     57  N   UNL A   1      42.779  29.508  29.164  1.00  0.00    -0.248 NA
ATOM     58  C   UNL A   1      42.007  27.891  30.657  1.00  0.00     0.031 C 
ATOM     59  C   UNL A   1      43.602  32.993  32.486  1.00  0.00     0.029 A 
ATOM     60  C   UNL A   1      43.688  31.676  32.033  1.00  0.00     0.049 A 
ATOM     61  H   UNL A   1      44.150  30.063  33.308  1.00  0.00     0.167 HD
ATOM     62  C   UNL A   1      43.247  29.838  30.426  1.00  0.00     0.074 A 
ATOM     63  C   UNL A   1      42.825  28.738  31.290  1.00  0.00     0.031 C 
ATOM     64  C   UNL A   1      43.668  31.106  30.708  1.00  0.00     0.037 A 
BRANCH  51  65
ATOM     65  C   UNL A   1      42.419  29.695  35.747  1.00  0.00     0.057 A 
ATOM     66  C   UNL A   1      43.390  29.876  36.752  1.00  0.00     0.134 A 
ATOM     67  C   UNL A   1      42.148  28.351  35.421  1.00  0.00     0.134 A 
ATOM     68  F   UNL A   1      43.737  31.105  37.163  1.00  0.00    -0.206 F 
ATOM     69  C   UNL A   1      44.113  28.811  37.303  1.00  0.00     0.040 A 
ATOM     70  C   UNL A   1      42.828  27.276  36.003  1.00  0.00     0.040 A 
ATOM     71  F   UNL A   1      41.289  28.000  34.457  1.00  0.00    -0.206 F 
ATOM     72  C   UNL A   1      43.843  27.506  36.917  1.00  0.00     0.006 A 
ENDBRANCH  51  65
BRANCH  52  73
ATOM     73  C   UNL A   1      40.263  27.283  27.826  1.00  0.00     0.057 A 
ATOM     74  C   UNL A   1      40.852  27.072  26.569  1.00  0.00     0.134 A 
ATOM     75  C   UNL A   1      39.556  26.191  28.359  1.00  0.00     0.134 A 
ATOM     76  F   UNL A   1      41.575  28.037  25.982  1.00  0.00    -0.206 F 
ATOM     77  C   UNL A   1      40.778  25.840  25.903  1.00  0.00     0.040 A 
ATOM     78  C   UNL A   1      39.463  24.959  27.699  1.00  0.00     0.040 A 
ATOM     79  F   UNL A   1      39.005  26.246  29.579  1.00  0.00    -0.206 F 
ATOM     80  C   UNL A   1      40.092  24.775  26.475  1.00  0.00     0.006 A 
ENDBRANCH  52  73
BRANCH  64  81
ATOM     81  C   UNL A   1      43.873  32.056  29.562  1.00  0.00     0.057 A 
ATOM     82  C   UNL A   1      42.936  33.019  29.158  1.00  0.00     0.134 A 
ATOM     83  C   UNL A   1      45.130  32.102  28.950  1.00  0.00     0.134 A 
ATOM     84  F   UNL A   1      41.743  33.123  29.755  1.00  0.00    -0.206 F 
ATOM     85  C   UNL A   1      43.224  33.955  28.162  1.00  0.00     0.040 A 
ATOM     86  C   UNL A   1      45.442  33.055  27.978  1.00  0.00     0.040 A 
ATOM     87  F   UNL A   1      46.097  31.248  29.325  1.00  0.00    -0.206 F 
ATOM     88  C   UNL A   1      44.484  33.980  27.573  1.00  0.00     0.006 A 
ENDBRANCH  64  81
ENDBRANCH  38  39
ENDBRANCH  30  33
ENDBRANCH  28  29
ENDBRANCH  27  28
ENDBRANCH  26  27
ENDBRANCH   1  26
TORSDOF 15
ENDMDL
