MODEL 1
REMARK VINA RESULT:     -13.2      0.000      0.000
REMARK SMILES Cc1cc(C(=O)NCCCCCCNC(=O)c2ccc(-c3c4nc(c(-c5c(F)cccc5F)c5ccc([nH]5)c(-c5c(F)cccc5F)c5nc(c(-c6c(F)cccc6F)c6ccc3[nH]6)C=C5)C=C4)cc2)ccc1NS(=O)(=O)c1c(F)cccc1F
REMARK SMILES IDX 10 1 9 2 8 3 7 4 5 5 6 6 4 8 1 9 2 10 3 11 73 12 72 13 71 14
REMARK SMILES IDX 74 15 75 17 76 18 77 19 78 20 79 21 84 22 80 23 81 24 83 25
REMARK SMILES IDX 85 26 82 27 11 28 12 29 13 30 14 31 15 32 16 34 17 35 18 36
REMARK SMILES IDX 70 37 19 38 69 39 20 40 21 41 22 42 63 43 23 44 68 45 62 46
REMARK SMILES IDX 64 47 24 48 67 49 61 50 60 51 25 53 51 54 34 55 50 56 35 57
REMARK SMILES IDX 38 58 49 59 65 60 36 61 37 62 48 64 66 65 39 66 26 67 27 68
REMARK SMILES IDX 32 69 28 70 29 71 31 72 33 73 30 74 52 75 53 76 58 77 54 78
REMARK SMILES IDX 55 79 57 80 59 81 56 82 40 83 41 84 46 85 42 86 43 87 45 88
REMARK SMILES IDX 47 89 44 90
REMARK H PARENT 7 7 74 16 14 33 64 52 38 63
REMARK Flexibility Score: inf
ROOT
ATOM      1  C   UNL A   1      32.018  29.735  25.232  1.00  0.00     0.002 C 
ENDROOT
BRANCH   1   2
ATOM      2  C   UNL A   1      33.202  28.996  24.596  1.00  0.00     0.021 C 
BRANCH   2   3
ATOM      3  C   UNL A   1      33.270  28.950  23.068  1.00  0.00     0.116 C 
BRANCH   3   4
ATOM      4  N   UNL A   1      32.065  29.405  22.402  1.00  0.00    -0.352 N 
ATOM      5  C   UNL A   1      30.822  28.824  22.281  1.00  0.00     0.251 C 
ATOM      6  O   UNL A   1      29.960  29.412  21.630  1.00  0.00    -0.269 OA
ATOM      7  H   UNL A   1      32.150  30.281  21.961  1.00  0.00     0.163 HD
BRANCH   5   8
ATOM      8  C   UNL A   1      30.511  27.475  22.834  1.00  0.00     0.040 A 
ATOM      9  C   UNL A   1      32.093  24.031  22.600  1.00  0.00     0.046 C 
ATOM     10  C   UNL A   1      31.253  25.166  23.120  1.00  0.00    -0.026 A 
ATOM     11  C   UNL A   1      31.360  26.417  22.486  1.00  0.00     0.019 A 
ATOM     12  C   UNL A   1      30.341  25.025  24.176  1.00  0.00     0.052 A 
ATOM     13  C   UNL A   1      29.324  25.970  24.314  1.00  0.00     0.028 A 
ATOM     14  C   UNL A   1      29.413  27.200  23.647  1.00  0.00     0.016 A 
BRANCH  12  15
ATOM     15  N   UNL A   1      30.613  24.019  25.153  1.00  0.00    -0.279 N 
ATOM     16  H   UNL A   1      30.175  23.148  25.011  1.00  0.00     0.180 HD
BRANCH  15  17
ATOM     17  S   UNL A   1      31.585  24.139  26.506  1.00  0.00     0.267 S 
ATOM     18  O   UNL A   1      31.554  25.527  26.902  1.00  0.00    -0.201 OA
ATOM     19  O   UNL A   1      31.129  23.087  27.398  1.00  0.00    -0.201 OA
BRANCH  17  20
ATOM     20  C   UNL A   1      33.239  23.742  26.083  1.00  0.00     0.158 A 
ATOM     21  C   UNL A   1      33.678  22.453  26.369  1.00  0.00     0.146 A 
ATOM     22  C   UNL A   1      34.152  24.675  25.616  1.00  0.00     0.146 A 
ATOM     23  F   UNL A   1      32.818  21.491  26.729  1.00  0.00    -0.205 F 
ATOM     24  C   UNL A   1      35.028  22.121  26.284  1.00  0.00     0.041 A 
ATOM     25  C   UNL A   1      35.513  24.362  25.556  1.00  0.00     0.041 A 
ATOM     26  F   UNL A   1      33.776  25.905  25.247  1.00  0.00    -0.205 F 
ATOM     27  C   UNL A   1      35.957  23.088  25.909  1.00  0.00     0.006 A 
ENDBRANCH  17  20
ENDBRANCH  15  17
ENDBRANCH  12  15
ENDBRANCH   5   8
ENDBRANCH   3   4
ENDBRANCH   2   3
ENDBRANCH   1   2
BRANCH   1  28
ATOM     28  C   UNL A   1      32.061  29.986  26.748  1.00  0.00     0.002 C 
BRANCH  28  29
ATOM     29  C   UNL A   1      33.031  31.058  27.247  1.00  0.00     0.021 C 
BRANCH  29  30
ATOM     30  C   UNL A   1      34.445  30.569  27.532  1.00  0.00     0.116 C 
BRANCH  30  31
ATOM     31  N   UNL A   1      35.219  31.432  28.416  1.00  0.00    -0.352 N 
ATOM     32  C   UNL A   1      36.377  31.156  29.124  1.00  0.00     0.251 C 
ATOM     33  H   UNL A   1      34.869  32.346  28.526  1.00  0.00     0.163 HD
ATOM     34  O   UNL A   1      36.867  32.011  29.855  1.00  0.00    -0.269 OA
BRANCH  32  35
ATOM     35  C   UNL A   1      37.105  29.885  28.884  1.00  0.00     0.039 A 
ATOM     36  C   UNL A   1      37.286  29.023  29.973  1.00  0.00     0.014 A 
ATOM     37  C   UNL A   1      37.794  29.661  27.696  1.00  0.00     0.014 A 
ATOM     38  C   UNL A   1      38.360  28.137  29.969  1.00  0.00     0.010 A 
ATOM     39  C   UNL A   1      38.920  28.866  27.728  1.00  0.00     0.010 A 
ATOM     40  C   UNL A   1      39.244  28.169  28.893  1.00  0.00    -0.014 A 
BRANCH  40  41
ATOM     41  C   UNL A   1      40.571  27.572  28.921  1.00  0.00     0.031 A 
ATOM     42  C   UNL A   1      40.746  26.152  28.571  1.00  0.00     0.074 A 
ATOM     43  C   UNL A   1      41.640  28.361  29.163  1.00  0.00     0.049 A 
ATOM     44  N   UNL A   1      41.793  25.455  28.846  1.00  0.00    -0.248 NA
ATOM     45  C   UNL A   1      39.705  25.389  27.893  1.00  0.00     0.031 C 
ATOM     46  C   UNL A   1      43.053  28.040  28.979  1.00  0.00     0.029 A 
ATOM     47  N   UNL A   1      41.650  29.572  29.867  1.00  0.00    -0.354 N 
ATOM     48  C   UNL A   1      41.680  24.246  28.201  1.00  0.00     0.074 A 
ATOM     49  C   UNL A   1      40.345  24.242  27.649  1.00  0.00     0.031 C 
ATOM     50  C   UNL A   1      43.780  28.824  29.792  1.00  0.00     0.029 A 
ATOM     51  C   UNL A   1      42.845  29.561  30.625  1.00  0.00     0.049 A 
ATOM     52  H   UNL A   1      40.969  30.282  29.839  1.00  0.00     0.167 HD
ATOM     53  C   UNL A   1      42.772  23.430  28.129  1.00  0.00     0.037 A 
ATOM     54  C   UNL A   1      42.791  29.506  31.989  1.00  0.00     0.037 A 
ATOM     55  C   UNL A   1      43.881  23.965  28.917  1.00  0.00     0.049 A 
ATOM     56  C   UNL A   1      43.401  28.256  32.590  1.00  0.00     0.074 A 
ATOM     57  C   UNL A   1      44.985  24.752  28.628  1.00  0.00     0.029 A 
ATOM     58  N   UNL A   1      43.764  23.966  30.295  1.00  0.00    -0.354 N 
ATOM     59  N   UNL A   1      43.845  27.244  31.897  1.00  0.00    -0.248 NA
ATOM     60  C   UNL A   1      43.471  28.014  34.034  1.00  0.00     0.031 C 
ATOM     61  C   UNL A   1      45.487  25.277  29.855  1.00  0.00     0.029 A 
ATOM     62  C   UNL A   1      44.699  24.793  30.884  1.00  0.00     0.049 A 
ATOM     63  H   UNL A   1      43.095  23.443  30.793  1.00  0.00     0.167 HD
ATOM     64  C   UNL A   1      44.199  26.232  32.748  1.00  0.00     0.074 A 
ATOM     65  C   UNL A   1      43.952  26.760  34.076  1.00  0.00     0.031 C 
ATOM     66  C   UNL A   1      44.633  25.015  32.318  1.00  0.00     0.037 A 
BRANCH  53  67
ATOM     67  C   UNL A   1      42.904  22.262  27.183  1.00  0.00     0.057 A 
ATOM     68  C   UNL A   1      42.094  21.121  27.342  1.00  0.00     0.134 A 
ATOM     69  C   UNL A   1      43.829  22.171  26.129  1.00  0.00     0.134 A 
ATOM     70  F   UNL A   1      41.101  21.083  28.240  1.00  0.00    -0.206 F 
ATOM     71  C   UNL A   1      42.266  19.951  26.589  1.00  0.00     0.040 A 
ATOM     72  C   UNL A   1      44.053  20.988  25.408  1.00  0.00     0.040 A 
ATOM     73  F   UNL A   1      44.519  23.235  25.702  1.00  0.00    -0.206 F 
ATOM     74  C   UNL A   1      43.275  19.867  25.644  1.00  0.00     0.006 A 
ENDBRANCH  53  67
BRANCH  54  75
ATOM     75  C   UNL A   1      41.610  30.230  32.539  1.00  0.00     0.057 A 
ATOM     76  C   UNL A   1      40.494  29.478  32.954  1.00  0.00     0.134 A 
ATOM     77  C   UNL A   1      41.707  31.539  33.016  1.00  0.00     0.134 A 
ATOM     78  F   UNL A   1      40.336  28.214  32.527  1.00  0.00    -0.206 F 
ATOM     79  C   UNL A   1      39.600  29.955  33.913  1.00  0.00     0.040 A 
ATOM     80  C   UNL A   1      40.798  32.037  33.956  1.00  0.00     0.040 A 
ATOM     81  F   UNL A   1      42.746  32.316  32.679  1.00  0.00    -0.206 F 
ATOM     82  C   UNL A   1      39.773  31.228  34.444  1.00  0.00     0.006 A 
ENDBRANCH  54  75
BRANCH  66  83
ATOM     83  C   UNL A   1      45.033  23.927  33.263  1.00  0.00     0.057 A 
ATOM     84  C   UNL A   1      44.130  22.942  33.679  1.00  0.00     0.134 A 
ATOM     85  C   UNL A   1      46.299  23.908  33.873  1.00  0.00     0.134 A 
ATOM     86  F   UNL A   1      42.884  22.897  33.182  1.00  0.00    -0.206 F 
ATOM     87  C   UNL A   1      44.473  21.977  34.631  1.00  0.00     0.040 A 
ATOM     88  C   UNL A   1      46.640  22.980  34.857  1.00  0.00     0.040 A 
ATOM     89  F   UNL A   1      47.258  24.779  33.520  1.00  0.00    -0.206 F 
ATOM     90  C   UNL A   1      45.726  22.004  35.235  1.00  0.00     0.006 A 
ENDBRANCH  66  83
ENDBRANCH  40  41
ENDBRANCH  32  35
ENDBRANCH  30  31
ENDBRANCH  29  30
ENDBRANCH  28  29
ENDBRANCH   1  28
TORSDOF 16
ENDMDL
MODEL 2
REMARK VINA RESULT:     -13.0      3.858      9.240
REMARK SMILES Cc1cc(C(=O)NCCCCCCNC(=O)c2ccc(-c3c4nc(c(-c5c(F)cccc5F)c5ccc([nH]5)c(-c5c(F)cccc5F)c5nc(c(-c6c(F)cccc6F)c6ccc3[nH]6)C=C5)C=C4)cc2)ccc1NS(=O)(=O)c1c(F)cccc1F
REMARK SMILES IDX 10 1 9 2 8 3 7 4 5 5 6 6 4 8 1 9 2 10 3 11 73 12 72 13 71 14
REMARK SMILES IDX 74 15 75 17 76 18 77 19 78 20 79 21 84 22 80 23 81 24 83 25
REMARK SMILES IDX 85 26 82 27 11 28 12 29 13 30 14 31 15 32 16 34 17 35 18 36
REMARK SMILES IDX 70 37 19 38 69 39 20 40 21 41 22 42 63 43 23 44 68 45 62 46
REMARK SMILES IDX 64 47 24 48 67 49 61 50 60 51 25 53 51 54 34 55 50 56 35 57
REMARK SMILES IDX 38 58 49 59 65 60 36 61 37 62 48 64 66 65 39 66 26 67 27 68
REMARK SMILES IDX 32 69 28 70 29 71 31 72 33 73 30 74 52 75 53 76 58 77 54 78
REMARK SMILES IDX 55 79 57 80 59 81 56 82 40 83 41 84 46 85 42 86 43 87 45 88
REMARK SMILES IDX 47 89 44 90
REMARK H PARENT 7 7 74 16 14 33 64 52 38 63
REMARK Flexibility Score: inf
ROOT
ATOM      1  C   UNL A   1      35.761  22.848  25.699  1.00  0.00     0.002 C 
ENDROOT
BRANCH   1   2
ATOM      2  C   UNL A   1      35.342  21.460  26.200  1.00  0.00     0.021 C 
BRANCH   2   3
ATOM      3  C   UNL A   1      35.332  20.314  25.187  1.00  0.00     0.116 C 
BRANCH   3   4
ATOM      4  N   UNL A   1      34.212  19.403  25.326  1.00  0.00    -0.352 N 
ATOM      5  C   UNL A   1      32.896  19.519  24.936  1.00  0.00     0.251 C 
ATOM      6  O   UNL A   1      32.123  18.599  25.199  1.00  0.00    -0.269 OA
ATOM      7  H   UNL A   1      34.430  18.555  25.776  1.00  0.00     0.163 HD
BRANCH   5   8
ATOM      8  C   UNL A   1      32.359  20.748  24.286  1.00  0.00     0.040 A 
ATOM      9  C   UNL A   1      30.857  24.014  25.511  1.00  0.00     0.046 C 
ATOM     10  C   UNL A   1      31.523  23.021  24.596  1.00  0.00    -0.026 A 
ATOM     11  C   UNL A   1      31.860  21.759  25.116  1.00  0.00     0.019 A 
ATOM     12  C   UNL A   1      31.783  23.281  23.242  1.00  0.00     0.052 A 
ATOM     13  C   UNL A   1      31.999  22.202  22.383  1.00  0.00     0.028 A 
ATOM     14  C   UNL A   1      32.293  20.935  22.906  1.00  0.00     0.016 A 
BRANCH  12  15
ATOM     15  N   UNL A   1      31.986  24.641  22.858  1.00  0.00    -0.279 N 
ATOM     16  H   UNL A   1      31.177  25.198  22.795  1.00  0.00     0.180 HD
BRANCH  15  17
ATOM     17  S   UNL A   1      33.430  25.401  22.503  1.00  0.00     0.267 S 
ATOM     18  O   UNL A   1      34.469  24.428  22.744  1.00  0.00    -0.201 OA
ATOM     19  O   UNL A   1      33.237  25.992  21.190  1.00  0.00    -0.201 OA
BRANCH  17  20
ATOM     20  C   UNL A   1      33.683  26.737  23.609  1.00  0.00     0.158 A 
ATOM     21  C   UNL A   1      33.727  26.440  24.968  1.00  0.00     0.146 A 
ATOM     22  C   UNL A   1      33.701  28.065  23.211  1.00  0.00     0.146 A 
ATOM     23  F   UNL A   1      33.810  25.175  25.399  1.00  0.00    -0.205 F 
ATOM     24  C   UNL A   1      33.691  27.453  25.924  1.00  0.00     0.041 A 
ATOM     25  C   UNL A   1      33.634  29.088  24.160  1.00  0.00     0.041 A 
ATOM     26  F   UNL A   1      33.743  28.412  21.919  1.00  0.00    -0.205 F 
ATOM     27  C   UNL A   1      33.609  28.784  25.521  1.00  0.00     0.006 A 
ENDBRANCH  17  20
ENDBRANCH  15  17
ENDBRANCH  12  15
ENDBRANCH   5   8
ENDBRANCH   3   4
ENDBRANCH   2   3
ENDBRANCH   1   2
BRANCH   1  28
ATOM     28  C   UNL A   1      36.983  22.935  24.770  1.00  0.00     0.002 C 
BRANCH  28  29
ATOM     29  C   UNL A   1      38.254  23.554  25.351  1.00  0.00     0.021 C 
BRANCH  29  30
ATOM     30  C   UNL A   1      38.949  22.720  26.419  1.00  0.00     0.116 C 
BRANCH  30  31
ATOM     31  N   UNL A   1      40.387  22.941  26.522  1.00  0.00    -0.352 N 
ATOM     32  C   UNL A   1      41.085  24.120  26.725  1.00  0.00     0.251 C 
ATOM     33  H   UNL A   1      40.944  22.134  26.436  1.00  0.00     0.163 HD
ATOM     34  O   UNL A   1      42.311  24.111  26.746  1.00  0.00    -0.269 OA
BRANCH  32  35
ATOM     35  C   UNL A   1      40.350  25.364  27.067  1.00  0.00     0.039 A 
ATOM     36  C   UNL A   1      40.631  26.513  26.317  1.00  0.00     0.014 A 
ATOM     37  C   UNL A   1      39.598  25.461  28.233  1.00  0.00     0.014 A 
ATOM     38  C   UNL A   1      40.419  27.766  26.884  1.00  0.00     0.010 A 
ATOM     39  C   UNL A   1      39.485  26.692  28.844  1.00  0.00     0.010 A 
ATOM     40  C   UNL A   1      39.970  27.832  28.200  1.00  0.00    -0.014 A 
BRANCH  40  41
ATOM     41  C   UNL A   1      40.046  29.033  29.019  1.00  0.00     0.031 A 
ATOM     42  C   UNL A   1      38.992  30.057  28.922  1.00  0.00     0.074 A 
ATOM     43  C   UNL A   1      41.029  29.139  29.940  1.00  0.00     0.049 A 
ATOM     44  N   UNL A   1      39.103  31.264  29.356  1.00  0.00    -0.248 NA
ATOM     45  C   UNL A   1      37.712  29.790  28.278  1.00  0.00     0.031 C 
ATOM     46  C   UNL A   1      41.140  30.105  31.029  1.00  0.00     0.029 A 
ATOM     47  N   UNL A   1      42.276  28.502  29.916  1.00  0.00    -0.354 N 
ATOM     48  C   UNL A   1      37.868  31.863  29.269  1.00  0.00     0.074 A 
ATOM     49  C   UNL A   1      37.043  30.912  28.559  1.00  0.00     0.031 C 
ATOM     50  C   UNL A   1      42.435  30.229  31.362  1.00  0.00     0.029 A 
ATOM     51  C   UNL A   1      43.201  29.460  30.397  1.00  0.00     0.049 A 
ATOM     52  H   UNL A   1      42.470  27.581  29.625  1.00  0.00     0.167 HD
ATOM     53  C   UNL A   1      37.666  33.057  29.898  1.00  0.00     0.037 A 
ATOM     54  C   UNL A   1      44.159  29.966  29.565  1.00  0.00     0.037 A 
ATOM     55  C   UNL A   1      38.912  33.572  30.462  1.00  0.00     0.049 A 
ATOM     56  C   UNL A   1      44.044  31.456  29.311  1.00  0.00     0.074 A 
ATOM     57  C   UNL A   1      39.512  33.505  31.710  1.00  0.00     0.029 A 
ATOM     58  N   UNL A   1      39.894  34.006  29.591  1.00  0.00    -0.354 N 
ATOM     59  N   UNL A   1      43.064  32.205  29.738  1.00  0.00    -0.248 NA
ATOM     60  C   UNL A   1      44.987  32.201  28.472  1.00  0.00     0.031 C 
ATOM     61  C   UNL A   1      40.888  33.845  31.557  1.00  0.00     0.029 A 
ATOM     62  C   UNL A   1      41.115  34.135  30.223  1.00  0.00     0.049 A 
ATOM     63  H   UNL A   1      39.741  34.199  28.638  1.00  0.00     0.167 HD
ATOM     64  C   UNL A   1      43.197  33.464  29.219  1.00  0.00     0.074 A 
ATOM     65  C   UNL A   1      44.417  33.417  28.436  1.00  0.00     0.031 C 
ATOM     66  C   UNL A   1      42.286  34.455  29.426  1.00  0.00     0.037 A 
BRANCH  53  67
ATOM     67  C   UNL A   1      36.309  33.653  30.182  1.00  0.00     0.057 A 
ATOM     68  C   UNL A   1      35.485  34.083  29.125  1.00  0.00     0.134 A 
ATOM     69  C   UNL A   1      35.770  33.874  31.461  1.00  0.00     0.134 A 
ATOM     70  F   UNL A   1      35.810  33.863  27.844  1.00  0.00    -0.206 F 
ATOM     71  C   UNL A   1      34.281  34.773  29.327  1.00  0.00     0.040 A 
ATOM     72  C   UNL A   1      34.599  34.614  31.680  1.00  0.00     0.040 A 
ATOM     73  F   UNL A   1      36.314  33.335  32.558  1.00  0.00    -0.206 F 
ATOM     74  C   UNL A   1      33.853  35.077  30.609  1.00  0.00     0.006 A 
ENDBRANCH  53  67
BRANCH  54  75
ATOM     75  C   UNL A   1      44.631  28.964  28.568  1.00  0.00     0.057 A 
ATOM     76  C   UNL A   1      45.502  27.945  29.001  1.00  0.00     0.134 A 
ATOM     77  C   UNL A   1      43.962  28.757  27.359  1.00  0.00     0.134 A 
ATOM     78  F   UNL A   1      46.182  28.083  30.152  1.00  0.00    -0.206 F 
ATOM     79  C   UNL A   1      45.589  26.720  28.339  1.00  0.00     0.040 A 
ATOM     80  C   UNL A   1      44.065  27.543  26.673  1.00  0.00     0.040 A 
ATOM     81  F   UNL A   1      43.105  29.672  26.886  1.00  0.00    -0.206 F 
ATOM     82  C   UNL A   1      44.839  26.504  27.188  1.00  0.00     0.006 A 
ENDBRANCH  54  75
BRANCH  66  83
ATOM     83  C   UNL A   1      42.457  35.831  28.867  1.00  0.00     0.057 A 
ATOM     84  C   UNL A   1      43.084  36.850  29.594  1.00  0.00     0.134 A 
ATOM     85  C   UNL A   1      41.893  36.203  27.634  1.00  0.00     0.134 A 
ATOM     86  F   UNL A   1      43.623  36.603  30.798  1.00  0.00    -0.206 F 
ATOM     87  C   UNL A   1      43.166  38.160  29.114  1.00  0.00     0.040 A 
ATOM     88  C   UNL A   1      41.928  37.516  27.163  1.00  0.00     0.040 A 
ATOM     89  F   UNL A   1      41.305  35.300  26.834  1.00  0.00    -0.206 F 
ATOM     90  C   UNL A   1      42.574  38.500  27.901  1.00  0.00     0.006 A 
ENDBRANCH  66  83
ENDBRANCH  40  41
ENDBRANCH  32  35
ENDBRANCH  30  31
ENDBRANCH  29  30
ENDBRANCH  28  29
ENDBRANCH   1  28
TORSDOF 16
ENDMDL
MODEL 3
REMARK VINA RESULT:     -12.9      1.744      2.284
REMARK SMILES Cc1cc(C(=O)NCCCCCCNC(=O)c2ccc(-c3c4nc(c(-c5c(F)cccc5F)c5ccc([nH]5)c(-c5c(F)cccc5F)c5nc(c(-c6c(F)cccc6F)c6ccc3[nH]6)C=C5)C=C4)cc2)ccc1NS(=O)(=O)c1c(F)cccc1F
REMARK SMILES IDX 10 1 9 2 8 3 7 4 5 5 6 6 4 8 1 9 2 10 3 11 73 12 72 13 71 14
REMARK SMILES IDX 74 15 75 17 76 18 77 19 78 20 79 21 84 22 80 23 81 24 83 25
REMARK SMILES IDX 85 26 82 27 11 28 12 29 13 30 14 31 15 32 16 34 17 35 18 36
REMARK SMILES IDX 70 37 19 38 69 39 20 40 21 41 22 42 63 43 23 44 68 45 62 46
REMARK SMILES IDX 64 47 24 48 67 49 61 50 60 51 25 53 51 54 34 55 50 56 35 57
REMARK SMILES IDX 38 58 49 59 65 60 36 61 37 62 48 64 66 65 39 66 26 67 27 68
REMARK SMILES IDX 32 69 28 70 29 71 31 72 33 73 30 74 52 75 53 76 58 77 54 78
REMARK SMILES IDX 55 79 57 80 59 81 56 82 40 83 41 84 46 85 42 86 43 87 45 88
REMARK SMILES IDX 47 89 44 90
REMARK H PARENT 7 7 74 16 14 33 64 52 38 63
REMARK Flexibility Score: inf
ROOT
ATOM      1  C   UNL A   1      31.565  28.881  26.433  1.00  0.00     0.002 C 
ENDROOT
BRANCH   1   2
ATOM      2  C   UNL A   1      31.462  29.575  25.069  1.00  0.00     0.021 C 
BRANCH   2   3
ATOM      3  C   UNL A   1      31.342  28.687  23.829  1.00  0.00     0.116 C 
BRANCH   3   4
ATOM      4  N   UNL A   1      32.462  28.785  22.913  1.00  0.00    -0.352 N 
ATOM      5  C   UNL A   1      33.438  27.873  22.574  1.00  0.00     0.251 C 
ATOM      6  O   UNL A   1      34.309  28.216  21.776  1.00  0.00    -0.269 OA
ATOM      7  H   UNL A   1      32.538  29.653  22.454  1.00  0.00     0.163 HD
BRANCH   5   8
ATOM      8  C   UNL A   1      33.525  26.523  23.200  1.00  0.00     0.040 A 
ATOM      9  C   UNL A   1      33.132  22.949  21.979  1.00  0.00     0.046 C 
ATOM     10  C   UNL A   1      33.543  24.107  22.847  1.00  0.00    -0.026 A 
ATOM     11  C   UNL A   1      33.288  25.410  22.385  1.00  0.00     0.019 A 
ATOM     12  C   UNL A   1      34.130  23.947  24.112  1.00  0.00     0.052 A 
ATOM     13  C   UNL A   1      34.090  25.015  25.009  1.00  0.00     0.028 A 
ATOM     14  C   UNL A   1      33.793  26.307  24.551  1.00  0.00     0.016 A 
BRANCH  12  15
ATOM     15  N   UNL A   1      34.889  22.759  24.341  1.00  0.00    -0.279 N 
ATOM     16  H   UNL A   1      35.664  22.620  23.750  1.00  0.00     0.180 HD
BRANCH  15  17
ATOM     17  S   UNL A   1      34.621  21.577  25.491  1.00  0.00     0.267 S 
ATOM     18  O   UNL A   1      35.874  21.397  26.183  1.00  0.00    -0.201 OA
ATOM     19  O   UNL A   1      33.421  21.996  26.195  1.00  0.00    -0.201 OA
BRANCH  17  20
ATOM     20  C   UNL A   1      34.224  20.064  24.701  1.00  0.00     0.158 A 
ATOM     21  C   UNL A   1      32.917  19.901  24.253  1.00  0.00     0.146 A 
ATOM     22  C   UNL A   1      35.098  18.989  24.629  1.00  0.00     0.146 A 
ATOM     23  F   UNL A   1      32.064  20.934  24.212  1.00  0.00    -0.205 F 
ATOM     24  C   UNL A   1      32.455  18.657  23.829  1.00  0.00     0.041 A 
ATOM     25  C   UNL A   1      34.638  17.730  24.234  1.00  0.00     0.041 A 
ATOM     26  F   UNL A   1      36.387  19.106  24.968  1.00  0.00    -0.205 F 
ATOM     27  C   UNL A   1      33.308  17.557  23.851  1.00  0.00     0.006 A 
ENDBRANCH  17  20
ENDBRANCH  15  17
ENDBRANCH  12  15
ENDBRANCH   5   8
ENDBRANCH   3   4
ENDBRANCH   2   3
ENDBRANCH   1   2
BRANCH   1  28
ATOM     28  C   UNL A   1      32.848  29.099  27.252  1.00  0.00     0.002 C 
BRANCH  28  29
ATOM     29  C   UNL A   1      33.287  30.546  27.482  1.00  0.00     0.021 C 
BRANCH  29  30
ATOM     30  C   UNL A   1      34.768  30.816  27.250  1.00  0.00     0.116 C 
BRANCH  30  31
ATOM     31  N   UNL A   1      35.428  31.549  28.325  1.00  0.00    -0.352 N 
ATOM     32  C   UNL A   1      36.461  31.151  29.157  1.00  0.00     0.251 C 
ATOM     33  H   UNL A   1      35.090  32.460  28.482  1.00  0.00     0.163 HD
ATOM     34  O   UNL A   1      36.861  31.903  30.039  1.00  0.00    -0.269 OA
BRANCH  32  35
ATOM     35  C   UNL A   1      37.181  29.881  28.886  1.00  0.00     0.039 A 
ATOM     36  C   UNL A   1      37.337  28.983  29.949  1.00  0.00     0.014 A 
ATOM     37  C   UNL A   1      37.886  29.690  27.703  1.00  0.00     0.014 A 
ATOM     38  C   UNL A   1      38.403  28.087  29.933  1.00  0.00     0.010 A 
ATOM     39  C   UNL A   1      39.004  28.883  27.725  1.00  0.00     0.010 A 
ATOM     40  C   UNL A   1      39.303  28.145  28.872  1.00  0.00    -0.014 A 
BRANCH  40  41
ATOM     41  C   UNL A   1      40.624  27.535  28.901  1.00  0.00     0.031 A 
ATOM     42  C   UNL A   1      40.785  26.111  28.558  1.00  0.00     0.074 A 
ATOM     43  C   UNL A   1      41.702  28.315  29.137  1.00  0.00     0.049 A 
ATOM     44  N   UNL A   1      41.825  25.406  28.835  1.00  0.00    -0.248 NA
ATOM     45  C   UNL A   1      39.735  25.356  27.887  1.00  0.00     0.031 C 
ATOM     46  C   UNL A   1      43.111  27.979  28.952  1.00  0.00     0.029 A 
ATOM     47  N   UNL A   1      41.726  29.529  29.834  1.00  0.00    -0.354 N 
ATOM     48  C   UNL A   1      41.699  24.194  28.197  1.00  0.00     0.074 A 
ATOM     49  C   UNL A   1      40.363  24.201  27.647  1.00  0.00     0.031 C 
ATOM     50  C   UNL A   1      43.848  28.760  29.759  1.00  0.00     0.029 A 
ATOM     51  C   UNL A   1      42.922  29.510  30.589  1.00  0.00     0.049 A 
ATOM     52  H   UNL A   1      41.052  30.247  29.804  1.00  0.00     0.167 HD
ATOM     53  C   UNL A   1      42.782  23.367  28.127  1.00  0.00     0.037 A 
ATOM     54  C   UNL A   1      42.870  29.464  31.954  1.00  0.00     0.037 A 
ATOM     55  C   UNL A   1      43.898  23.895  28.910  1.00  0.00     0.049 A 
ATOM     56  C   UNL A   1      43.468  28.210  32.561  1.00  0.00     0.074 A 
ATOM     57  C   UNL A   1      45.009  24.669  28.615  1.00  0.00     0.029 A 
ATOM     58  N   UNL A   1      43.784  23.905  30.288  1.00  0.00    -0.354 N 
ATOM     59  N   UNL A   1      43.901  27.190  31.873  1.00  0.00    -0.248 NA
ATOM     60  C   UNL A   1      43.539  27.975  34.006  1.00  0.00     0.031 C 
ATOM     61  C   UNL A   1      45.519  25.196  29.838  1.00  0.00     0.029 A 
ATOM     62  C   UNL A   1      44.728  24.726  30.872  1.00  0.00     0.049 A 
ATOM     63  H   UNL A   1      43.111  23.391  30.791  1.00  0.00     0.167 HD
ATOM     64  C   UNL A   1      44.246  26.179  32.728  1.00  0.00     0.074 A 
ATOM     65  C   UNL A   1      44.007  26.717  34.054  1.00  0.00     0.031 C 
ATOM     66  C   UNL A   1      44.667  24.955  32.304  1.00  0.00     0.037 A 
BRANCH  53  67
ATOM     67  C   UNL A   1      42.901  22.193  27.187  1.00  0.00     0.057 A 
ATOM     68  C   UNL A   1      42.086  21.058  27.359  1.00  0.00     0.134 A 
ATOM     69  C   UNL A   1      43.817  22.090  26.127  1.00  0.00     0.134 A 
ATOM     70  F   UNL A   1      41.099  21.030  28.265  1.00  0.00    -0.206 F 
ATOM     71  C   UNL A   1      42.245  19.882  26.612  1.00  0.00     0.040 A 
ATOM     72  C   UNL A   1      44.029  20.902  25.411  1.00  0.00     0.040 A 
ATOM     73  F   UNL A   1      44.509  23.148  25.688  1.00  0.00    -0.206 F 
ATOM     74  C   UNL A   1      43.247  19.787  25.660  1.00  0.00     0.006 A 
ENDBRANCH  53  67
BRANCH  54  75
ATOM     75  C   UNL A   1      41.697  30.202  32.502  1.00  0.00     0.057 A 
ATOM     76  C   UNL A   1      40.569  29.464  32.911  1.00  0.00     0.134 A 
ATOM     77  C   UNL A   1      41.811  31.508  32.984  1.00  0.00     0.134 A 
ATOM     78  F   UNL A   1      40.395  28.204  32.478  1.00  0.00    -0.206 F 
ATOM     79  C   UNL A   1      39.678  29.951  33.868  1.00  0.00     0.040 A 
ATOM     80  C   UNL A   1      40.906  32.016  33.923  1.00  0.00     0.040 A 
ATOM     81  F   UNL A   1      42.862  32.271  32.654  1.00  0.00    -0.206 F 
ATOM     82  C   UNL A   1      39.868  31.219  34.404  1.00  0.00     0.006 A 
ENDBRANCH  54  75
BRANCH  66  83
ATOM     83  C   UNL A   1      45.058  23.869  33.254  1.00  0.00     0.057 A 
ATOM     84  C   UNL A   1      44.145  22.896  33.679  1.00  0.00     0.134 A 
ATOM     85  C   UNL A   1      46.326  23.839  33.860  1.00  0.00     0.134 A 
ATOM     86  F   UNL A   1      42.898  22.863  33.186  1.00  0.00    -0.206 F 
ATOM     87  C   UNL A   1      44.480  21.934  34.636  1.00  0.00     0.040 A 
ATOM     88  C   UNL A   1      46.660  22.913  34.849  1.00  0.00     0.040 A 
ATOM     89  F   UNL A   1      47.293  24.697  33.499  1.00  0.00    -0.206 F 
ATOM     90  C   UNL A   1      45.736  21.949  35.235  1.00  0.00     0.006 A 
ENDBRANCH  66  83
ENDBRANCH  40  41
ENDBRANCH  32  35
ENDBRANCH  30  31
ENDBRANCH  29  30
ENDBRANCH  28  29
ENDBRANCH   1  28
TORSDOF 16
ENDMDL
