MODEL 1
REMARK VINA RESULT:     -14.2      0.000      0.000
REMARK SMILES C[N@H+]1CCO[C@H](c2noc(-c3ccccc3C(=O)NCCCCCCNC(=O)c3ccc(-c4c5nc(c(-c6c(F)cccc6F)c6ccc([nH]6)c(-c6c(F)cccc6F)c6nc(c(-c7c(F)cccc7F)c7ccc4[nH]7)C=C6)C=C5)cc3)n2)C1
REMARK SMILES IDX 22 1 21 2 20 3 19 4 17 5 18 6 16 8 11 9 12 10 13 11 15 12
REMARK SMILES IDX 14 13 10 14 7 15 8 16 83 17 9 18 6 19 1 20 2 21 3 22 84 23
REMARK SMILES IDX 4 25 5 26 23 27 24 28 25 29 26 30 27 31 28 33 29 34 30 35
REMARK SMILES IDX 82 36 31 37 81 38 32 39 33 40 34 41 75 42 35 43 80 44 74 45
REMARK SMILES IDX 76 46 36 47 79 48 73 49 72 50 37 52 63 53 46 54 62 55 47 56
REMARK SMILES IDX 50 57 61 58 77 59 48 60 49 61 60 63 78 64 51 65 38 66 39 67
REMARK SMILES IDX 44 68 40 69 41 70 43 71 45 72 42 73 64 74 65 75 70 76 66 77
REMARK SMILES IDX 67 78 69 79 71 80 68 81 52 82 53 83 58 84 54 85 55 86 57 87
REMARK SMILES IDX 59 88 56 89
REMARK H PARENT 19 7 2 24 26 32 76 51 50 62
REMARK Flexibility Score: inf
ROOT
ATOM      1  C   UNL A   1      32.052  28.471  26.500  1.00  0.00     0.002 C 
ENDROOT
BRANCH   1   2
ATOM      2  C   UNL A   1      33.454  27.964  26.129  1.00  0.00     0.021 C 
BRANCH   2   3
ATOM      3  C   UNL A   1      33.948  28.451  24.804  1.00  0.00     0.116 C 
BRANCH   3   4
ATOM      4  N   UNL A   1      34.134  27.602  23.697  1.00  0.00    -0.352 N 
ATOM      5  C   UNL A   1      33.178  27.448  22.716  1.00  0.00     0.252 C 
ATOM      6  O   UNL A   1      33.586  27.011  21.635  1.00  0.00    -0.269 OA
ATOM      7  H   UNL A   1      34.977  27.100  23.621  1.00  0.00     0.163 HD
BRANCH   5   8
ATOM      8  C   UNL A   1      31.677  27.652  22.898  1.00  0.00     0.052 A 
ATOM      9  C   UNL A   1      30.630  26.851  23.451  1.00  0.00     0.053 A 
ATOM     10  C   UNL A   1      29.314  27.393  23.468  1.00  0.00     0.015 A 
ATOM     11  C   UNL A   1      29.008  28.649  22.946  1.00  0.00     0.001 A 
ATOM     12  C   UNL A   1      31.317  28.925  22.373  1.00  0.00     0.014 A 
ATOM     13  C   UNL A   1      30.013  29.415  22.387  1.00  0.00     0.001 A 
BRANCH   9  14
ATOM     14  C   UNL A   1      30.704  25.459  23.920  1.00  0.00     0.258 A 
ATOM     15  C   UNL A   1      31.433  23.546  24.470  1.00  0.00     0.206 A 
ATOM     16  N   UNL A   1      30.658  23.279  23.410  1.00  0.00    -0.059 NA
ATOM     17  N   UNL A   1      31.329  24.863  24.915  1.00  0.00    -0.189 NA
ATOM     18  O   UNL A   1      30.176  24.540  23.038  1.00  0.00    -0.334 OA
BRANCH  15  19
ATOM     19  C   UNL A   1      32.275  22.479  25.165  1.00  0.00     0.245 C 
ATOM     20  C   UNL A   1      36.394  21.714  25.590  1.00  0.00     0.332 C 
ATOM     21  N   UNL A   1      35.300  21.418  24.651  1.00  0.00    -0.333 N 
ATOM     22  C   UNL A   1      34.801  19.744  24.817  1.00  0.00     0.290 C 
ATOM     23  C   UNL A   1      34.138  22.727  24.693  1.00  0.00     0.303 C 
ATOM     24  H   UNL A   1      35.568  21.425  23.667  1.00  0.00     0.348 HD
ATOM     25  C   UNL A   1      32.968  19.267  25.171  1.00  0.00     0.222 C 
ATOM     26  O   UNL A   1      31.694  20.681  25.308  1.00  0.00    -0.358 OA
ENDBRANCH  15  19
ENDBRANCH   9  14
ENDBRANCH   5   8
ENDBRANCH   3   4
ENDBRANCH   2   3
ENDBRANCH   1   2
BRANCH   1  27
ATOM     27  C   UNL A   1      31.399  30.043  25.863  1.00  0.00     0.002 C 
BRANCH  27  28
ATOM     28  C   UNL A   1      31.560  32.011  26.660  1.00  0.00     0.021 C 
BRANCH  28  29
ATOM     29  C   UNL A   1      32.867  32.742  27.590  1.00  0.00     0.116 C 
BRANCH  29  30
ATOM     30  N   UNL A   1      32.908  34.207  27.578  1.00  0.00    -0.352 N 
ATOM     31  C   UNL A   1      33.117  34.997  28.681  1.00  0.00     0.251 C 
ATOM     32  H   UNL A   1      32.775  34.658  26.713  1.00  0.00     0.163 HD
ATOM     33  O   UNL A   1      32.533  36.047  28.897  1.00  0.00    -0.269 OA
BRANCH  31  34
ATOM     34  C   UNL A   1      34.203  34.510  29.529  1.00  0.00     0.039 A 
ATOM     35  C   UNL A   1      33.979  33.834  30.724  1.00  0.00     0.014 A 
ATOM     36  C   UNL A   1      35.475  34.623  28.956  1.00  0.00     0.014 A 
ATOM     37  C   UNL A   1      35.072  33.246  31.350  1.00  0.00     0.010 A 
ATOM     38  C   UNL A   1      36.516  33.921  29.499  1.00  0.00     0.010 A 
ATOM     39  C   UNL A   1      36.335  33.282  30.730  1.00  0.00    -0.014 A 
BRANCH  39  40
ATOM     40  C   UNL A   1      37.546  32.744  31.364  1.00  0.00     0.031 A 
ATOM     41  C   UNL A   1      38.219  31.566  30.717  1.00  0.00     0.074 A 
ATOM     42  C   UNL A   1      37.932  33.223  32.556  1.00  0.00     0.049 A 
ATOM     43  N   UNL A   1      39.195  30.826  31.165  1.00  0.00    -0.248 NA
ATOM     44  C   UNL A   1      37.671  31.118  29.421  1.00  0.00     0.031 C 
ATOM     45  C   UNL A   1      37.273  34.304  33.293  1.00  0.00     0.029 A 
ATOM     46  N   UNL A   1      38.964  32.841  33.366  1.00  0.00    -0.354 N 
ATOM     47  C   UNL A   1      39.355  29.820  30.221  1.00  0.00     0.074 A 
ATOM     48  C   UNL A   1      38.312  29.977  29.238  1.00  0.00     0.031 C 
ATOM     49  C   UNL A   1      37.939  34.520  34.437  1.00  0.00     0.029 A 
ATOM     50  C   UNL A   1      39.036  33.563  34.531  1.00  0.00     0.049 A 
ATOM     51  H   UNL A   1      39.592  32.120  33.138  1.00  0.00     0.167 HD
ATOM     52  C   UNL A   1      40.320  28.875  30.159  1.00  0.00     0.037 A 
ATOM     53  C   UNL A   1      39.895  33.444  35.557  1.00  0.00     0.037 A 
ATOM     54  C   UNL A   1      41.361  28.763  31.142  1.00  0.00     0.049 A 
ATOM     55  C   UNL A   1      40.974  32.401  35.464  1.00  0.00     0.074 A 
ATOM     56  C   UNL A   1      42.438  27.902  31.165  1.00  0.00     0.029 A 
ATOM     57  N   UNL A   1      41.442  29.547  32.286  1.00  0.00    -0.354 N 
ATOM     58  N   UNL A   1      41.182  31.509  34.524  1.00  0.00    -0.248 NA
ATOM     59  C   UNL A   1      41.942  32.355  36.565  1.00  0.00     0.031 C 
ATOM     60  C   UNL A   1      43.138  28.120  32.356  1.00  0.00     0.029 A 
ATOM     61  C   UNL A   1      42.538  29.169  33.039  1.00  0.00     0.049 A 
ATOM     62  H   UNL A   1      40.813  30.266  32.525  1.00  0.00     0.167 HD
ATOM     63  C   UNL A   1      42.319  30.810  34.904  1.00  0.00     0.074 A 
ATOM     64  C   UNL A   1      42.763  31.399  36.153  1.00  0.00     0.031 C 
ATOM     65  C   UNL A   1      42.945  29.778  34.283  1.00  0.00     0.037 A 
BRANCH  52  66
ATOM     66  C   UNL A   1      40.275  27.918  29.002  1.00  0.00     0.057 A 
ATOM     67  C   UNL A   1      40.951  28.170  27.798  1.00  0.00     0.134 A 
ATOM     68  C   UNL A   1      39.530  26.736  29.081  1.00  0.00     0.134 A 
ATOM     69  F   UNL A   1      41.672  29.291  27.643  1.00  0.00    -0.206 F 
ATOM     70  C   UNL A   1      40.845  27.310  26.703  1.00  0.00     0.040 A 
ATOM     71  C   UNL A   1      39.449  25.848  28.007  1.00  0.00     0.040 A 
ATOM     72  F   UNL A   1      38.858  26.427  30.201  1.00  0.00    -0.206 F 
ATOM     73  C   UNL A   1      40.097  26.141  26.809  1.00  0.00     0.006 A 
ENDBRANCH  52  66
BRANCH  53  74
ATOM     74  C   UNL A   1      39.779  34.355  36.722  1.00  0.00     0.057 A 
ATOM     75  C   UNL A   1      40.312  35.648  36.689  1.00  0.00     0.134 A 
ATOM     76  C   UNL A   1      39.097  33.969  37.883  1.00  0.00     0.134 A 
ATOM     77  F   UNL A   1      40.978  36.075  35.606  1.00  0.00    -0.206 F 
ATOM     78  C   UNL A   1      40.189  36.519  37.774  1.00  0.00     0.040 A 
ATOM     79  C   UNL A   1      38.942  34.837  38.964  1.00  0.00     0.040 A 
ATOM     80  F   UNL A   1      38.543  32.751  37.971  1.00  0.00    -0.206 F 
ATOM     81  C   UNL A   1      39.497  36.115  38.913  1.00  0.00     0.006 A 
ENDBRANCH  53  74
BRANCH  65  82
ATOM     82  C   UNL A   1      44.188  29.246  34.932  1.00  0.00     0.057 A 
ATOM     83  C   UNL A   1      44.144  28.256  35.920  1.00  0.00     0.134 A 
ATOM     84  C   UNL A   1      45.448  29.701  34.523  1.00  0.00     0.134 A 
ATOM     85  F   UNL A   1      42.967  27.785  36.362  1.00  0.00    -0.206 F 
ATOM     86  C   UNL A   1      45.310  27.757  36.501  1.00  0.00     0.040 A 
ATOM     87  C   UNL A   1      46.622  29.183  35.070  1.00  0.00     0.040 A 
ATOM     88  F   UNL A   1      45.561  30.639  33.569  1.00  0.00    -0.206 F 
ATOM     89  C   UNL A   1      46.554  28.215  36.068  1.00  0.00     0.006 A 
ENDBRANCH  65  82
ENDBRANCH  39  40
ENDBRANCH  31  34
ENDBRANCH  29  30
ENDBRANCH  28  29
ENDBRANCH  27  28
ENDBRANCH   1  27
TORSDOF 15
ENDMDL
MODEL 2
REMARK VINA RESULT:     -14.2      3.817      8.507
REMARK SMILES C[N@H+]1CCO[C@H](c2noc(-c3ccccc3C(=O)NCCCCCCNC(=O)c3ccc(-c4c5nc(c(-c6c(F)cccc6F)c6ccc([nH]6)c(-c6c(F)cccc6F)c6nc(c(-c7c(F)cccc7F)c7ccc4[nH]7)C=C6)C=C5)cc3)n2)C1
REMARK SMILES IDX 22 1 21 2 20 3 19 4 17 5 18 6 16 8 11 9 12 10 13 11 15 12
REMARK SMILES IDX 14 13 10 14 7 15 8 16 83 17 9 18 6 19 1 20 2 21 3 22 84 23
REMARK SMILES IDX 4 25 5 26 23 27 24 28 25 29 26 30 27 31 28 33 29 34 30 35
REMARK SMILES IDX 82 36 31 37 81 38 32 39 33 40 34 41 75 42 35 43 80 44 74 45
REMARK SMILES IDX 76 46 36 47 79 48 73 49 72 50 37 52 63 53 46 54 62 55 47 56
REMARK SMILES IDX 50 57 61 58 77 59 48 60 49 61 60 63 78 64 51 65 38 66 39 67
REMARK SMILES IDX 44 68 40 69 41 70 43 71 45 72 42 73 64 74 65 75 70 76 66 77
REMARK SMILES IDX 67 78 69 79 71 80 68 81 52 82 53 83 58 84 54 85 55 86 57 87
REMARK SMILES IDX 59 88 56 89
REMARK H PARENT 19 7 2 24 26 32 76 51 50 62
REMARK Flexibility Score: inf
ROOT
ATOM      1  C   UNL A   1      33.436  26.725  22.062  1.00  0.00     0.002 C 
ENDROOT
BRANCH   1   2
ATOM      2  C   UNL A   1      32.755  25.372  22.320  1.00  0.00     0.021 C 
BRANCH   2   3
ATOM      3  C   UNL A   1      33.701  24.272  22.683  1.00  0.00     0.116 C 
BRANCH   3   4
ATOM      4  N   UNL A   1      33.403  22.910  22.488  1.00  0.00    -0.352 N 
ATOM      5  C   UNL A   1      32.889  22.115  23.490  1.00  0.00     0.252 C 
ATOM      6  O   UNL A   1      32.315  21.087  23.116  1.00  0.00    -0.269 OA
ATOM      7  H   UNL A   1      33.568  22.512  21.603  1.00  0.00     0.163 HD
BRANCH   5   8
ATOM      8  C   UNL A   1      33.082  22.338  24.987  1.00  0.00     0.052 A 
ATOM      9  C   UNL A   1      32.384  23.106  25.970  1.00  0.00     0.053 A 
ATOM     10  C   UNL A   1      32.855  23.058  27.312  1.00  0.00     0.015 A 
ATOM     11  C   UNL A   1      33.976  22.320  27.692  1.00  0.00     0.001 A 
ATOM     12  C   UNL A   1      34.222  21.605  25.420  1.00  0.00     0.014 A 
ATOM     13  C   UNL A   1      34.669  21.598  26.739  1.00  0.00     0.001 A 
BRANCH   9  14
ATOM     14  C   UNL A   1      31.279  24.055  25.764  1.00  0.00     0.258 A 
ATOM     15  C   UNL A   1      30.066  25.609  24.985  1.00  0.00     0.206 A 
ATOM     16  N   UNL A   1      30.397  26.066  26.199  1.00  0.00    -0.059 NA
ATOM     17  N   UNL A   1      30.449  24.286  24.767  1.00  0.00    -0.189 NA
ATOM     18  O   UNL A   1      31.202  25.045  26.719  1.00  0.00    -0.334 OA
BRANCH  15  19
ATOM     19  C   UNL A   1      29.270  26.438  23.980  1.00  0.00     0.245 C 
ATOM     20  C   UNL A   1      29.945  29.984  21.812  1.00  0.00     0.332 C 
ATOM     21  N   UNL A   1      29.432  29.566  23.126  1.00  0.00    -0.333 N 
ATOM     22  C   UNL A   1      27.685  29.727  23.169  1.00  0.00     0.290 C 
ATOM     23  C   UNL A   1      30.226  28.082  23.607  1.00  0.00     0.303 C 
ATOM     24  H   UNL A   1      29.684  30.182  23.899  1.00  0.00     0.348 HD
ATOM     25  C   UNL A   1      26.546  28.243  23.633  1.00  0.00     0.222 C 
ATOM     26  O   UNL A   1      27.383  26.587  24.077  1.00  0.00    -0.358 OA
ENDBRANCH  15  19
ENDBRANCH   9  14
ENDBRANCH   5   8
ENDBRANCH   3   4
ENDBRANCH   2   3
ENDBRANCH   1   2
BRANCH   1  27
ATOM     27  C   UNL A   1      33.820  27.880  23.411  1.00  0.00     0.002 C 
BRANCH  27  28
ATOM     28  C   UNL A   1      33.585  27.648  25.515  1.00  0.00     0.021 C 
BRANCH  28  29
ATOM     29  C   UNL A   1      34.464  28.417  26.834  1.00  0.00     0.116 C 
BRANCH  29  30
ATOM     30  N   UNL A   1      34.353  29.877  26.901  1.00  0.00    -0.352 N 
ATOM     31  C   UNL A   1      34.787  30.653  27.947  1.00  0.00     0.251 C 
ATOM     32  H   UNL A   1      33.934  30.336  26.137  1.00  0.00     0.163 HD
ATOM     33  O   UNL A   1      34.188  31.622  28.382  1.00  0.00    -0.269 OA
BRANCH  31  34
ATOM     34  C   UNL A   1      36.114  30.267  28.425  1.00  0.00     0.039 A 
ATOM     35  C   UNL A   1      36.319  29.643  29.652  1.00  0.00     0.014 A 
ATOM     36  C   UNL A   1      37.132  30.416  27.477  1.00  0.00     0.014 A 
ATOM     37  C   UNL A   1      37.589  29.145  29.920  1.00  0.00     0.010 A 
ATOM     38  C   UNL A   1      38.335  29.797  27.687  1.00  0.00     0.010 A 
ATOM     39  C   UNL A   1      38.590  29.215  28.933  1.00  0.00    -0.014 A 
BRANCH  39  40
ATOM     40  C   UNL A   1      39.970  28.774  29.171  1.00  0.00     0.031 A 
ATOM     41  C   UNL A   1      40.937  29.763  29.760  1.00  0.00     0.074 A 
ATOM     42  C   UNL A   1      40.359  27.566  28.736  1.00  0.00     0.049 A 
ATOM     43  N   UNL A   1      42.228  29.662  29.914  1.00  0.00    -0.248 NA
ATOM     44  C   UNL A   1      40.383  31.070  30.165  1.00  0.00     0.031 C 
ATOM     45  C   UNL A   1      39.500  26.584  28.069  1.00  0.00     0.029 A 
ATOM     46  N   UNL A   1      41.588  26.970  28.772  1.00  0.00    -0.354 N 
ATOM     47  C   UNL A   1      42.635  30.895  30.407  1.00  0.00     0.074 A 
ATOM     48  C   UNL A   1      41.481  31.759  30.423  1.00  0.00     0.031 C 
ATOM     49  C   UNL A   1      40.225  25.492  27.787  1.00  0.00     0.029 A 
ATOM     50  C   UNL A   1      41.603  25.720  28.209  1.00  0.00     0.049 A 
ATOM     51  H   UNL A   1      42.384  27.396  29.164  1.00  0.00     0.167 HD
ATOM     52  C   UNL A   1      43.860  31.256  30.851  1.00  0.00     0.037 A 
ATOM     53  C   UNL A   1      42.629  24.866  28.050  1.00  0.00     0.037 A 
ATOM     54  C   UNL A   1      44.983  30.361  30.846  1.00  0.00     0.049 A 
ATOM     55  C   UNL A   1      43.980  25.276  28.566  1.00  0.00     0.074 A 
ATOM     56  C   UNL A   1      46.258  30.572  31.329  1.00  0.00     0.029 A 
ATOM     57  N   UNL A   1      44.955  29.076  30.319  1.00  0.00    -0.354 N 
ATOM     58  N   UNL A   1      44.345  26.409  29.119  1.00  0.00    -0.248 NA
ATOM     59  C   UNL A   1      45.058  24.288  28.448  1.00  0.00     0.031 C 
ATOM     60  C   UNL A   1      47.021  29.437  31.038  1.00  0.00     0.029 A 
ATOM     61  C   UNL A   1      46.201  28.490  30.439  1.00  0.00     0.049 A 
ATOM     62  H   UNL A   1      44.164  28.646  29.920  1.00  0.00     0.167 HD
ATOM     63  C   UNL A   1      45.687  26.264  29.440  1.00  0.00     0.074 A 
ATOM     64  C   UNL A   1      46.063  24.923  29.033  1.00  0.00     0.031 C 
ATOM     65  C   UNL A   1      46.537  27.152  30.017  1.00  0.00     0.037 A 
BRANCH  52  66
ATOM     66  C   UNL A   1      44.022  32.659  31.366  1.00  0.00     0.057 A 
ATOM     67  C   UNL A   1      43.824  32.986  32.716  1.00  0.00     0.134 A 
ATOM     68  C   UNL A   1      44.358  33.704  30.498  1.00  0.00     0.134 A 
ATOM     69  F   UNL A   1      43.482  32.039  33.604  1.00  0.00    -0.206 F 
ATOM     70  C   UNL A   1      43.906  34.303  33.172  1.00  0.00     0.040 A 
ATOM     71  C   UNL A   1      44.483  35.018  30.950  1.00  0.00     0.040 A 
ATOM     72  F   UNL A   1      44.564  33.468  29.193  1.00  0.00    -0.206 F 
ATOM     73  C   UNL A   1      44.243  35.324  32.287  1.00  0.00     0.006 A 
ENDBRANCH  52  66
BRANCH  53  74
ATOM     74  C   UNL A   1      42.397  23.549  27.409  1.00  0.00     0.057 A 
ATOM     75  C   UNL A   1      42.569  23.372  26.032  1.00  0.00     0.134 A 
ATOM     76  C   UNL A   1      42.035  22.426  28.163  1.00  0.00     0.134 A 
ATOM     77  F   UNL A   1      42.912  24.410  25.256  1.00  0.00    -0.206 F 
ATOM     78  C   UNL A   1      42.372  22.130  25.423  1.00  0.00     0.040 A 
ATOM     79  C   UNL A   1      41.862  21.173  27.574  1.00  0.00     0.040 A 
ATOM     80  F   UNL A   1      41.877  22.523  29.491  1.00  0.00    -0.206 F 
ATOM     81  C   UNL A   1      42.023  21.025  26.197  1.00  0.00     0.006 A 
ENDBRANCH  53  74
BRANCH  65  82
ATOM     82  C   UNL A   1      47.941  26.686  30.268  1.00  0.00     0.057 A 
ATOM     83  C   UNL A   1      48.974  26.919  29.353  1.00  0.00     0.134 A 
ATOM     84  C   UNL A   1      48.267  26.038  31.466  1.00  0.00     0.134 A 
ATOM     85  F   UNL A   1      48.725  27.526  28.183  1.00  0.00    -0.206 F 
ATOM     86  C   UNL A   1      50.279  26.497  29.609  1.00  0.00     0.040 A 
ATOM     87  C   UNL A   1      49.574  25.645  31.749  1.00  0.00     0.040 A 
ATOM     88  F   UNL A   1      47.324  25.798  32.392  1.00  0.00    -0.206 F 
ATOM     89  C   UNL A   1      50.583  25.866  30.815  1.00  0.00     0.006 A 
ENDBRANCH  65  82
ENDBRANCH  39  40
ENDBRANCH  31  34
ENDBRANCH  29  30
ENDBRANCH  28  29
ENDBRANCH  27  28
ENDBRANCH   1  27
TORSDOF 15
ENDMDL
MODEL 3
REMARK VINA RESULT:     -14.1      5.128     10.900
REMARK SMILES C[N@H+]1CCO[C@H](c2noc(-c3ccccc3C(=O)NCCCCCCNC(=O)c3ccc(-c4c5nc(c(-c6c(F)cccc6F)c6ccc([nH]6)c(-c6c(F)cccc6F)c6nc(c(-c7c(F)cccc7F)c7ccc4[nH]7)C=C6)C=C5)cc3)n2)C1
REMARK SMILES IDX 22 1 21 2 20 3 19 4 17 5 18 6 16 8 11 9 12 10 13 11 15 12
REMARK SMILES IDX 14 13 10 14 7 15 8 16 83 17 9 18 6 19 1 20 2 21 3 22 84 23
REMARK SMILES IDX 4 25 5 26 23 27 24 28 25 29 26 30 27 31 28 33 29 34 30 35
REMARK SMILES IDX 82 36 31 37 81 38 32 39 33 40 34 41 75 42 35 43 80 44 74 45
REMARK SMILES IDX 76 46 36 47 79 48 73 49 72 50 37 52 63 53 46 54 62 55 47 56
REMARK SMILES IDX 50 57 61 58 77 59 48 60 49 61 60 63 78 64 51 65 38 66 39 67
REMARK SMILES IDX 44 68 40 69 41 70 43 71 45 72 42 73 64 74 65 75 70 76 66 77
REMARK SMILES IDX 67 78 69 79 71 80 68 81 52 82 53 83 58 84 54 85 55 86 57 87
REMARK SMILES IDX 59 88 56 89
REMARK H PARENT 19 7 2 24 26 32 76 51 50 62
REMARK Flexibility Score: inf
ROOT
ATOM      1  C   UNL A   1      44.374  23.204  30.448  1.00  0.00     0.002 C 
ENDROOT
BRANCH   1   2
ATOM      2  C   UNL A   1      43.364  23.656  29.382  1.00  0.00     0.021 C 
BRANCH   2   3
ATOM      3  C   UNL A   1      42.893  22.558  28.483  1.00  0.00     0.116 C 
BRANCH   3   4
ATOM      4  N   UNL A   1      41.991  22.769  27.423  1.00  0.00    -0.352 N 
ATOM      5  C   UNL A   1      41.687  21.788  26.504  1.00  0.00     0.252 C 
ATOM      6  O   UNL A   1      40.631  21.945  25.884  1.00  0.00    -0.269 OA
ATOM      7  H   UNL A   1      41.563  23.651  27.335  1.00  0.00     0.163 HD
BRANCH   5   8
ATOM      8  C   UNL A   1      42.592  20.622  26.118  1.00  0.00     0.052 A 
ATOM      9  C   UNL A   1      43.926  20.531  25.613  1.00  0.00     0.053 A 
ATOM     10  C   UNL A   1      44.464  19.235  25.378  1.00  0.00     0.015 A 
ATOM     11  C   UNL A   1      43.735  18.065  25.594  1.00  0.00     0.001 A 
ATOM     12  C   UNL A   1      41.886  19.403  26.318  1.00  0.00     0.014 A 
ATOM     13  C   UNL A   1      42.436  18.150  26.057  1.00  0.00     0.001 A 
BRANCH   9  14
ATOM     14  C   UNL A   1      44.810  21.626  25.184  1.00  0.00     0.258 A 
ATOM     15  C   UNL A   1      45.837  23.478  25.090  1.00  0.00     0.206 A 
ATOM     16  N   UNL A   1      45.065  23.507  23.996  1.00  0.00    -0.059 NA
ATOM     17  N   UNL A   1      45.832  22.245  25.740  1.00  0.00    -0.189 NA
ATOM     18  O   UNL A   1      44.380  22.287  24.053  1.00  0.00    -0.334 OA
BRANCH  15  19
ATOM     19  C   UNL A   1      46.701  24.661  25.521  1.00  0.00     0.245 C 
ATOM     20  C   UNL A   1      47.152  26.918  29.047  1.00  0.00     0.332 C 
ATOM     21  N   UNL A   1      46.317  26.906  27.835  1.00  0.00    -0.333 N 
ATOM     22  C   UNL A   1      46.814  28.192  26.749  1.00  0.00     0.290 C 
ATOM     23  C   UNL A   1      46.139  25.255  27.278  1.00  0.00     0.303 C 
ATOM     24  H   UNL A   1      45.343  27.168  27.984  1.00  0.00     0.348 HD
ATOM     25  C   UNL A   1      47.301  27.835  24.919  1.00  0.00     0.222 C 
ATOM     26  O   UNL A   1      47.200  26.030  24.309  1.00  0.00    -0.358 OA
ENDBRANCH  15  19
ENDBRANCH   9  14
ENDBRANCH   5   8
ENDBRANCH   3   4
ENDBRANCH   2   3
ENDBRANCH   1   2
BRANCH   1  27
ATOM     27  C   UNL A   1      44.101  23.506  32.219  1.00  0.00     0.002 C 
BRANCH  27  28
ATOM     28  C   UNL A   1      45.417  23.226  33.870  1.00  0.00     0.021 C 
BRANCH  28  29
ATOM     29  C   UNL A   1      46.923  24.055  34.258  1.00  0.00     0.116 C 
BRANCH  29  30
ATOM     30  N   UNL A   1      47.053  24.513  35.644  1.00  0.00    -0.352 N 
ATOM     31  C   UNL A   1      47.070  25.828  36.041  1.00  0.00     0.251 C 
ATOM     32  H   UNL A   1      47.135  23.826  36.344  1.00  0.00     0.163 HD
ATOM     33  O   UNL A   1      47.794  26.274  36.915  1.00  0.00    -0.269 OA
BRANCH  31  34
ATOM     34  C   UNL A   1      46.041  26.631  35.382  1.00  0.00     0.039 A 
ATOM     35  C   UNL A   1      46.343  27.641  34.474  1.00  0.00     0.014 A 
ATOM     36  C   UNL A   1      44.733  26.185  35.605  1.00  0.00     0.014 A 
ATOM     37  C   UNL A   1      45.291  28.207  33.763  1.00  0.00     0.010 A 
ATOM     38  C   UNL A   1      43.726  26.642  34.800  1.00  0.00     0.010 A 
ATOM     39  C   UNL A   1      43.988  27.698  33.920  1.00  0.00    -0.014 A 
BRANCH  39  40
ATOM     40  C   UNL A   1      42.819  28.291  33.256  1.00  0.00     0.031 A 
ATOM     41  C   UNL A   1      42.631  28.027  31.788  1.00  0.00     0.074 A 
ATOM     42  C   UNL A   1      42.042  29.148  33.934  1.00  0.00     0.049 A 
ATOM     43  N   UNL A   1      41.778  28.560  30.957  1.00  0.00    -0.248 NA
ATOM     44  C   UNL A   1      43.580  27.089  31.156  1.00  0.00     0.031 C 
ATOM     45  C   UNL A   1      42.216  29.527  35.338  1.00  0.00     0.029 A 
ATOM     46  N   UNL A   1      40.960  29.872  33.520  1.00  0.00    -0.354 N 
ATOM     47  C   UNL A   1      42.106  28.040  29.712  1.00  0.00     0.074 A 
ATOM     48  C   UNL A   1      43.296  27.241  29.874  1.00  0.00     0.031 C 
ATOM     49  C   UNL A   1      41.251  30.394  35.678  1.00  0.00     0.029 A 
ATOM     50  C   UNL A   1      40.426  30.663  34.505  1.00  0.00     0.049 A 
ATOM     51  H   UNL A   1      40.599  29.831  32.606  1.00  0.00     0.167 HD
ATOM     52  C   UNL A   1      41.442  28.182  28.544  1.00  0.00     0.037 A 
ATOM     53  C   UNL A   1      39.389  31.515  34.448  1.00  0.00     0.037 A 
ATOM     54  C   UNL A   1      40.243  28.964  28.422  1.00  0.00     0.049 A 
ATOM     55  C   UNL A   1      38.649  31.648  33.146  1.00  0.00     0.074 A 
ATOM     56  C   UNL A   1      39.431  29.136  27.320  1.00  0.00     0.029 A 
ATOM     57  N   UNL A   1      39.691  29.712  29.455  1.00  0.00    -0.354 N 
ATOM     58  N   UNL A   1      38.903  31.082  31.990  1.00  0.00    -0.248 NA
ATOM     59  C   UNL A   1      37.473  32.525  33.143  1.00  0.00     0.031 C 
ATOM     60  C   UNL A   1      38.422  30.040  27.666  1.00  0.00     0.029 A 
ATOM     61  C   UNL A   1      38.562  30.373  29.006  1.00  0.00     0.049 A 
ATOM     62  H   UNL A   1      40.050  29.764  30.371  1.00  0.00     0.167 HD
ATOM     63  C   UNL A   1      37.906  31.512  31.125  1.00  0.00     0.074 A 
ATOM     64  C   UNL A   1      37.034  32.373  31.902  1.00  0.00     0.031 C 
ATOM     65  C   UNL A   1      37.722  31.226  29.811  1.00  0.00     0.037 A 
BRANCH  52  66
ATOM     66  C   UNL A   1      42.003  27.481  27.340  1.00  0.00     0.057 A 
ATOM     67  C   UNL A   1      41.538  26.224  26.923  1.00  0.00     0.134 A 
ATOM     68  C   UNL A   1      43.040  28.056  26.596  1.00  0.00     0.134 A 
ATOM     69  F   UNL A   1      40.557  25.602  27.597  1.00  0.00    -0.206 F 
ATOM     70  C   UNL A   1      42.115  25.547  25.846  1.00  0.00     0.040 A 
ATOM     71  C   UNL A   1      43.597  27.407  25.493  1.00  0.00     0.040 A 
ATOM     72  F   UNL A   1      43.536  29.256  26.934  1.00  0.00    -0.206 F 
ATOM     73  C   UNL A   1      43.145  26.143  25.124  1.00  0.00     0.006 A 
ENDBRANCH  52  66
BRANCH  53  74
ATOM     74  C   UNL A   1      38.987  32.266  35.663  1.00  0.00     0.057 A 
ATOM     75  C   UNL A   1      38.195  31.675  36.653  1.00  0.00     0.134 A 
ATOM     76  C   UNL A   1      39.417  33.581  35.882  1.00  0.00     0.134 A 
ATOM     77  F   UNL A   1      37.749  30.420  36.500  1.00  0.00    -0.206 F 
ATOM     78  C   UNL A   1      37.829  32.368  37.808  1.00  0.00     0.040 A 
ATOM     79  C   UNL A   1      39.083  34.277  37.044  1.00  0.00     0.040 A 
ATOM     80  F   UNL A   1      40.198  34.198  34.982  1.00  0.00    -0.206 F 
ATOM     81  C   UNL A   1      38.279  33.672  38.008  1.00  0.00     0.006 A 
ENDBRANCH  53  74
BRANCH  65  82
ATOM     82  C   UNL A   1      36.518  31.826  29.147  1.00  0.00     0.057 A 
ATOM     83  C   UNL A   1      36.493  33.157  28.716  1.00  0.00     0.134 A 
ATOM     84  C   UNL A   1      35.387  31.040  28.893  1.00  0.00     0.134 A 
ATOM     85  F   UNL A   1      37.542  33.965  28.939  1.00  0.00    -0.206 F 
ATOM     86  C   UNL A   1      35.374  33.695  28.082  1.00  0.00     0.040 A 
ATOM     87  C   UNL A   1      34.275  31.556  28.226  1.00  0.00     0.040 A 
ATOM     88  F   UNL A   1      35.352  29.751  29.266  1.00  0.00    -0.206 F 
ATOM     89  C   UNL A   1      34.264  32.890  27.828  1.00  0.00     0.006 A 
ENDBRANCH  65  82
ENDBRANCH  39  40
ENDBRANCH  31  34
ENDBRANCH  29  30
ENDBRANCH  28  29
ENDBRANCH  27  28
ENDBRANCH   1  27
TORSDOF 15
ENDMDL
