MODEL 1
REMARK VINA RESULT:     -11.9      0.000      0.000
REMARK SMILES O=C(NCCCCCCNC(=O)[C@H]1CC=CC[C@@H]1C(=O)NC1CCCCC1)c1ccc(-c2c3nc(c(-c4c(F)cccc4F)c4ccc([nH]4)c(-c4c(F)cccc4F)c4nc(c(-c5c(F)cccc5F)c5ccc2[nH]5)C=C4)C=C3)cc1
REMARK SMILES IDX 6 1 5 2 4 3 3 4 1 5 2 6 28 8 29 9 81 10 30 11 80 12 31 13
REMARK SMILES IDX 32 14 33 15 74 16 34 17 79 18 73 19 75 20 35 21 78 22 72 23
REMARK SMILES IDX 71 24 36 26 62 27 45 28 61 29 46 30 49 31 60 32 76 33 47 34
REMARK SMILES IDX 48 35 59 37 77 38 50 39 37 40 38 41 43 42 39 43 40 44 42 45
REMARK SMILES IDX 44 46 41 47 63 48 64 49 69 50 65 51 66 52 68 53 70 54 67 55
REMARK SMILES IDX 51 56 52 57 57 58 53 59 54 60 56 61 58 62 55 63 7 64 8 65
REMARK SMILES IDX 9 66 10 67 11 68 12 70 13 71 14 72 18 73 15 74 17 75 16 76
REMARK SMILES IDX 19 77 20 78 21 79 22 81 23 82 27 83 24 84 26 85 25 86
REMARK H PARENT 3 7 75 25 49 36 10 69 21 80
REMARK Flexibility Score: inf
ROOT
ATOM      1  C   UNL A   1      36.616  20.587  24.926  1.00  0.00     0.002 C 
ENDROOT
BRANCH   1   2
ATOM      2  C   UNL A   1      37.791  19.607  25.002  1.00  0.00     0.021 C 
BRANCH   2   3
ATOM      3  C   UNL A   1      39.013  20.134  25.745  1.00  0.00     0.116 C 
BRANCH   3   4
ATOM      4  N   UNL A   1      40.064  19.136  25.824  1.00  0.00    -0.352 N 
ATOM      5  O   UNL A   1      42.176  18.362  25.755  1.00  0.00    -0.269 OA
ATOM      6  C   UNL A   1      41.416  19.303  25.957  1.00  0.00     0.251 C 
ATOM      7  H   UNL A   1      39.759  18.201  25.775  1.00  0.00     0.163 HD
BRANCH   6   8
ATOM      8  C   UNL A   1      41.963  20.619  26.343  1.00  0.00     0.039 A 
ATOM      9  C   UNL A   1      42.278  21.576  25.372  1.00  0.00     0.014 A 
ATOM     10  C   UNL A   1      42.098  20.920  27.700  1.00  0.00     0.014 A 
ATOM     11  C   UNL A   1      42.813  22.802  25.755  1.00  0.00     0.010 A 
ATOM     12  C   UNL A   1      42.573  22.174  28.085  1.00  0.00     0.010 A 
ATOM     13  C   UNL A   1      42.944  23.118  27.114  1.00  0.00    -0.014 A 
BRANCH  13  14
ATOM     14  C   UNL A   1      43.395  24.468  27.527  1.00  0.00     0.031 A 
ATOM     15  C   UNL A   1      42.404  25.511  27.947  1.00  0.00     0.074 A 
ATOM     16  C   UNL A   1      44.707  24.759  27.468  1.00  0.00     0.049 A 
ATOM     17  N   UNL A   1      42.606  26.770  28.243  1.00  0.00    -0.248 NA
ATOM     18  C   UNL A   1      40.999  25.088  28.035  1.00  0.00     0.031 C 
ATOM     19  C   UNL A   1      45.758  23.825  27.059  1.00  0.00     0.029 A 
ATOM     20  N   UNL A   1      45.379  25.925  27.728  1.00  0.00    -0.354 N 
ATOM     21  C   UNL A   1      41.355  27.297  28.527  1.00  0.00     0.074 A 
ATOM     22  C   UNL A   1      40.396  26.227  28.350  1.00  0.00     0.031 C 
ATOM     23  C   UNL A   1      46.941  24.454  27.095  1.00  0.00     0.029 A 
ATOM     24  C   UNL A   1      46.726  25.846  27.472  1.00  0.00     0.049 A 
ATOM     25  H   UNL A   1      44.939  26.739  28.065  1.00  0.00     0.167 HD
ATOM     26  C   UNL A   1      41.040  28.559  28.903  1.00  0.00     0.037 A 
ATOM     27  C   UNL A   1      47.677  26.798  27.498  1.00  0.00     0.037 A 
ATOM     28  C   UNL A   1      42.005  29.614  29.079  1.00  0.00     0.049 A 
ATOM     29  C   UNL A   1      47.302  28.196  27.886  1.00  0.00     0.074 A 
ATOM     30  C   UNL A   1      41.794  30.913  29.509  1.00  0.00     0.029 A 
ATOM     31  N   UNL A   1      43.363  29.493  28.819  1.00  0.00    -0.354 N 
ATOM     32  N   UNL A   1      46.122  28.673  28.203  1.00  0.00    -0.248 NA
ATOM     33  C   UNL A   1      48.383  29.189  27.923  1.00  0.00     0.031 C 
ATOM     34  C   UNL A   1      43.017  31.592  29.460  1.00  0.00     0.029 A 
ATOM     35  C   UNL A   1      43.999  30.702  29.050  1.00  0.00     0.049 A 
ATOM     36  H   UNL A   1      43.809  28.669  28.515  1.00  0.00     0.167 HD
ATOM     37  C   UNL A   1      46.319  30.015  28.495  1.00  0.00     0.074 A 
ATOM     38  C   UNL A   1      47.735  30.275  28.324  1.00  0.00     0.031 C 
ATOM     39  C   UNL A   1      45.410  30.943  28.877  1.00  0.00     0.037 A 
BRANCH  26  40
ATOM     40  C   UNL A   1      39.587  28.874  29.114  1.00  0.00     0.057 A 
ATOM     41  C   UNL A   1      38.976  28.764  30.371  1.00  0.00     0.134 A 
ATOM     42  C   UNL A   1      38.790  29.307  28.046  1.00  0.00     0.134 A 
ATOM     43  F   UNL A   1      39.678  28.344  31.435  1.00  0.00    -0.206 F 
ATOM     44  C   UNL A   1      37.619  29.042  30.550  1.00  0.00     0.040 A 
ATOM     45  C   UNL A   1      37.439  29.612  28.219  1.00  0.00     0.040 A 
ATOM     46  F   UNL A   1      39.312  29.442  26.818  1.00  0.00    -0.206 F 
ATOM     47  C   UNL A   1      36.847  29.470  29.472  1.00  0.00     0.006 A 
ENDBRANCH  26  40
BRANCH  27  48
ATOM     48  C   UNL A   1      49.066  26.438  27.125  1.00  0.00     0.057 A 
ATOM     49  C   UNL A   1      49.984  26.000  28.084  1.00  0.00     0.134 A 
ATOM     50  C   UNL A   1      49.485  26.461  25.789  1.00  0.00     0.134 A 
ATOM     51  F   UNL A   1      49.640  25.968  29.380  1.00  0.00    -0.206 F 
ATOM     52  C   UNL A   1      51.271  25.595  27.729  1.00  0.00     0.040 A 
ATOM     53  C   UNL A   1      50.762  26.037  25.416  1.00  0.00     0.040 A 
ATOM     54  F   UNL A   1      48.646  26.859  24.822  1.00  0.00    -0.206 F 
ATOM     55  C   UNL A   1      51.659  25.603  26.390  1.00  0.00     0.006 A 
ENDBRANCH  27  48
BRANCH  39  56
ATOM     56  C   UNL A   1      45.917  32.324  29.169  1.00  0.00     0.057 A 
ATOM     57  C   UNL A   1      45.922  33.329  28.195  1.00  0.00     0.134 A 
ATOM     58  C   UNL A   1      46.339  32.666  30.460  1.00  0.00     0.134 A 
ATOM     59  F   UNL A   1      45.543  33.060  26.937  1.00  0.00    -0.206 F 
ATOM     60  C   UNL A   1      46.337  34.628  28.495  1.00  0.00     0.040 A 
ATOM     61  C   UNL A   1      46.734  33.966  30.776  1.00  0.00     0.040 A 
ATOM     62  F   UNL A   1      46.351  31.749  31.438  1.00  0.00    -0.206 F 
ATOM     63  C   UNL A   1      46.735  34.951  29.791  1.00  0.00     0.006 A 
ENDBRANCH  39  56
ENDBRANCH  13  14
ENDBRANCH   6   8
ENDBRANCH   3   4
ENDBRANCH   2   3
ENDBRANCH   1   2
BRANCH   1  64
ATOM     64  C   UNL A   1      36.962  22.006  24.450  1.00  0.00     0.002 C 
BRANCH  64  65
ATOM     65  C   UNL A   1      36.997  23.076  25.542  1.00  0.00     0.021 C 
BRANCH  65  66
ATOM     66  C   UNL A   1      35.988  24.198  25.340  1.00  0.00     0.116 C 
BRANCH  66  67
ATOM     67  N   UNL A   1      35.269  24.074  24.095  1.00  0.00    -0.356 N 
ATOM     68  C   UNL A   1      33.986  23.897  23.724  1.00  0.00     0.224 C 
ATOM     69  H   UNL A   1      35.870  24.134  23.318  1.00  0.00     0.163 HD
ATOM     70  O   UNL A   1      33.824  23.896  22.493  1.00  0.00    -0.275 OA
BRANCH  68  71
ATOM     71  C   UNL A   1      32.747  23.756  24.624  1.00  0.00     0.095 C 
ATOM     72  C   UNL A   1      31.977  22.484  24.190  1.00  0.00     0.041 C 
ATOM     73  C   UNL A   1      32.827  23.868  26.154  1.00  0.00     0.095 C 
ATOM     74  C   UNL A   1      32.402  21.253  24.929  1.00  0.00    -0.030 C 
ATOM     75  C   UNL A   1      33.225  22.570  26.880  1.00  0.00     0.041 C 
ATOM     76  C   UNL A   1      32.974  21.297  26.137  1.00  0.00    -0.030 C 
BRANCH  73  77
ATOM     77  C   UNL A   1      31.527  24.437  26.695  1.00  0.00     0.224 C 
ATOM     78  O   UNL A   1      30.693  23.719  27.251  1.00  0.00    -0.275 OA
ATOM     79  N   UNL A   1      31.196  25.748  26.525  1.00  0.00    -0.353 N 
ATOM     80  H   UNL A   1      30.235  25.896  26.681  1.00  0.00     0.163 HD
BRANCH  79  81
ATOM     81  C   UNL A   1      31.886  27.013  26.171  1.00  0.00     0.082 C 
ATOM     82  C   UNL A   1      31.421  27.725  24.892  1.00  0.00     0.025 C 
ATOM     83  C   UNL A   1      31.769  27.942  27.397  1.00  0.00     0.025 C 
ATOM     84  C   UNL A   1      31.932  29.155  24.729  1.00  0.00     0.002 C 
ATOM     85  C   UNL A   1      32.320  29.345  27.175  1.00  0.00     0.002 C 
ATOM     86  C   UNL A   1      31.678  29.998  25.962  1.00  0.00     0.000 C 
ENDBRANCH  79  81
ENDBRANCH  73  77
ENDBRANCH  68  71
ENDBRANCH  66  67
ENDBRANCH  65  66
ENDBRANCH  64  65
ENDBRANCH   1  64
TORSDOF 15
ENDMDL
MODEL 2
REMARK VINA RESULT:     -11.9      5.240     10.025
REMARK SMILES O=C(NCCCCCCNC(=O)[C@H]1CC=CC[C@@H]1C(=O)NC1CCCCC1)c1ccc(-c2c3nc(c(-c4c(F)cccc4F)c4ccc([nH]4)c(-c4c(F)cccc4F)c4nc(c(-c5c(F)cccc5F)c5ccc2[nH]5)C=C4)C=C3)cc1
REMARK SMILES IDX 6 1 5 2 4 3 3 4 1 5 2 6 28 8 29 9 81 10 30 11 80 12 31 13
REMARK SMILES IDX 32 14 33 15 74 16 34 17 79 18 73 19 75 20 35 21 78 22 72 23
REMARK SMILES IDX 71 24 36 26 62 27 45 28 61 29 46 30 49 31 60 32 76 33 47 34
REMARK SMILES IDX 48 35 59 37 77 38 50 39 37 40 38 41 43 42 39 43 40 44 42 45
REMARK SMILES IDX 44 46 41 47 63 48 64 49 69 50 65 51 66 52 68 53 70 54 67 55
REMARK SMILES IDX 51 56 52 57 57 58 53 59 54 60 56 61 58 62 55 63 7 64 8 65
REMARK SMILES IDX 9 66 10 67 11 68 12 70 13 71 14 72 18 73 15 74 17 75 16 76
REMARK SMILES IDX 19 77 20 78 21 79 22 81 23 82 27 83 24 84 26 85 25 86
REMARK H PARENT 3 7 75 25 49 36 10 69 21 80
REMARK Flexibility Score: inf
ROOT
ATOM      1  C   UNL A   1      31.468  30.346  26.209  1.00  0.00     0.002 C 
ENDROOT
BRANCH   1   2
ATOM      2  C   UNL A   1      31.404  31.849  26.498  1.00  0.00     0.021 C 
BRANCH   2   3
ATOM      3  C   UNL A   1      32.692  32.445  27.056  1.00  0.00     0.116 C 
BRANCH   3   4
ATOM      4  N   UNL A   1      32.507  33.823  27.474  1.00  0.00    -0.352 N 
ATOM      5  O   UNL A   1      32.634  35.585  28.868  1.00  0.00    -0.269 OA
ATOM      6  C   UNL A   1      33.091  34.507  28.506  1.00  0.00     0.251 C 
ATOM      7  H   UNL A   1      31.868  34.343  26.935  1.00  0.00     0.163 HD
BRANCH   6   8
ATOM      8  C   UNL A   1      34.274  33.943  29.189  1.00  0.00     0.039 A 
ATOM      9  C   UNL A   1      34.128  33.009  30.221  1.00  0.00     0.014 A 
ATOM     10  C   UNL A   1      35.546  34.307  28.741  1.00  0.00     0.014 A 
ATOM     11  C   UNL A   1      35.254  32.507  30.865  1.00  0.00     0.010 A 
ATOM     12  C   UNL A   1      36.674  33.754  29.345  1.00  0.00     0.010 A 
ATOM     13  C   UNL A   1      36.535  32.860  30.418  1.00  0.00    -0.014 A 
BRANCH  13  14
ATOM     14  C   UNL A   1      37.735  32.231  31.020  1.00  0.00     0.031 A 
ATOM     15  C   UNL A   1      38.459  31.128  30.309  1.00  0.00     0.074 A 
ATOM     16  C   UNL A   1      38.132  32.632  32.241  1.00  0.00     0.049 A 
ATOM     17  N   UNL A   1      39.461  30.397  30.726  1.00  0.00    -0.248 NA
ATOM     18  C   UNL A   1      37.989  30.794  28.957  1.00  0.00     0.031 C 
ATOM     19  C   UNL A   1      37.493  33.686  33.030  1.00  0.00     0.029 A 
ATOM     20  N   UNL A   1      39.152  32.186  33.042  1.00  0.00    -0.354 N 
ATOM     21  C   UNL A   1      39.726  29.499  29.701  1.00  0.00     0.074 A 
ATOM     22  C   UNL A   1      38.767  29.765  28.649  1.00  0.00     0.031 C 
ATOM     23  C   UNL A   1      38.133  33.806  34.202  1.00  0.00     0.029 A 
ATOM     24  C   UNL A   1      39.188  32.801  34.270  1.00  0.00     0.049 A 
ATOM     25  H   UNL A   1      39.795  31.494  32.765  1.00  0.00     0.167 HD
ATOM     26  C   UNL A   1      40.685  28.544  29.646  1.00  0.00     0.037 A 
ATOM     27  C   UNL A   1      39.958  32.559  35.346  1.00  0.00     0.037 A 
ATOM     28  C   UNL A   1      41.635  28.293  30.699  1.00  0.00     0.049 A 
ATOM     29  C   UNL A   1      40.991  31.476  35.276  1.00  0.00     0.074 A 
ATOM     30  C   UNL A   1      42.680  27.384  30.720  1.00  0.00     0.029 A 
ATOM     31  N   UNL A   1      41.646  28.944  31.925  1.00  0.00    -0.354 N 
ATOM     32  N   UNL A   1      41.268  30.666  34.282  1.00  0.00    -0.248 NA
ATOM     33  C   UNL A   1      41.821  31.269  36.470  1.00  0.00     0.031 C 
ATOM     34  C   UNL A   1      43.290  27.450  31.977  1.00  0.00     0.029 A 
ATOM     35  C   UNL A   1      42.660  28.437  32.721  1.00  0.00     0.049 A 
ATOM     36  H   UNL A   1      41.025  29.661  32.189  1.00  0.00     0.167 HD
ATOM     37  C   UNL A   1      42.315  29.867  34.721  1.00  0.00     0.074 A 
ATOM     38  C   UNL A   1      42.628  30.294  36.071  1.00  0.00     0.031 C 
ATOM     39  C   UNL A   1      42.960  28.876  34.062  1.00  0.00     0.037 A 
BRANCH  26  40
ATOM     40  C   UNL A   1      40.727  27.678  28.420  1.00  0.00     0.057 A 
ATOM     41  C   UNL A   1      41.478  28.026  27.289  1.00  0.00     0.134 A 
ATOM     42  C   UNL A   1      40.016  26.472  28.376  1.00  0.00     0.134 A 
ATOM     43  F   UNL A   1      42.174  29.173  27.260  1.00  0.00    -0.206 F 
ATOM     44  C   UNL A   1      41.494  27.221  26.147  1.00  0.00     0.040 A 
ATOM     45  C   UNL A   1      40.045  25.647  27.250  1.00  0.00     0.040 A 
ATOM     46  F   UNL A   1      39.282  26.075  29.426  1.00  0.00    -0.206 F 
ATOM     47  C   UNL A   1      40.778  26.026  26.128  1.00  0.00     0.006 A 
ENDBRANCH  26  40
BRANCH  27  48
ATOM     48  C   UNL A   1      39.748  33.358  36.577  1.00  0.00     0.057 A 
ATOM     49  C   UNL A   1      40.443  34.551  36.793  1.00  0.00     0.134 A 
ATOM     50  C   UNL A   1      38.797  32.979  37.533  1.00  0.00     0.134 A 
ATOM     51  F   UNL A   1      41.374  34.957  35.916  1.00  0.00    -0.206 F 
ATOM     52  C   UNL A   1      40.201  35.343  37.916  1.00  0.00     0.040 A 
ATOM     53  C   UNL A   1      38.528  33.772  38.649  1.00  0.00     0.040 A 
ATOM     54  F   UNL A   1      38.090  31.851  37.375  1.00  0.00    -0.206 F 
ATOM     55  C   UNL A   1      39.233  34.959  38.842  1.00  0.00     0.006 A 
ENDBRANCH  27  48
BRANCH  39  56
ATOM     56  C   UNL A   1      44.094  28.200  34.774  1.00  0.00     0.057 A 
ATOM     57  C   UNL A   1      43.909  27.018  35.500  1.00  0.00     0.134 A 
ATOM     58  C   UNL A   1      45.397  28.703  34.670  1.00  0.00     0.134 A 
ATOM     59  F   UNL A   1      42.683  26.495  35.647  1.00  0.00    -0.206 F 
ATOM     60  C   UNL A   1      44.983  26.363  36.106  1.00  0.00     0.040 A 
ATOM     61  C   UNL A   1      46.480  28.046  35.253  1.00  0.00     0.040 A 
ATOM     62  F   UNL A   1      45.639  29.829  33.983  1.00  0.00    -0.206 F 
ATOM     63  C   UNL A   1      46.273  26.872  35.975  1.00  0.00     0.006 A 
ENDBRANCH  39  56
ENDBRANCH  13  14
ENDBRANCH   6   8
ENDBRANCH   3   4
ENDBRANCH   2   3
ENDBRANCH   1   2
BRANCH   1  64
ATOM     64  C   UNL A   1      32.739  29.629  26.687  1.00  0.00     0.002 C 
BRANCH  64  65
ATOM     65  C   UNL A   1      33.538  28.910  25.599  1.00  0.00     0.021 C 
BRANCH  65  66
ATOM     66  C   UNL A   1      33.166  29.328  24.183  1.00  0.00     0.116 C 
BRANCH  66  67
ATOM     67  N   UNL A   1      33.475  28.309  23.208  1.00  0.00    -0.356 N 
ATOM     68  C   UNL A   1      32.817  27.292  22.620  1.00  0.00     0.224 C 
ATOM     69  H   UNL A   1      34.406  28.374  22.894  1.00  0.00     0.163 HD
ATOM     70  O   UNL A   1      33.497  26.687  21.776  1.00  0.00    -0.275 OA
BRANCH  68  71
ATOM     71  C   UNL A   1      31.359  26.854  22.833  1.00  0.00     0.095 C 
ATOM     72  C   UNL A   1      31.308  25.306  22.793  1.00  0.00     0.041 C 
ATOM     73  C   UNL A   1      30.492  27.413  23.971  1.00  0.00     0.095 C 
ATOM     74  C   UNL A   1      31.481  24.672  24.138  1.00  0.00    -0.030 C 
ATOM     75  C   UNL A   1      30.667  26.707  25.328  1.00  0.00     0.041 C 
ATOM     76  C   UNL A   1      31.200  25.311  25.278  1.00  0.00    -0.030 C 
BRANCH  73  77
ATOM     77  C   UNL A   1      29.036  27.444  23.539  1.00  0.00     0.224 C 
ATOM     78  O   UNL A   1      28.259  26.532  23.829  1.00  0.00    -0.275 OA
ATOM     79  N   UNL A   1      28.546  28.444  22.752  1.00  0.00    -0.353 N 
ATOM     80  H   UNL A   1      27.687  28.187  22.342  1.00  0.00     0.163 HD
BRANCH  79  81
ATOM     81  C   UNL A   1      28.949  29.813  22.345  1.00  0.00     0.082 C 
ATOM     82  C   UNL A   1      28.169  30.453  21.187  1.00  0.00     0.025 C 
ATOM     83  C   UNL A   1      28.883  30.691  23.611  1.00  0.00     0.025 C 
ATOM     84  C   UNL A   1      28.404  31.951  21.003  1.00  0.00     0.002 C 
ATOM     85  C   UNL A   1      29.151  32.170  23.362  1.00  0.00     0.002 C 
ATOM     86  C   UNL A   1      28.219  32.721  22.295  1.00  0.00     0.000 C 
ENDBRANCH  79  81
ENDBRANCH  73  77
ENDBRANCH  68  71
ENDBRANCH  66  67
ENDBRANCH  65  66
ENDBRANCH  64  65
ENDBRANCH   1  64
TORSDOF 15
ENDMDL
MODEL 3
REMARK VINA RESULT:     -11.9      1.511      3.815
REMARK SMILES O=C(NCCCCCCNC(=O)[C@H]1CC=CC[C@@H]1C(=O)NC1CCCCC1)c1ccc(-c2c3nc(c(-c4c(F)cccc4F)c4ccc([nH]4)c(-c4c(F)cccc4F)c4nc(c(-c5c(F)cccc5F)c5ccc2[nH]5)C=C4)C=C3)cc1
REMARK SMILES IDX 6 1 5 2 4 3 3 4 1 5 2 6 28 8 29 9 81 10 30 11 80 12 31 13
REMARK SMILES IDX 32 14 33 15 74 16 34 17 79 18 73 19 75 20 35 21 78 22 72 23
REMARK SMILES IDX 71 24 36 26 62 27 45 28 61 29 46 30 49 31 60 32 76 33 47 34
REMARK SMILES IDX 48 35 59 37 77 38 50 39 37 40 38 41 43 42 39 43 40 44 42 45
REMARK SMILES IDX 44 46 41 47 63 48 64 49 69 50 65 51 66 52 68 53 70 54 67 55
REMARK SMILES IDX 51 56 52 57 57 58 53 59 54 60 56 61 58 62 55 63 7 64 8 65
REMARK SMILES IDX 9 66 10 67 11 68 12 70 13 71 14 72 18 73 15 74 17 75 16 76
REMARK SMILES IDX 19 77 20 78 21 79 22 81 23 82 27 83 24 84 26 85 25 86
REMARK H PARENT 3 7 75 25 49 36 10 69 21 80
REMARK Flexibility Score: inf
ROOT
ATOM      1  C   UNL A   1      36.930  20.500  24.977  1.00  0.00     0.002 C 
ENDROOT
BRANCH   1   2
ATOM      2  C   UNL A   1      38.172  19.604  24.967  1.00  0.00     0.021 C 
BRANCH   2   3
ATOM      3  C   UNL A   1      39.245  19.993  25.978  1.00  0.00     0.116 C 
BRANCH   3   4
ATOM      4  N   UNL A   1      40.329  19.028  26.007  1.00  0.00    -0.352 N 
ATOM      5  O   UNL A   1      42.460  18.321  25.856  1.00  0.00    -0.269 OA
ATOM      6  C   UNL A   1      41.679  19.235  26.098  1.00  0.00     0.251 C 
ATOM      7  H   UNL A   1      40.051  18.084  25.954  1.00  0.00     0.163 HD
BRANCH   6   8
ATOM      8  C   UNL A   1      42.197  20.563  26.484  1.00  0.00     0.039 A 
ATOM      9  C   UNL A   1      42.622  21.476  25.513  1.00  0.00     0.014 A 
ATOM     10  C   UNL A   1      42.194  20.919  27.835  1.00  0.00     0.014 A 
ATOM     11  C   UNL A   1      43.127  22.714  25.900  1.00  0.00     0.010 A 
ATOM     12  C   UNL A   1      42.640  22.184  28.216  1.00  0.00     0.010 A 
ATOM     13  C   UNL A   1      43.120  23.084  27.252  1.00  0.00    -0.014 A 
BRANCH  13  14
ATOM     14  C   UNL A   1      43.540  24.448  27.655  1.00  0.00     0.031 A 
ATOM     15  C   UNL A   1      42.524  25.483  28.027  1.00  0.00     0.074 A 
ATOM     16  C   UNL A   1      44.850  24.755  27.629  1.00  0.00     0.049 A 
ATOM     17  N   UNL A   1      42.700  26.750  28.306  1.00  0.00    -0.248 NA
ATOM     18  C   UNL A   1      41.122  25.043  28.080  1.00  0.00     0.031 C 
ATOM     19  C   UNL A   1      45.925  23.830  27.268  1.00  0.00     0.029 A 
ATOM     20  N   UNL A   1      45.498  25.935  27.889  1.00  0.00    -0.354 N 
ATOM     21  C   UNL A   1      41.434  27.264  28.544  1.00  0.00     0.074 A 
ATOM     22  C   UNL A   1      40.495  26.178  28.358  1.00  0.00     0.031 C 
ATOM     23  C   UNL A   1      47.098  24.475  27.328  1.00  0.00     0.029 A 
ATOM     24  C   UNL A   1      46.853  25.871  27.673  1.00  0.00     0.049 A 
ATOM     25  H   UNL A   1      45.037  26.748  28.199  1.00  0.00     0.167 HD
ATOM     26  C   UNL A   1      41.091  28.529  28.889  1.00  0.00     0.037 A 
ATOM     27  C   UNL A   1      47.790  26.835  27.711  1.00  0.00     0.037 A 
ATOM     28  C   UNL A   1      42.036  29.599  29.075  1.00  0.00     0.049 A 
ATOM     29  C   UNL A   1      47.385  28.234  28.064  1.00  0.00     0.074 A 
ATOM     30  C   UNL A   1      41.796  30.902  29.476  1.00  0.00     0.029 A 
ATOM     31  N   UNL A   1      43.403  29.493  28.857  1.00  0.00    -0.354 N 
ATOM     32  N   UNL A   1      46.189  28.700  28.338  1.00  0.00    -0.248 NA
ATOM     33  C   UNL A   1      48.451  29.243  28.115  1.00  0.00     0.031 C 
ATOM     34  C   UNL A   1      43.010  31.597  29.451  1.00  0.00     0.029 A 
ATOM     35  C   UNL A   1      44.016  30.714  29.086  1.00  0.00     0.049 A 
ATOM     36  H   UNL A   1      43.868  28.670  28.581  1.00  0.00     0.167 HD
ATOM     37  C   UNL A   1      46.360  30.050  28.612  1.00  0.00     0.074 A 
ATOM     38  C   UNL A   1      47.777  30.327  28.478  1.00  0.00     0.031 C 
ATOM     39  C   UNL A   1      45.428  30.972  28.951  1.00  0.00     0.037 A 
BRANCH  26  40
ATOM     40  C   UNL A   1      39.628  28.827  29.052  1.00  0.00     0.057 A 
ATOM     41  C   UNL A   1      38.976  28.704  30.287  1.00  0.00     0.134 A 
ATOM     42  C   UNL A   1      38.864  29.256  27.960  1.00  0.00     0.134 A 
ATOM     43  F   UNL A   1      39.646  28.286  31.372  1.00  0.00    -0.206 F 
ATOM     44  C   UNL A   1      37.611  28.966  30.421  1.00  0.00     0.040 A 
ATOM     45  C   UNL A   1      37.504  29.546  28.087  1.00  0.00     0.040 A 
ATOM     46  F   UNL A   1      39.425  29.403  26.750  1.00  0.00    -0.206 F 
ATOM     47  C   UNL A   1      36.872  29.392  29.319  1.00  0.00     0.006 A 
ENDBRANCH  26  40
BRANCH  27  48
ATOM     48  C   UNL A   1      49.194  26.489  27.385  1.00  0.00     0.057 A 
ATOM     49  C   UNL A   1      49.670  26.553  26.072  1.00  0.00     0.134 A 
ATOM     50  C   UNL A   1      50.108  26.149  28.390  1.00  0.00     0.134 A 
ATOM     51  F   UNL A   1      48.836  26.862  25.067  1.00  0.00    -0.206 F 
ATOM     52  C   UNL A   1      51.007  26.295  25.767  1.00  0.00     0.040 A 
ATOM     53  C   UNL A   1      51.453  25.910  28.104  1.00  0.00     0.040 A 
ATOM     54  F   UNL A   1      49.714  26.083  29.670  1.00  0.00    -0.206 F 
ATOM     55  C   UNL A   1      51.904  25.982  26.787  1.00  0.00     0.006 A 
ENDBRANCH  27  48
BRANCH  39  56
ATOM     56  C   UNL A   1      45.907  32.365  29.233  1.00  0.00     0.057 A 
ATOM     57  C   UNL A   1      46.340  32.752  30.506  1.00  0.00     0.134 A 
ATOM     58  C   UNL A   1      46.001  33.305  28.199  1.00  0.00     0.134 A 
ATOM     59  F   UNL A   1      46.262  31.901  31.539  1.00  0.00    -0.206 F 
ATOM     60  C   UNL A   1      46.844  34.032  30.743  1.00  0.00     0.040 A 
ATOM     61  C   UNL A   1      46.523  34.580  28.419  1.00  0.00     0.040 A 
ATOM     62  F   UNL A   1      45.607  32.992  26.956  1.00  0.00    -0.206 F 
ATOM     63  C   UNL A   1      46.946  34.946  29.695  1.00  0.00     0.006 A 
ENDBRANCH  39  56
ENDBRANCH  13  14
ENDBRANCH   6   8
ENDBRANCH   3   4
ENDBRANCH   2   3
ENDBRANCH   1   2
BRANCH   1  64
ATOM     64  C   UNL A   1      37.116  21.904  24.384  1.00  0.00     0.002 C 
BRANCH  64  65
ATOM     65  C   UNL A   1      37.343  23.024  25.401  1.00  0.00     0.021 C 
BRANCH  65  66
ATOM     66  C   UNL A   1      36.067  23.735  25.830  1.00  0.00     0.116 C 
BRANCH  66  67
ATOM     67  N   UNL A   1      35.286  22.953  26.759  1.00  0.00    -0.356 N 
ATOM     68  C   UNL A   1      34.102  22.310  26.737  1.00  0.00     0.224 C 
ATOM     69  H   UNL A   1      35.733  22.868  27.632  1.00  0.00     0.163 HD
ATOM     70  O   UNL A   1      33.847  21.710  27.793  1.00  0.00    -0.275 OA
BRANCH  68  71
ATOM     71  C   UNL A   1      33.101  22.200  25.575  1.00  0.00     0.095 C 
ATOM     72  C   UNL A   1      32.076  23.353  25.710  1.00  0.00     0.041 C 
ATOM     73  C   UNL A   1      33.553  22.020  24.118  1.00  0.00     0.095 C 
ATOM     74  C   UNL A   1      32.479  24.595  24.976  1.00  0.00    -0.030 C 
ATOM     75  C   UNL A   1      33.918  23.324  23.385  1.00  0.00     0.041 C 
ATOM     76  C   UNL A   1      33.318  24.578  23.935  1.00  0.00    -0.030 C 
BRANCH  73  77
ATOM     77  C   UNL A   1      32.512  21.220  23.353  1.00  0.00     0.224 C 
ATOM     78  O   UNL A   1      31.733  21.763  22.567  1.00  0.00    -0.275 OA
ATOM     79  N   UNL A   1      32.346  19.883  23.559  1.00  0.00    -0.353 N 
ATOM     80  H   UNL A   1      31.480  19.573  23.209  1.00  0.00     0.163 HD
BRANCH  79  81
ATOM     81  C   UNL A   1      33.113  18.767  24.166  1.00  0.00     0.082 C 
ATOM     82  C   UNL A   1      32.516  18.114  25.421  1.00  0.00     0.025 C 
ATOM     83  C   UNL A   1      33.336  17.724  23.051  1.00  0.00     0.025 C 
ATOM     84  C   UNL A   1      33.165  16.792  25.830  1.00  0.00     0.002 C 
ATOM     85  C   UNL A   1      34.009  16.439  23.521  1.00  0.00     0.002 C 
ATOM     86  C   UNL A   1      33.244  15.814  24.676  1.00  0.00     0.000 C 
ENDBRANCH  79  81
ENDBRANCH  73  77
ENDBRANCH  68  71
ENDBRANCH  66  67
ENDBRANCH  65  66
ENDBRANCH  64  65
ENDBRANCH   1  64
TORSDOF 15
ENDMDL
