MODEL 1
REMARK VINA RESULT:     -13.1      0.000      0.000
REMARK SMILES O=C(N[C@]1(C(=O)NCCCCCCNC(=O)c2ccc(-c3c4nc(c(-c5c(F)cccc5F)c5ccc([nH]5)c(-c5c(F)cccc5F)c5nc(c(-c6c(F)cccc6F)c6ccc3[nH]6)C=C5)C=C4)cc2)CC[C@H](c2ccccc2)CC1)OCC1c2ccccc2-c2ccccc21
REMARK SMILES IDX 9 1 8 2 7 3 5 4 6 5 4 7 71 8 81 9 72 10 80 11 73 12 3 13
REMARK SMILES IDX 1 14 2 15 82 17 83 18 84 19 85 20 96 21 86 22 90 23 91 24
REMARK SMILES IDX 95 25 87 26 89 27 92 28 94 29 88 30 93 31 74 32 75 33 79 34
REMARK SMILES IDX 76 35 78 36 77 37 10 38 11 39 12 40 13 41 14 42 15 43 16 45
REMARK SMILES IDX 17 46 18 47 70 48 19 49 69 50 20 51 21 52 22 53 63 54 23 55
REMARK SMILES IDX 68 56 62 57 64 58 24 59 67 60 61 61 60 62 25 64 51 65 34 66
REMARK SMILES IDX 50 67 35 68 38 69 49 70 65 71 36 72 37 73 48 75 66 76 39 77
REMARK SMILES IDX 26 78 27 79 32 80 28 81 29 82 31 83 33 84 30 85 52 86 53 87
REMARK SMILES IDX 58 88 54 89 55 90 57 91 59 92 56 93 40 94 41 95 46 96 42 97
REMARK SMILES IDX 43 98 45 99 47 100 44 101
REMARK H PARENT 7 6 3 16 14 44 64 63 38 74
REMARK Flexibility Score: inf
ROOT
ATOM      1  C   UNL A   1      34.227  19.070  24.678  1.00  0.00     0.021 C 
ENDROOT
BRANCH   1   2
ATOM      2  C   UNL A   1      33.088  19.477  25.601  1.00  0.00     0.116 C 
BRANCH   2   3
ATOM      3  N   UNL A   1      33.538  20.291  26.700  1.00  0.00    -0.354 N 
ATOM      4  C   UNL A   1      33.455  21.616  26.981  1.00  0.00     0.245 C 
ATOM      5  O   UNL A   1      33.831  21.893  28.132  1.00  0.00    -0.272 OA
ATOM      6  H   UNL A   1      34.006  19.777  27.398  1.00  0.00     0.163 HD
BRANCH   4   7
ATOM      7  C   UNL A   1      32.895  22.737  26.006  1.00  0.00     0.122 C 
ATOM      8  C   UNL A   1      32.595  22.212  24.578  1.00  0.00     0.039 C 
ATOM      9  C   UNL A   1      33.706  24.043  25.969  1.00  0.00     0.039 C 
ATOM     10  C   UNL A   1      33.597  22.506  23.450  1.00  0.00     0.011 C 
ATOM     11  C   UNL A   1      34.762  24.218  24.898  1.00  0.00     0.011 C 
ATOM     12  C   UNL A   1      34.289  23.883  23.481  1.00  0.00     0.019 C 
BRANCH   7  13
ATOM     13  N   UNL A   1      31.551  23.055  26.611  1.00  0.00    -0.307 N 
ATOM     14  O   UNL A   1      29.613  24.205  26.810  1.00  0.00    -0.225 OA
ATOM     15  C   UNL A   1      30.767  24.153  26.400  1.00  0.00     0.408 C 
ATOM     16  H   UNL A   1      31.194  22.386  27.238  1.00  0.00     0.168 HD
BRANCH  15  17
ATOM     17  O   UNL A   1      31.350  25.099  25.624  1.00  0.00    -0.449 OA
BRANCH  17  18
ATOM     18  C   UNL A   1      30.770  26.395  25.788  1.00  0.00     0.248 C 
BRANCH  18  19
ATOM     19  C   UNL A   1      31.350  27.450  24.821  1.00  0.00     0.088 C 
ATOM     20  C   UNL A   1      30.381  28.454  24.199  1.00  0.00    -0.029 A 
ATOM     21  C   UNL A   1      32.269  28.389  25.609  1.00  0.00    -0.029 A 
ATOM     22  C   UNL A   1      29.447  28.235  23.198  1.00  0.00     0.005 A 
ATOM     23  C   UNL A   1      30.636  29.756  24.683  1.00  0.00    -0.014 A 
ATOM     24  C   UNL A   1      31.754  29.703  25.598  1.00  0.00    -0.014 A 
ATOM     25  C   UNL A   1      33.433  28.079  26.293  1.00  0.00     0.005 A 
ATOM     26  C   UNL A   1      28.787  29.343  22.659  1.00  0.00     0.000 A 
ATOM     27  C   UNL A   1      29.950  30.850  24.180  1.00  0.00     0.009 A 
ATOM     28  C   UNL A   1      32.352  30.703  26.345  1.00  0.00     0.009 A 
ATOM     29  C   UNL A   1      34.056  29.096  27.017  1.00  0.00     0.000 A 
ATOM     30  C   UNL A   1      29.036  30.638  23.146  1.00  0.00     0.001 A 
ATOM     31  C   UNL A   1      33.508  30.389  27.064  1.00  0.00     0.001 A 
ENDBRANCH  18  19
ENDBRANCH  17  18
ENDBRANCH  15  17
ENDBRANCH   7  13
BRANCH  12  32
ATOM     32  C   UNL A   1      33.562  25.054  22.828  1.00  0.00    -0.045 A 
ATOM     33  C   UNL A   1      32.374  24.916  22.101  1.00  0.00     0.004 A 
ATOM     34  C   UNL A   1      34.149  26.336  22.881  1.00  0.00     0.004 A 
ATOM     35  C   UNL A   1      31.787  26.018  21.469  1.00  0.00     0.000 A 
ATOM     36  C   UNL A   1      33.550  27.440  22.274  1.00  0.00     0.000 A 
ATOM     37  C   UNL A   1      32.369  27.279  21.563  1.00  0.00     0.000 A 
ENDBRANCH  12  32
ENDBRANCH   4   7
ENDBRANCH   2   3
ENDBRANCH   1   2
BRANCH   1  38
ATOM     38  C   UNL A   1      35.511  19.863  24.909  1.00  0.00     0.002 C 
BRANCH  38  39
ATOM     39  C   UNL A   1      36.768  18.983  24.956  1.00  0.00     0.002 C 
BRANCH  39  40
ATOM     40  C   UNL A   1      38.083  19.697  24.620  1.00  0.00     0.021 C 
BRANCH  40  41
ATOM     41  C   UNL A   1      38.988  19.964  25.820  1.00  0.00     0.116 C 
BRANCH  41  42
ATOM     42  N   UNL A   1      40.125  19.057  25.849  1.00  0.00    -0.352 N 
ATOM     43  C   UNL A   1      41.450  19.354  26.048  1.00  0.00     0.251 C 
ATOM     44  H   UNL A   1      39.917  18.106  25.708  1.00  0.00     0.163 HD
ATOM     45  O   UNL A   1      42.327  18.527  25.827  1.00  0.00    -0.269 OA
BRANCH  43  46
ATOM     46  C   UNL A   1      41.803  20.702  26.526  1.00  0.00     0.039 A 
ATOM     47  C   UNL A   1      42.073  20.904  27.880  1.00  0.00     0.014 A 
ATOM     48  C   UNL A   1      41.913  21.749  25.608  1.00  0.00     0.014 A 
ATOM     49  C   UNL A   1      42.515  22.156  28.311  1.00  0.00     0.010 A 
ATOM     50  C   UNL A   1      42.416  22.974  26.026  1.00  0.00     0.010 A 
ATOM     51  C   UNL A   1      42.717  23.189  27.381  1.00  0.00    -0.014 A 
BRANCH  51  52
ATOM     52  C   UNL A   1      43.227  24.520  27.791  1.00  0.00     0.031 A 
ATOM     53  C   UNL A   1      42.255  25.581  28.219  1.00  0.00     0.074 A 
ATOM     54  C   UNL A   1      44.537  24.806  27.669  1.00  0.00     0.049 A 
ATOM     55  N   UNL A   1      42.465  26.848  28.463  1.00  0.00    -0.248 NA
ATOM     56  C   UNL A   1      40.849  25.166  28.352  1.00  0.00     0.031 C 
ATOM     57  C   UNL A   1      45.568  23.875  27.214  1.00  0.00     0.029 A 
ATOM     58  N   UNL A   1      45.216  25.978  27.886  1.00  0.00    -0.354 N 
ATOM     59  C   UNL A   1      41.218  27.387  28.743  1.00  0.00     0.074 A 
ATOM     60  C   UNL A   1      40.251  26.322  28.594  1.00  0.00     0.031 C 
ATOM     61  C   UNL A   1      46.750  24.511  27.183  1.00  0.00     0.029 A 
ATOM     62  C   UNL A   1      46.553  25.902  27.579  1.00  0.00     0.049 A 
ATOM     63  H   UNL A   1      44.787  26.796  28.230  1.00  0.00     0.167 HD
ATOM     64  C   UNL A   1      40.907  28.653  29.109  1.00  0.00     0.037 A 
ATOM     65  C   UNL A   1      47.506  26.853  27.596  1.00  0.00     0.037 A 
ATOM     66  C   UNL A   1      41.879  29.698  29.289  1.00  0.00     0.049 A 
ATOM     67  C   UNL A   1      47.148  28.247  28.026  1.00  0.00     0.074 A 
ATOM     68  C   UNL A   1      41.681  30.991  29.738  1.00  0.00     0.029 A 
ATOM     69  N   UNL A   1      43.234  29.566  29.024  1.00  0.00    -0.354 N 
ATOM     70  N   UNL A   1      45.976  28.730  28.362  1.00  0.00    -0.248 NA
ATOM     71  C   UNL A   1      48.241  29.228  28.086  1.00  0.00     0.031 C 
ATOM     72  C   UNL A   1      42.912  31.657  29.705  1.00  0.00     0.029 A 
ATOM     73  C   UNL A   1      43.883  30.763  29.279  1.00  0.00     0.049 A 
ATOM     74  H   UNL A   1      43.670  28.744  28.704  1.00  0.00     0.167 HD
ATOM     75  C   UNL A   1      46.192  30.059  28.698  1.00  0.00     0.074 A 
ATOM     76  C   UNL A   1      47.609  30.308  28.528  1.00  0.00     0.031 C 
ATOM     77  C   UNL A   1      45.297  30.988  29.114  1.00  0.00     0.037 A 
BRANCH  64  78
ATOM     78  C   UNL A   1      39.456  28.969  29.326  1.00  0.00     0.057 A 
ATOM     79  C   UNL A   1      38.640  29.459  28.298  1.00  0.00     0.134 A 
ATOM     80  C   UNL A   1      38.869  28.788  30.585  1.00  0.00     0.134 A 
ATOM     81  F   UNL A   1      39.143  29.667  27.072  1.00  0.00    -0.206 F 
ATOM     82  C   UNL A   1      37.304  29.798  28.524  1.00  0.00     0.040 A 
ATOM     83  C   UNL A   1      37.526  29.095  30.815  1.00  0.00     0.040 A 
ATOM     84  F   UNL A   1      39.590  28.316  31.613  1.00  0.00    -0.206 F 
ATOM     85  C   UNL A   1      36.743  29.613  29.785  1.00  0.00     0.006 A 
ENDBRANCH  64  78
BRANCH  65  86
ATOM     86  C   UNL A   1      48.894  26.501  27.205  1.00  0.00     0.057 A 
ATOM     87  C   UNL A   1      49.787  25.949  28.130  1.00  0.00     0.134 A 
ATOM     88  C   UNL A   1      49.346  26.671  25.890  1.00  0.00     0.134 A 
ATOM     89  F   UNL A   1      49.415  25.777  29.406  1.00  0.00    -0.206 F 
ATOM     90  C   UNL A   1      51.083  25.584  27.763  1.00  0.00     0.040 A 
ATOM     91  C   UNL A   1      50.633  26.290  25.506  1.00  0.00     0.040 A 
ATOM     92  F   UNL A   1      48.533  27.184  24.955  1.00  0.00    -0.206 F 
ATOM     93  C   UNL A   1      51.507  25.747  26.446  1.00  0.00     0.006 A 
ENDBRANCH  65  86
BRANCH  77  94
ATOM     94  C   UNL A   1      45.819  32.353  29.450  1.00  0.00     0.057 A 
ATOM     95  C   UNL A   1      45.810  33.397  28.518  1.00  0.00     0.134 A 
ATOM     96  C   UNL A   1      46.254  32.645  30.749  1.00  0.00     0.134 A 
ATOM     97  F   UNL A   1      45.414  33.178  27.255  1.00  0.00    -0.206 F 
ATOM     98  C   UNL A   1      46.220  34.685  28.865  1.00  0.00     0.040 A 
ATOM     99  C   UNL A   1      46.647  33.933  31.113  1.00  0.00     0.040 A 
ATOM    100  F   UNL A   1      46.278  31.690  31.690  1.00  0.00    -0.206 F 
ATOM    101  C   UNL A   1      46.630  34.958  30.170  1.00  0.00     0.006 A 
ENDBRANCH  77  94
ENDBRANCH  51  52
ENDBRANCH  43  46
ENDBRANCH  41  42
ENDBRANCH  40  41
ENDBRANCH  39  40
ENDBRANCH  38  39
ENDBRANCH   1  38
TORSDOF 18
ENDMDL
MODEL 2
REMARK VINA RESULT:     -12.8      0.816      5.779
REMARK SMILES O=C(N[C@]1(C(=O)NCCCCCCNC(=O)c2ccc(-c3c4nc(c(-c5c(F)cccc5F)c5ccc([nH]5)c(-c5c(F)cccc5F)c5nc(c(-c6c(F)cccc6F)c6ccc3[nH]6)C=C5)C=C4)cc2)CC[C@H](c2ccccc2)CC1)OCC1c2ccccc2-c2ccccc21
REMARK SMILES IDX 9 1 8 2 7 3 5 4 6 5 4 7 71 8 81 9 72 10 80 11 73 12 3 13
REMARK SMILES IDX 1 14 2 15 82 17 83 18 84 19 85 20 96 21 86 22 90 23 91 24
REMARK SMILES IDX 95 25 87 26 89 27 92 28 94 29 88 30 93 31 74 32 75 33 79 34
REMARK SMILES IDX 76 35 78 36 77 37 10 38 11 39 12 40 13 41 14 42 15 43 16 45
REMARK SMILES IDX 17 46 18 47 70 48 19 49 69 50 20 51 21 52 22 53 63 54 23 55
REMARK SMILES IDX 68 56 62 57 64 58 24 59 67 60 61 61 60 62 25 64 51 65 34 66
REMARK SMILES IDX 50 67 35 68 38 69 49 70 65 71 36 72 37 73 48 75 66 76 39 77
REMARK SMILES IDX 26 78 27 79 32 80 28 81 29 82 31 83 33 84 30 85 52 86 53 87
REMARK SMILES IDX 58 88 54 89 55 90 57 91 59 92 56 93 40 94 41 95 46 96 42 97
REMARK SMILES IDX 43 98 45 99 47 100 44 101
REMARK H PARENT 7 6 3 16 14 44 64 63 38 74
REMARK Flexibility Score: inf
ROOT
ATOM      1  C   UNL A   1      34.365  19.123  24.752  1.00  0.00     0.021 C 
ENDROOT
BRANCH   1   2
ATOM      2  C   UNL A   1      33.176  19.525  25.612  1.00  0.00     0.116 C 
BRANCH   2   3
ATOM      3  N   UNL A   1      33.562  20.352  26.726  1.00  0.00    -0.354 N 
ATOM      4  C   UNL A   1      33.422  21.673  27.006  1.00  0.00     0.245 C 
ATOM      5  O   UNL A   1      33.752  21.960  28.169  1.00  0.00    -0.272 OA
ATOM      6  H   UNL A   1      34.025  19.853  27.438  1.00  0.00     0.163 HD
BRANCH   4   7
ATOM      7  C   UNL A   1      32.854  22.775  26.016  1.00  0.00     0.122 C 
ATOM      8  C   UNL A   1      32.601  22.239  24.582  1.00  0.00     0.039 C 
ATOM      9  C   UNL A   1      33.629  24.104  25.994  1.00  0.00     0.039 C 
ATOM     10  C   UNL A   1      33.620  22.559  23.477  1.00  0.00     0.011 C 
ATOM     11  C   UNL A   1      34.703  24.306  24.947  1.00  0.00     0.011 C 
ATOM     12  C   UNL A   1      34.273  23.955  23.521  1.00  0.00     0.019 C 
BRANCH   7  13
ATOM     13  N   UNL A   1      31.488  23.057  26.589  1.00  0.00    -0.307 N 
ATOM     14  O   UNL A   1      29.494  24.119  26.708  1.00  0.00    -0.225 OA
ATOM     15  C   UNL A   1      30.654  24.103  26.314  1.00  0.00     0.408 C 
ATOM     16  H   UNL A   1      31.155  22.403  27.245  1.00  0.00     0.168 HD
BRANCH  15  17
ATOM     17  O   UNL A   1      31.201  25.036  25.497  1.00  0.00    -0.449 OA
BRANCH  17  18
ATOM     18  C   UNL A   1      30.615  26.331  25.652  1.00  0.00     0.248 C 
BRANCH  18  19
ATOM     19  C   UNL A   1      31.218  27.392  24.707  1.00  0.00     0.088 C 
ATOM     20  C   UNL A   1      30.274  28.436  24.115  1.00  0.00    -0.029 A 
ATOM     21  C   UNL A   1      32.167  28.285  25.511  1.00  0.00    -0.029 A 
ATOM     22  C   UNL A   1      29.329  28.268  23.115  1.00  0.00     0.005 A 
ATOM     23  C   UNL A   1      30.569  29.719  24.628  1.00  0.00    -0.014 A 
ATOM     24  C   UNL A   1      31.689  29.614  25.534  1.00  0.00    -0.014 A 
ATOM     25  C   UNL A   1      33.326  27.927  26.180  1.00  0.00     0.005 A 
ATOM     26  C   UNL A   1      28.697  29.406  22.606  1.00  0.00     0.000 A 
ATOM     27  C   UNL A   1      29.910  30.844  24.155  1.00  0.00     0.009 A 
ATOM     28  C   UNL A   1      32.319  30.578  26.301  1.00  0.00     0.009 A 
ATOM     29  C   UNL A   1      33.982  28.909  26.924  1.00  0.00     0.000 A 
ATOM     30  C   UNL A   1      28.985  30.682  23.122  1.00  0.00     0.001 A 
ATOM     31  C   UNL A   1      33.471  30.215  27.004  1.00  0.00     0.001 A 
ENDBRANCH  18  19
ENDBRANCH  17  18
ENDBRANCH  15  17
ENDBRANCH   7  13
BRANCH  12  32
ATOM     32  C   UNL A   1      33.529  25.104  22.848  1.00  0.00    -0.045 A 
ATOM     33  C   UNL A   1      32.332  24.939  22.140  1.00  0.00     0.004 A 
ATOM     34  C   UNL A   1      34.106  26.391  22.860  1.00  0.00     0.004 A 
ATOM     35  C   UNL A   1      31.729  26.020  21.489  1.00  0.00     0.000 A 
ATOM     36  C   UNL A   1      33.492  27.475  22.233  1.00  0.00     0.000 A 
ATOM     37  C   UNL A   1      32.302  27.287  21.544  1.00  0.00     0.000 A 
ENDBRANCH  12  32
ENDBRANCH   4   7
ENDBRANCH   2   3
ENDBRANCH   1   2
BRANCH   1  38
ATOM     38  C   UNL A   1      35.597  19.998  24.966  1.00  0.00     0.002 C 
BRANCH  38  39
ATOM     39  C   UNL A   1      36.914  19.212  24.927  1.00  0.00     0.002 C 
BRANCH  39  40
ATOM     40  C   UNL A   1      38.168  20.044  24.628  1.00  0.00     0.021 C 
BRANCH  40  41
ATOM     41  C   UNL A   1      39.067  20.298  25.834  1.00  0.00     0.116 C 
BRANCH  41  42
ATOM     42  N   UNL A   1      40.106  19.287  25.955  1.00  0.00    -0.352 N 
ATOM     43  C   UNL A   1      41.452  19.464  26.153  1.00  0.00     0.251 C 
ATOM     44  H   UNL A   1      39.803  18.353  25.885  1.00  0.00     0.163 HD
ATOM     45  O   UNL A   1      42.242  18.538  26.013  1.00  0.00    -0.269 OA
BRANCH  43  46
ATOM     46  C   UNL A   1      41.936  20.804  26.529  1.00  0.00     0.039 A 
ATOM     47  C   UNL A   1      42.234  21.733  25.532  1.00  0.00     0.014 A 
ATOM     48  C   UNL A   1      42.042  21.142  27.880  1.00  0.00     0.014 A 
ATOM     49  C   UNL A   1      42.584  23.035  25.892  1.00  0.00     0.010 A 
ATOM     50  C   UNL A   1      42.325  22.454  28.236  1.00  0.00     0.010 A 
ATOM     51  C   UNL A   1      42.602  23.411  27.245  1.00  0.00    -0.014 A 
BRANCH  51  52
ATOM     52  C   UNL A   1      42.927  24.794  27.667  1.00  0.00     0.031 A 
ATOM     53  C   UNL A   1      44.360  25.175  27.905  1.00  0.00     0.074 A 
ATOM     54  C   UNL A   1      41.937  25.663  27.945  1.00  0.00     0.049 A 
ATOM     55  N   UNL A   1      44.851  26.269  28.426  1.00  0.00    -0.248 NA
ATOM     56  C   UNL A   1      45.372  24.170  27.545  1.00  0.00     0.031 C 
ATOM     57  C   UNL A   1      40.507  25.391  27.804  1.00  0.00     0.029 A 
ATOM     58  N   UNL A   1      41.987  26.942  28.439  1.00  0.00    -0.354 N 
ATOM     59  C   UNL A   1      46.223  26.071  28.486  1.00  0.00     0.074 A 
ATOM     60  C   UNL A   1      46.482  24.735  27.994  1.00  0.00     0.031 C 
ATOM     61  C   UNL A   1      39.814  26.470  28.203  1.00  0.00     0.029 A 
ATOM     62  C   UNL A   1      40.749  27.492  28.663  1.00  0.00     0.049 A 
ATOM     63  H   UNL A   1      42.830  27.421  28.614  1.00  0.00     0.167 HD
ATOM     64  C   UNL A   1      47.184  26.930  28.899  1.00  0.00     0.037 A 
ATOM     65  C   UNL A   1      40.406  28.680  29.199  1.00  0.00     0.037 A 
ATOM     66  C   UNL A   1      46.921  28.270  29.354  1.00  0.00     0.049 A 
ATOM     67  C   UNL A   1      41.486  29.631  29.631  1.00  0.00     0.074 A 
ATOM     68  C   UNL A   1      47.827  29.251  29.715  1.00  0.00     0.029 A 
ATOM     69  N   UNL A   1      45.654  28.812  29.513  1.00  0.00    -0.354 N 
ATOM     70  N   UNL A   1      42.787  29.463  29.615  1.00  0.00    -0.248 NA
ATOM     71  C   UNL A   1      41.056  30.937  30.150  1.00  0.00     0.031 C 
ATOM     72  C   UNL A   1      47.106  30.375  30.134  1.00  0.00     0.029 A 
ATOM     73  C   UNL A   1      45.753  30.109  29.989  1.00  0.00     0.049 A 
ATOM     74  H   UNL A   1      44.811  28.345  29.316  1.00  0.00     0.167 HD
ATOM     75  C   UNL A   1      43.331  30.646  30.094  1.00  0.00     0.074 A 
ATOM     76  C   UNL A   1      42.220  31.527  30.391  1.00  0.00     0.031 C 
ATOM     77  C   UNL A   1      44.634  30.974  30.268  1.00  0.00     0.037 A 
BRANCH  64  78
ATOM     78  C   UNL A   1      48.601  26.437  28.883  1.00  0.00     0.057 A 
ATOM     79  C   UNL A   1      49.184  25.814  29.995  1.00  0.00     0.134 A 
ATOM     80  C   UNL A   1      49.396  26.594  27.741  1.00  0.00     0.134 A 
ATOM     81  F   UNL A   1      48.482  25.645  31.125  1.00  0.00    -0.206 F 
ATOM     82  C   UNL A   1      50.519  25.405  29.987  1.00  0.00     0.040 A 
ATOM     83  C   UNL A   1      50.724  26.161  27.710  1.00  0.00     0.040 A 
ATOM     84  F   UNL A   1      48.900  27.175  26.638  1.00  0.00    -0.206 F 
ATOM     85  C   UNL A   1      51.292  25.575  28.840  1.00  0.00     0.006 A 
ENDBRANCH  64  78
BRANCH  65  86
ATOM     86  C   UNL A   1      38.971  29.031  29.338  1.00  0.00     0.057 A 
ATOM     87  C   UNL A   1      38.289  28.819  30.540  1.00  0.00     0.134 A 
ATOM     88  C   UNL A   1      38.260  29.622  28.285  1.00  0.00     0.134 A 
ATOM     89  F   UNL A   1      38.913  28.244  31.578  1.00  0.00    -0.206 F 
ATOM     90  C   UNL A   1      36.948  29.178  30.691  1.00  0.00     0.040 A 
ATOM     91  C   UNL A   1      36.926  30.003  28.430  1.00  0.00     0.040 A 
ATOM     92  F   UNL A   1      38.863  29.861  27.111  1.00  0.00    -0.206 F 
ATOM     93  C   UNL A   1      36.265  29.779  29.636  1.00  0.00     0.006 A 
ENDBRANCH  65  86
BRANCH  77  94
ATOM     94  C   UNL A   1      44.942  32.353  30.771  1.00  0.00     0.057 A 
ATOM     95  C   UNL A   1      45.137  32.616  32.131  1.00  0.00     0.134 A 
ATOM     96  C   UNL A   1      45.129  33.410  29.871  1.00  0.00     0.134 A 
ATOM     97  F   UNL A   1      44.962  31.648  33.043  1.00  0.00    -0.206 F 
ATOM     98  C   UNL A   1      45.505  33.885  32.581  1.00  0.00     0.040 A 
ATOM     99  C   UNL A   1      45.518  34.677  30.306  1.00  0.00     0.040 A 
ATOM    100  F   UNL A   1      44.966  33.220  28.554  1.00  0.00    -0.206 F 
ATOM    101  C   UNL A   1      45.707  34.918  31.665  1.00  0.00     0.006 A 
ENDBRANCH  77  94
ENDBRANCH  51  52
ENDBRANCH  43  46
ENDBRANCH  41  42
ENDBRANCH  40  41
ENDBRANCH  39  40
ENDBRANCH  38  39
ENDBRANCH   1  38
TORSDOF 18
ENDMDL
MODEL 3
REMARK VINA RESULT:     -12.8      4.195      7.612
REMARK SMILES O=C(N[C@]1(C(=O)NCCCCCCNC(=O)c2ccc(-c3c4nc(c(-c5c(F)cccc5F)c5ccc([nH]5)c(-c5c(F)cccc5F)c5nc(c(-c6c(F)cccc6F)c6ccc3[nH]6)C=C5)C=C4)cc2)CC[C@H](c2ccccc2)CC1)OCC1c2ccccc2-c2ccccc21
REMARK SMILES IDX 9 1 8 2 7 3 5 4 6 5 4 7 71 8 81 9 72 10 80 11 73 12 3 13
REMARK SMILES IDX 1 14 2 15 82 17 83 18 84 19 85 20 96 21 86 22 90 23 91 24
REMARK SMILES IDX 95 25 87 26 89 27 92 28 94 29 88 30 93 31 74 32 75 33 79 34
REMARK SMILES IDX 76 35 78 36 77 37 10 38 11 39 12 40 13 41 14 42 15 43 16 45
REMARK SMILES IDX 17 46 18 47 70 48 19 49 69 50 20 51 21 52 22 53 63 54 23 55
REMARK SMILES IDX 68 56 62 57 64 58 24 59 67 60 61 61 60 62 25 64 51 65 34 66
REMARK SMILES IDX 50 67 35 68 38 69 49 70 65 71 36 72 37 73 48 75 66 76 39 77
REMARK SMILES IDX 26 78 27 79 32 80 28 81 29 82 31 83 33 84 30 85 52 86 53 87
REMARK SMILES IDX 58 88 54 89 55 90 57 91 59 92 56 93 40 94 41 95 46 96 42 97
REMARK SMILES IDX 43 98 45 99 47 100 44 101
REMARK H PARENT 7 6 3 16 14 44 64 63 38 74
REMARK Flexibility Score: inf
ROOT
ATOM      1  C   UNL A   1      36.596  20.288  25.001  1.00  0.00     0.021 C 
ENDROOT
BRANCH   1   2
ATOM      2  C   UNL A   1      35.077  20.340  25.062  1.00  0.00     0.116 C 
BRANCH   2   3
ATOM      3  N   UNL A   1      34.595  20.743  26.359  1.00  0.00    -0.354 N 
ATOM      4  C   UNL A   1      33.761  21.724  26.786  1.00  0.00     0.245 C 
ATOM      5  O   UNL A   1      33.471  21.625  27.989  1.00  0.00    -0.272 OA
ATOM      6  H   UNL A   1      34.945  20.186  27.092  1.00  0.00     0.163 HD
BRANCH   4   7
ATOM      7  C   UNL A   1      33.145  22.875  25.882  1.00  0.00     0.122 C 
ATOM      8  C   UNL A   1      32.777  22.400  24.453  1.00  0.00     0.039 C 
ATOM      9  C   UNL A   1      33.944  24.189  25.853  1.00  0.00     0.039 C 
ATOM     10  C   UNL A   1      33.718  22.745  23.287  1.00  0.00     0.011 C 
ATOM     11  C   UNL A   1      34.943  24.413  24.738  1.00  0.00     0.011 C 
ATOM     12  C   UNL A   1      34.402  24.126  23.336  1.00  0.00     0.019 C 
BRANCH   7  13
ATOM     13  N   UNL A   1      31.831  23.159  26.566  1.00  0.00    -0.307 N 
ATOM     14  O   UNL A   1      29.874  24.251  26.873  1.00  0.00    -0.225 OA
ATOM     15  C   UNL A   1      31.001  24.230  26.393  1.00  0.00     0.408 C 
ATOM     16  H   UNL A   1      31.534  22.486  27.220  1.00  0.00     0.168 HD
BRANCH  15  17
ATOM     17  O   UNL A   1      31.506  25.184  25.573  1.00  0.00    -0.449 OA
BRANCH  17  18
ATOM     18  C   UNL A   1      31.253  26.513  26.036  1.00  0.00     0.248 C 
BRANCH  18  19
ATOM     19  C   UNL A   1      31.766  27.603  25.072  1.00  0.00     0.088 C 
ATOM     20  C   UNL A   1      30.754  28.617  24.542  1.00  0.00    -0.029 A 
ATOM     21  C   UNL A   1      32.723  28.525  25.834  1.00  0.00    -0.029 A 
ATOM     22  C   UNL A   1      29.764  28.422  23.591  1.00  0.00     0.005 A 
ATOM     23  C   UNL A   1      31.028  29.905  25.052  1.00  0.00    -0.014 A 
ATOM     24  C   UNL A   1      32.198  29.834  25.896  1.00  0.00    -0.014 A 
ATOM     25  C   UNL A   1      33.928  28.204  26.438  1.00  0.00     0.005 A 
ATOM     26  C   UNL A   1      29.065  29.540  23.128  1.00  0.00     0.000 A 
ATOM     27  C   UNL A   1      30.305  31.009  24.626  1.00  0.00     0.009 A 
ATOM     28  C   UNL A   1      32.832  30.815  26.639  1.00  0.00     0.009 A 
ATOM     29  C   UNL A   1      34.586  29.203  27.157  1.00  0.00     0.000 A 
ATOM     30  C   UNL A   1      29.332  30.822  23.642  1.00  0.00     0.001 A 
ATOM     31  C   UNL A   1      34.032  30.489  27.277  1.00  0.00     0.001 A 
ENDBRANCH  18  19
ENDBRANCH  17  18
ENDBRANCH  15  17
ENDBRANCH   7  13
BRANCH  12  32
ATOM     32  C   UNL A   1      33.634  25.314  22.764  1.00  0.00    -0.045 A 
ATOM     33  C   UNL A   1      32.387  25.198  22.139  1.00  0.00     0.004 A 
ATOM     34  C   UNL A   1      34.237  26.589  22.785  1.00  0.00     0.004 A 
ATOM     35  C   UNL A   1      31.760  26.315  21.576  1.00  0.00     0.000 A 
ATOM     36  C   UNL A   1      33.601  27.708  22.247  1.00  0.00     0.000 A 
ATOM     37  C   UNL A   1      32.361  27.569  21.638  1.00  0.00     0.000 A 
ENDBRANCH  12  32
ENDBRANCH   4   7
ENDBRANCH   2   3
ENDBRANCH   1   2
BRANCH   1  38
ATOM     38  C   UNL A   1      37.236  21.606  24.576  1.00  0.00     0.002 C 
BRANCH  38  39
ATOM     39  C   UNL A   1      37.815  22.406  25.751  1.00  0.00     0.002 C 
BRANCH  39  40
ATOM     40  C   UNL A   1      39.190  21.942  26.249  1.00  0.00     0.021 C 
BRANCH  40  41
ATOM     41  C   UNL A   1      40.030  23.030  26.911  1.00  0.00     0.116 C 
BRANCH  41  42
ATOM     42  N   UNL A   1      41.213  23.349  26.126  1.00  0.00    -0.352 N 
ATOM     43  C   UNL A   1      41.882  24.544  26.035  1.00  0.00     0.251 C 
ATOM     44  H   UNL A   1      41.583  22.610  25.591  1.00  0.00     0.163 HD
ATOM     45  O   UNL A   1      42.728  24.735  25.170  1.00  0.00    -0.269 OA
BRANCH  43  46
ATOM     46  C   UNL A   1      41.552  25.608  27.000  1.00  0.00     0.039 A 
ATOM     47  C   UNL A   1      40.613  25.362  28.003  1.00  0.00     0.014 A 
ATOM     48  C   UNL A   1      42.221  26.832  26.927  1.00  0.00     0.014 A 
ATOM     49  C   UNL A   1      40.386  26.331  28.980  1.00  0.00     0.010 A 
ATOM     50  C   UNL A   1      42.043  27.768  27.937  1.00  0.00     0.010 A 
ATOM     51  C   UNL A   1      41.121  27.528  28.970  1.00  0.00    -0.014 A 
BRANCH  51  52
ATOM     52  C   UNL A   1      40.940  28.564  30.014  1.00  0.00     0.031 A 
ATOM     53  C   UNL A   1      41.757  28.492  31.273  1.00  0.00     0.074 A 
ATOM     54  C   UNL A   1      39.973  29.491  29.883  1.00  0.00     0.049 A 
ATOM     55  N   UNL A   1      41.650  29.193  32.371  1.00  0.00    -0.248 NA
ATOM     56  C   UNL A   1      42.809  27.464  31.312  1.00  0.00     0.031 C 
ATOM     57  C   UNL A   1      39.082  29.628  28.731  1.00  0.00     0.029 A 
ATOM     58  N   UNL A   1      39.558  30.473  30.747  1.00  0.00    -0.354 N 
ATOM     59  C   UNL A   1      42.595  28.669  33.242  1.00  0.00     0.074 A 
ATOM     60  C   UNL A   1      43.234  27.564  32.562  1.00  0.00     0.031 C 
ATOM     61  C   UNL A   1      38.223  30.635  28.959  1.00  0.00     0.029 A 
ATOM     62  C   UNL A   1      38.478  31.187  30.286  1.00  0.00     0.049 A 
ATOM     63  H   UNL A   1      39.992  30.650  31.613  1.00  0.00     0.167 HD
ATOM     64  C   UNL A   1      42.915  29.083  34.490  1.00  0.00     0.037 A 
ATOM     65  C   UNL A   1      37.762  32.163  30.878  1.00  0.00     0.037 A 
ATOM     66  C   UNL A   1      42.300  30.206  35.146  1.00  0.00     0.049 A 
ATOM     67  C   UNL A   1      38.146  32.625  32.255  1.00  0.00     0.074 A 
ATOM     68  C   UNL A   1      42.607  30.762  36.375  1.00  0.00     0.029 A 
ATOM     69  N   UNL A   1      41.247  30.943  34.623  1.00  0.00    -0.354 N 
ATOM     70  N   UNL A   1      39.092  32.172  33.042  1.00  0.00    -0.248 NA
ATOM     71  C   UNL A   1      37.370  33.736  32.825  1.00  0.00     0.031 C 
ATOM     72  C   UNL A   1      41.711  31.809  36.615  1.00  0.00     0.029 A 
ATOM     73  C   UNL A   1      40.876  31.935  35.515  1.00  0.00     0.049 A 
ATOM     74  H   UNL A   1      40.826  30.784  33.747  1.00  0.00     0.167 HD
ATOM     75  C   UNL A   1      39.044  32.956  34.187  1.00  0.00     0.074 A 
ATOM     76  C   UNL A   1      37.976  33.916  33.992  1.00  0.00     0.031 C 
ATOM     77  C   UNL A   1      39.817  32.888  35.298  1.00  0.00     0.037 A 
BRANCH  64  78
ATOM     78  C   UNL A   1      43.970  28.307  35.222  1.00  0.00     0.057 A 
ATOM     79  C   UNL A   1      43.654  27.230  36.060  1.00  0.00     0.134 A 
ATOM     80  C   UNL A   1      45.323  28.648  35.094  1.00  0.00     0.134 A 
ATOM     81  F   UNL A   1      42.377  26.860  36.238  1.00  0.00    -0.206 F 
ATOM     82  C   UNL A   1      44.639  26.547  36.777  1.00  0.00     0.040 A 
ATOM     83  C   UNL A   1      46.320  27.953  35.782  1.00  0.00     0.040 A 
ATOM     84  F   UNL A   1      45.698  29.665  34.303  1.00  0.00    -0.206 F 
ATOM     85  C   UNL A   1      45.977  26.906  36.636  1.00  0.00     0.006 A 
ENDBRANCH  64  78
BRANCH  65  86
ATOM     86  C   UNL A   1      36.620  32.771  30.152  1.00  0.00     0.057 A 
ATOM     87  C   UNL A   1      35.299  32.469  30.500  1.00  0.00     0.134 A 
ATOM     88  C   UNL A   1      36.822  33.698  29.121  1.00  0.00     0.134 A 
ATOM     89  F   UNL A   1      35.044  31.578  31.468  1.00  0.00    -0.206 F 
ATOM     90  C   UNL A   1      34.219  33.062  29.846  1.00  0.00     0.040 A 
ATOM     91  C   UNL A   1      35.750  34.314  28.473  1.00  0.00     0.040 A 
ATOM     92  F   UNL A   1      38.065  34.038  28.750  1.00  0.00    -0.206 F 
ATOM     93  C   UNL A   1      34.443  33.994  28.834  1.00  0.00     0.006 A 
ENDBRANCH  65  86
BRANCH  77  94
ATOM     94  C   UNL A   1      39.569  33.897  36.379  1.00  0.00     0.057 A 
ATOM     95  C   UNL A   1      38.785  33.600  37.499  1.00  0.00     0.134 A 
ATOM     96  C   UNL A   1      40.195  35.149  36.337  1.00  0.00     0.134 A 
ATOM     97  F   UNL A   1      38.151  32.422  37.592  1.00  0.00    -0.206 F 
ATOM     98  C   UNL A   1      38.628  34.517  38.540  1.00  0.00     0.040 A 
ATOM     99  C   UNL A   1      40.063  36.065  37.381  1.00  0.00     0.040 A 
ATOM    100  F   UNL A   1      40.967  35.490  35.295  1.00  0.00    -0.206 F 
ATOM    101  C   UNL A   1      39.277  35.750  38.487  1.00  0.00     0.006 A 
ENDBRANCH  77  94
ENDBRANCH  51  52
ENDBRANCH  43  46
ENDBRANCH  41  42
ENDBRANCH  40  41
ENDBRANCH  39  40
ENDBRANCH  38  39
ENDBRANCH   1  38
TORSDOF 18
ENDMDL
