MODEL 1
REMARK VINA RESULT:     -10.5      0.000      0.000
REMARK SMILES Cc1ccc([C@H]2C[C@]2([NH3+])C(=O)NCCCCCCNC(=O)c2ccc(-c3c4nc(c(-c5c(F)cccc5F)c5ccc([nH]5)c(-c5c(F)cccc5F)c5nc(c(-c6c(F)cccc6F)c6ccc3[nH]6)C=C5)C=C4)cc2)cc1C
REMARK SMILES IDX 16 1 15 2 14 3 13 4 12 5 10 6 11 7 8 9 6 10 7 11 5 12 1 13
REMARK SMILES IDX 2 14 3 15 77 16 4 17 76 18 78 19 9 20 17 24 18 25 19 26
REMARK SMILES IDX 20 27 21 29 22 30 23 31 75 32 24 33 74 34 25 35 26 36 27 37
REMARK SMILES IDX 68 38 28 39 73 40 67 41 69 42 29 43 72 44 66 45 65 46 30 48
REMARK SMILES IDX 56 49 39 50 55 51 40 52 43 53 54 54 70 55 41 56 42 57 53 59
REMARK SMILES IDX 71 60 44 61 31 62 32 63 37 64 33 65 34 66 36 67 38 68 35 69
REMARK SMILES IDX 57 70 58 71 63 72 59 73 60 74 62 75 64 76 61 77 45 78 46 79
REMARK SMILES IDX 51 80 47 81 48 82 50 83 52 84 49 85
REMARK H PARENT 12 8 9 21 9 22 9 23 19 28 69 47 43 58
REMARK Flexibility Score: inf
ROOT
ATOM      1  C   UNL A   1      38.428  21.857  25.583  1.00  0.00     0.002 C 
ENDROOT
BRANCH   1   2
ATOM      2  C   UNL A   1      37.075  22.397  25.109  1.00  0.00     0.002 C 
BRANCH   2   3
ATOM      3  C   UNL A   1      36.518  23.588  25.897  1.00  0.00     0.021 C 
BRANCH   3   4
ATOM      4  C   UNL A   1      35.142  23.371  26.523  1.00  0.00     0.116 C 
BRANCH   4   5
ATOM      5  N   UNL A   1      34.195  24.404  26.165  1.00  0.00    -0.351 N 
ATOM      6  C   UNL A   1      32.912  24.284  25.695  1.00  0.00     0.281 C 
ATOM      7  O   UNL A   1      32.250  25.299  25.490  1.00  0.00    -0.268 OA
ATOM      8  H   UNL A   1      34.518  25.327  26.275  1.00  0.00     0.163 HD
BRANCH   6   9
ATOM      9  C   UNL A   1      32.335  22.906  25.413  1.00  0.00     0.181 C 
ATOM     10  C   UNL A   1      32.968  22.139  24.260  1.00  0.00     0.097 C 
ATOM     11  C   UNL A   1      31.580  22.699  24.115  1.00  0.00     0.095 C 
BRANCH  10  12
ATOM     12  C   UNL A   1      33.180  20.645  24.194  1.00  0.00    -0.038 A 
ATOM     13  C   UNL A   1      33.898  16.414  23.450  1.00  0.00     0.044 C 
ATOM     14  C   UNL A   1      33.667  17.867  23.759  1.00  0.00    -0.048 A 
ATOM     15  C   UNL A   1      32.477  18.468  23.330  1.00  0.00     0.004 A 
ATOM     16  C   UNL A   1      34.614  18.651  24.440  1.00  0.00    -0.048 A 
ATOM     17  C   UNL A   1      32.243  19.828  23.546  1.00  0.00     0.004 A 
ATOM     18  C   UNL A   1      34.358  20.025  24.639  1.00  0.00     0.008 A 
ATOM     19  C   UNL A   1      35.917  18.101  24.952  1.00  0.00     0.044 C 
ENDBRANCH  10  12
BRANCH   9  20
ATOM     20  N   UNL A   1      31.684  22.258  26.582  1.00  0.00    -0.344 N 
ATOM     21  H   UNL A   1      31.386  22.973  27.245  1.00  0.00     0.345 HD
ATOM     22  H   UNL A   1      32.347  21.628  27.035  1.00  0.00     0.345 HD
ATOM     23  H   UNL A   1      30.872  21.726  26.267  1.00  0.00     0.345 HD
ENDBRANCH   9  20
ENDBRANCH   6   9
ENDBRANCH   4   5
ENDBRANCH   3   4
ENDBRANCH   2   3
ENDBRANCH   1   2
BRANCH   1  24
ATOM     24  C   UNL A   1      38.797  20.460  25.080  1.00  0.00     0.021 C 
BRANCH  24  25
ATOM     25  C   UNL A   1      39.284  19.486  26.148  1.00  0.00     0.116 C 
BRANCH  25  26
ATOM     26  N   UNL A   1      40.588  18.922  25.841  1.00  0.00    -0.352 N 
ATOM     27  C   UNL A   1      41.828  19.510  25.869  1.00  0.00     0.251 C 
ATOM     28  H   UNL A   1      40.580  17.975  25.574  1.00  0.00     0.163 HD
ATOM     29  O   UNL A   1      42.801  18.906  25.425  1.00  0.00    -0.269 OA
BRANCH  27  30
ATOM     30  C   UNL A   1      42.001  20.878  26.407  1.00  0.00     0.039 A 
ATOM     31  C   UNL A   1      41.854  21.080  27.782  1.00  0.00     0.014 A 
ATOM     32  C   UNL A   1      42.278  21.963  25.570  1.00  0.00     0.014 A 
ATOM     33  C   UNL A   1      42.043  22.354  28.323  1.00  0.00     0.010 A 
ATOM     34  C   UNL A   1      42.538  23.218  26.119  1.00  0.00     0.010 A 
ATOM     35  C   UNL A   1      42.419  23.429  27.500  1.00  0.00    -0.014 A 
BRANCH  35  36
ATOM     36  C   UNL A   1      42.690  24.770  28.077  1.00  0.00     0.031 A 
ATOM     37  C   UNL A   1      44.077  25.144  28.526  1.00  0.00     0.074 A 
ATOM     38  C   UNL A   1      41.675  25.642  28.238  1.00  0.00     0.049 A 
ATOM     39  N   UNL A   1      44.498  26.258  29.068  1.00  0.00    -0.248 NA
ATOM     40  C   UNL A   1      45.123  24.123  28.365  1.00  0.00     0.031 C 
ATOM     41  C   UNL A   1      40.276  25.384  27.894  1.00  0.00     0.029 A 
ATOM     42  N   UNL A   1      41.664  26.921  28.736  1.00  0.00    -0.354 N 
ATOM     43  C   UNL A   1      45.851  26.070  29.320  1.00  0.00     0.074 A 
ATOM     44  C   UNL A   1      46.168  24.714  28.924  1.00  0.00     0.031 C 
ATOM     45  C   UNL A   1      39.548  26.480  28.161  1.00  0.00     0.029 A 
ATOM     46  C   UNL A   1      40.420  27.504  28.729  1.00  0.00     0.049 A 
ATOM     47  H   UNL A   1      42.470  27.378  29.067  1.00  0.00     0.167 HD
ATOM     48  C   UNL A   1      46.755  26.953  29.811  1.00  0.00     0.037 A 
ATOM     49  C   UNL A   1      40.025  28.726  29.134  1.00  0.00     0.037 A 
ATOM     50  C   UNL A   1      46.442  28.307  30.187  1.00  0.00     0.049 A 
ATOM     51  C   UNL A   1      41.045  29.686  29.680  1.00  0.00     0.074 A 
ATOM     52  C   UNL A   1      47.299  29.296  30.639  1.00  0.00     0.029 A 
ATOM     53  N   UNL A   1      45.172  28.863  30.159  1.00  0.00    -0.354 N 
ATOM     54  N   UNL A   1      42.335  29.518  29.842  1.00  0.00    -0.248 NA
ATOM     55  C   UNL A   1      40.554  31.008  30.093  1.00  0.00     0.031 C 
ATOM     56  C   UNL A   1      46.540  30.434  30.931  1.00  0.00     0.029 A 
ATOM     57  C   UNL A   1      45.218  30.173  30.610  1.00  0.00     0.049 A 
ATOM     58  H   UNL A   1      44.358  28.396  29.862  1.00  0.00     0.167 HD
ATOM     59  C   UNL A   1      42.814  30.718  30.351  1.00  0.00     0.074 A 
ATOM     60  C   UNL A   1      41.679  31.612  30.450  1.00  0.00     0.031 C 
ATOM     61  C   UNL A   1      44.079  31.050  30.707  1.00  0.00     0.037 A 
BRANCH  48  62
ATOM     62  C   UNL A   1      48.171  26.478  29.969  1.00  0.00     0.057 A 
ATOM     63  C   UNL A   1      48.612  25.843  31.137  1.00  0.00     0.134 A 
ATOM     64  C   UNL A   1      49.097  26.627  28.927  1.00  0.00     0.134 A 
ATOM     65  F   UNL A   1      47.781  25.678  32.177  1.00  0.00    -0.206 F 
ATOM     66  C   UNL A   1      49.929  25.400  31.276  1.00  0.00     0.040 A 
ATOM     67  C   UNL A   1      50.408  26.162  29.044  1.00  0.00     0.040 A 
ATOM     68  F   UNL A   1      48.740  27.219  27.778  1.00  0.00    -0.206 F 
ATOM     69  C   UNL A   1      50.829  25.553  30.224  1.00  0.00     0.006 A 
ENDBRANCH  48  62
BRANCH  49  70
ATOM     70  C   UNL A   1      38.599  29.124  29.016  1.00  0.00     0.057 A 
ATOM     71  C   UNL A   1      38.082  29.611  27.808  1.00  0.00     0.134 A 
ATOM     72  C   UNL A   1      37.724  29.042  30.105  1.00  0.00     0.134 A 
ATOM     73  F   UNL A   1      38.876  29.730  26.735  1.00  0.00    -0.206 F 
ATOM     74  C   UNL A   1      36.753  30.021  27.695  1.00  0.00     0.040 A 
ATOM     75  C   UNL A   1      36.386  29.425  29.998  1.00  0.00     0.040 A 
ATOM     76  F   UNL A   1      38.155  28.578  31.287  1.00  0.00    -0.206 F 
ATOM     77  C   UNL A   1      35.900  29.924  28.791  1.00  0.00     0.006 A 
ENDBRANCH  49  70
BRANCH  61  78
ATOM     78  C   UNL A   1      44.302  32.447  31.211  1.00  0.00     0.057 A 
ATOM     79  C   UNL A   1      44.588  33.511  30.346  1.00  0.00     0.134 A 
ATOM     80  C   UNL A   1      44.212  32.735  32.579  1.00  0.00     0.134 A 
ATOM     81  F   UNL A   1      44.701  33.301  29.025  1.00  0.00    -0.206 F 
ATOM     82  C   UNL A   1      44.806  34.804  30.825  1.00  0.00     0.040 A 
ATOM     83  C   UNL A   1      44.399  34.029  33.067  1.00  0.00     0.040 A 
ATOM     84  F   UNL A   1      43.932  31.766  33.463  1.00  0.00    -0.206 F 
ATOM     85  C   UNL A   1      44.706  35.066  32.189  1.00  0.00     0.006 A 
ENDBRANCH  61  78
ENDBRANCH  35  36
ENDBRANCH  27  30
ENDBRANCH  25  26
ENDBRANCH  24  25
ENDBRANCH   1  24
TORSDOF 15
ENDMDL
MODEL 2
REMARK VINA RESULT:     -10.5      5.197     10.093
REMARK SMILES Cc1ccc([C@H]2C[C@]2([NH3+])C(=O)NCCCCCCNC(=O)c2ccc(-c3c4nc(c(-c5c(F)cccc5F)c5ccc([nH]5)c(-c5c(F)cccc5F)c5nc(c(-c6c(F)cccc6F)c6ccc3[nH]6)C=C5)C=C4)cc2)cc1C
REMARK SMILES IDX 16 1 15 2 14 3 13 4 12 5 10 6 11 7 8 9 6 10 7 11 5 12 1 13
REMARK SMILES IDX 2 14 3 15 77 16 4 17 76 18 78 19 9 20 17 24 18 25 19 26
REMARK SMILES IDX 20 27 21 29 22 30 23 31 75 32 24 33 74 34 25 35 26 36 27 37
REMARK SMILES IDX 68 38 28 39 73 40 67 41 69 42 29 43 72 44 66 45 65 46 30 48
REMARK SMILES IDX 56 49 39 50 55 51 40 52 43 53 54 54 70 55 41 56 42 57 53 59
REMARK SMILES IDX 71 60 44 61 31 62 32 63 37 64 33 65 34 66 36 67 38 68 35 69
REMARK SMILES IDX 57 70 58 71 63 72 59 73 60 74 62 75 64 76 61 77 45 78 46 79
REMARK SMILES IDX 51 80 47 81 48 82 50 83 52 84 49 85
REMARK H PARENT 12 8 9 21 9 22 9 23 19 28 69 47 43 58
REMARK Flexibility Score: inf
ROOT
ATOM      1  C   UNL A   1      31.275  30.685  26.430  1.00  0.00     0.002 C 
ENDROOT
BRANCH   1   2
ATOM      2  C   UNL A   1      32.586  29.933  26.182  1.00  0.00     0.002 C 
BRANCH   2   3
ATOM      3  C   UNL A   1      32.912  29.621  24.717  1.00  0.00     0.021 C 
BRANCH   3   4
ATOM      4  C   UNL A   1      33.218  28.157  24.413  1.00  0.00     0.116 C 
BRANCH   4   5
ATOM      5  N   UNL A   1      32.394  27.242  25.171  1.00  0.00    -0.351 N 
ATOM      6  C   UNL A   1      31.120  26.803  24.918  1.00  0.00     0.281 C 
ATOM      7  O   UNL A   1      30.607  25.981  25.674  1.00  0.00    -0.268 OA
ATOM      8  H   UNL A   1      32.809  26.883  25.989  1.00  0.00     0.163 HD
BRANCH   6   9
ATOM      9  C   UNL A   1      30.355  27.350  23.725  1.00  0.00     0.181 C 
ATOM     10  C   UNL A   1      29.390  28.492  24.016  1.00  0.00     0.097 C 
ATOM     11  C   UNL A   1      28.855  27.129  23.675  1.00  0.00     0.095 C 
BRANCH  10  12
ATOM     12  C   UNL A   1      29.091  29.660  23.105  1.00  0.00    -0.038 A 
ATOM     13  C   UNL A   1      27.681  32.943  20.615  1.00  0.00     0.044 C 
ATOM     14  C   UNL A   1      28.216  31.836  21.481  1.00  0.00    -0.048 A 
ATOM     15  C   UNL A   1      28.031  30.510  21.073  1.00  0.00     0.004 A 
ATOM     16  C   UNL A   1      28.872  32.085  22.699  1.00  0.00    -0.048 A 
ATOM     17  C   UNL A   1      28.461  29.448  21.871  1.00  0.00     0.004 A 
ATOM     18  C   UNL A   1      29.291  30.994  23.492  1.00  0.00     0.008 A 
ATOM     19  C   UNL A   1      29.132  33.471  23.223  1.00  0.00     0.044 C 
ENDBRANCH  10  12
BRANCH   9  20
ATOM     20  N   UNL A   1      31.023  27.144  22.413  1.00  0.00    -0.344 N 
ATOM     21  H   UNL A   1      30.615  26.333  21.948  1.00  0.00     0.345 HD
ATOM     22  H   UNL A   1      32.020  26.986  22.560  1.00  0.00     0.345 HD
ATOM     23  H   UNL A   1      30.892  27.971  21.831  1.00  0.00     0.345 HD
ENDBRANCH   9  20
ENDBRANCH   6   9
ENDBRANCH   4   5
ENDBRANCH   3   4
ENDBRANCH   2   3
ENDBRANCH   1   2
BRANCH   1  24
ATOM     24  C   UNL A   1      31.390  32.208  26.519  1.00  0.00     0.021 C 
BRANCH  24  25
ATOM     25  C   UNL A   1      32.673  32.732  27.155  1.00  0.00     0.116 C 
BRANCH  25  26
ATOM     26  N   UNL A   1      32.520  34.067  27.710  1.00  0.00    -0.352 N 
ATOM     27  C   UNL A   1      33.212  34.682  28.723  1.00  0.00     0.251 C 
ATOM     28  H   UNL A   1      31.812  34.611  27.297  1.00  0.00     0.163 HD
ATOM     29  O   UNL A   1      32.830  35.766  29.154  1.00  0.00    -0.269 OA
BRANCH  27  30
ATOM     30  C   UNL A   1      34.404  34.037  29.319  1.00  0.00     0.039 A 
ATOM     31  C   UNL A   1      34.217  33.083  30.322  1.00  0.00     0.014 A 
ATOM     32  C   UNL A   1      35.699  34.383  28.920  1.00  0.00     0.014 A 
ATOM     33  C   UNL A   1      35.321  32.435  30.881  1.00  0.00     0.010 A 
ATOM     34  C   UNL A   1      36.793  33.684  29.425  1.00  0.00     0.010 A 
ATOM     35  C   UNL A   1      36.618  32.706  30.415  1.00  0.00    -0.014 A 
BRANCH  35  36
ATOM     36  C   UNL A   1      37.790  31.971  30.955  1.00  0.00     0.031 A 
ATOM     37  C   UNL A   1      38.333  32.294  32.322  1.00  0.00     0.074 A 
ATOM     38  C   UNL A   1      38.396  31.037  30.197  1.00  0.00     0.049 A 
ATOM     39  N   UNL A   1      39.356  31.772  32.949  1.00  0.00    -0.248 NA
ATOM     40  C   UNL A   1      37.650  33.359  33.071  1.00  0.00     0.031 C 
ATOM     41  C   UNL A   1      38.002  30.667  28.836  1.00  0.00     0.029 A 
ATOM     42  N   UNL A   1      39.475  30.230  30.460  1.00  0.00    -0.354 N 
ATOM     43  C   UNL A   1      39.445  32.449  34.159  1.00  0.00     0.074 A 
ATOM     44  C   UNL A   1      38.407  33.458  34.153  1.00  0.00     0.031 C 
ATOM     45  C   UNL A   1      38.807  29.686  28.397  1.00  0.00     0.029 A 
ATOM     46  C   UNL A   1      39.795  29.383  29.427  1.00  0.00     0.049 A 
ATOM     47  H   UNL A   1      39.973  30.256  31.309  1.00  0.00     0.167 HD
ATOM     48  C   UNL A   1      40.294  32.233  35.192  1.00  0.00     0.037 A 
ATOM     49  C   UNL A   1      40.774  28.464  29.322  1.00  0.00     0.037 A 
ATOM     50  C   UNL A   1      41.313  31.216  35.204  1.00  0.00     0.049 A 
ATOM     51  C   UNL A   1      41.707  28.248  30.480  1.00  0.00     0.074 A 
ATOM     52  C   UNL A   1      42.185  30.881  36.227  1.00  0.00     0.029 A 
ATOM     53  N   UNL A   1      41.602  30.373  34.142  1.00  0.00    -0.354 N 
ATOM     54  N   UNL A   1      41.731  28.845  31.647  1.00  0.00    -0.248 NA
ATOM     55  C   UNL A   1      42.746  27.223  30.308  1.00  0.00     0.031 C 
ATOM     56  C   UNL A   1      43.033  29.868  35.766  1.00  0.00     0.029 A 
ATOM     57  C   UNL A   1      42.656  29.535  34.475  1.00  0.00     0.049 A 
ATOM     58  H   UNL A   1      41.129  30.370  33.279  1.00  0.00     0.167 HD
ATOM     59  C   UNL A   1      42.767  28.253  32.357  1.00  0.00     0.074 A 
ATOM     60  C   UNL A   1      43.334  27.235  31.497  1.00  0.00     0.031 C 
ATOM     61  C   UNL A   1      43.212  28.528  33.608  1.00  0.00     0.037 A 
BRANCH  48  62
ATOM     62  C   UNL A   1      40.154  33.117  36.399  1.00  0.00     0.057 A 
ATOM     63  C   UNL A   1      39.235  32.835  37.419  1.00  0.00     0.134 A 
ATOM     64  C   UNL A   1      40.971  34.244  36.561  1.00  0.00     0.134 A 
ATOM     65  F   UNL A   1      38.415  31.778  37.322  1.00  0.00    -0.206 F 
ATOM     66  C   UNL A   1      39.113  33.657  38.540  1.00  0.00     0.040 A 
ATOM     67  C   UNL A   1      40.877  35.058  37.692  1.00  0.00     0.040 A 
ATOM     68  F   UNL A   1      41.877  34.569  35.627  1.00  0.00    -0.206 F 
ATOM     69  C   UNL A   1      39.941  34.768  38.682  1.00  0.00     0.006 A 
ENDBRANCH  48  62
BRANCH  49  70
ATOM     70  C   UNL A   1      40.909  27.660  28.081  1.00  0.00     0.057 A 
ATOM     71  C   UNL A   1      41.684  28.114  27.006  1.00  0.00     0.134 A 
ATOM     72  C   UNL A   1      40.259  26.429  27.932  1.00  0.00     0.134 A 
ATOM     73  F   UNL A   1      42.315  29.294  27.082  1.00  0.00    -0.206 F 
ATOM     74  C   UNL A   1      41.790  27.385  25.821  1.00  0.00     0.040 A 
ATOM     75  C   UNL A   1      40.377  25.677  26.763  1.00  0.00     0.040 A 
ATOM     76  F   UNL A   1      39.508  25.935  28.927  1.00  0.00    -0.206 F 
ATOM     77  C   UNL A   1      41.139  26.159  25.699  1.00  0.00     0.006 A 
ENDBRANCH  49  70
BRANCH  61  78
ATOM     78  C   UNL A   1      44.351  27.698  34.126  1.00  0.00     0.057 A 
ATOM     79  C   UNL A   1      45.684  28.112  34.006  1.00  0.00     0.134 A 
ATOM     80  C   UNL A   1      44.110  26.477  34.769  1.00  0.00     0.134 A 
ATOM     81  F   UNL A   1      45.984  29.265  33.390  1.00  0.00    -0.206 F 
ATOM     82  C   UNL A   1      46.737  27.328  34.480  1.00  0.00     0.040 A 
ATOM     83  C   UNL A   1      45.152  25.698  35.272  1.00  0.00     0.040 A 
ATOM     84  F   UNL A   1      42.857  26.025  34.927  1.00  0.00    -0.206 F 
ATOM     85  C   UNL A   1      46.472  26.120  35.120  1.00  0.00     0.006 A 
ENDBRANCH  61  78
ENDBRANCH  35  36
ENDBRANCH  27  30
ENDBRANCH  25  26
ENDBRANCH  24  25
ENDBRANCH   1  24
TORSDOF 15
ENDMDL
MODEL 3
REMARK VINA RESULT:     -10.4      1.891      3.514
REMARK SMILES Cc1ccc([C@H]2C[C@]2([NH3+])C(=O)NCCCCCCNC(=O)c2ccc(-c3c4nc(c(-c5c(F)cccc5F)c5ccc([nH]5)c(-c5c(F)cccc5F)c5nc(c(-c6c(F)cccc6F)c6ccc3[nH]6)C=C5)C=C4)cc2)cc1C
REMARK SMILES IDX 16 1 15 2 14 3 13 4 12 5 10 6 11 7 8 9 6 10 7 11 5 12 1 13
REMARK SMILES IDX 2 14 3 15 77 16 4 17 76 18 78 19 9 20 17 24 18 25 19 26
REMARK SMILES IDX 20 27 21 29 22 30 23 31 75 32 24 33 74 34 25 35 26 36 27 37
REMARK SMILES IDX 68 38 28 39 73 40 67 41 69 42 29 43 72 44 66 45 65 46 30 48
REMARK SMILES IDX 56 49 39 50 55 51 40 52 43 53 54 54 70 55 41 56 42 57 53 59
REMARK SMILES IDX 71 60 44 61 31 62 32 63 37 64 33 65 34 66 36 67 38 68 35 69
REMARK SMILES IDX 57 70 58 71 63 72 59 73 60 74 62 75 64 76 61 77 45 78 46 79
REMARK SMILES IDX 51 80 47 81 48 82 50 83 52 84 49 85
REMARK H PARENT 12 8 9 21 9 22 9 23 19 28 69 47 43 58
REMARK Flexibility Score: inf
ROOT
ATOM      1  C   UNL A   1      37.351  20.843  24.604  1.00  0.00     0.002 C 
ENDROOT
BRANCH   1   2
ATOM      2  C   UNL A   1      37.731  22.134  25.336  1.00  0.00     0.002 C 
BRANCH   2   3
ATOM      3  C   UNL A   1      36.852  23.354  25.039  1.00  0.00     0.021 C 
BRANCH   3   4
ATOM      4  C   UNL A   1      35.865  23.733  26.141  1.00  0.00     0.116 C 
BRANCH   4   5
ATOM      5  N   UNL A   1      35.287  22.581  26.796  1.00  0.00    -0.351 N 
ATOM      6  C   UNL A   1      34.008  22.091  26.728  1.00  0.00     0.281 C 
ATOM      7  O   UNL A   1      33.727  21.060  27.335  1.00  0.00    -0.268 OA
ATOM      8  H   UNL A   1      35.902  22.074  27.374  1.00  0.00     0.163 HD
BRANCH   6   9
ATOM      9  C   UNL A   1      32.954  22.836  25.926  1.00  0.00     0.181 C 
ATOM     10  C   UNL A   1      32.195  23.927  26.670  1.00  0.00     0.097 C 
ATOM     11  C   UNL A   1      31.499  22.645  26.305  1.00  0.00     0.095 C 
BRANCH  10  12
ATOM     12  C   UNL A   1      31.708  25.232  26.084  1.00  0.00    -0.038 A 
ATOM     13  C   UNL A   1      30.688  28.909  23.985  1.00  0.00     0.044 C 
ATOM     14  C   UNL A   1      30.989  27.637  24.729  1.00  0.00    -0.048 A 
ATOM     15  C   UNL A   1      32.173  27.552  25.471  1.00  0.00     0.004 A 
ATOM     16  C   UNL A   1      30.136  26.521  24.685  1.00  0.00    -0.048 A 
ATOM     17  C   UNL A   1      32.521  26.373  26.133  1.00  0.00     0.004 A 
ATOM     18  C   UNL A   1      30.513  25.338  25.357  1.00  0.00     0.008 A 
ATOM     19  C   UNL A   1      28.836  26.511  23.928  1.00  0.00     0.044 C 
ENDBRANCH  10  12
BRANCH   9  20
ATOM     20  N   UNL A   1      33.182  22.840  24.457  1.00  0.00    -0.344 N 
ATOM     21  H   UNL A   1      32.759  23.674  24.049  1.00  0.00     0.345 HD
ATOM     22  H   UNL A   1      32.760  22.008  24.045  1.00  0.00     0.345 HD
ATOM     23  H   UNL A   1      34.185  22.841  24.268  1.00  0.00     0.345 HD
ENDBRANCH   9  20
ENDBRANCH   6   9
ENDBRANCH   4   5
ENDBRANCH   3   4
ENDBRANCH   2   3
ENDBRANCH   1   2
BRANCH   1  24
ATOM     24  C   UNL A   1      38.174  19.606  24.970  1.00  0.00     0.021 C 
BRANCH  24  25
ATOM     25  C   UNL A   1      39.183  19.801  26.096  1.00  0.00     0.116 C 
BRANCH  25  26
ATOM     26  N   UNL A   1      40.345  18.937  25.963  1.00  0.00    -0.352 N 
ATOM     27  C   UNL A   1      41.680  19.241  26.055  1.00  0.00     0.251 C 
ATOM     28  H   UNL A   1      40.143  17.991  25.780  1.00  0.00     0.163 HD
ATOM     29  O   UNL A   1      42.521  18.396  25.758  1.00  0.00    -0.269 OA
BRANCH  27  30
ATOM     30  C   UNL A   1      42.118  20.588  26.484  1.00  0.00     0.039 A 
ATOM     31  C   UNL A   1      42.426  21.536  25.504  1.00  0.00     0.014 A 
ATOM     32  C   UNL A   1      42.254  20.916  27.837  1.00  0.00     0.014 A 
ATOM     33  C   UNL A   1      42.811  22.825  25.879  1.00  0.00     0.010 A 
ATOM     34  C   UNL A   1      42.566  22.222  28.209  1.00  0.00     0.010 A 
ATOM     35  C   UNL A   1      42.854  23.190  27.235  1.00  0.00    -0.014 A 
BRANCH  35  36
ATOM     36  C   UNL A   1      43.194  24.579  27.639  1.00  0.00     0.031 A 
ATOM     37  C   UNL A   1      44.628  25.033  27.681  1.00  0.00     0.074 A 
ATOM     38  C   UNL A   1      42.212  25.422  28.010  1.00  0.00     0.049 A 
ATOM     39  N   UNL A   1      45.116  26.198  28.025  1.00  0.00    -0.248 NA
ATOM     40  C   UNL A   1      45.649  24.041  27.309  1.00  0.00     0.031 C 
ATOM     41  C   UNL A   1      40.787  25.090  28.064  1.00  0.00     0.029 A 
ATOM     42  N   UNL A   1      42.262  26.733  28.416  1.00  0.00    -0.354 N 
ATOM     43  C   UNL A   1      46.496  26.077  27.921  1.00  0.00     0.074 A 
ATOM     44  C   UNL A   1      46.770  24.708  27.537  1.00  0.00     0.031 C 
ATOM     45  C   UNL A   1      40.097  26.176  28.449  1.00  0.00     0.029 A 
ATOM     46  C   UNL A   1      41.030  27.268  28.704  1.00  0.00     0.049 A 
ATOM     47  H   UNL A   1      43.101  27.241  28.494  1.00  0.00     0.167 HD
ATOM     48  C   UNL A   1      47.448  27.024  28.102  1.00  0.00     0.037 A 
ATOM     49  C   UNL A   1      40.690  28.501  29.125  1.00  0.00     0.037 A 
ATOM     50  C   UNL A   1      47.172  28.390  28.465  1.00  0.00     0.049 A 
ATOM     51  C   UNL A   1      41.765  29.534  29.323  1.00  0.00     0.074 A 
ATOM     52  C   UNL A   1      48.064  29.439  28.615  1.00  0.00     0.029 A 
ATOM     53  N   UNL A   1      45.911  28.896  28.741  1.00  0.00    -0.354 N 
ATOM     54  N   UNL A   1      43.059  29.424  29.148  1.00  0.00    -0.248 NA
ATOM     55  C   UNL A   1      41.329  30.863  29.772  1.00  0.00     0.031 C 
ATOM     56  C   UNL A   1      47.348  30.567  29.028  1.00  0.00     0.029 A 
ATOM     57  C   UNL A   1      46.004  30.236  29.086  1.00  0.00     0.049 A 
ATOM     58  H   UNL A   1      45.074  28.380  28.699  1.00  0.00     0.167 HD
ATOM     59  C   UNL A   1      43.590  30.674  29.440  1.00  0.00     0.074 A 
ATOM     60  C   UNL A   1      42.474  31.531  29.782  1.00  0.00     0.031 C 
ATOM     61  C   UNL A   1      44.885  31.077  29.427  1.00  0.00     0.037 A 
BRANCH  48  62
ATOM     62  C   UNL A   1      48.879  26.613  27.907  1.00  0.00     0.057 A 
ATOM     63  C   UNL A   1      49.669  26.157  28.971  1.00  0.00     0.134 A 
ATOM     64  C   UNL A   1      49.466  26.641  26.634  1.00  0.00     0.134 A 
ATOM     65  F   UNL A   1      49.174  26.116  30.216  1.00  0.00    -0.206 F 
ATOM     66  C   UNL A   1      50.998  25.773  28.782  1.00  0.00     0.040 A 
ATOM     67  C   UNL A   1      50.785  26.232  26.429  1.00  0.00     0.040 A 
ATOM     68  F   UNL A   1      48.765  27.060  25.570  1.00  0.00    -0.206 F 
ATOM     69  C   UNL A   1      51.557  25.802  27.507  1.00  0.00     0.006 A 
ENDBRANCH  48  62
BRANCH  49  70
ATOM     70  C   UNL A   1      39.264  28.838  29.365  1.00  0.00     0.057 A 
ATOM     71  C   UNL A   1      38.472  29.393  28.352  1.00  0.00     0.134 A 
ATOM     72  C   UNL A   1      38.662  28.629  30.611  1.00  0.00     0.134 A 
ATOM     73  F   UNL A   1      38.997  29.635  27.142  1.00  0.00    -0.206 F 
ATOM     74  C   UNL A   1      37.141  29.747  28.576  1.00  0.00     0.040 A 
ATOM     75  C   UNL A   1      37.325  28.954  30.841  1.00  0.00     0.040 A 
ATOM     76  F   UNL A   1      39.364  28.093  31.621  1.00  0.00    -0.206 F 
ATOM     77  C   UNL A   1      36.562  29.523  29.822  1.00  0.00     0.006 A 
ENDBRANCH  49  70
BRANCH  61  78
ATOM     78  C   UNL A   1      45.157  32.513  29.771  1.00  0.00     0.057 A 
ATOM     79  C   UNL A   1      45.467  32.916  31.076  1.00  0.00     0.134 A 
ATOM     80  C   UNL A   1      45.126  33.502  28.780  1.00  0.00     0.134 A 
ATOM     81  F   UNL A   1      45.501  32.021  32.074  1.00  0.00    -0.206 F 
ATOM     82  C   UNL A   1      45.706  34.256  31.388  1.00  0.00     0.040 A 
ATOM     83  C   UNL A   1      45.391  34.840  29.075  1.00  0.00     0.040 A 
ATOM     84  F   UNL A   1      44.845  33.185  27.507  1.00  0.00    -0.206 F 
ATOM     85  C   UNL A   1      45.675  35.221  30.385  1.00  0.00     0.006 A 
ENDBRANCH  61  78
ENDBRANCH  35  36
ENDBRANCH  27  30
ENDBRANCH  25  26
ENDBRANCH  24  25
ENDBRANCH   1  24
TORSDOF 15
ENDMDL
