MODEL 1
REMARK VINA RESULT:     -13.8      0.000      0.000
REMARK SMILES CC1(C)OC(=O)C(=CNc2ccccc2C(=O)NCCCCCCNC(=O)c2ccc(-c3c4nc(c(-c5c(F)cccc5F)c5ccc([nH]5)c(-c5c(F)cccc5F)c5nc(c(-c6c(F)cccc6F)c6ccc3[nH]6)C=C5)C=C4)cc2)C(=O)O1
REMARK SMILES IDX 21 1 20 2 19 3 18 4 16 5 17 6 15 8 10 9 11 10 12 11 14 12
REMARK SMILES IDX 13 13 9 14 8 16 1 17 2 18 3 19 4 20 84 21 5 22 82 23 6 24
REMARK SMILES IDX 7 25 83 26 22 27 23 28 24 29 25 30 26 31 27 33 28 34 29 35
REMARK SMILES IDX 81 36 30 37 80 38 31 39 32 40 33 41 74 42 34 43 79 44 73 45
REMARK SMILES IDX 75 46 35 47 78 48 72 49 71 50 36 52 62 53 45 54 61 55 46 56
REMARK SMILES IDX 49 57 60 58 76 59 47 60 48 61 59 63 77 64 50 65 37 66 38 67
REMARK SMILES IDX 43 68 39 69 40 70 42 71 44 72 41 73 63 74 64 75 69 76 65 77
REMARK SMILES IDX 66 78 68 79 70 80 67 81 51 82 52 83 57 84 53 85 54 86 56 87
REMARK SMILES IDX 58 88 55 89
REMARK H PARENT 18 7 9 15 25 32 75 51 49 62
REMARK Flexibility Score: inf
ROOT
ATOM      1  C   UNL A   1      36.583  23.916  25.282  1.00  0.00     0.002 C 
ENDROOT
BRANCH   1   2
ATOM      2  C   UNL A   1      36.177  23.128  24.022  1.00  0.00     0.021 C 
BRANCH   2   3
ATOM      3  C   UNL A   1      35.677  21.708  24.196  1.00  0.00     0.116 C 
BRANCH   3   4
ATOM      4  N   UNL A   1      34.817  21.534  25.340  1.00  0.00    -0.352 N 
ATOM      5  C   UNL A   1      33.955  20.493  25.581  1.00  0.00     0.253 C 
ATOM      6  O   UNL A   1      33.246  20.516  26.584  1.00  0.00    -0.269 OA
ATOM      7  H   UNL A   1      34.852  22.240  26.024  1.00  0.00     0.163 HD
BRANCH   5   8
ATOM      8  C   UNL A   1      33.748  19.450  24.551  1.00  0.00     0.063 A 
ATOM      9  C   UNL A   1      32.838  19.497  23.469  1.00  0.00     0.051 A 
ATOM     10  C   UNL A   1      32.725  18.335  22.680  1.00  0.00     0.027 A 
ATOM     11  C   UNL A   1      33.452  17.172  22.959  1.00  0.00     0.002 A 
ATOM     12  C   UNL A   1      34.492  18.278  24.814  1.00  0.00     0.016 A 
ATOM     13  C   UNL A   1      34.333  17.139  24.032  1.00  0.00     0.001 A 
BRANCH   9  14
ATOM     14  N   UNL A   1      31.959  20.560  23.134  1.00  0.00    -0.360 N 
ATOM     15  H   UNL A   1      30.996  20.363  23.202  1.00  0.00     0.166 HD
BRANCH  14  16
ATOM     16  C   UNL A   1      32.287  21.828  22.728  1.00  0.00     0.106 C 
ATOM     17  C   UNL A   1      33.908  26.729  25.822  1.00  0.00     0.106 C 
ATOM     18  C   UNL A   1      32.749  26.284  24.880  1.00  0.00     0.252 C 
ATOM     19  C   UNL A   1      32.048  27.658  24.534  1.00  0.00     0.106 C 
ATOM     20  O   UNL A   1      33.258  25.792  23.207  1.00  0.00    -0.419 OA
ATOM     21  O   UNL A   1      31.849  24.900  25.767  1.00  0.00    -0.419 OA
ATOM     22  C   UNL A   1      32.909  24.417  22.412  1.00  0.00     0.350 C 
ATOM     23  C   UNL A   1      31.423  23.331  25.056  1.00  0.00     0.350 C 
ATOM     24  O   UNL A   1      33.216  24.319  21.228  1.00  0.00    -0.246 OA
ATOM     25  C   UNL A   1      32.059  23.027  23.299  1.00  0.00     0.161 C 
ATOM     26  O   UNL A   1      30.701  22.552  25.661  1.00  0.00    -0.246 OA
ENDBRANCH  14  16
ENDBRANCH   9  14
ENDBRANCH   5   8
ENDBRANCH   3   4
ENDBRANCH   2   3
ENDBRANCH   1   2
BRANCH   1  27
ATOM     27  C   UNL A   1      38.057  23.679  26.175  1.00  0.00     0.002 C 
BRANCH  27  28
ATOM     28  C   UNL A   1      39.295  21.931  26.470  1.00  0.00     0.021 C 
BRANCH  28  29
ATOM     29  C   UNL A   1      39.317  20.377  25.535  1.00  0.00     0.116 C 
BRANCH  29  30
ATOM     30  N   UNL A   1      40.239  19.304  25.986  1.00  0.00    -0.352 N 
ATOM     31  C   UNL A   1      41.602  19.293  26.110  1.00  0.00     0.251 C 
ATOM     32  H   UNL A   1      39.796  18.461  26.235  1.00  0.00     0.163 HD
ATOM     33  O   UNL A   1      42.268  18.268  26.126  1.00  0.00    -0.269 OA
BRANCH  31  34
ATOM     34  C   UNL A   1      42.207  20.594  26.332  1.00  0.00     0.039 A 
ATOM     35  C   UNL A   1      42.565  21.447  25.290  1.00  0.00     0.014 A 
ATOM     36  C   UNL A   1      42.309  20.949  27.675  1.00  0.00     0.014 A 
ATOM     37  C   UNL A   1      43.024  22.717  25.619  1.00  0.00     0.010 A 
ATOM     38  C   UNL A   1      42.684  22.227  27.992  1.00  0.00     0.010 A 
ATOM     39  C   UNL A   1      43.074  23.104  26.969  1.00  0.00    -0.014 A 
BRANCH  39  40
ATOM     40  C   UNL A   1      43.614  24.396  27.411  1.00  0.00     0.031 A 
ATOM     41  C   UNL A   1      42.636  25.439  27.866  1.00  0.00     0.074 A 
ATOM     42  C   UNL A   1      44.918  24.661  27.232  1.00  0.00     0.049 A 
ATOM     43  N   UNL A   1      42.819  26.716  28.056  1.00  0.00    -0.248 NA
ATOM     44  C   UNL A   1      41.244  24.990  28.063  1.00  0.00     0.031 C 
ATOM     45  C   UNL A   1      45.920  23.716  26.735  1.00  0.00     0.029 A 
ATOM     46  N   UNL A   1      45.613  25.822  27.419  1.00  0.00    -0.354 N 
ATOM     47  C   UNL A   1      41.564  27.223  28.367  1.00  0.00     0.074 A 
ATOM     48  C   UNL A   1      40.618  26.139  28.256  1.00  0.00     0.031 C 
ATOM     49  C   UNL A   1      47.110  24.336  26.673  1.00  0.00     0.029 A 
ATOM     50  C   UNL A   1      46.940  25.725  27.084  1.00  0.00     0.049 A 
ATOM     51  H   UNL A   1      45.202  26.649  27.761  1.00  0.00     0.167 HD
ATOM     52  C   UNL A   1      41.244  28.479  28.751  1.00  0.00     0.037 A 
ATOM     53  C   UNL A   1      47.895  26.670  27.105  1.00  0.00     0.037 A 
ATOM     54  C   UNL A   1      42.216  29.527  28.889  1.00  0.00     0.049 A 
ATOM     55  C   UNL A   1      47.513  28.058  27.545  1.00  0.00     0.074 A 
ATOM     56  C   UNL A   1      42.034  30.826  29.320  1.00  0.00     0.029 A 
ATOM     57  N   UNL A   1      43.568  29.379  28.604  1.00  0.00    -0.354 N 
ATOM     58  N   UNL A   1      46.338  28.521  27.900  1.00  0.00    -0.248 NA
ATOM     59  C   UNL A   1      48.592  29.052  27.595  1.00  0.00     0.031 C 
ATOM     60  C   UNL A   1      43.271  31.475  29.266  1.00  0.00     0.029 A 
ATOM     61  C   UNL A   1      44.232  30.566  28.847  1.00  0.00     0.049 A 
ATOM     62  H   UNL A   1      43.990  28.552  28.276  1.00  0.00     0.167 HD
ATOM     63  C   UNL A   1      46.543  29.848  28.255  1.00  0.00     0.074 A 
ATOM     64  C   UNL A   1      47.959  30.108  28.084  1.00  0.00     0.031 C 
ATOM     65  C   UNL A   1      45.649  30.773  28.685  1.00  0.00     0.037 A 
BRANCH  52  66
ATOM     66  C   UNL A   1      39.806  28.760  29.072  1.00  0.00     0.057 A 
ATOM     67  C   UNL A   1      39.292  28.578  30.365  1.00  0.00     0.134 A 
ATOM     68  C   UNL A   1      38.925  29.228  28.090  1.00  0.00     0.134 A 
ATOM     69  F   UNL A   1      40.076  28.114  31.349  1.00  0.00    -0.206 F 
ATOM     70  C   UNL A   1      37.950  28.823  30.660  1.00  0.00     0.040 A 
ATOM     71  C   UNL A   1      37.588  29.507  28.381  1.00  0.00     0.040 A 
ATOM     72  F   UNL A   1      39.347  29.423  26.831  1.00  0.00    -0.206 F 
ATOM     73  C   UNL A   1      37.095  29.297  29.668  1.00  0.00     0.006 A 
ENDBRANCH  52  66
BRANCH  53  74
ATOM     74  C   UNL A   1      49.296  26.334  26.749  1.00  0.00     0.057 A 
ATOM     75  C   UNL A   1      50.168  25.804  27.708  1.00  0.00     0.134 A 
ATOM     76  C   UNL A   1      49.806  26.544  25.463  1.00  0.00     0.134 A 
ATOM     77  F   UNL A   1      49.739  25.586  28.960  1.00  0.00    -0.206 F 
ATOM     78  C   UNL A   1      51.504  25.532  27.413  1.00  0.00     0.040 A 
ATOM     79  C   UNL A   1      51.134  26.249  25.146  1.00  0.00     0.040 A 
ATOM     80  F   UNL A   1      49.020  27.031  24.491  1.00  0.00    -0.206 F 
ATOM     81  C   UNL A   1      51.991  25.753  26.127  1.00  0.00     0.006 A 
ENDBRANCH  53  74
BRANCH  65  82
ATOM     82  C   UNL A   1      46.190  32.123  29.049  1.00  0.00     0.057 A 
ATOM     83  C   UNL A   1      46.298  33.155  28.111  1.00  0.00     0.134 A 
ATOM     84  C   UNL A   1      46.560  32.402  30.371  1.00  0.00     0.134 A 
ATOM     85  F   UNL A   1      45.970  32.946  26.827  1.00  0.00    -0.206 F 
ATOM     86  C   UNL A   1      46.784  34.413  28.469  1.00  0.00     0.040 A 
ATOM     87  C   UNL A   1      47.015  33.664  30.748  1.00  0.00     0.040 A 
ATOM     88  F   UNL A   1      46.466  31.457  31.320  1.00  0.00    -0.206 F 
ATOM     89  C   UNL A   1      47.136  34.671  29.793  1.00  0.00     0.006 A 
ENDBRANCH  65  82
ENDBRANCH  39  40
ENDBRANCH  31  34
ENDBRANCH  29  30
ENDBRANCH  28  29
ENDBRANCH  27  28
ENDBRANCH   1  27
TORSDOF 15
ENDMDL
MODEL 2
REMARK VINA RESULT:     -13.7      5.587     10.358
REMARK SMILES CC1(C)OC(=O)C(=CNc2ccccc2C(=O)NCCCCCCNC(=O)c2ccc(-c3c4nc(c(-c5c(F)cccc5F)c5ccc([nH]5)c(-c5c(F)cccc5F)c5nc(c(-c6c(F)cccc6F)c6ccc3[nH]6)C=C5)C=C4)cc2)C(=O)O1
REMARK SMILES IDX 21 1 20 2 19 3 18 4 16 5 17 6 15 8 10 9 11 10 12 11 14 12
REMARK SMILES IDX 13 13 9 14 8 16 1 17 2 18 3 19 4 20 84 21 5 22 82 23 6 24
REMARK SMILES IDX 7 25 83 26 22 27 23 28 24 29 25 30 26 31 27 33 28 34 29 35
REMARK SMILES IDX 81 36 30 37 80 38 31 39 32 40 33 41 74 42 34 43 79 44 73 45
REMARK SMILES IDX 75 46 35 47 78 48 72 49 71 50 36 52 62 53 45 54 61 55 46 56
REMARK SMILES IDX 49 57 60 58 76 59 47 60 48 61 59 63 77 64 50 65 37 66 38 67
REMARK SMILES IDX 43 68 39 69 40 70 42 71 44 72 41 73 63 74 64 75 69 76 65 77
REMARK SMILES IDX 66 78 68 79 70 80 67 81 51 82 52 83 57 84 53 85 54 86 56 87
REMARK SMILES IDX 58 88 55 89
REMARK H PARENT 18 7 9 15 25 32 75 51 49 62
REMARK Flexibility Score: inf
ROOT
ATOM      1  C   UNL A   1      33.852  28.464  26.910  1.00  0.00     0.002 C 
ENDROOT
BRANCH   1   2
ATOM      2  C   UNL A   1      32.478  28.030  27.454  1.00  0.00     0.021 C 
BRANCH   2   3
ATOM      3  C   UNL A   1      31.458  27.488  26.473  1.00  0.00     0.116 C 
BRANCH   3   4
ATOM      4  N   UNL A   1      30.933  26.196  26.841  1.00  0.00    -0.352 N 
ATOM      5  C   UNL A   1      31.401  24.966  26.452  1.00  0.00     0.253 C 
ATOM      6  O   UNL A   1      30.808  23.952  26.811  1.00  0.00    -0.269 OA
ATOM      7  H   UNL A   1      30.151  26.197  27.438  1.00  0.00     0.163 HD
BRANCH   5   8
ATOM      8  C   UNL A   1      32.496  24.871  25.460  1.00  0.00     0.063 A 
ATOM      9  C   UNL A   1      32.359  24.775  24.055  1.00  0.00     0.051 A 
ATOM     10  C   UNL A   1      33.540  24.573  23.312  1.00  0.00     0.027 A 
ATOM     11  C   UNL A   1      34.792  24.444  23.925  1.00  0.00     0.002 A 
ATOM     12  C   UNL A   1      33.766  24.759  26.068  1.00  0.00     0.016 A 
ATOM     13  C   UNL A   1      34.907  24.531  25.305  1.00  0.00     0.001 A 
BRANCH   9  14
ATOM     14  N   UNL A   1      31.152  24.776  23.309  1.00  0.00    -0.360 N 
ATOM     15  H   UNL A   1      31.119  24.164  22.537  1.00  0.00     0.166 HD
BRANCH  14  16
ATOM     16  C   UNL A   1      30.024  25.524  23.532  1.00  0.00     0.106 C 
ATOM     17  C   UNL A   1      28.034  30.615  21.015  1.00  0.00     0.106 C 
ATOM     18  C   UNL A   1      28.479  30.115  22.422  1.00  0.00     0.252 C 
ATOM     19  C   UNL A   1      27.969  31.273  23.369  1.00  0.00     0.106 C 
ATOM     20  O   UNL A   1      27.503  28.740  23.098  1.00  0.00    -0.419 OA
ATOM     21  O   UNL A   1      30.294  29.672  22.275  1.00  0.00    -0.419 OA
ATOM     22  C   UNL A   1      28.036  27.317  23.678  1.00  0.00     0.350 C 
ATOM     23  C   UNL A   1      31.029  28.153  22.827  1.00  0.00     0.350 C 
ATOM     24  O   UNL A   1      27.241  26.565  24.233  1.00  0.00    -0.246 OA
ATOM     25  C   UNL A   1      29.824  26.855  23.495  1.00  0.00     0.161 C 
ATOM     26  O   UNL A   1      32.243  28.018  22.830  1.00  0.00    -0.246 OA
ENDBRANCH  14  16
ENDBRANCH   9  14
ENDBRANCH   5   8
ENDBRANCH   3   4
ENDBRANCH   2   3
ENDBRANCH   1   2
BRANCH   1  27
ATOM     27  C   UNL A   1      34.779  29.812  27.504  1.00  0.00     0.002 C 
BRANCH  27  28
ATOM     28  C   UNL A   1      34.358  31.931  27.568  1.00  0.00     0.021 C 
BRANCH  28  29
ATOM     29  C   UNL A   1      32.753  32.775  27.629  1.00  0.00     0.116 C 
BRANCH  29  30
ATOM     30  N   UNL A   1      32.746  34.256  27.729  1.00  0.00    -0.352 N 
ATOM     31  C   UNL A   1      33.204  35.086  28.717  1.00  0.00     0.251 C 
ATOM     32  H   UNL A   1      32.344  34.717  26.958  1.00  0.00     0.163 HD
ATOM     33  O   UNL A   1      32.817  36.236  28.863  1.00  0.00    -0.269 OA
BRANCH  31  34
ATOM     34  C   UNL A   1      34.276  34.537  29.528  1.00  0.00     0.039 A 
ATOM     35  C   UNL A   1      34.043  33.792  30.681  1.00  0.00     0.014 A 
ATOM     36  C   UNL A   1      35.548  34.745  29.000  1.00  0.00     0.014 A 
ATOM     37  C   UNL A   1      35.138  33.213  31.314  1.00  0.00     0.010 A 
ATOM     38  C   UNL A   1      36.613  34.107  29.578  1.00  0.00     0.010 A 
ATOM     39  C   UNL A   1      36.418  33.367  30.754  1.00  0.00    -0.014 A 
BRANCH  39  40
ATOM     40  C   UNL A   1      37.637  32.856  31.393  1.00  0.00     0.031 A 
ATOM     41  C   UNL A   1      38.300  31.663  30.768  1.00  0.00     0.074 A 
ATOM     42  C   UNL A   1      38.012  33.346  32.585  1.00  0.00     0.049 A 
ATOM     43  N   UNL A   1      39.214  30.874  31.262  1.00  0.00    -0.248 NA
ATOM     44  C   UNL A   1      37.812  31.265  29.434  1.00  0.00     0.031 C 
ATOM     45  C   UNL A   1      37.377  34.464  33.285  1.00  0.00     0.029 A 
ATOM     46  N   UNL A   1      39.002  32.937  33.432  1.00  0.00    -0.354 N 
ATOM     47  C   UNL A   1      39.387  29.877  30.311  1.00  0.00     0.074 A 
ATOM     48  C   UNL A   1      38.429  30.109  29.257  1.00  0.00     0.031 C 
ATOM     49  C   UNL A   1      38.010  34.662  34.453  1.00  0.00     0.029 A 
ATOM     50  C   UNL A   1      39.059  33.660  34.596  1.00  0.00     0.049 A 
ATOM     51  H   UNL A   1      39.616  32.195  33.228  1.00  0.00     0.167 HD
ATOM     52  C   UNL A   1      40.299  28.879  30.306  1.00  0.00     0.037 A 
ATOM     53  C   UNL A   1      39.872  33.507  35.656  1.00  0.00     0.037 A 
ATOM     54  C   UNL A   1      41.266  28.697  31.353  1.00  0.00     0.049 A 
ATOM     55  C   UNL A   1      40.884  32.393  35.620  1.00  0.00     0.074 A 
ATOM     56  C   UNL A   1      42.278  27.762  31.444  1.00  0.00     0.029 A 
ATOM     57  N   UNL A   1      41.341  29.490  32.491  1.00  0.00    -0.354 N 
ATOM     58  N   UNL A   1      41.090  31.489  34.692  1.00  0.00    -0.248 NA
ATOM     59  C   UNL A   1      41.782  32.284  36.776  1.00  0.00     0.031 C 
ATOM     60  C   UNL A   1      42.946  27.967  32.655  1.00  0.00     0.029 A 
ATOM     61  C   UNL A   1      42.381  29.061  33.294  1.00  0.00     0.049 A 
ATOM     62  H   UNL A   1      40.741  30.243  32.696  1.00  0.00     0.167 HD
ATOM     63  C   UNL A   1      42.167  30.730  35.131  1.00  0.00     0.074 A 
ATOM     64  C   UNL A   1      42.576  31.291  36.404  1.00  0.00     0.031 C 
ATOM     65  C   UNL A   1      42.768  29.666  34.544  1.00  0.00     0.037 A 
BRANCH  52  66
ATOM     66  C   UNL A   1      40.303  27.949  29.129  1.00  0.00     0.057 A 
ATOM     67  C   UNL A   1      39.529  26.778  29.114  1.00  0.00     0.134 A 
ATOM     68  C   UNL A   1      41.074  28.225  27.994  1.00  0.00     0.134 A 
ATOM     69  F   UNL A   1      38.782  26.443  30.176  1.00  0.00    -0.206 F 
ATOM     70  C   UNL A   1      39.546  25.904  28.026  1.00  0.00     0.040 A 
ATOM     71  C   UNL A   1      41.074  27.374  26.887  1.00  0.00     0.040 A 
ATOM     72  F   UNL A   1      41.840  29.325  27.940  1.00  0.00    -0.206 F 
ATOM     73  C   UNL A   1      40.314  26.205  26.905  1.00  0.00     0.006 A 
ENDBRANCH  52  66
BRANCH  53  74
ATOM     74  C   UNL A   1      39.800  34.445  36.803  1.00  0.00     0.057 A 
ATOM     75  C   UNL A   1      40.482  35.667  36.768  1.00  0.00     0.134 A 
ATOM     76  C   UNL A   1      39.072  34.148  37.960  1.00  0.00     0.134 A 
ATOM     77  F   UNL A   1      41.203  36.006  35.689  1.00  0.00    -0.206 F 
ATOM     78  C   UNL A   1      40.476  36.542  37.856  1.00  0.00     0.040 A 
ATOM     79  C   UNL A   1      39.033  35.026  39.046  1.00  0.00     0.040 A 
ATOM     80  F   UNL A   1      38.380  33.003  38.052  1.00  0.00    -0.206 F 
ATOM     81  C   UNL A   1      39.747  36.223  38.999  1.00  0.00     0.006 A 
ENDBRANCH  53  74
BRANCH  65  82
ATOM     82  C   UNL A   1      43.959  29.085  35.245  1.00  0.00     0.057 A 
ATOM     83  C   UNL A   1      43.833  28.079  36.209  1.00  0.00     0.134 A 
ATOM     84  C   UNL A   1      45.251  29.509  34.911  1.00  0.00     0.134 A 
ATOM     85  F   UNL A   1      42.621  27.640  36.581  1.00  0.00    -0.206 F 
ATOM     86  C   UNL A   1      44.951  27.533  36.838  1.00  0.00     0.040 A 
ATOM     87  C   UNL A   1      46.378  28.949  35.508  1.00  0.00     0.040 A 
ATOM     88  F   UNL A   1      45.438  30.462  33.983  1.00  0.00    -0.206 F 
ATOM     89  C   UNL A   1      46.229  27.963  36.482  1.00  0.00     0.006 A 
ENDBRANCH  65  82
ENDBRANCH  39  40
ENDBRANCH  31  34
ENDBRANCH  29  30
ENDBRANCH  28  29
ENDBRANCH  27  28
ENDBRANCH   1  27
TORSDOF 15
ENDMDL
MODEL 3
REMARK VINA RESULT:     -13.7      1.227      2.101
REMARK SMILES CC1(C)OC(=O)C(=CNc2ccccc2C(=O)NCCCCCCNC(=O)c2ccc(-c3c4nc(c(-c5c(F)cccc5F)c5ccc([nH]5)c(-c5c(F)cccc5F)c5nc(c(-c6c(F)cccc6F)c6ccc3[nH]6)C=C5)C=C4)cc2)C(=O)O1
REMARK SMILES IDX 21 1 20 2 19 3 18 4 16 5 17 6 15 8 10 9 11 10 12 11 14 12
REMARK SMILES IDX 13 13 9 14 8 16 1 17 2 18 3 19 4 20 84 21 5 22 82 23 6 24
REMARK SMILES IDX 7 25 83 26 22 27 23 28 24 29 25 30 26 31 27 33 28 34 29 35
REMARK SMILES IDX 81 36 30 37 80 38 31 39 32 40 33 41 74 42 34 43 79 44 73 45
REMARK SMILES IDX 75 46 35 47 78 48 72 49 71 50 36 52 62 53 45 54 61 55 46 56
REMARK SMILES IDX 49 57 60 58 76 59 47 60 48 61 59 63 77 64 50 65 37 66 38 67
REMARK SMILES IDX 43 68 39 69 40 70 42 71 44 72 41 73 63 74 64 75 69 76 65 77
REMARK SMILES IDX 66 78 68 79 70 80 67 81 51 82 52 83 57 84 53 85 54 86 56 87
REMARK SMILES IDX 58 88 55 89
REMARK H PARENT 18 7 9 15 25 32 75 51 49 62
REMARK Flexibility Score: inf
ROOT
ATOM      1  C   UNL A   1      36.450  23.472  24.453  1.00  0.00     0.002 C 
ENDROOT
BRANCH   1   2
ATOM      2  C   UNL A   1      35.749  24.042  25.701  1.00  0.00     0.021 C 
BRANCH   2   3
ATOM      3  C   UNL A   1      34.386  24.680  25.529  1.00  0.00     0.116 C 
BRANCH   3   4
ATOM      4  N   UNL A   1      33.421  24.255  26.513  1.00  0.00    -0.352 N 
ATOM      5  C   UNL A   1      32.566  23.185  26.431  1.00  0.00     0.253 C 
ATOM      6  O   UNL A   1      31.761  22.984  27.336  1.00  0.00    -0.269 OA
ATOM      7  H   UNL A   1      33.370  24.793  27.335  1.00  0.00     0.163 HD
BRANCH   5   8
ATOM      8  C   UNL A   1      32.488  22.394  25.181  1.00  0.00     0.063 A 
ATOM      9  C   UNL A   1      31.768  22.729  24.011  1.00  0.00     0.051 A 
ATOM     10  C   UNL A   1      31.739  21.766  22.982  1.00  0.00     0.027 A 
ATOM     11  C   UNL A   1      32.367  20.521  23.110  1.00  0.00     0.002 A 
ATOM     12  C   UNL A   1      33.135  21.143  25.294  1.00  0.00     0.016 A 
ATOM     13  C   UNL A   1      33.062  20.205  24.270  1.00  0.00     0.001 A 
BRANCH   9  14
ATOM     14  N   UNL A   1      30.995  23.899  23.784  1.00  0.00    -0.360 N 
ATOM     15  H   UNL A   1      30.018  23.780  23.793  1.00  0.00     0.166 HD
BRANCH  14  16
ATOM     16  C   UNL A   1      31.445  25.174  23.555  1.00  0.00     0.106 C 
ATOM     17  C   UNL A   1      33.531  29.413  27.282  1.00  0.00     0.106 C 
ATOM     18  C   UNL A   1      32.336  29.218  26.303  1.00  0.00     0.252 C 
ATOM     19  C   UNL A   1      31.771  30.687  26.162  1.00  0.00     0.106 C 
ATOM     20  O   UNL A   1      32.796  28.919  24.571  1.00  0.00    -0.419 OA
ATOM     21  O   UNL A   1      31.305  27.816  26.999  1.00  0.00    -0.419 OA
ATOM     22  C   UNL A   1      32.316  27.709  23.597  1.00  0.00     0.350 C 
ATOM     23  C   UNL A   1      30.729  26.410  26.081  1.00  0.00     0.350 C 
ATOM     24  O   UNL A   1      32.613  27.749  22.407  1.00  0.00    -0.246 OA
ATOM     25  C   UNL A   1      31.334  26.297  24.291  1.00  0.00     0.161 C 
ATOM     26  O   UNL A   1      29.935  25.628  26.581  1.00  0.00    -0.246 OA
ENDBRANCH  14  16
ENDBRANCH   9  14
ENDBRANCH   5   8
ENDBRANCH   3   4
ENDBRANCH   2   3
ENDBRANCH   1   2
BRANCH   1  27
ATOM     27  C   UNL A   1      36.566  21.782  24.058  1.00  0.00     0.002 C 
BRANCH  27  28
ATOM     28  C   UNL A   1      37.824  20.205  24.836  1.00  0.00     0.021 C 
BRANCH  28  29
ATOM     29  C   UNL A   1      39.125  20.301  26.098  1.00  0.00     0.116 C 
BRANCH  29  30
ATOM     30  N   UNL A   1      40.259  19.347  26.004  1.00  0.00    -0.352 N 
ATOM     31  C   UNL A   1      41.607  19.570  25.923  1.00  0.00     0.251 C 
ATOM     32  H   UNL A   1      39.998  18.399  26.000  1.00  0.00     0.163 HD
ATOM     33  O   UNL A   1      42.398  18.750  25.481  1.00  0.00    -0.269 OA
BRANCH  31  34
ATOM     34  C   UNL A   1      42.057  20.822  26.503  1.00  0.00     0.039 A 
ATOM     35  C   UNL A   1      42.250  20.993  27.872  1.00  0.00     0.014 A 
ATOM     36  C   UNL A   1      42.364  21.804  25.563  1.00  0.00     0.014 A 
ATOM     37  C   UNL A   1      42.797  22.195  28.306  1.00  0.00     0.010 A 
ATOM     38  C   UNL A   1      42.977  22.953  25.986  1.00  0.00     0.010 A 
ATOM     39  C   UNL A   1      43.166  23.166  27.360  1.00  0.00    -0.014 A 
BRANCH  39  40
ATOM     40  C   UNL A   1      43.679  24.491  27.732  1.00  0.00     0.031 A 
ATOM     41  C   UNL A   1      42.680  25.536  28.132  1.00  0.00     0.074 A 
ATOM     42  C   UNL A   1      44.977  24.773  27.538  1.00  0.00     0.049 A 
ATOM     43  N   UNL A   1      42.836  26.825  28.253  1.00  0.00    -0.248 NA
ATOM     44  C   UNL A   1      41.297  25.070  28.354  1.00  0.00     0.031 C 
ATOM     45  C   UNL A   1      45.998  23.824  27.090  1.00  0.00     0.029 A 
ATOM     46  N   UNL A   1      45.648  25.957  27.662  1.00  0.00    -0.354 N 
ATOM     47  C   UNL A   1      41.571  27.322  28.537  1.00  0.00     0.074 A 
ATOM     48  C   UNL A   1      40.647  26.215  28.486  1.00  0.00     0.031 C 
ATOM     49  C   UNL A   1      47.175  24.464  26.994  1.00  0.00     0.029 A 
ATOM     50  C   UNL A   1      46.977  25.869  27.331  1.00  0.00     0.049 A 
ATOM     51  H   UNL A   1      45.220  26.792  27.959  1.00  0.00     0.167 HD
ATOM     52  C   UNL A   1      41.225  28.590  28.854  1.00  0.00     0.037 A 
ATOM     53  C   UNL A   1      47.913  26.833  27.300  1.00  0.00     0.037 A 
ATOM     54  C   UNL A   1      42.176  29.663  28.935  1.00  0.00     0.049 A 
ATOM     55  C   UNL A   1      47.502  28.235  27.665  1.00  0.00     0.074 A 
ATOM     56  C   UNL A   1      41.967  30.980  29.297  1.00  0.00     0.029 A 
ATOM     57  N   UNL A   1      43.530  29.529  28.657  1.00  0.00    -0.354 N 
ATOM     58  N   UNL A   1      46.317  28.692  27.996  1.00  0.00    -0.248 NA
ATOM     59  C   UNL A   1      48.560  29.252  27.662  1.00  0.00     0.031 C 
ATOM     60  C   UNL A   1      43.190  31.651  29.206  1.00  0.00     0.029 A 
ATOM     61  C   UNL A   1      44.169  30.741  28.836  1.00  0.00     0.049 A 
ATOM     62  H   UNL A   1      43.969  28.694  28.373  1.00  0.00     0.167 HD
ATOM     63  C   UNL A   1      46.495  30.039  28.280  1.00  0.00     0.074 A 
ATOM     64  C   UNL A   1      47.905  30.319  28.094  1.00  0.00     0.031 C 
ATOM     65  C   UNL A   1      45.581  30.968  28.661  1.00  0.00     0.037 A 
BRANCH  52  66
ATOM     66  C   UNL A   1      39.782  28.858  29.162  1.00  0.00     0.057 A 
ATOM     67  C   UNL A   1      39.273  28.741  30.464  1.00  0.00     0.134 A 
ATOM     68  C   UNL A   1      38.890  29.248  28.156  1.00  0.00     0.134 A 
ATOM     69  F   UNL A   1      40.067  28.353  31.472  1.00  0.00    -0.206 F 
ATOM     70  C   UNL A   1      37.926  28.973  30.747  1.00  0.00     0.040 A 
ATOM     71  C   UNL A   1      37.547  29.515  28.433  1.00  0.00     0.040 A 
ATOM     72  F   UNL A   1      39.307  29.379  26.887  1.00  0.00    -0.206 F 
ATOM     73  C   UNL A   1      37.061  29.370  29.731  1.00  0.00     0.006 A 
ENDBRANCH  52  66
BRANCH  53  74
ATOM     74  C   UNL A   1      49.320  26.508  26.961  1.00  0.00     0.057 A 
ATOM     75  C   UNL A   1      50.199  26.036  27.943  1.00  0.00     0.134 A 
ATOM     76  C   UNL A   1      49.829  26.671  25.667  1.00  0.00     0.134 A 
ATOM     77  F   UNL A   1      49.772  25.865  29.203  1.00  0.00    -0.206 F 
ATOM     78  C   UNL A   1      51.541  25.776  27.662  1.00  0.00     0.040 A 
ATOM     79  C   UNL A   1      51.162  26.387  25.365  1.00  0.00     0.040 A 
ATOM     80  F   UNL A   1      49.036  27.100  24.674  1.00  0.00    -0.206 F 
ATOM     81  C   UNL A   1      52.026  25.949  26.368  1.00  0.00     0.006 A 
ENDBRANCH  53  74
BRANCH  65  82
ATOM     82  C   UNL A   1      46.095  32.346  28.952  1.00  0.00     0.057 A 
ATOM     83  C   UNL A   1      46.557  32.711  30.221  1.00  0.00     0.134 A 
ATOM     84  C   UNL A   1      46.170  33.302  27.931  1.00  0.00     0.134 A 
ATOM     85  F   UNL A   1      46.500  31.843  31.243  1.00  0.00    -0.206 F 
ATOM     86  C   UNL A   1      47.052  33.991  30.472  1.00  0.00     0.040 A 
ATOM     87  C   UNL A   1      46.692  34.573  28.161  1.00  0.00     0.040 A 
ATOM     88  F   UNL A   1      45.754  33.007  26.689  1.00  0.00    -0.206 F 
ATOM     89  C   UNL A   1      47.128  34.923  29.437  1.00  0.00     0.006 A 
ENDBRANCH  65  82
ENDBRANCH  39  40
ENDBRANCH  31  34
ENDBRANCH  29  30
ENDBRANCH  28  29
ENDBRANCH  27  28
ENDBRANCH   1  27
TORSDOF 15
ENDMDL
