MODEL 1
REMARK VINA RESULT:     -12.0      0.000      0.000
REMARK SMILES Cc1ccc(N2CC[C@H]([NH+]3CCOCC3)[C@H](CCC(=O)NCCCCCCNC(=O)c3ccc(-c4c5nc(c(-c6c(F)cccc6F)c6ccc([nH]6)c(-c6c(F)cccc6F)c6nc(c(-c7c(F)cccc7F)c7ccc4[nH]7)C=C6)C=C5)cc3)C2)nc1
REMARK SMILES IDX 24 1 23 2 22 3 21 4 19 5 20 6 18 8 17 9 16 10 6 11 7 12
REMARK SMILES IDX 85 13 8 14 9 15 5 16 1 17 2 18 3 19 87 20 4 21 86 22 10 23
REMARK SMILES IDX 11 24 15 25 12 27 14 28 13 29 25 30 26 31 27 32 28 33 29 34
REMARK SMILES IDX 30 36 31 37 32 38 84 39 33 40 83 41 34 42 35 43 36 44 77 45
REMARK SMILES IDX 37 46 82 47 76 48 78 49 38 50 81 51 75 52 74 53 39 55 65 56
REMARK SMILES IDX 48 57 64 58 49 59 52 60 63 61 79 62 50 63 51 64 62 66 80 67
REMARK SMILES IDX 53 68 40 69 41 70 46 71 42 72 43 73 45 74 47 75 44 76 66 77
REMARK SMILES IDX 67 78 72 79 68 80 69 81 71 82 73 83 70 84 54 85 55 86 60 87
REMARK SMILES IDX 56 88 57 89 59 90 61 91 58 92
REMARK H PARENT 21 7 10 26 28 35 78 54 52 65
REMARK Flexibility Score: inf
ROOT
ATOM      1  C   UNL A   1      34.982  33.247  28.989  1.00  0.00     0.002 C 
ENDROOT
BRANCH   1   2
ATOM      2  C   UNL A   1      35.820  32.420  28.020  1.00  0.00     0.021 C 
BRANCH   2   3
ATOM      3  C   UNL A   1      35.327  30.973  27.888  1.00  0.00     0.116 C 
BRANCH   3   4
ATOM      4  N   UNL A   1      33.875  30.962  27.913  1.00  0.00    -0.356 N 
ATOM      5  C   UNL A   1      32.999  30.397  27.032  1.00  0.00     0.220 C 
ATOM      6  O   UNL A   1      31.815  30.735  27.086  1.00  0.00    -0.275 OA
ATOM      7  H   UNL A   1      33.463  31.429  28.676  1.00  0.00     0.163 HD
BRANCH   5   8
ATOM      8  C   UNL A   1      33.471  29.326  26.066  1.00  0.00     0.100 C 
BRANCH   8   9
ATOM      9  C   UNL A   1      32.724  29.229  24.721  1.00  0.00     0.021 C 
BRANCH   9  10
ATOM     10  C   UNL A   1      31.270  28.706  24.806  1.00  0.00     0.067 C 
ATOM     11  N   UNL A   1      31.311  26.251  24.335  1.00  0.00    -0.356 N 
ATOM     12  C   UNL A   1      30.422  26.362  23.199  1.00  0.00     0.124 C 
ATOM     13  C   UNL A   1      31.225  27.260  25.376  1.00  0.00     0.127 C 
ATOM     14  C   UNL A   1      30.588  27.717  22.530  1.00  0.00     0.087 C 
ATOM     15  C   UNL A   1      30.320  28.826  23.552  1.00  0.00     0.190 C 
BRANCH  11  16
ATOM     16  C   UNL A   1      32.489  25.558  24.140  1.00  0.00     0.128 A 
ATOM     17  C   UNL A   1      35.977  23.168  23.619  1.00  0.00     0.046 C 
ATOM     18  C   UNL A   1      34.771  24.019  23.841  1.00  0.00    -0.033 A 
ATOM     19  C   UNL A   1      34.651  24.859  24.943  1.00  0.00     0.009 A 
ATOM     20  C   UNL A   1      33.722  24.014  22.933  1.00  0.00     0.117 A 
ATOM     21  C   UNL A   1      33.507  25.641  25.087  1.00  0.00     0.047 A 
ATOM     22  N   UNL A   1      32.593  24.742  23.070  1.00  0.00    -0.239 NA
ENDBRANCH  11  16
BRANCH  15  23
ATOM     23  N   UNL A   1      30.106  30.176  22.985  1.00  0.00    -0.328 N 
ATOM     24  C   UNL A   1      29.301  31.075  23.854  1.00  0.00     0.291 C 
ATOM     25  C   UNL A   1      29.625  30.292  21.597  1.00  0.00     0.291 C 
ATOM     26  H   UNL A   1      31.078  30.485  22.950  1.00  0.00     0.348 HD
ATOM     27  C   UNL A   1      27.788  31.149  23.560  1.00  0.00     0.221 C 
ATOM     28  C   UNL A   1      28.111  30.376  21.382  1.00  0.00     0.221 C 
ATOM     29  O   UNL A   1      27.531  31.407  22.180  1.00  0.00    -0.370 OA
ENDBRANCH  15  23
ENDBRANCH   9  10
ENDBRANCH   8   9
ENDBRANCH   5   8
ENDBRANCH   3   4
ENDBRANCH   2   3
ENDBRANCH   1   2
BRANCH   1  30
ATOM     30  C   UNL A   1      34.583  34.612  28.420  1.00  0.00     0.002 C 
BRANCH  30  31
ATOM     31  C   UNL A   1      33.243  35.167  28.926  1.00  0.00     0.021 C 
BRANCH  31  32
ATOM     32  C   UNL A   1      33.343  36.423  29.790  1.00  0.00     0.116 C 
BRANCH  32  33
ATOM     33  N   UNL A   1      32.446  36.366  30.933  1.00  0.00    -0.352 N 
ATOM     34  C   UNL A   1      32.511  35.600  32.068  1.00  0.00     0.251 C 
ATOM     35  H   UNL A   1      31.673  36.973  30.885  1.00  0.00     0.163 HD
ATOM     36  O   UNL A   1      31.541  35.528  32.814  1.00  0.00    -0.269 OA
BRANCH  34  37
ATOM     37  C   UNL A   1      33.743  34.853  32.393  1.00  0.00     0.039 A 
ATOM     38  C   UNL A   1      34.979  35.453  32.133  1.00  0.00     0.014 A 
ATOM     39  C   UNL A   1      33.686  33.553  32.902  1.00  0.00     0.014 A 
ATOM     40  C   UNL A   1      36.157  34.765  32.426  1.00  0.00     0.010 A 
ATOM     41  C   UNL A   1      34.861  32.894  33.254  1.00  0.00     0.010 A 
ATOM     42  C   UNL A   1      36.107  33.490  33.010  1.00  0.00    -0.014 A 
BRANCH  42  43
ATOM     43  C   UNL A   1      37.352  32.762  33.361  1.00  0.00     0.031 A 
ATOM     44  C   UNL A   1      38.078  33.076  34.639  1.00  0.00     0.074 A 
ATOM     45  C   UNL A   1      37.856  31.856  32.502  1.00  0.00     0.049 A 
ATOM     46  N   UNL A   1      39.203  32.583  35.094  1.00  0.00    -0.248 NA
ATOM     47  C   UNL A   1      37.474  34.096  35.511  1.00  0.00     0.031 C 
ATOM     48  C   UNL A   1      37.269  31.499  31.209  1.00  0.00     0.029 A 
ATOM     49  N   UNL A   1      38.982  31.077  32.583  1.00  0.00    -0.354 N 
ATOM     50  C   UNL A   1      39.447  33.241  36.292  1.00  0.00     0.074 A 
ATOM     51  C   UNL A   1      38.381  34.203  36.471  1.00  0.00     0.031 C 
ATOM     52  C   UNL A   1      38.027  30.555  30.628  1.00  0.00     0.029 A 
ATOM     53  C   UNL A   1      39.169  30.265  31.490  1.00  0.00     0.049 A 
ATOM     54  H   UNL A   1      39.598  31.097  33.350  1.00  0.00     0.167 HD
ATOM     55  C   UNL A   1      40.455  33.046  37.175  1.00  0.00     0.037 A 
ATOM     56  C   UNL A   1      40.152  29.387  31.215  1.00  0.00     0.037 A 
ATOM     57  C   UNL A   1      41.499  32.069  37.008  1.00  0.00     0.049 A 
ATOM     58  C   UNL A   1      41.257  29.185  32.213  1.00  0.00     0.074 A 
ATOM     59  C   UNL A   1      42.530  31.751  37.874  1.00  0.00     0.029 A 
ATOM     60  N   UNL A   1      41.643  31.251  35.897  1.00  0.00    -0.354 N 
ATOM     61  N   UNL A   1      41.439  29.766  33.374  1.00  0.00    -0.248 NA
ATOM     62  C   UNL A   1      42.290  28.199  31.866  1.00  0.00     0.031 C 
ATOM     63  C   UNL A   1      43.321  30.767  37.271  1.00  0.00     0.029 A 
ATOM     64  C   UNL A   1      42.758  30.443  36.047  1.00  0.00     0.049 A 
ATOM     65  H   UNL A   1      41.042  31.246  35.117  1.00  0.00     0.167 HD
ATOM     66  C   UNL A   1      42.589  29.199  33.907  1.00  0.00     0.074 A 
ATOM     67  C   UNL A   1      43.054  28.219  32.949  1.00  0.00     0.031 C 
ATOM     68  C   UNL A   1      43.204  29.468  35.085  1.00  0.00     0.037 A 
BRANCH  55  69
ATOM     69  C   UNL A   1      40.475  33.905  38.405  1.00  0.00     0.057 A 
ATOM     70  C   UNL A   1      39.774  33.549  39.565  1.00  0.00     0.134 A 
ATOM     71  C   UNL A   1      41.227  35.086  38.442  1.00  0.00     0.134 A 
ATOM     72  F   UNL A   1      39.025  32.437  39.592  1.00  0.00    -0.206 F 
ATOM     73  C   UNL A   1      39.800  34.349  40.708  1.00  0.00     0.040 A 
ATOM     74  C   UNL A   1      41.281  35.881  39.588  1.00  0.00     0.040 A 
ATOM     75  F   UNL A   1      41.926  35.483  37.369  1.00  0.00    -0.206 F 
ATOM     76  C   UNL A   1      40.561  35.516  40.725  1.00  0.00     0.006 A 
ENDBRANCH  55  69
BRANCH  56  77
ATOM     77  C   UNL A   1      40.120  28.613  29.949  1.00  0.00     0.057 A 
ATOM     78  C   UNL A   1      40.813  29.058  28.817  1.00  0.00     0.134 A 
ATOM     79  C   UNL A   1      39.399  27.419  29.838  1.00  0.00     0.134 A 
ATOM     80  F   UNL A   1      41.507  30.205  28.857  1.00  0.00    -0.206 F 
ATOM     81  C   UNL A   1      40.777  28.351  27.614  1.00  0.00     0.040 A 
ATOM     82  C   UNL A   1      39.372  26.690  28.648  1.00  0.00     0.040 A 
ATOM     83  F   UNL A   1      38.721  26.937  30.890  1.00  0.00    -0.206 F 
ATOM     84  C   UNL A   1      40.057  27.161  27.529  1.00  0.00     0.006 A 
ENDBRANCH  56  77
BRANCH  68  85
ATOM     85  C   UNL A   1      44.429  28.669  35.414  1.00  0.00     0.057 A 
ATOM     86  C   UNL A   1      45.711  29.097  35.048  1.00  0.00     0.134 A 
ATOM     87  C   UNL A   1      44.328  27.474  36.139  1.00  0.00     0.134 A 
ATOM     88  F   UNL A   1      45.874  30.226  34.341  1.00  0.00    -0.206 F 
ATOM     89  C   UNL A   1      46.847  28.355  35.373  1.00  0.00     0.040 A 
ATOM     90  C   UNL A   1      45.458  26.737  36.492  1.00  0.00     0.040 A 
ATOM     91  F   UNL A   1      43.129  27.012  36.527  1.00  0.00    -0.206 F 
ATOM     92  C   UNL A   1      46.723  27.175  36.103  1.00  0.00     0.006 A 
ENDBRANCH  68  85
ENDBRANCH  42  43
ENDBRANCH  34  37
ENDBRANCH  32  33
ENDBRANCH  31  32
ENDBRANCH  30  31
ENDBRANCH   1  30
TORSDOF 17
ENDMDL
MODEL 2
REMARK VINA RESULT:     -11.8      7.113     12.429
REMARK SMILES Cc1ccc(N2CC[C@H]([NH+]3CCOCC3)[C@H](CCC(=O)NCCCCCCNC(=O)c3ccc(-c4c5nc(c(-c6c(F)cccc6F)c6ccc([nH]6)c(-c6c(F)cccc6F)c6nc(c(-c7c(F)cccc7F)c7ccc4[nH]7)C=C6)C=C5)cc3)C2)nc1
REMARK SMILES IDX 24 1 23 2 22 3 21 4 19 5 20 6 18 8 17 9 16 10 6 11 7 12
REMARK SMILES IDX 85 13 8 14 9 15 5 16 1 17 2 18 3 19 87 20 4 21 86 22 10 23
REMARK SMILES IDX 11 24 15 25 12 27 14 28 13 29 25 30 26 31 27 32 28 33 29 34
REMARK SMILES IDX 30 36 31 37 32 38 84 39 33 40 83 41 34 42 35 43 36 44 77 45
REMARK SMILES IDX 37 46 82 47 76 48 78 49 38 50 81 51 75 52 74 53 39 55 65 56
REMARK SMILES IDX 48 57 64 58 49 59 52 60 63 61 79 62 50 63 51 64 62 66 80 67
REMARK SMILES IDX 53 68 40 69 41 70 46 71 42 72 43 73 45 74 47 75 44 76 66 77
REMARK SMILES IDX 67 78 72 79 68 80 69 81 71 82 73 83 70 84 54 85 55 86 60 87
REMARK SMILES IDX 56 88 57 89 59 90 61 91 58 92
REMARK H PARENT 21 7 10 26 28 35 78 54 52 65
REMARK Flexibility Score: inf
ROOT
ATOM      1  C   UNL A   1      41.667  21.388  26.830  1.00  0.00     0.002 C 
ENDROOT
BRANCH   1   2
ATOM      2  C   UNL A   1      40.769  22.332  27.622  1.00  0.00     0.021 C 
BRANCH   2   3
ATOM      3  C   UNL A   1      39.677  22.983  26.761  1.00  0.00     0.116 C 
BRANCH   3   4
ATOM      4  N   UNL A   1      39.240  22.034  25.751  1.00  0.00    -0.356 N 
ATOM      5  C   UNL A   1      37.975  21.656  25.409  1.00  0.00     0.220 C 
ATOM      6  O   UNL A   1      37.831  20.643  24.723  1.00  0.00    -0.275 OA
ATOM      7  H   UNL A   1      39.962  21.601  25.241  1.00  0.00     0.163 HD
BRANCH   5   8
ATOM      8  C   UNL A   1      36.787  22.515  25.807  1.00  0.00     0.100 C 
BRANCH   8   9
ATOM      9  C   UNL A   1      35.430  21.797  25.945  1.00  0.00     0.021 C 
BRANCH   9  10
ATOM     10  C   UNL A   1      34.777  21.353  24.615  1.00  0.00     0.067 C 
ATOM     11  N   UNL A   1      32.947  22.971  24.081  1.00  0.00    -0.356 N 
ATOM     12  C   UNL A   1      31.923  21.949  24.070  1.00  0.00     0.124 C 
ATOM     13  C   UNL A   1      34.313  22.579  23.779  1.00  0.00     0.127 C 
ATOM     14  C   UNL A   1      32.292  20.824  25.023  1.00  0.00     0.087 C 
ATOM     15  C   UNL A   1      33.653  20.245  24.626  1.00  0.00     0.190 C 
BRANCH  11  16
ATOM     16  C   UNL A   1      32.705  24.090  24.854  1.00  0.00     0.128 A 
ATOM     17  C   UNL A   1      31.807  27.657  27.002  1.00  0.00     0.046 C 
ATOM     18  C   UNL A   1      32.164  26.423  26.242  1.00  0.00    -0.033 A 
ATOM     19  C   UNL A   1      33.445  26.201  25.751  1.00  0.00     0.009 A 
ATOM     20  C   UNL A   1      31.217  25.434  26.011  1.00  0.00     0.117 A 
ATOM     21  C   UNL A   1      33.720  25.021  25.062  1.00  0.00     0.047 A 
ATOM     22  N   UNL A   1      31.457  24.298  25.321  1.00  0.00    -0.239 NA
ENDBRANCH  11  16
BRANCH  15  23
ATOM     23  N   UNL A   1      33.990  18.937  25.231  1.00  0.00    -0.328 N 
ATOM     24  C   UNL A   1      34.850  18.079  24.374  1.00  0.00     0.291 C 
ATOM     25  C   UNL A   1      32.903  18.118  25.794  1.00  0.00     0.291 C 
ATOM     26  H   UNL A   1      34.511  19.272  26.042  1.00  0.00     0.348 HD
ATOM     27  C   UNL A   1      34.129  17.035  23.494  1.00  0.00     0.221 C 
ATOM     28  C   UNL A   1      32.243  17.092  24.869  1.00  0.00     0.221 C 
ATOM     29  O   UNL A   1      33.215  16.246  24.256  1.00  0.00    -0.370 OA
ENDBRANCH  15  23
ENDBRANCH   9  10
ENDBRANCH   8   9
ENDBRANCH   5   8
ENDBRANCH   3   4
ENDBRANCH   2   3
ENDBRANCH   1   2
BRANCH   1  30
ATOM     30  C   UNL A   1      42.132  20.180  27.647  1.00  0.00     0.002 C 
BRANCH  30  31
ATOM     31  C   UNL A   1      42.577  18.963  26.824  1.00  0.00     0.021 C 
BRANCH  31  32
ATOM     32  C   UNL A   1      42.584  19.167  25.310  1.00  0.00     0.116 C 
BRANCH  32  33
ATOM     33  N   UNL A   1      43.846  18.761  24.714  1.00  0.00    -0.352 N 
ATOM     34  C   UNL A   1      44.926  19.516  24.336  1.00  0.00     0.251 C 
ATOM     35  H   UNL A   1      43.941  17.794  24.558  1.00  0.00     0.163 HD
ATOM     36  O   UNL A   1      45.807  19.019  23.642  1.00  0.00    -0.269 OA
BRANCH  34  37
ATOM     37  C   UNL A   1      45.031  20.928  24.755  1.00  0.00     0.039 A 
ATOM     38  C   UNL A   1      45.461  21.213  26.054  1.00  0.00     0.014 A 
ATOM     39  C   UNL A   1      44.660  21.965  23.895  1.00  0.00     0.014 A 
ATOM     40  C   UNL A   1      45.562  22.539  26.475  1.00  0.00     0.010 A 
ATOM     41  C   UNL A   1      44.822  23.290  24.294  1.00  0.00     0.010 A 
ATOM     42  C   UNL A   1      45.266  23.588  25.591  1.00  0.00    -0.014 A 
BRANCH  42  43
ATOM     43  C   UNL A   1      45.405  25.004  26.013  1.00  0.00     0.031 A 
ATOM     44  C   UNL A   1      46.744  25.684  25.957  1.00  0.00     0.074 A 
ATOM     45  C   UNL A   1      44.333  25.660  26.497  1.00  0.00     0.049 A 
ATOM     46  N   UNL A   1      47.072  26.896  26.328  1.00  0.00    -0.248 NA
ATOM     47  C   UNL A   1      47.869  24.889  25.439  1.00  0.00     0.031 C 
ATOM     48  C   UNL A   1      42.991  25.095  26.644  1.00  0.00     0.029 A 
ATOM     49  N   UNL A   1      44.206  26.945  26.962  1.00  0.00    -0.354 N 
ATOM     50  C   UNL A   1      48.439  27.003  26.103  1.00  0.00     0.074 A 
ATOM     51  C   UNL A   1      48.888  25.718  25.610  1.00  0.00     0.031 C 
ATOM     52  C   UNL A   1      42.171  26.034  27.144  1.00  0.00     0.029 A 
ATOM     53  C   UNL A   1      42.935  27.254  27.381  1.00  0.00     0.049 A 
ATOM     54  H   UNL A   1      44.954  27.584  26.992  1.00  0.00     0.167 HD
ATOM     55  C   UNL A   1      49.243  28.080  26.269  1.00  0.00     0.037 A 
ATOM     56  C   UNL A   1      42.443  28.395  27.901  1.00  0.00     0.037 A 
ATOM     57  C   UNL A   1      48.787  29.365  26.733  1.00  0.00     0.049 A 
ATOM     58  C   UNL A   1      43.354  29.578  28.071  1.00  0.00     0.074 A 
ATOM     59  C   UNL A   1      49.510  30.535  26.876  1.00  0.00     0.029 A 
ATOM     60  N   UNL A   1      47.489  29.645  27.129  1.00  0.00    -0.354 N 
ATOM     61  N   UNL A   1      44.630  29.686  27.791  1.00  0.00    -0.248 NA
ATOM     62  C   UNL A   1      42.754  30.801  28.624  1.00  0.00     0.031 C 
ATOM     63  C   UNL A   1      48.658  31.516  27.396  1.00  0.00     0.029 A 
ATOM     64  C   UNL A   1      47.394  30.966  27.536  1.00  0.00     0.049 A 
ATOM     65  H   UNL A   1      46.744  29.000  27.123  1.00  0.00     0.167 HD
ATOM     66  C   UNL A   1      44.979  30.992  28.106  1.00  0.00     0.074 A 
ATOM     67  C   UNL A   1      43.778  31.641  28.587  1.00  0.00     0.031 C 
ATOM     68  C   UNL A   1      46.188  31.598  28.007  1.00  0.00     0.037 A 
BRANCH  55  69
ATOM     69  C   UNL A   1      50.698  27.915  25.943  1.00  0.00     0.057 A 
ATOM     70  C   UNL A   1      51.174  28.006  24.628  1.00  0.00     0.134 A 
ATOM     71  C   UNL A   1      51.640  27.695  26.956  1.00  0.00     0.134 A 
ATOM     72  F   UNL A   1      50.323  28.204  23.609  1.00  0.00    -0.206 F 
ATOM     73  C   UNL A   1      52.529  27.858  24.330  1.00  0.00     0.040 A 
ATOM     74  C   UNL A   1      53.000  27.571  26.673  1.00  0.00     0.040 A 
ATOM     75  F   UNL A   1      51.253  27.604  28.237  1.00  0.00    -0.206 F 
ATOM     76  C   UNL A   1      53.449  27.646  25.355  1.00  0.00     0.006 A 
ENDBRANCH  55  69
BRANCH  56  77
ATOM     77  C   UNL A   1      41.009  28.481  28.273  1.00  0.00     0.057 A 
ATOM     78  C   UNL A   1      40.054  28.937  27.356  1.00  0.00     0.134 A 
ATOM     79  C   UNL A   1      40.559  28.115  29.546  1.00  0.00     0.134 A 
ATOM     80  F   UNL A   1      40.428  29.319  26.126  1.00  0.00    -0.206 F 
ATOM     81  C   UNL A   1      38.705  29.042  27.697  1.00  0.00     0.040 A 
ATOM     82  C   UNL A   1      39.209  28.193  29.894  1.00  0.00     0.040 A 
ATOM     83  F   UNL A   1      41.423  27.662  30.466  1.00  0.00    -0.206 F 
ATOM     84  C   UNL A   1      38.279  28.666  28.969  1.00  0.00     0.006 A 
ENDBRANCH  56  77
BRANCH  68  85
ATOM     85  C   UNL A   1      46.262  33.043  28.399  1.00  0.00     0.057 A 
ATOM     86  C   UNL A   1      46.024  34.071  27.478  1.00  0.00     0.134 A 
ATOM     87  C   UNL A   1      46.540  33.411  29.722  1.00  0.00     0.134 A 
ATOM     88  F   UNL A   1      45.766  33.786  26.193  1.00  0.00    -0.206 F 
ATOM     89  C   UNL A   1      46.078  35.413  27.855  1.00  0.00     0.040 A 
ATOM     90  C   UNL A   1      46.572  34.748  30.116  1.00  0.00     0.040 A 
ATOM     91  F   UNL A   1      46.770  32.474  30.655  1.00  0.00    -0.206 F 
ATOM     92  C   UNL A   1      46.346  35.755  29.179  1.00  0.00     0.006 A 
ENDBRANCH  68  85
ENDBRANCH  42  43
ENDBRANCH  34  37
ENDBRANCH  32  33
ENDBRANCH  31  32
ENDBRANCH  30  31
ENDBRANCH   1  30
TORSDOF 17
ENDMDL
MODEL 3
REMARK VINA RESULT:     -11.6      6.788     11.924
REMARK SMILES Cc1ccc(N2CC[C@H]([NH+]3CCOCC3)[C@H](CCC(=O)NCCCCCCNC(=O)c3ccc(-c4c5nc(c(-c6c(F)cccc6F)c6ccc([nH]6)c(-c6c(F)cccc6F)c6nc(c(-c7c(F)cccc7F)c7ccc4[nH]7)C=C6)C=C5)cc3)C2)nc1
REMARK SMILES IDX 24 1 23 2 22 3 21 4 19 5 20 6 18 8 17 9 16 10 6 11 7 12
REMARK SMILES IDX 85 13 8 14 9 15 5 16 1 17 2 18 3 19 87 20 4 21 86 22 10 23
REMARK SMILES IDX 11 24 15 25 12 27 14 28 13 29 25 30 26 31 27 32 28 33 29 34
REMARK SMILES IDX 30 36 31 37 32 38 84 39 33 40 83 41 34 42 35 43 36 44 77 45
REMARK SMILES IDX 37 46 82 47 76 48 78 49 38 50 81 51 75 52 74 53 39 55 65 56
REMARK SMILES IDX 48 57 64 58 49 59 52 60 63 61 79 62 50 63 51 64 62 66 80 67
REMARK SMILES IDX 53 68 40 69 41 70 46 71 42 72 43 73 45 74 47 75 44 76 66 77
REMARK SMILES IDX 67 78 72 79 68 80 69 81 71 82 73 83 70 84 54 85 55 86 60 87
REMARK SMILES IDX 56 88 57 89 59 90 61 91 58 92
REMARK H PARENT 21 7 10 26 28 35 78 54 52 65
REMARK Flexibility Score: inf
ROOT
ATOM      1  C   UNL A   1      41.370  21.776  26.482  1.00  0.00     0.002 C 
ENDROOT
BRANCH   1   2
ATOM      2  C   UNL A   1      40.436  22.547  27.409  1.00  0.00     0.021 C 
BRANCH   2   3
ATOM      3  C   UNL A   1      39.207  23.111  26.684  1.00  0.00     0.116 C 
BRANCH   3   4
ATOM      4  N   UNL A   1      38.725  22.127  25.730  1.00  0.00    -0.356 N 
ATOM      5  C   UNL A   1      37.586  22.137  24.978  1.00  0.00     0.220 C 
ATOM      6  O   UNL A   1      37.230  21.087  24.442  1.00  0.00    -0.275 OA
ATOM      7  H   UNL A   1      39.303  21.340  25.609  1.00  0.00     0.163 HD
BRANCH   5   8
ATOM      8  C   UNL A   1      36.829  23.435  24.754  1.00  0.00     0.100 C 
BRANCH   8   9
ATOM      9  C   UNL A   1      35.506  23.337  23.969  1.00  0.00     0.021 C 
BRANCH   9  10
ATOM     10  C   UNL A   1      34.245  23.804  24.733  1.00  0.00     0.067 C 
ATOM     11  N   UNL A   1      32.707  21.844  24.945  1.00  0.00    -0.356 N 
ATOM     12  C   UNL A   1      31.625  22.502  24.245  1.00  0.00     0.124 C 
ATOM     13  C   UNL A   1      33.682  22.670  25.636  1.00  0.00     0.127 C 
ATOM     14  C   UNL A   1      32.178  23.493  23.232  1.00  0.00     0.087 C 
ATOM     15  C   UNL A   1      33.071  24.509  23.949  1.00  0.00     0.190 C 
BRANCH  11  16
ATOM     16  C   UNL A   1      33.058  20.582  24.507  1.00  0.00     0.128 A 
ATOM     17  C   UNL A   1      33.926  16.578  23.341  1.00  0.00     0.046 C 
ATOM     18  C   UNL A   1      33.658  17.981  23.776  1.00  0.00    -0.033 A 
ATOM     19  C   UNL A   1      34.519  18.669  24.623  1.00  0.00     0.009 A 
ATOM     20  C   UNL A   1      32.533  18.659  23.329  1.00  0.00     0.117 A 
ATOM     21  C   UNL A   1      34.222  19.983  24.982  1.00  0.00     0.047 A 
ATOM     22  N   UNL A   1      32.213  19.921  23.689  1.00  0.00    -0.239 NA
ENDBRANCH  11  16
BRANCH  15  23
ATOM     23  N   UNL A   1      33.403  25.724  23.172  1.00  0.00    -0.328 N 
ATOM     24  C   UNL A   1      33.653  26.927  24.011  1.00  0.00     0.291 C 
ATOM     25  C   UNL A   1      32.536  26.099  22.041  1.00  0.00     0.291 C 
ATOM     26  H   UNL A   1      34.269  25.400  22.741  1.00  0.00     0.348 HD
ATOM     27  C   UNL A   1      32.458  27.879  24.230  1.00  0.00     0.221 C 
ATOM     28  C   UNL A   1      31.379  27.059  22.329  1.00  0.00     0.221 C 
ATOM     29  O   UNL A   1      31.835  28.236  22.995  1.00  0.00    -0.370 OA
ENDBRANCH  15  23
ENDBRANCH   9  10
ENDBRANCH   8   9
ENDBRANCH   5   8
ENDBRANCH   3   4
ENDBRANCH   2   3
ENDBRANCH   1   2
BRANCH   1  30
ATOM     30  C   UNL A   1      41.735  20.389  27.020  1.00  0.00     0.002 C 
BRANCH  30  31
ATOM     31  C   UNL A   1      42.132  19.356  25.956  1.00  0.00     0.021 C 
BRANCH  31  32
ATOM     32  C   UNL A   1      43.504  18.716  26.149  1.00  0.00     0.116 C 
BRANCH  32  33
ATOM     33  N   UNL A   1      44.217  18.571  24.890  1.00  0.00    -0.352 N 
ATOM     34  C   UNL A   1      44.749  19.525  24.063  1.00  0.00     0.251 C 
ATOM     35  H   UNL A   1      44.336  17.643  24.584  1.00  0.00     0.163 HD
ATOM     36  O   UNL A   1      45.113  19.221  22.932  1.00  0.00    -0.269 OA
BRANCH  34  37
ATOM     37  C   UNL A   1      44.880  20.922  24.525  1.00  0.00     0.039 A 
ATOM     38  C   UNL A   1      45.504  21.167  25.752  1.00  0.00     0.014 A 
ATOM     39  C   UNL A   1      44.349  21.980  23.783  1.00  0.00     0.014 A 
ATOM     40  C   UNL A   1      45.635  22.478  26.212  1.00  0.00     0.010 A 
ATOM     41  C   UNL A   1      44.537  23.292  24.213  1.00  0.00     0.010 A 
ATOM     42  C   UNL A   1      45.174  23.552  25.435  1.00  0.00    -0.014 A 
BRANCH  42  43
ATOM     43  C   UNL A   1      45.339  24.953  25.896  1.00  0.00     0.031 A 
ATOM     44  C   UNL A   1      46.688  25.611  25.848  1.00  0.00     0.074 A 
ATOM     45  C   UNL A   1      44.282  25.613  26.406  1.00  0.00     0.049 A 
ATOM     46  N   UNL A   1      47.040  26.807  26.249  1.00  0.00    -0.248 NA
ATOM     47  C   UNL A   1      47.796  24.813  25.299  1.00  0.00     0.031 C 
ATOM     48  C   UNL A   1      42.932  25.065  26.549  1.00  0.00     0.029 A 
ATOM     49  N   UNL A   1      44.180  26.885  26.908  1.00  0.00    -0.354 N 
ATOM     50  C   UNL A   1      48.406  26.898  26.016  1.00  0.00     0.074 A 
ATOM     51  C   UNL A   1      48.830  25.621  25.484  1.00  0.00     0.031 C 
ATOM     52  C   UNL A   1      42.132  26.003  27.081  1.00  0.00     0.029 A 
ATOM     53  C   UNL A   1      42.918  27.204  27.346  1.00  0.00     0.049 A 
ATOM     54  H   UNL A   1      44.939  27.511  26.950  1.00  0.00     0.167 HD
ATOM     55  C   UNL A   1      49.229  27.957  26.206  1.00  0.00     0.037 A 
ATOM     56  C   UNL A   1      42.448  28.338  27.902  1.00  0.00     0.037 A 
ATOM     57  C   UNL A   1      48.799  29.235  26.709  1.00  0.00     0.049 A 
ATOM     58  C   UNL A   1      43.381  29.500  28.097  1.00  0.00     0.074 A 
ATOM     59  C   UNL A   1      49.542  30.389  26.878  1.00  0.00     0.029 A 
ATOM     60  N   UNL A   1      47.508  29.525  27.123  1.00  0.00    -0.354 N 
ATOM     61  N   UNL A   1      44.656  29.595  27.809  1.00  0.00    -0.248 NA
ATOM     62  C   UNL A   1      42.806  30.717  28.688  1.00  0.00     0.031 C 
ATOM     63  C   UNL A   1      48.711  31.369  27.432  1.00  0.00     0.029 A 
ATOM     64  C   UNL A   1      47.438  30.836  27.568  1.00  0.00     0.049 A 
ATOM     65  H   UNL A   1      46.753  28.894  27.105  1.00  0.00     0.167 HD
ATOM     66  C   UNL A   1      45.030  30.886  28.158  1.00  0.00     0.074 A 
ATOM     67  C   UNL A   1      43.843  31.541  28.667  1.00  0.00     0.031 C 
ATOM     68  C   UNL A   1      46.247  31.474  28.066  1.00  0.00     0.037 A 
BRANCH  55  69
ATOM     69  C   UNL A   1      50.679  27.777  25.862  1.00  0.00     0.057 A 
ATOM     70  C   UNL A   1      51.152  27.930  24.552  1.00  0.00     0.134 A 
ATOM     71  C   UNL A   1      51.619  27.479  26.857  1.00  0.00     0.134 A 
ATOM     72  F   UNL A   1      50.302  28.205  23.551  1.00  0.00    -0.206 F 
ATOM     73  C   UNL A   1      52.502  27.768  24.239  1.00  0.00     0.040 A 
ATOM     74  C   UNL A   1      52.976  27.340  26.560  1.00  0.00     0.040 A 
ATOM     75  F   UNL A   1      51.236  27.325  28.133  1.00  0.00    -0.206 F 
ATOM     76  C   UNL A   1      53.420  27.479  25.246  1.00  0.00     0.006 A 
ENDBRANCH  55  69
BRANCH  56  77
ATOM     77  C   UNL A   1      41.019  28.436  28.287  1.00  0.00     0.057 A 
ATOM     78  C   UNL A   1      40.064  28.923  27.388  1.00  0.00     0.134 A 
ATOM     79  C   UNL A   1      40.575  28.053  29.558  1.00  0.00     0.134 A 
ATOM     80  F   UNL A   1      40.432  29.323  26.162  1.00  0.00    -0.206 F 
ATOM     81  C   UNL A   1      38.719  29.041  27.743  1.00  0.00     0.040 A 
ATOM     82  C   UNL A   1      39.229  28.143  29.919  1.00  0.00     0.040 A 
ATOM     83  F   UNL A   1      41.441  27.571  30.461  1.00  0.00    -0.206 F 
ATOM     84  C   UNL A   1      38.298  28.646  29.011  1.00  0.00     0.006 A 
ENDBRANCH  56  77
BRANCH  68  85
ATOM     85  C   UNL A   1      46.349  32.907  28.497  1.00  0.00     0.057 A 
ATOM     86  C   UNL A   1      46.683  33.261  29.809  1.00  0.00     0.134 A 
ATOM     87  C   UNL A   1      46.144  33.944  27.577  1.00  0.00     0.134 A 
ATOM     88  F   UNL A   1      46.878  32.315  30.741  1.00  0.00    -0.206 F 
ATOM     89  C   UNL A   1      46.792  34.597  30.198  1.00  0.00     0.040 A 
ATOM     90  C   UNL A   1      46.275  35.283  27.948  1.00  0.00     0.040 A 
ATOM     91  F   UNL A   1      45.828  33.672  26.302  1.00  0.00    -0.206 F 
ATOM     92  C   UNL A   1      46.594  35.612  29.264  1.00  0.00     0.006 A 
ENDBRANCH  68  85
ENDBRANCH  42  43
ENDBRANCH  34  37
ENDBRANCH  32  33
ENDBRANCH  31  32
ENDBRANCH  30  31
ENDBRANCH   1  30
TORSDOF 17
ENDMDL
