MODEL 1
REMARK VINA RESULT:     -13.2      0.000      0.000
REMARK SMILES CN1C(=O)C[C@H](C(=O)Nc2ccc(C(=O)NCCCCCCNC(=O)c3ccc(-c4c5nc(c(-c6c(F)cccc6F)c6ccc([nH]6)c(-c6c(F)cccc6F)c6nc(c(-c7c(F)cccc7F)c7ccc4[nH]7)C=C6)C=C5)cc3)cc2)S/C1=[NH+]\c1cccc(C(F)(F)F)c1
REMARK SMILES IDX 18 1 17 2 16 3 14 4 15 5 13 7 10 8 11 9 81 10 12 11 80 12
REMARK SMILES IDX 9 13 7 14 8 15 6 17 1 18 2 19 3 20 83 21 4 22 5 23 82 24
REMARK SMILES IDX 84 25 85 27 86 28 94 29 87 30 89 31 88 32 90 33 91 34 92 35
REMARK SMILES IDX 93 36 19 37 20 38 21 39 22 40 23 41 24 42 25 44 26 45 27 46
REMARK SMILES IDX 79 47 28 48 78 49 29 50 30 51 31 52 72 53 32 54 77 55 71 56
REMARK SMILES IDX 73 57 33 58 76 59 70 60 69 61 34 63 60 64 43 65 59 66 44 67
REMARK SMILES IDX 47 68 58 69 74 70 45 71 46 72 57 74 75 75 48 76 35 77 36 78
REMARK SMILES IDX 41 79 37 80 38 81 40 82 42 83 39 84 61 85 62 86 67 87 63 88
REMARK SMILES IDX 64 89 66 90 68 91 65 92 49 93 50 94 55 95 51 96 52 97 54 98
REMARK SMILES IDX 56 99 53 100
REMARK H PARENT 16 6 9 16 84 26 23 43 73 62 47 73
REMARK Flexibility Score: inf
ROOT
ATOM      1  C   UNL A   1      31.743  29.430  27.035  1.00  0.00     0.021 C 
ENDROOT
BRANCH   1   2
ATOM      2  C   UNL A   1      32.117  30.410  25.922  1.00  0.00     0.116 C 
BRANCH   2   3
ATOM      3  N   UNL A   1      30.916  30.835  25.227  1.00  0.00    -0.352 N 
ATOM      4  C   UNL A   1      30.267  30.339  24.127  1.00  0.00     0.251 C 
ATOM      5  O   UNL A   1      29.279  30.943  23.711  1.00  0.00    -0.269 OA
ATOM      6  H   UNL A   1      30.487  31.630  25.621  1.00  0.00     0.163 HD
BRANCH   4   7
ATOM      7  C   UNL A   1      30.654  29.055  23.491  1.00  0.00     0.039 A 
ATOM      8  C   UNL A   1      31.376  26.463  22.783  1.00  0.00     0.041 A 
ATOM      9  C   UNL A   1      30.074  26.719  23.203  1.00  0.00     0.027 A 
ATOM     10  C   UNL A   1      32.250  27.516  22.520  1.00  0.00     0.027 A 
ATOM     11  C   UNL A   1      29.726  28.010  23.588  1.00  0.00     0.016 A 
ATOM     12  C   UNL A   1      31.874  28.820  22.852  1.00  0.00     0.016 A 
BRANCH   8  13
ATOM     13  N   UNL A   1      31.752  25.131  22.668  1.00  0.00    -0.325 N 
ATOM     14  C   UNL A   1      32.558  24.370  23.456  1.00  0.00     0.238 C 
ATOM     15  O   UNL A   1      32.869  23.270  22.984  1.00  0.00    -0.273 OA
ATOM     16  H   UNL A   1      31.374  24.662  21.890  1.00  0.00     0.169 HD
BRANCH  14  17
ATOM     17  C   UNL A   1      33.053  24.816  24.855  1.00  0.00     0.160 C 
ATOM     18  C   UNL A   1      29.898  22.638  27.009  1.00  0.00     0.301 C 
ATOM     19  N   UNL A   1      31.023  23.319  26.376  1.00  0.00    -0.194 N 
ATOM     20  C   UNL A   1      30.904  24.695  26.220  1.00  0.00     0.311 C 
ATOM     21  C   UNL A   1      32.096  22.529  25.958  1.00  0.00     0.319 C 
ATOM     22  O   UNL A   1      29.851  25.309  26.406  1.00  0.00    -0.247 OA
ATOM     23  C   UNL A   1      32.145  25.470  25.873  1.00  0.00     0.153 C 
ATOM     24  S   UNL A   1      33.641  23.344  25.752  1.00  0.00    -0.024 SA
ATOM     25  N   UNL A   1      31.905  21.257  25.791  1.00  0.00    -0.235 N 
ATOM     26  H   UNL A   1      31.026  20.868  26.004  1.00  0.00     0.313 HD
BRANCH  25  27
ATOM     27  C   UNL A   1      32.927  20.430  25.317  1.00  0.00     0.126 A 
ATOM     28  C   UNL A   1      34.261  20.744  25.587  1.00  0.00     0.052 A 
ATOM     29  C   UNL A   1      32.629  19.299  24.557  1.00  0.00     0.064 A 
ATOM     30  C   UNL A   1      35.286  19.909  25.143  1.00  0.00     0.005 A 
ATOM     31  C   UNL A   1      33.641  18.425  24.147  1.00  0.00     0.060 A 
ATOM     32  C   UNL A   1      34.976  18.747  24.434  1.00  0.00     0.013 A 
BRANCH  31  33
ATOM     33  C   UNL A   1      33.290  17.151  23.430  1.00  0.00     0.416 C 
ATOM     34  F   UNL A   1      32.492  17.362  22.348  1.00  0.00    -0.166 F 
ATOM     35  F   UNL A   1      34.388  16.491  22.964  1.00  0.00    -0.166 F 
ATOM     36  F   UNL A   1      32.626  16.252  24.211  1.00  0.00    -0.166 F 
ENDBRANCH  31  33
ENDBRANCH  25  27
ENDBRANCH  14  17
ENDBRANCH   8  13
ENDBRANCH   4   7
ENDBRANCH   2   3
ENDBRANCH   1   2
BRANCH   1  37
ATOM     37  C   UNL A   1      32.920  28.555  27.487  1.00  0.00     0.002 C 
BRANCH  37  38
ATOM     38  C   UNL A   1      34.266  28.914  26.849  1.00  0.00     0.002 C 
BRANCH  38  39
ATOM     39  C   UNL A   1      35.334  29.390  27.836  1.00  0.00     0.021 C 
BRANCH  39  40
ATOM     40  C   UNL A   1      35.399  30.904  27.996  1.00  0.00     0.116 C 
BRANCH  40  41
ATOM     41  N   UNL A   1      35.195  31.309  29.379  1.00  0.00    -0.352 N 
ATOM     42  C   UNL A   1      36.026  31.138  30.460  1.00  0.00     0.251 C 
ATOM     43  H   UNL A   1      34.344  31.768  29.565  1.00  0.00     0.163 HD
ATOM     44  O   UNL A   1      35.618  31.329  31.597  1.00  0.00    -0.269 OA
BRANCH  42  45
ATOM     45  C   UNL A   1      37.419  30.704  30.233  1.00  0.00     0.039 A 
ATOM     46  C   UNL A   1      37.990  29.764  31.095  1.00  0.00     0.014 A 
ATOM     47  C   UNL A   1      38.153  31.217  29.160  1.00  0.00     0.014 A 
ATOM     48  C   UNL A   1      39.279  29.291  30.840  1.00  0.00     0.010 A 
ATOM     49  C   UNL A   1      39.403  30.688  28.864  1.00  0.00     0.010 A 
ATOM     50  C   UNL A   1      39.981  29.723  29.703  1.00  0.00    -0.014 A 
BRANCH  50  51
ATOM     51  C   UNL A   1      41.324  29.188  29.369  1.00  0.00     0.031 A 
ATOM     52  C   UNL A   1      42.519  30.100  29.394  1.00  0.00     0.074 A 
ATOM     53  C   UNL A   1      41.457  27.907  28.973  1.00  0.00     0.049 A 
ATOM     54  N   UNL A   1      43.752  29.859  29.029  1.00  0.00    -0.248 NA
ATOM     55  C   UNL A   1      42.291  31.476  29.867  1.00  0.00     0.031 C 
ATOM     56  C   UNL A   1      40.370  26.932  28.877  1.00  0.00     0.029 A 
ATOM     57  N   UNL A   1      42.565  27.209  28.561  1.00  0.00    -0.354 N 
ATOM     58  C   UNL A   1      44.441  31.051  29.219  1.00  0.00     0.074 A 
ATOM     59  C   UNL A   1      43.478  32.029  29.672  1.00  0.00     0.031 C 
ATOM     60  C   UNL A   1      40.868  25.757  28.456  1.00  0.00     0.029 A 
ATOM     61  C   UNL A   1      42.297  25.909  28.206  1.00  0.00     0.049 A 
ATOM     62  H   UNL A   1      43.467  27.602  28.525  1.00  0.00     0.167 HD
ATOM     63  C   UNL A   1      45.762  31.299  29.055  1.00  0.00     0.037 A 
ATOM     64  C   UNL A   1      43.111  24.952  27.719  1.00  0.00     0.037 A 
ATOM     65  C   UNL A   1      46.720  30.317  28.620  1.00  0.00     0.049 A 
ATOM     66  C   UNL A   1      44.567  25.269  27.504  1.00  0.00     0.074 A 
ATOM     67  C   UNL A   1      48.087  30.460  28.459  1.00  0.00     0.029 A 
ATOM     68  N   UNL A   1      46.410  29.010  28.277  1.00  0.00    -0.354 N 
ATOM     69  N   UNL A   1      45.215  26.385  27.738  1.00  0.00    -0.248 NA
ATOM     70  C   UNL A   1      45.406  24.191  26.961  1.00  0.00     0.031 C 
ATOM     71  C   UNL A   1      48.597  29.254  27.971  1.00  0.00     0.029 A 
ATOM     72  C   UNL A   1      47.557  28.342  27.884  1.00  0.00     0.049 A 
ATOM     73  H   UNL A   1      45.509  28.616  28.308  1.00  0.00     0.167 HD
ATOM     74  C   UNL A   1      46.542  26.131  27.409  1.00  0.00     0.074 A 
ATOM     75  C   UNL A   1      46.607  24.754  26.967  1.00  0.00     0.031 C 
ATOM     76  C   UNL A   1      47.609  26.964  27.469  1.00  0.00     0.037 A 
BRANCH  63  77
ATOM     77  C   UNL A   1      46.250  32.688  29.355  1.00  0.00     0.057 A 
ATOM     78  C   UNL A   1      46.726  33.044  30.624  1.00  0.00     0.134 A 
ATOM     79  C   UNL A   1      46.281  33.668  28.355  1.00  0.00     0.134 A 
ATOM     80  F   UNL A   1      46.712  32.156  31.630  1.00  0.00    -0.206 F 
ATOM     81  C   UNL A   1      47.192  34.331  30.894  1.00  0.00     0.040 A 
ATOM     82  C   UNL A   1      46.774  34.950  28.606  1.00  0.00     0.040 A 
ATOM     83  F   UNL A   1      45.847  33.394  27.116  1.00  0.00    -0.206 F 
ATOM     84  C   UNL A   1      47.226  35.286  29.880  1.00  0.00     0.006 A 
ENDBRANCH  63  77
BRANCH  64  85
ATOM     85  C   UNL A   1      42.580  23.600  27.407  1.00  0.00     0.057 A 
ATOM     86  C   UNL A   1      42.263  23.237  26.092  1.00  0.00     0.134 A 
ATOM     87  C   UNL A   1      42.345  22.653  28.410  1.00  0.00     0.134 A 
ATOM     88  F   UNL A   1      42.447  24.107  25.089  1.00  0.00    -0.206 F 
ATOM     89  C   UNL A   1      41.704  21.994  25.789  1.00  0.00     0.040 A 
ATOM     90  C   UNL A   1      41.815  21.395  28.119  1.00  0.00     0.040 A 
ATOM     91  F   UNL A   1      42.635  22.934  29.690  1.00  0.00    -0.206 F 
ATOM     92  C   UNL A   1      41.482  21.067  26.806  1.00  0.00     0.006 A 
ENDBRANCH  64  85
BRANCH  76  93
ATOM     93  C   UNL A   1      48.951  26.396  27.103  1.00  0.00     0.057 A 
ATOM     94  C   UNL A   1      49.472  26.494  25.808  1.00  0.00     0.134 A 
ATOM     95  C   UNL A   1      49.754  25.793  28.081  1.00  0.00     0.134 A 
ATOM     96  F   UNL A   1      48.749  27.049  24.824  1.00  0.00    -0.206 F 
ATOM     97  C   UNL A   1      50.737  25.996  25.493  1.00  0.00     0.040 A 
ATOM     98  C   UNL A   1      51.031  25.317  27.784  1.00  0.00     0.040 A 
ATOM     99  F   UNL A   1      49.318  25.676  29.343  1.00  0.00    -0.206 F 
ATOM    100  C   UNL A   1      51.524  25.414  26.484  1.00  0.00     0.006 A 
ENDBRANCH  76  93
ENDBRANCH  50  51
ENDBRANCH  42  45
ENDBRANCH  40  41
ENDBRANCH  39  40
ENDBRANCH  38  39
ENDBRANCH  37  38
ENDBRANCH   1  37
TORSDOF 17
ENDMDL
MODEL 2
REMARK VINA RESULT:     -13.0      0.665      5.770
REMARK SMILES CN1C(=O)C[C@H](C(=O)Nc2ccc(C(=O)NCCCCCCNC(=O)c3ccc(-c4c5nc(c(-c6c(F)cccc6F)c6ccc([nH]6)c(-c6c(F)cccc6F)c6nc(c(-c7c(F)cccc7F)c7ccc4[nH]7)C=C6)C=C5)cc3)cc2)S/C1=[NH+]\c1cccc(C(F)(F)F)c1
REMARK SMILES IDX 18 1 17 2 16 3 14 4 15 5 13 7 10 8 11 9 81 10 12 11 80 12
REMARK SMILES IDX 9 13 7 14 8 15 6 17 1 18 2 19 3 20 83 21 4 22 5 23 82 24
REMARK SMILES IDX 84 25 85 27 86 28 94 29 87 30 89 31 88 32 90 33 91 34 92 35
REMARK SMILES IDX 93 36 19 37 20 38 21 39 22 40 23 41 24 42 25 44 26 45 27 46
REMARK SMILES IDX 79 47 28 48 78 49 29 50 30 51 31 52 72 53 32 54 77 55 71 56
REMARK SMILES IDX 73 57 33 58 76 59 70 60 69 61 34 63 60 64 43 65 59 66 44 67
REMARK SMILES IDX 47 68 58 69 74 70 45 71 46 72 57 74 75 75 48 76 35 77 36 78
REMARK SMILES IDX 41 79 37 80 38 81 40 82 42 83 39 84 61 85 62 86 67 87 63 88
REMARK SMILES IDX 64 89 66 90 68 91 65 92 49 93 50 94 55 95 51 96 52 97 54 98
REMARK SMILES IDX 56 99 53 100
REMARK H PARENT 16 6 9 16 84 26 23 43 73 62 47 73
REMARK Flexibility Score: inf
ROOT
ATOM      1  C   UNL A   1      31.766  29.363  26.864  1.00  0.00     0.021 C 
ENDROOT
BRANCH   1   2
ATOM      2  C   UNL A   1      32.070  30.443  25.824  1.00  0.00     0.116 C 
BRANCH   2   3
ATOM      3  N   UNL A   1      30.853  30.788  25.114  1.00  0.00    -0.352 N 
ATOM      4  C   UNL A   1      30.241  30.235  24.019  1.00  0.00     0.251 C 
ATOM      5  O   UNL A   1      29.224  30.775  23.585  1.00  0.00    -0.269 OA
ATOM      6  H   UNL A   1      30.378  31.565  25.488  1.00  0.00     0.163 HD
BRANCH   4   7
ATOM      7  C   UNL A   1      30.703  28.962  23.411  1.00  0.00     0.039 A 
ATOM      8  C   UNL A   1      31.547  26.393  22.756  1.00  0.00     0.041 A 
ATOM      9  C   UNL A   1      30.218  26.606  23.109  1.00  0.00     0.027 A 
ATOM     10  C   UNL A   1      32.396  27.474  22.530  1.00  0.00     0.027 A 
ATOM     11  C   UNL A   1      29.807  27.886  23.469  1.00  0.00     0.016 A 
ATOM     12  C   UNL A   1      31.961  28.767  22.834  1.00  0.00     0.016 A 
BRANCH   8  13
ATOM     13  N   UNL A   1      31.974  25.075  22.669  1.00  0.00    -0.325 N 
ATOM     14  C   UNL A   1      32.750  24.340  23.510  1.00  0.00     0.238 C 
ATOM     15  O   UNL A   1      33.128  23.251  23.061  1.00  0.00    -0.273 OA
ATOM     16  H   UNL A   1      31.665  24.594  21.868  1.00  0.00     0.169 HD
BRANCH  14  17
ATOM     17  C   UNL A   1      33.135  24.800  24.938  1.00  0.00     0.160 C 
ATOM     18  C   UNL A   1      29.988  22.428  26.889  1.00  0.00     0.301 C 
ATOM     19  N   UNL A   1      31.108  23.177  26.327  1.00  0.00    -0.194 N 
ATOM     20  C   UNL A   1      30.919  24.546  26.173  1.00  0.00     0.311 C 
ATOM     21  C   UNL A   1      32.248  22.453  25.970  1.00  0.00     0.319 C 
ATOM     22  O   UNL A   1      29.824  25.097  26.299  1.00  0.00    -0.247 OA
ATOM     23  C   UNL A   1      32.132  25.393  25.904  1.00  0.00     0.153 C 
ATOM     24  S   UNL A   1      33.753  23.357  25.860  1.00  0.00    -0.024 SA
ATOM     25  N   UNL A   1      32.140  21.174  25.785  1.00  0.00    -0.235 N 
ATOM     26  H   UNL A   1      31.274  20.733  25.943  1.00  0.00     0.313 HD
BRANCH  25  27
ATOM     27  C   UNL A   1      33.234  20.411  25.367  1.00  0.00     0.126 A 
ATOM     28  C   UNL A   1      34.521  20.950  25.419  1.00  0.00     0.052 A 
ATOM     29  C   UNL A   1      33.051  19.117  24.880  1.00  0.00     0.064 A 
ATOM     30  C   UNL A   1      35.622  20.186  25.033  1.00  0.00     0.005 A 
ATOM     31  C   UNL A   1      34.149  18.321  24.536  1.00  0.00     0.060 A 
ATOM     32  C   UNL A   1      35.437  18.872  24.603  1.00  0.00     0.013 A 
BRANCH  31  33
ATOM     33  C   UNL A   1      33.940  16.890  24.123  1.00  0.00     0.416 C 
ATOM     34  F   UNL A   1      34.242  16.674  22.814  1.00  0.00    -0.166 F 
ATOM     35  F   UNL A   1      34.711  16.020  24.835  1.00  0.00    -0.166 F 
ATOM     36  F   UNL A   1      32.656  16.459  24.284  1.00  0.00    -0.166 F 
ENDBRANCH  31  33
ENDBRANCH  25  27
ENDBRANCH  14  17
ENDBRANCH   8  13
ENDBRANCH   4   7
ENDBRANCH   2   3
ENDBRANCH   1   2
BRANCH   1  37
ATOM     37  C   UNL A   1      33.007  28.561  27.279  1.00  0.00     0.002 C 
BRANCH  37  38
ATOM     38  C   UNL A   1      34.328  29.083  26.703  1.00  0.00     0.002 C 
BRANCH  38  39
ATOM     39  C   UNL A   1      35.465  29.199  27.721  1.00  0.00     0.021 C 
BRANCH  39  40
ATOM     40  C   UNL A   1      35.659  30.604  28.276  1.00  0.00     0.116 C 
BRANCH  40  41
ATOM     41  N   UNL A   1      35.541  30.633  29.726  1.00  0.00    -0.352 N 
ATOM     42  C   UNL A   1      36.458  30.246  30.674  1.00  0.00     0.251 C 
ATOM     43  H   UNL A   1      34.688  30.977  30.076  1.00  0.00     0.163 HD
ATOM     44  O   UNL A   1      36.129  30.117  31.845  1.00  0.00    -0.269 OA
BRANCH  42  45
ATOM     45  C   UNL A   1      37.848  29.970  30.258  1.00  0.00     0.039 A 
ATOM     46  C   UNL A   1      38.704  29.301  31.136  1.00  0.00     0.014 A 
ATOM     47  C   UNL A   1      38.297  30.362  28.994  1.00  0.00     0.014 A 
ATOM     48  C   UNL A   1      39.994  28.968  30.720  1.00  0.00     0.010 A 
ATOM     49  C   UNL A   1      39.553  29.962  28.555  1.00  0.00     0.010 A 
ATOM     50  C   UNL A   1      40.416  29.263  29.413  1.00  0.00    -0.014 A 
BRANCH  50  51
ATOM     51  C   UNL A   1      41.757  28.863  28.920  1.00  0.00     0.031 A 
ATOM     52  C   UNL A   1      41.997  27.447  28.475  1.00  0.00     0.074 A 
ATOM     53  C   UNL A   1      42.772  29.747  28.943  1.00  0.00     0.049 A 
ATOM     54  N   UNL A   1      43.115  26.869  28.119  1.00  0.00    -0.248 NA
ATOM     55  C   UNL A   1      40.826  26.553  28.452  1.00  0.00     0.031 C 
ATOM     56  C   UNL A   1      42.674  31.141  29.382  1.00  0.00     0.029 A 
ATOM     57  N   UNL A   1      44.094  29.600  28.602  1.00  0.00    -0.354 N 
ATOM     58  C   UNL A   1      42.786  25.548  27.842  1.00  0.00     0.074 A 
ATOM     59  C   UNL A   1      41.378  25.393  28.129  1.00  0.00     0.031 C 
ATOM     60  C   UNL A   1      43.877  31.725  29.264  1.00  0.00     0.029 A 
ATOM     61  C   UNL A   1      44.841  30.739  28.788  1.00  0.00     0.049 A 
ATOM     62  H   UNL A   1      44.471  28.759  28.257  1.00  0.00     0.167 HD
ATOM     63  C   UNL A   1      43.581  24.561  27.366  1.00  0.00     0.037 A 
ATOM     64  C   UNL A   1      46.158  30.957  28.609  1.00  0.00     0.037 A 
ATOM     65  C   UNL A   1      44.979  24.724  27.066  1.00  0.00     0.049 A 
ATOM     66  C   UNL A   1      47.028  29.828  28.122  1.00  0.00     0.074 A 
ATOM     67  C   UNL A   1      45.862  23.794  26.546  1.00  0.00     0.029 A 
ATOM     68  N   UNL A   1      45.697  25.894  27.262  1.00  0.00    -0.354 N 
ATOM     69  N   UNL A   1      46.692  28.598  27.813  1.00  0.00    -0.248 NA
ATOM     70  C   UNL A   1      48.459  30.119  27.954  1.00  0.00     0.031 C 
ATOM     71  C   UNL A   1      47.126  24.387  26.471  1.00  0.00     0.029 A 
ATOM     72  C   UNL A   1      47.017  25.703  26.891  1.00  0.00     0.049 A 
ATOM     73  H   UNL A   1      45.323  26.734  27.611  1.00  0.00     0.167 HD
ATOM     74  C   UNL A   1      47.861  27.983  27.378  1.00  0.00     0.074 A 
ATOM     75  C   UNL A   1      48.910  28.977  27.455  1.00  0.00     0.031 C 
ATOM     76  C   UNL A   1      48.046  26.710  26.952  1.00  0.00     0.037 A 
BRANCH  63  77
ATOM     77  C   UNL A   1      42.954  23.215  27.134  1.00  0.00     0.057 A 
ATOM     78  C   UNL A   1      42.622  22.769  25.848  1.00  0.00     0.134 A 
ATOM     79  C   UNL A   1      42.716  22.341  28.202  1.00  0.00     0.134 A 
ATOM     80  F   UNL A   1      42.813  23.561  24.782  1.00  0.00    -0.206 F 
ATOM     81  C   UNL A   1      42.053  21.513  25.635  1.00  0.00     0.040 A 
ATOM     82  C   UNL A   1      42.176  21.071  27.998  1.00  0.00     0.040 A 
ATOM     83  F   UNL A   1      43.015  22.702  29.459  1.00  0.00    -0.206 F 
ATOM     84  C   UNL A   1      41.837  20.655  26.712  1.00  0.00     0.006 A 
ENDBRANCH  63  77
BRANCH  64  85
ATOM     85  C   UNL A   1      46.743  32.295  28.880  1.00  0.00     0.057 A 
ATOM     86  C   UNL A   1      46.850  33.253  27.865  1.00  0.00     0.134 A 
ATOM     87  C   UNL A   1      47.235  32.640  30.145  1.00  0.00     0.134 A 
ATOM     88  F   UNL A   1      46.413  32.977  26.628  1.00  0.00    -0.206 F 
ATOM     89  C   UNL A   1      47.453  34.493  28.087  1.00  0.00     0.040 A 
ATOM     90  C   UNL A   1      47.814  33.887  30.389  1.00  0.00     0.040 A 
ATOM     91  F   UNL A   1      47.155  31.772  31.164  1.00  0.00    -0.206 F 
ATOM     92  C   UNL A   1      47.934  34.813  29.355  1.00  0.00     0.006 A 
ENDBRANCH  64  85
BRANCH  76  93
ATOM     93  C   UNL A   1      49.420  26.331  26.481  1.00  0.00     0.057 A 
ATOM     94  C   UNL A   1      49.885  26.658  25.201  1.00  0.00     0.134 A 
ATOM     95  C   UNL A   1      50.310  25.678  27.346  1.00  0.00     0.134 A 
ATOM     96  F   UNL A   1      49.079  27.271  24.322  1.00  0.00    -0.206 F 
ATOM     97  C   UNL A   1      51.178  26.332  24.792  1.00  0.00     0.040 A 
ATOM     98  C   UNL A   1      51.614  25.374  26.957  1.00  0.00     0.040 A 
ATOM     99  F   UNL A   1      49.931  25.345  28.588  1.00  0.00    -0.206 F 
ATOM    100  C   UNL A   1      52.050  25.697  25.674  1.00  0.00     0.006 A 
ENDBRANCH  76  93
ENDBRANCH  50  51
ENDBRANCH  42  45
ENDBRANCH  40  41
ENDBRANCH  39  40
ENDBRANCH  38  39
ENDBRANCH  37  38
ENDBRANCH   1  37
TORSDOF 17
ENDMDL
MODEL 3
REMARK VINA RESULT:     -12.9      5.367      7.668
REMARK SMILES CN1C(=O)C[C@H](C(=O)Nc2ccc(C(=O)NCCCCCCNC(=O)c3ccc(-c4c5nc(c(-c6c(F)cccc6F)c6ccc([nH]6)c(-c6c(F)cccc6F)c6nc(c(-c7c(F)cccc7F)c7ccc4[nH]7)C=C6)C=C5)cc3)cc2)S/C1=[NH+]\c1cccc(C(F)(F)F)c1
REMARK SMILES IDX 18 1 17 2 16 3 14 4 15 5 13 7 10 8 11 9 81 10 12 11 80 12
REMARK SMILES IDX 9 13 7 14 8 15 6 17 1 18 2 19 3 20 83 21 4 22 5 23 82 24
REMARK SMILES IDX 84 25 85 27 86 28 94 29 87 30 89 31 88 32 90 33 91 34 92 35
REMARK SMILES IDX 93 36 19 37 20 38 21 39 22 40 23 41 24 42 25 44 26 45 27 46
REMARK SMILES IDX 79 47 28 48 78 49 29 50 30 51 31 52 72 53 32 54 77 55 71 56
REMARK SMILES IDX 73 57 33 58 76 59 70 60 69 61 34 63 60 64 43 65 59 66 44 67
REMARK SMILES IDX 47 68 58 69 74 70 45 71 46 72 57 74 75 75 48 76 35 77 36 78
REMARK SMILES IDX 41 79 37 80 38 81 40 82 42 83 39 84 61 85 62 86 67 87 63 88
REMARK SMILES IDX 64 89 66 90 68 91 65 92 49 93 50 94 55 95 51 96 52 97 54 98
REMARK SMILES IDX 56 99 53 100
REMARK H PARENT 16 6 9 16 84 26 23 43 73 62 47 73
REMARK Flexibility Score: inf
ROOT
ATOM      1  C   UNL A   1      35.459  31.373  28.179  1.00  0.00     0.021 C 
ENDROOT
BRANCH   1   2
ATOM      2  C   UNL A   1      34.684  30.109  27.802  1.00  0.00     0.116 C 
BRANCH   2   3
ATOM      3  N   UNL A   1      34.234  30.209  26.427  1.00  0.00    -0.352 N 
ATOM      4  C   UNL A   1      33.498  29.363  25.638  1.00  0.00     0.251 C 
ATOM      5  O   UNL A   1      33.306  29.680  24.465  1.00  0.00    -0.269 OA
ATOM      6  H   UNL A   1      34.508  31.040  25.975  1.00  0.00     0.163 HD
BRANCH   4   7
ATOM      7  C   UNL A   1      32.848  28.142  26.176  1.00  0.00     0.039 A 
ATOM      8  C   UNL A   1      31.496  25.765  26.691  1.00  0.00     0.041 A 
ATOM      9  C   UNL A   1      32.729  25.725  26.046  1.00  0.00     0.027 A 
ATOM     10  C   UNL A   1      31.038  26.953  27.258  1.00  0.00     0.027 A 
ATOM     11  C   UNL A   1      33.386  26.917  25.760  1.00  0.00     0.016 A 
ATOM     12  C   UNL A   1      31.734  28.141  27.020  1.00  0.00     0.016 A 
BRANCH   8  13
ATOM     13  N   UNL A   1      30.757  24.591  26.715  1.00  0.00    -0.325 N 
ATOM     14  C   UNL A   1      31.138  23.302  26.505  1.00  0.00     0.238 C 
ATOM     15  O   UNL A   1      30.211  22.491  26.392  1.00  0.00    -0.273 OA
ATOM     16  H   UNL A   1      29.801  24.710  26.917  1.00  0.00     0.169 HD
BRANCH  14  17
ATOM     17  C   UNL A   1      32.618  22.852  26.425  1.00  0.00     0.160 C 
ATOM     18  C   UNL A   1      32.074  20.667  22.648  1.00  0.00     0.301 C 
ATOM     19  N   UNL A   1      32.356  21.437  23.855  1.00  0.00    -0.194 N 
ATOM     20  C   UNL A   1      32.430  20.718  25.043  1.00  0.00     0.311 C 
ATOM     21  C   UNL A   1      32.495  22.820  23.715  1.00  0.00     0.319 C 
ATOM     22  O   UNL A   1      32.086  19.539  25.144  1.00  0.00    -0.247 OA
ATOM     23  C   UNL A   1      33.024  21.406  26.241  1.00  0.00     0.153 C 
ATOM     24  S   UNL A   1      33.385  23.655  24.982  1.00  0.00    -0.024 SA
ATOM     25  N   UNL A   1      32.007  23.390  22.657  1.00  0.00    -0.235 N 
ATOM     26  H   UNL A   1      31.591  22.837  21.957  1.00  0.00     0.313 HD
BRANCH  25  27
ATOM     27  C   UNL A   1      32.063  24.777  22.494  1.00  0.00     0.126 A 
ATOM     28  C   UNL A   1      33.162  25.361  21.859  1.00  0.00     0.052 A 
ATOM     29  C   UNL A   1      31.039  25.589  22.977  1.00  0.00     0.064 A 
ATOM     30  C   UNL A   1      33.213  26.741  21.665  1.00  0.00     0.005 A 
ATOM     31  C   UNL A   1      31.050  26.970  22.747  1.00  0.00     0.060 A 
ATOM     32  C   UNL A   1      32.155  27.541  22.098  1.00  0.00     0.013 A 
BRANCH  31  33
ATOM     33  C   UNL A   1      29.882  27.814  23.173  1.00  0.00     0.416 C 
ATOM     34  F   UNL A   1      30.187  28.648  24.205  1.00  0.00    -0.166 F 
ATOM     35  F   UNL A   1      29.416  28.611  22.171  1.00  0.00    -0.166 F 
ATOM     36  F   UNL A   1      28.808  27.084  23.591  1.00  0.00    -0.166 F 
ENDBRANCH  31  33
ENDBRANCH  25  27
ENDBRANCH  14  17
ENDBRANCH   8  13
ENDBRANCH   4   7
ENDBRANCH   2   3
ENDBRANCH   1   2
BRANCH   1  37
ATOM     37  C   UNL A   1      34.551  32.517  28.652  1.00  0.00     0.002 C 
BRANCH  37  38
ATOM     38  C   UNL A   1      35.207  33.902  28.640  1.00  0.00     0.002 C 
BRANCH  38  39
ATOM     39  C   UNL A   1      34.247  35.065  28.899  1.00  0.00     0.021 C 
BRANCH  39  40
ATOM     40  C   UNL A   1      32.962  34.660  29.612  1.00  0.00     0.116 C 
BRANCH  40  41
ATOM     41  N   UNL A   1      32.545  35.661  30.582  1.00  0.00    -0.352 N 
ATOM     42  C   UNL A   1      32.943  35.815  31.889  1.00  0.00     0.251 C 
ATOM     43  H   UNL A   1      31.887  36.317  30.258  1.00  0.00     0.163 HD
ATOM     44  O   UNL A   1      32.335  36.562  32.642  1.00  0.00    -0.269 OA
BRANCH  42  45
ATOM     45  C   UNL A   1      34.109  35.052  32.379  1.00  0.00     0.039 A 
ATOM     46  C   UNL A   1      33.912  33.784  32.930  1.00  0.00     0.014 A 
ATOM     47  C   UNL A   1      35.396  35.589  32.280  1.00  0.00     0.014 A 
ATOM     48  C   UNL A   1      35.016  33.026  33.323  1.00  0.00     0.010 A 
ATOM     49  C   UNL A   1      36.496  34.803  32.599  1.00  0.00     0.010 A 
ATOM     50  C   UNL A   1      36.319  33.515  33.127  1.00  0.00    -0.014 A 
BRANCH  50  51
ATOM     51  C   UNL A   1      37.514  32.705  33.472  1.00  0.00     0.031 A 
ATOM     52  C   UNL A   1      38.268  32.990  34.742  1.00  0.00     0.074 A 
ATOM     53  C   UNL A   1      37.962  31.770  32.613  1.00  0.00     0.049 A 
ATOM     54  N   UNL A   1      39.393  32.478  35.169  1.00  0.00    -0.248 NA
ATOM     55  C   UNL A   1      37.693  34.008  35.638  1.00  0.00     0.031 C 
ATOM     56  C   UNL A   1      37.336  31.422  31.336  1.00  0.00     0.029 A 
ATOM     57  N   UNL A   1      39.060  30.949  32.678  1.00  0.00    -0.354 N 
ATOM     58  C   UNL A   1      39.664  33.115  36.373  1.00  0.00     0.074 A 
ATOM     59  C   UNL A   1      38.621  34.094  36.579  1.00  0.00     0.031 C 
ATOM     60  C   UNL A   1      38.048  30.445  30.749  1.00  0.00     0.029 A 
ATOM     61  C   UNL A   1      39.203  30.132  31.582  1.00  0.00     0.049 A 
ATOM     62  H   UNL A   1      39.685  30.944  33.439  1.00  0.00     0.167 HD
ATOM     63  C   UNL A   1      40.677  32.886  37.241  1.00  0.00     0.037 A 
ATOM     64  C   UNL A   1      40.168  29.242  31.278  1.00  0.00     0.037 A 
ATOM     65  C   UNL A   1      41.705  31.898  37.040  1.00  0.00     0.049 A 
ATOM     66  C   UNL A   1      41.308  29.040  32.240  1.00  0.00     0.074 A 
ATOM     67  C   UNL A   1      42.755  31.564  37.878  1.00  0.00     0.029 A 
ATOM     68  N   UNL A   1      41.812  31.087  35.921  1.00  0.00    -0.354 N 
ATOM     69  N   UNL A   1      41.523  29.612  33.401  1.00  0.00    -0.248 NA
ATOM     70  C   UNL A   1      42.337  28.064  31.852  1.00  0.00     0.031 C 
ATOM     71  C   UNL A   1      43.525  30.585  37.244  1.00  0.00     0.029 A 
ATOM     72  C   UNL A   1      42.922  30.268  36.037  1.00  0.00     0.049 A 
ATOM     73  H   UNL A   1      41.191  31.093  35.157  1.00  0.00     0.167 HD
ATOM     74  C   UNL A   1      42.688  29.037  33.897  1.00  0.00     0.074 A 
ATOM     75  C   UNL A   1      43.127  28.067  32.917  1.00  0.00     0.031 C 
ATOM     76  C   UNL A   1      43.333  29.291  35.062  1.00  0.00     0.037 A 
BRANCH  63  77
ATOM     77  C   UNL A   1      40.720  33.715  38.493  1.00  0.00     0.057 A 
ATOM     78  C   UNL A   1      39.950  33.391  39.618  1.00  0.00     0.134 A 
ATOM     79  C   UNL A   1      41.570  34.824  38.590  1.00  0.00     0.134 A 
ATOM     80  F   UNL A   1      39.107  32.348  39.589  1.00  0.00    -0.206 F 
ATOM     81  C   UNL A   1      40.004  34.156  40.784  1.00  0.00     0.040 A 
ATOM     82  C   UNL A   1      41.655  35.578  39.761  1.00  0.00     0.040 A 
ATOM     83  F   UNL A   1      42.340  35.187  37.552  1.00  0.00    -0.206 F 
ATOM     84  C   UNL A   1      40.866  35.248  40.861  1.00  0.00     0.006 A 
ENDBRANCH  63  77
BRANCH  64  85
ATOM     85  C   UNL A   1      40.102  28.466  30.013  1.00  0.00     0.057 A 
ATOM     86  C   UNL A   1      39.368  27.276  29.937  1.00  0.00     0.134 A 
ATOM     87  C   UNL A   1      40.791  28.871  28.864  1.00  0.00     0.134 A 
ATOM     88  F   UNL A   1      38.701  26.824  31.009  1.00  0.00    -0.206 F 
ATOM     89  C   UNL A   1      39.346  26.501  28.775  1.00  0.00     0.040 A 
ATOM     90  C   UNL A   1      40.754  28.122  27.687  1.00  0.00     0.040 A 
ATOM     91  F   UNL A   1      41.506  30.006  28.867  1.00  0.00    -0.206 F 
ATOM     92  C   UNL A   1      40.039  26.927  27.644  1.00  0.00     0.006 A 
ENDBRANCH  64  85
BRANCH  76  93
ATOM     93  C   UNL A   1      44.552  28.469  35.370  1.00  0.00     0.057 A 
ATOM     94  C   UNL A   1      45.839  28.882  35.009  1.00  0.00     0.134 A 
ATOM     95  C   UNL A   1      44.434  27.273  36.091  1.00  0.00     0.134 A 
ATOM     96  F   UNL A   1      46.019  30.011  34.307  1.00  0.00    -0.206 F 
ATOM     97  C   UNL A   1      46.965  28.125  35.336  1.00  0.00     0.040 A 
ATOM     98  C   UNL A   1      45.555  26.523  36.450  1.00  0.00     0.040 A 
ATOM     99  F   UNL A   1      43.230  26.825  36.477  1.00  0.00    -0.206 F 
ATOM    100  C   UNL A   1      46.825  26.947  36.067  1.00  0.00     0.006 A 
ENDBRANCH  76  93
ENDBRANCH  50  51
ENDBRANCH  42  45
ENDBRANCH  40  41
ENDBRANCH  39  40
ENDBRANCH  38  39
ENDBRANCH  37  38
ENDBRANCH   1  37
TORSDOF 17
ENDMDL
