MODEL 1
REMARK VINA RESULT:      -8.8      0.000      0.000
REMARK SMILES CC(C)N1C[C@@H](C(=O)NCCCCCCNC(=O)c2ccc(-c3c4nc(c(-c5c(F)cccc5F)c5ccc([nH]5)c(-c5c(F)cccc5F)c5nc(c(-c6c(F)cccc6F)c6ccc3[nH]6)C=C5)C=C4)cc2)CC1=O
REMARK SMILES IDX 13 1 12 2 11 3 10 4 9 5 7 6 8 7 6 9 4 10 5 11 74 12 73 13
REMARK SMILES IDX 75 14 2 15 1 16 3 17 14 18 15 19 16 20 17 21 18 23 19 24
REMARK SMILES IDX 20 25 72 26 21 27 71 28 22 29 23 30 24 31 65 32 25 33 70 34
REMARK SMILES IDX 64 35 66 36 26 37 69 38 63 39 62 40 27 42 53 43 36 44 52 45
REMARK SMILES IDX 37 46 40 47 51 48 67 49 38 50 39 51 50 53 68 54 41 55 28 56
REMARK SMILES IDX 29 57 34 58 30 59 31 60 33 61 35 62 32 63 54 64 55 65 60 66
REMARK SMILES IDX 56 67 57 68 59 69 61 70 58 71 42 72 43 73 48 74 44 75 45 76
REMARK SMILES IDX 47 77 49 78 46 79
REMARK H PARENT 9 8 16 22 66 41 40 52
REMARK Flexibility Score: inf
ROOT
ATOM      1  C   UNL A   1      45.576  20.941  25.232  1.00  0.00     0.002 C 
ENDROOT
BRANCH   1   2
ATOM      2  C   UNL A   1      45.616  22.095  24.226  1.00  0.00     0.002 C 
BRANCH   2   3
ATOM      3  C   UNL A   1      45.563  23.499  24.843  1.00  0.00     0.021 C 
BRANCH   3   4
ATOM      4  C   UNL A   1      46.929  24.071  25.213  1.00  0.00     0.116 C 
BRANCH   4   5
ATOM      5  N   UNL A   1      47.202  25.289  24.471  1.00  0.00    -0.356 N 
ATOM      6  C   UNL A   1      46.854  26.579  24.699  1.00  0.00     0.225 C 
ATOM      7  O   UNL A   1      47.191  27.414  23.855  1.00  0.00    -0.275 OA
ATOM      8  H   UNL A   1      47.736  25.152  23.656  1.00  0.00     0.163 HD
BRANCH   6   9
ATOM      9  C   UNL A   1      46.125  27.021  25.949  1.00  0.00     0.107 C 
ATOM     10  N   UNL A   1      44.294  28.386  26.488  1.00  0.00    -0.339 N 
ATOM     11  C   UNL A   1      44.645  27.236  25.690  1.00  0.00     0.133 C 
ATOM     12  C   UNL A   1      45.402  29.061  26.971  1.00  0.00     0.223 C 
ATOM     13  C   UNL A   1      46.646  28.295  26.602  1.00  0.00     0.115 C 
ATOM     14  O   UNL A   1      45.398  30.121  27.580  1.00  0.00    -0.275 OA
BRANCH  10  15
ATOM     15  C   UNL A   1      42.925  28.889  26.617  1.00  0.00     0.078 C 
ATOM     16  C   UNL A   1      42.901  30.417  26.642  1.00  0.00     0.031 C 
ATOM     17  C   UNL A   1      42.005  28.345  25.526  1.00  0.00     0.031 C 
ENDBRANCH  10  15
ENDBRANCH   6   9
ENDBRANCH   4   5
ENDBRANCH   3   4
ENDBRANCH   2   3
ENDBRANCH   1   2
BRANCH   1  18
ATOM     18  C   UNL A   1      44.830  19.694  24.755  1.00  0.00     0.021 C 
BRANCH  18  19
ATOM     19  C   UNL A   1      44.120  18.922  25.859  1.00  0.00     0.116 C 
BRANCH  19  20
ATOM     20  N   UNL A   1      42.711  18.719  25.568  1.00  0.00    -0.352 N 
ATOM     21  C   UNL A   1      41.635  19.498  25.910  1.00  0.00     0.251 C 
ATOM     22  H   UNL A   1      42.498  17.907  25.052  1.00  0.00     0.163 HD
ATOM     23  O   UNL A   1      40.493  19.079  25.751  1.00  0.00    -0.269 OA
BRANCH  21  24
ATOM     24  C   UNL A   1      41.856  20.841  26.489  1.00  0.00     0.039 A 
ATOM     25  C   UNL A   1      41.848  20.987  27.878  1.00  0.00     0.014 A 
ATOM     26  C   UNL A   1      42.058  21.952  25.665  1.00  0.00     0.014 A 
ATOM     27  C   UNL A   1      42.086  22.241  28.441  1.00  0.00     0.010 A 
ATOM     28  C   UNL A   1      42.378  23.182  26.228  1.00  0.00     0.010 A 
ATOM     29  C   UNL A   1      42.379  23.345  27.621  1.00  0.00    -0.014 A 
BRANCH  29  30
ATOM     30  C   UNL A   1      42.655  24.682  28.204  1.00  0.00     0.031 A 
ATOM     31  C   UNL A   1      44.038  25.021  28.688  1.00  0.00     0.074 A 
ATOM     32  C   UNL A   1      41.654  25.573  28.343  1.00  0.00     0.049 A 
ATOM     33  N   UNL A   1      44.468  26.111  29.271  1.00  0.00    -0.248 NA
ATOM     34  C   UNL A   1      45.071  23.986  28.519  1.00  0.00     0.031 C 
ATOM     35  C   UNL A   1      40.261  25.350  27.952  1.00  0.00     0.029 A 
ATOM     36  N   UNL A   1      41.655  26.845  28.857  1.00  0.00    -0.354 N 
ATOM     37  C   UNL A   1      45.811  25.888  29.547  1.00  0.00     0.074 A 
ATOM     38  C   UNL A   1      46.110  24.536  29.127  1.00  0.00     0.031 C 
ATOM     39  C   UNL A   1      39.548  26.458  28.214  1.00  0.00     0.029 A 
ATOM     40  C   UNL A   1      40.423  27.453  28.826  1.00  0.00     0.049 A 
ATOM     41  H   UNL A   1      42.462  27.282  29.214  1.00  0.00     0.167 HD
ATOM     42  C   UNL A   1      46.723  26.739  30.076  1.00  0.00     0.037 A 
ATOM     43  C   UNL A   1      40.042  28.673  29.249  1.00  0.00     0.037 A 
ATOM     44  C   UNL A   1      46.426  28.089  30.478  1.00  0.00     0.049 A 
ATOM     45  C   UNL A   1      41.068  29.595  29.849  1.00  0.00     0.074 A 
ATOM     46  C   UNL A   1      47.286  29.047  30.984  1.00  0.00     0.029 A 
ATOM     47  N   UNL A   1      45.168  28.671  30.419  1.00  0.00    -0.354 N 
ATOM     48  N   UNL A   1      42.348  29.393  30.048  1.00  0.00    -0.248 NA
ATOM     49  C   UNL A   1      40.597  30.921  30.275  1.00  0.00     0.031 C 
ATOM     50  C   UNL A   1      46.540  30.192  31.280  1.00  0.00     0.029 A 
ATOM     51  C   UNL A   1      45.227  29.970  30.899  1.00  0.00     0.049 A 
ATOM     52  H   UNL A   1      44.355  28.229  30.086  1.00  0.00     0.167 HD
ATOM     53  C   UNL A   1      42.843  30.576  30.582  1.00  0.00     0.074 A 
ATOM     54  C   UNL A   1      41.726  31.493  30.668  1.00  0.00     0.031 C 
ATOM     55  C   UNL A   1      44.108  30.878  30.963  1.00  0.00     0.037 A 
BRANCH  42  56
ATOM     56  C   UNL A   1      48.125  26.231  30.250  1.00  0.00     0.057 A 
ATOM     57  C   UNL A   1      48.569  25.678  31.459  1.00  0.00     0.134 A 
ATOM     58  C   UNL A   1      49.039  26.271  29.188  1.00  0.00     0.134 A 
ATOM     59  F   UNL A   1      47.752  25.619  32.521  1.00  0.00    -0.206 F 
ATOM     60  C   UNL A   1      49.877  25.215  31.616  1.00  0.00     0.040 A 
ATOM     61  C   UNL A   1      50.339  25.782  29.323  1.00  0.00     0.040 A 
ATOM     62  F   UNL A   1      48.680  26.780  27.999  1.00  0.00    -0.206 F 
ATOM     63  C   UNL A   1      50.764  25.261  30.543  1.00  0.00     0.006 A 
ENDBRANCH  42  56
BRANCH  43  64
ATOM     64  C   UNL A   1      38.630  29.109  29.096  1.00  0.00     0.057 A 
ATOM     65  C   UNL A   1      38.150  29.584  27.869  1.00  0.00     0.134 A 
ATOM     66  C   UNL A   1      37.733  29.079  30.170  1.00  0.00     0.134 A 
ATOM     67  F   UNL A   1      38.966  29.654  26.807  1.00  0.00    -0.206 F 
ATOM     68  C   UNL A   1      36.838  30.037  27.722  1.00  0.00     0.040 A 
ATOM     69  C   UNL A   1      36.410  29.502  30.029  1.00  0.00     0.040 A 
ATOM     70  F   UNL A   1      38.126  28.625  31.369  1.00  0.00    -0.206 F 
ATOM     71  C   UNL A   1      35.963  29.993  28.805  1.00  0.00     0.006 A 
ENDBRANCH  43  64
BRANCH  55  72
ATOM     72  C   UNL A   1      44.367  32.275  31.451  1.00  0.00     0.057 A 
ATOM     73  C   UNL A   1      44.279  32.622  32.805  1.00  0.00     0.134 A 
ATOM     74  C   UNL A   1      44.740  33.282  30.550  1.00  0.00     0.134 A 
ATOM     75  F   UNL A   1      43.916  31.710  33.720  1.00  0.00    -0.206 F 
ATOM     76  C   UNL A   1      44.521  33.927  33.241  1.00  0.00     0.040 A 
ATOM     77  C   UNL A   1      45.016  34.580  30.978  1.00  0.00     0.040 A 
ATOM     78  F   UNL A   1      44.853  33.015  29.240  1.00  0.00    -0.206 F 
ATOM     79  C   UNL A   1      44.897  34.908  32.327  1.00  0.00     0.006 A 
ENDBRANCH  55  72
ENDBRANCH  29  30
ENDBRANCH  21  24
ENDBRANCH  19  20
ENDBRANCH  18  19
ENDBRANCH   1  18
TORSDOF 14
ENDMDL
MODEL 2
REMARK VINA RESULT:      -8.6      4.489     10.613
REMARK SMILES CC(C)N1C[C@@H](C(=O)NCCCCCCNC(=O)c2ccc(-c3c4nc(c(-c5c(F)cccc5F)c5ccc([nH]5)c(-c5c(F)cccc5F)c5nc(c(-c6c(F)cccc6F)c6ccc3[nH]6)C=C5)C=C4)cc2)CC1=O
REMARK SMILES IDX 13 1 12 2 11 3 10 4 9 5 7 6 8 7 6 9 4 10 5 11 74 12 73 13
REMARK SMILES IDX 75 14 2 15 1 16 3 17 14 18 15 19 16 20 17 21 18 23 19 24
REMARK SMILES IDX 20 25 72 26 21 27 71 28 22 29 23 30 24 31 65 32 25 33 70 34
REMARK SMILES IDX 64 35 66 36 26 37 69 38 63 39 62 40 27 42 53 43 36 44 52 45
REMARK SMILES IDX 37 46 40 47 51 48 67 49 38 50 39 51 50 53 68 54 41 55 28 56
REMARK SMILES IDX 29 57 34 58 30 59 31 60 33 61 35 62 32 63 54 64 55 65 60 66
REMARK SMILES IDX 56 67 57 68 59 69 61 70 58 71 42 72 43 73 48 74 44 75 45 76
REMARK SMILES IDX 47 77 49 78 46 79
REMARK H PARENT 9 8 16 22 66 41 40 52
REMARK Flexibility Score: inf
ROOT
ATOM      1  C   UNL A   1      34.054  36.055  33.195  1.00  0.00     0.002 C 
ENDROOT
BRANCH   1   2
ATOM      2  C   UNL A   1      35.272  35.138  33.054  1.00  0.00     0.002 C 
BRANCH   2   3
ATOM      3  C   UNL A   1      35.154  33.783  33.765  1.00  0.00     0.021 C 
BRANCH   3   4
ATOM      4  C   UNL A   1      36.489  33.076  33.989  1.00  0.00     0.116 C 
BRANCH   4   5
ATOM      5  N   UNL A   1      36.417  31.686  33.577  1.00  0.00    -0.356 N 
ATOM      6  C   UNL A   1      37.380  30.747  33.407  1.00  0.00     0.225 C 
ATOM      7  O   UNL A   1      37.023  29.640  32.993  1.00  0.00    -0.275 OA
ATOM      8  H   UNL A   1      35.505  31.370  33.386  1.00  0.00     0.163 HD
BRANCH   6   9
ATOM      9  C   UNL A   1      38.833  30.995  33.745  1.00  0.00     0.107 C 
ATOM     10  N   UNL A   1      40.636  29.769  34.613  1.00  0.00    -0.339 N 
ATOM     11  C   UNL A   1      39.679  29.753  33.533  1.00  0.00     0.133 C 
ATOM     12  C   UNL A   1      40.314  30.685  35.600  1.00  0.00     0.223 C 
ATOM     13  C   UNL A   1      39.108  31.475  35.165  1.00  0.00     0.115 C 
ATOM     14  O   UNL A   1      40.888  30.833  36.669  1.00  0.00    -0.275 OA
BRANCH  10  15
ATOM     15  C   UNL A   1      41.723  28.796  34.741  1.00  0.00     0.078 C 
ATOM     16  C   UNL A   1      41.783  28.222  36.156  1.00  0.00     0.031 C 
ATOM     17  C   UNL A   1      41.624  27.681  33.703  1.00  0.00     0.031 C 
ENDBRANCH  10  15
ENDBRANCH   6   9
ENDBRANCH   4   5
ENDBRANCH   3   4
ENDBRANCH   2   3
ENDBRANCH   1   2
BRANCH   1  18
ATOM     18  C   UNL A   1      32.994  35.893  32.104  1.00  0.00     0.021 C 
BRANCH  18  19
ATOM     19  C   UNL A   1      33.470  36.257  30.703  1.00  0.00     0.116 C 
BRANCH  19  20
ATOM     20  N   UNL A   1      32.749  35.529  29.672  1.00  0.00    -0.352 N 
ATOM     21  C   UNL A   1      33.180  34.498  28.877  1.00  0.00     0.251 C 
ATOM     22  H   UNL A   1      31.818  35.817  29.525  1.00  0.00     0.163 HD
ATOM     23  O   UNL A   1      32.503  34.128  27.923  1.00  0.00    -0.269 OA
BRANCH  21  24
ATOM     24  C   UNL A   1      34.475  33.845  29.162  1.00  0.00     0.039 A 
ATOM     25  C   UNL A   1      35.598  34.220  28.422  1.00  0.00     0.014 A 
ATOM     26  C   UNL A   1      34.578  32.857  30.146  1.00  0.00     0.014 A 
ATOM     27  C   UNL A   1      36.835  33.635  28.699  1.00  0.00     0.010 A 
ATOM     28  C   UNL A   1      35.824  32.338  30.478  1.00  0.00     0.010 A 
ATOM     29  C   UNL A   1      36.963  32.707  29.747  1.00  0.00    -0.014 A 
BRANCH  29  30
ATOM     30  C   UNL A   1      38.275  32.091  30.070  1.00  0.00     0.031 A 
ATOM     31  C   UNL A   1      39.257  32.825  30.942  1.00  0.00     0.074 A 
ATOM     32  C   UNL A   1      38.602  30.896  29.542  1.00  0.00     0.049 A 
ATOM     33  N   UNL A   1      40.468  32.479  31.297  1.00  0.00    -0.248 NA
ATOM     34  C   UNL A   1      38.831  34.133  31.464  1.00  0.00     0.031 C 
ATOM     35  C   UNL A   1      37.755  30.104  28.648  1.00  0.00     0.029 A 
ATOM     36  N   UNL A   1      39.741  30.141  29.676  1.00  0.00    -0.354 N 
ATOM     37  C   UNL A   1      40.950  33.529  32.069  1.00  0.00     0.074 A 
ATOM     38  C   UNL A   1      39.926  34.551  32.078  1.00  0.00     0.031 C 
ATOM     39  C   UNL A   1      38.391  28.962  28.337  1.00  0.00     0.029 A 
ATOM     40  C   UNL A   1      39.703  28.960  28.976  1.00  0.00     0.049 A 
ATOM     41  H   UNL A   1      40.510  30.420  30.222  1.00  0.00     0.167 HD
ATOM     42  C   UNL A   1      42.126  33.625  32.734  1.00  0.00     0.037 A 
ATOM     43  C   UNL A   1      40.627  27.986  28.859  1.00  0.00     0.037 A 
ATOM     44  C   UNL A   1      43.136  32.599  32.737  1.00  0.00     0.049 A 
ATOM     45  C   UNL A   1      41.932  28.122  29.594  1.00  0.00     0.074 A 
ATOM     46  C   UNL A   1      44.343  32.578  33.413  1.00  0.00     0.029 A 
ATOM     47  N   UNL A   1      43.055  31.411  32.025  1.00  0.00    -0.354 N 
ATOM     48  N   UNL A   1      42.350  29.093  30.370  1.00  0.00    -0.248 NA
ATOM     49  C   UNL A   1      42.893  27.020  29.443  1.00  0.00     0.031 C 
ATOM     50  C   UNL A   1      45.016  31.401  33.070  1.00  0.00     0.029 A 
ATOM     51  C   UNL A   1      44.201  30.659  32.231  1.00  0.00     0.049 A 
ATOM     52  H   UNL A   1      42.298  31.141  31.458  1.00  0.00     0.167 HD
ATOM     53  C   UNL A   1      43.600  28.702  30.832  1.00  0.00     0.074 A 
ATOM     54  C   UNL A   1      43.868  27.400  30.256  1.00  0.00     0.031 C 
ATOM     55  C   UNL A   1      44.447  29.357  31.663  1.00  0.00     0.037 A 
BRANCH  42  56
ATOM     56  C   UNL A   1      42.380  34.883  33.514  1.00  0.00     0.057 A 
ATOM     57  C   UNL A   1      42.000  35.012  34.857  1.00  0.00     0.134 A 
ATOM     58  C   UNL A   1      43.034  35.972  32.924  1.00  0.00     0.134 A 
ATOM     59  F   UNL A   1      41.359  34.013  35.482  1.00  0.00    -0.206 F 
ATOM     60  C   UNL A   1      42.232  36.187  35.574  1.00  0.00     0.040 A 
ATOM     61  C   UNL A   1      43.300  37.141  33.639  1.00  0.00     0.040 A 
ATOM     62  F   UNL A   1      43.431  35.916  31.643  1.00  0.00    -0.206 F 
ATOM     63  C   UNL A   1      42.890  37.254  34.966  1.00  0.00     0.006 A 
ENDBRANCH  42  56
BRANCH  43  64
ATOM     64  C   UNL A   1      40.342  26.782  28.037  1.00  0.00     0.057 A 
ATOM     65  C   UNL A   1      40.867  26.648  26.745  1.00  0.00     0.134 A 
ATOM     66  C   UNL A   1      39.528  25.747  28.511  1.00  0.00     0.134 A 
ATOM     67  F   UNL A   1      41.639  27.615  26.228  1.00  0.00    -0.206 F 
ATOM     68  C   UNL A   1      40.572  25.544  25.946  1.00  0.00     0.040 A 
ATOM     69  C   UNL A   1      39.249  24.621  27.733  1.00  0.00     0.040 A 
ATOM     70  F   UNL A   1      39.003  25.808  29.743  1.00  0.00    -0.206 F 
ATOM     71  C   UNL A   1      39.763  24.523  26.442  1.00  0.00     0.006 A 
ENDBRANCH  43  64
BRANCH  55  72
ATOM     72  C   UNL A   1      45.718  28.654  32.046  1.00  0.00     0.057 A 
ATOM     73  C   UNL A   1      45.804  27.824  33.171  1.00  0.00     0.134 A 
ATOM     74  C   UNL A   1      46.867  28.789  31.254  1.00  0.00     0.134 A 
ATOM     75  F   UNL A   1      44.745  27.660  33.979  1.00  0.00    -0.206 F 
ATOM     76  C   UNL A   1      46.995  27.180  33.513  1.00  0.00     0.040 A 
ATOM     77  C   UNL A   1      48.053  28.124  31.568  1.00  0.00     0.040 A 
ATOM     78  F   UNL A   1      46.851  29.560  30.156  1.00  0.00    -0.206 F 
ATOM     79  C   UNL A   1      48.122  27.324  32.706  1.00  0.00     0.006 A 
ENDBRANCH  55  72
ENDBRANCH  29  30
ENDBRANCH  21  24
ENDBRANCH  19  20
ENDBRANCH  18  19
ENDBRANCH   1  18
TORSDOF 14
ENDMDL
MODEL 3
REMARK VINA RESULT:      -8.4      6.091     11.939
REMARK SMILES CC(C)N1C[C@@H](C(=O)NCCCCCCNC(=O)c2ccc(-c3c4nc(c(-c5c(F)cccc5F)c5ccc([nH]5)c(-c5c(F)cccc5F)c5nc(c(-c6c(F)cccc6F)c6ccc3[nH]6)C=C5)C=C4)cc2)CC1=O
REMARK SMILES IDX 13 1 12 2 11 3 10 4 9 5 7 6 8 7 6 9 4 10 5 11 74 12 73 13
REMARK SMILES IDX 75 14 2 15 1 16 3 17 14 18 15 19 16 20 17 21 18 23 19 24
REMARK SMILES IDX 20 25 72 26 21 27 71 28 22 29 23 30 24 31 65 32 25 33 70 34
REMARK SMILES IDX 64 35 66 36 26 37 69 38 63 39 62 40 27 42 53 43 36 44 52 45
REMARK SMILES IDX 37 46 40 47 51 48 67 49 38 50 39 51 50 53 68 54 41 55 28 56
REMARK SMILES IDX 29 57 34 58 30 59 31 60 33 61 35 62 32 63 54 64 55 65 60 66
REMARK SMILES IDX 56 67 57 68 59 69 61 70 58 71 42 72 43 73 48 74 44 75 45 76
REMARK SMILES IDX 47 77 49 78 46 79
REMARK H PARENT 9 8 16 22 66 41 40 52
REMARK Flexibility Score: inf
ROOT
ATOM      1  C   UNL A   1      34.572  34.151  28.931  1.00  0.00     0.002 C 
ENDROOT
BRANCH   1   2
ATOM      2  C   UNL A   1      34.500  32.622  28.926  1.00  0.00     0.002 C 
BRANCH   2   3
ATOM      3  C   UNL A   1      35.089  31.946  27.681  1.00  0.00     0.021 C 
BRANCH   3   4
ATOM      4  C   UNL A   1      35.089  30.419  27.739  1.00  0.00     0.116 C 
BRANCH   4   5
ATOM      5  N   UNL A   1      33.749  29.907  27.960  1.00  0.00    -0.356 N 
ATOM      6  C   UNL A   1      32.780  29.520  27.094  1.00  0.00     0.225 C 
ATOM      7  O   UNL A   1      31.700  29.167  27.576  1.00  0.00    -0.275 OA
ATOM      8  H   UNL A   1      33.500  29.826  28.908  1.00  0.00     0.163 HD
BRANCH   6   9
ATOM      9  C   UNL A   1      32.993  29.466  25.598  1.00  0.00     0.107 C 
ATOM     10  N   UNL A   1      31.903  28.554  23.730  1.00  0.00    -0.339 N 
ATOM     11  C   UNL A   1      31.677  29.445  24.842  1.00  0.00     0.133 C 
ATOM     12  C   UNL A   1      33.070  27.820  23.861  1.00  0.00     0.223 C 
ATOM     13  C   UNL A   1      33.809  28.283  25.090  1.00  0.00     0.115 C 
ATOM     14  O   UNL A   1      33.449  26.922  23.124  1.00  0.00    -0.275 OA
BRANCH  10  15
ATOM     15  C   UNL A   1      30.917  28.317  22.675  1.00  0.00     0.078 C 
ATOM     16  C   UNL A   1      29.845  27.330  23.136  1.00  0.00     0.031 C 
ATOM     17  C   UNL A   1      30.286  29.614  22.173  1.00  0.00     0.031 C 
ENDBRANCH  10  15
ENDBRANCH   6   9
ENDBRANCH   4   5
ENDBRANCH   3   4
ENDBRANCH   2   3
ENDBRANCH   1   2
BRANCH   1  18
ATOM     18  C   UNL A   1      33.223  34.860  29.066  1.00  0.00     0.021 C 
BRANCH  18  19
ATOM     19  C   UNL A   1      33.294  36.234  29.721  1.00  0.00     0.116 C 
BRANCH  19  20
ATOM     20  N   UNL A   1      32.405  36.342  30.865  1.00  0.00    -0.352 N 
ATOM     21  C   UNL A   1      32.497  35.741  32.094  1.00  0.00     0.251 C 
ATOM     22  H   UNL A   1      31.625  36.932  30.739  1.00  0.00     0.163 HD
ATOM     23  O   UNL A   1      31.555  35.789  32.878  1.00  0.00    -0.269 OA
BRANCH  21  24
ATOM     24  C   UNL A   1      33.732  35.018  32.466  1.00  0.00     0.039 A 
ATOM     25  C   UNL A   1      33.633  33.694  32.902  1.00  0.00     0.014 A 
ATOM     26  C   UNL A   1      34.978  35.645  32.397  1.00  0.00     0.014 A 
ATOM     27  C   UNL A   1      34.792  32.987  33.228  1.00  0.00     0.010 A 
ATOM     28  C   UNL A   1      36.136  34.914  32.639  1.00  0.00     0.010 A 
ATOM     29  C   UNL A   1      36.055  33.583  33.074  1.00  0.00    -0.014 A 
BRANCH  29  30
ATOM     30  C   UNL A   1      37.299  32.839  33.395  1.00  0.00     0.031 A 
ATOM     31  C   UNL A   1      38.050  33.140  34.664  1.00  0.00     0.074 A 
ATOM     32  C   UNL A   1      37.780  31.929  32.526  1.00  0.00     0.049 A 
ATOM     33  N   UNL A   1      39.177  32.637  35.098  1.00  0.00    -0.248 NA
ATOM     34  C   UNL A   1      37.469  34.161  35.551  1.00  0.00     0.031 C 
ATOM     35  C   UNL A   1      37.168  31.577  31.243  1.00  0.00     0.029 A 
ATOM     36  N   UNL A   1      38.899  31.137  32.588  1.00  0.00    -0.354 N 
ATOM     37  C   UNL A   1      39.445  33.288  36.296  1.00  0.00     0.074 A 
ATOM     38  C   UNL A   1      38.397  34.266  36.489  1.00  0.00     0.031 C 
ATOM     39  C   UNL A   1      37.903  30.620  30.653  1.00  0.00     0.029 A 
ATOM     40  C   UNL A   1      39.057  30.319  31.496  1.00  0.00     0.049 A 
ATOM     41  H   UNL A   1      39.528  31.152  33.345  1.00  0.00     0.167 HD
ATOM     42  C   UNL A   1      40.455  33.072  37.172  1.00  0.00     0.037 A 
ATOM     43  C   UNL A   1      40.026  29.431  31.204  1.00  0.00     0.037 A 
ATOM     44  C   UNL A   1      41.487  32.086  36.986  1.00  0.00     0.049 A 
ATOM     45  C   UNL A   1      41.147  29.221  32.185  1.00  0.00     0.074 A 
ATOM     46  C   UNL A   1      42.531  31.758  37.833  1.00  0.00     0.029 A 
ATOM     47  N   UNL A   1      41.606  31.269  35.871  1.00  0.00    -0.354 N 
ATOM     48  N   UNL A   1      41.355  29.800  33.343  1.00  0.00    -0.248 NA
ATOM     49  C   UNL A   1      42.166  28.226  31.821  1.00  0.00     0.031 C 
ATOM     50  C   UNL A   1      43.310  30.780  37.209  1.00  0.00     0.029 A 
ATOM     51  C   UNL A   1      42.717  30.452  36.000  1.00  0.00     0.049 A 
ATOM     52  H   UNL A   1      40.992  31.270  35.101  1.00  0.00     0.167 HD
ATOM     53  C   UNL A   1      42.500  29.212  33.864  1.00  0.00     0.074 A 
ATOM     54  C   UNL A   1      42.937  28.225  32.899  1.00  0.00     0.031 C 
ATOM     55  C   UNL A   1      43.131  29.461  35.038  1.00  0.00     0.037 A 
BRANCH  42  56
ATOM     56  C   UNL A   1      40.490  33.921  38.410  1.00  0.00     0.057 A 
ATOM     57  C   UNL A   1      39.781  33.571  39.569  1.00  0.00     0.134 A 
ATOM     58  C   UNL A   1      41.260  35.090  38.458  1.00  0.00     0.134 A 
ATOM     59  F   UNL A   1      39.013  32.471  39.591  1.00  0.00    -0.206 F 
ATOM     60  C   UNL A   1      39.810  34.369  40.714  1.00  0.00     0.040 A 
ATOM     61  C   UNL A   1      41.323  35.879  39.607  1.00  0.00     0.040 A 
ATOM     62  F   UNL A   1      41.969  35.482  37.388  1.00  0.00    -0.206 F 
ATOM     63  C   UNL A   1      40.589  35.524  40.737  1.00  0.00     0.006 A 
ENDBRANCH  42  56
BRANCH  43  64
ATOM     64  C   UNL A   1      39.968  28.650  29.942  1.00  0.00     0.057 A 
ATOM     65  C   UNL A   1      39.248  27.451  29.867  1.00  0.00     0.134 A 
ATOM     66  C   UNL A   1      40.640  29.070  28.788  1.00  0.00     0.134 A 
ATOM     67  F   UNL A   1      38.597  26.987  30.944  1.00  0.00    -0.206 F 
ATOM     68  C   UNL A   1      39.221  26.685  28.701  1.00  0.00     0.040 A 
ATOM     69  C   UNL A   1      40.598  28.328  27.606  1.00  0.00     0.040 A 
ATOM     70  F   UNL A   1      41.339  30.215  28.790  1.00  0.00    -0.206 F 
ATOM     71  C   UNL A   1      39.894  27.127  27.564  1.00  0.00     0.006 A 
ENDBRANCH  43  64
BRANCH  55  72
ATOM     72  C   UNL A   1      44.326  28.616  35.372  1.00  0.00     0.057 A 
ATOM     73  C   UNL A   1      45.629  28.991  35.021  1.00  0.00     0.134 A 
ATOM     74  C   UNL A   1      44.169  27.419  36.084  1.00  0.00     0.134 A 
ATOM     75  F   UNL A   1      45.850  30.118  34.328  1.00  0.00    -0.206 F 
ATOM     76  C   UNL A   1      46.729  28.191  35.339  1.00  0.00     0.040 A 
ATOM     77  C   UNL A   1      45.264  26.628  36.435  1.00  0.00     0.040 A 
ATOM     78  F   UNL A   1      42.949  27.006  36.461  1.00  0.00    -0.206 F 
ATOM     79  C   UNL A   1      46.548  27.009  36.054  1.00  0.00     0.006 A 
ENDBRANCH  55  72
ENDBRANCH  29  30
ENDBRANCH  21  24
ENDBRANCH  19  20
ENDBRANCH  18  19
ENDBRANCH   1  18
TORSDOF 14
ENDMDL
