MODEL 1
REMARK VINA RESULT:     -11.0      0.000      0.000
REMARK SMILES Cc1ccc(CNC(=O)NC[C@@H](CC(C)C)C(=O)NCCCCCCNC(=O)c2ccc(-c3c4nc(c(-c5c(F)cccc5F)c5ccc([nH]5)c(-c5c(F)cccc5F)c5nc(c(-c6c(F)cccc6F)c6ccc3[nH]6)C=C5)C=C4)cc2)s1
REMARK SMILES IDX 21 1 20 2 19 3 17 4 18 5 12 7 11 8 10 9 7 10 8 11 9 13 6 15
REMARK SMILES IDX 5 16 1 17 2 18 3 19 83 20 4 21 13 22 14 23 15 24 16 25 22 26
REMARK SMILES IDX 23 27 24 28 25 29 26 30 27 31 28 33 29 34 30 35 82 36 31 37
REMARK SMILES IDX 81 38 32 39 33 40 34 41 75 42 35 43 80 44 74 45 76 46 36 47
REMARK SMILES IDX 79 48 73 49 72 50 37 52 63 53 46 54 62 55 47 56 50 57 61 58
REMARK SMILES IDX 77 59 48 60 49 61 60 63 78 64 51 65 38 66 39 67 44 68 40 69
REMARK SMILES IDX 41 70 43 71 45 72 42 73 64 74 65 75 70 76 66 77 67 78 69 79
REMARK SMILES IDX 71 80 68 81 52 82 53 83 58 84 54 85 55 86 57 87 59 88 56 89
REMARK H PARENT 19 6 7 12 10 14 26 32 76 51 50 62
REMARK Flexibility Score: inf
ROOT
ATOM      1  C   UNL A   1      36.462  22.629  23.997  1.00  0.00     0.021 C 
ENDROOT
BRANCH   1   2
ATOM      2  C   UNL A   1      35.072  22.985  24.500  1.00  0.00     0.116 C 
BRANCH   2   3
ATOM      3  N   UNL A   1      34.851  22.606  25.879  1.00  0.00    -0.356 N 
ATOM      4  C   UNL A   1      33.991  21.710  26.429  1.00  0.00     0.224 C 
ATOM      5  O   UNL A   1      34.149  21.453  27.627  1.00  0.00    -0.275 OA
ATOM      6  H   UNL A   1      35.421  23.079  26.528  1.00  0.00     0.163 HD
BRANCH   4   7
ATOM      7  C   UNL A   1      32.884  21.011  25.643  1.00  0.00     0.098 C 
BRANCH   7   8
ATOM      8  C   UNL A   1      31.692  21.916  25.308  1.00  0.00     0.131 C 
BRANCH   8   9
ATOM      9  N   UNL A   1      30.856  22.203  26.462  1.00  0.00    -0.337 N 
ATOM     10  N   UNL A   1      30.724  24.559  26.547  1.00  0.00    -0.333 N 
ATOM     11  C   UNL A   1      30.280  23.342  26.877  1.00  0.00     0.315 C 
ATOM     12  H   UNL A   1      30.050  25.267  26.657  1.00  0.00     0.165 HD
ATOM     13  O   UNL A   1      29.283  23.256  27.597  1.00  0.00    -0.249 OA
ATOM     14  H   UNL A   1      30.684  21.426  27.040  1.00  0.00     0.165 HD
BRANCH  10  15
ATOM     15  C   UNL A   1      31.999  25.046  26.061  1.00  0.00     0.164 C 
BRANCH  15  16
ATOM     16  C   UNL A   1      32.193  26.488  26.437  1.00  0.00     0.024 A 
ATOM     17  C   UNL A   1      33.885  30.030  26.682  1.00  0.00     0.056 C 
ATOM     18  C   UNL A   1      33.053  28.794  26.742  1.00  0.00     0.002 A 
ATOM     19  C   UNL A   1      31.791  28.636  27.270  1.00  0.00     0.015 A 
ATOM     20  S   UNL A   1      33.654  27.327  26.101  1.00  0.00    -0.144 S 
ATOM     21  C   UNL A   1      31.297  27.310  27.098  1.00  0.00     0.017 A 
ENDBRANCH  15  16
ENDBRANCH  10  15
ENDBRANCH   8   9
ENDBRANCH   7   8
BRANCH   7  22
ATOM     22  C   UNL A   1      33.380  20.140  24.459  1.00  0.00     0.018 C 
BRANCH  22  23
ATOM     23  C   UNL A   1      32.670  18.794  24.206  1.00  0.00    -0.017 C 
ATOM     24  C   UNL A   1      32.518  18.498  22.709  1.00  0.00     0.007 C 
ATOM     25  C   UNL A   1      33.436  17.630  24.846  1.00  0.00     0.007 C 
ENDBRANCH  22  23
ENDBRANCH   7  22
ENDBRANCH   4   7
ENDBRANCH   2   3
ENDBRANCH   1   2
BRANCH   1  26
ATOM     26  C   UNL A   1      37.219  21.634  24.881  1.00  0.00     0.002 C 
BRANCH  26  27
ATOM     27  C   UNL A   1      36.909  20.150  24.643  1.00  0.00     0.002 C 
BRANCH  27  28
ATOM     28  C   UNL A   1      38.022  19.163  25.002  1.00  0.00     0.021 C 
BRANCH  28  29
ATOM     29  C   UNL A   1      39.210  19.763  25.739  1.00  0.00     0.116 C 
BRANCH  29  30
ATOM     30  N   UNL A   1      40.347  18.864  25.797  1.00  0.00    -0.352 N 
ATOM     31  C   UNL A   1      41.669  19.153  26.024  1.00  0.00     0.251 C 
ATOM     32  H   UNL A   1      40.141  17.913  25.654  1.00  0.00     0.163 HD
ATOM     33  O   UNL A   1      42.520  18.281  25.901  1.00  0.00    -0.269 OA
BRANCH  31  34
ATOM     34  C   UNL A   1      42.065  20.529  26.394  1.00  0.00     0.039 A 
ATOM     35  C   UNL A   1      42.303  21.454  25.375  1.00  0.00     0.014 A 
ATOM     36  C   UNL A   1      42.210  20.904  27.733  1.00  0.00     0.014 A 
ATOM     37  C   UNL A   1      42.652  22.764  25.699  1.00  0.00     0.010 A 
ATOM     38  C   UNL A   1      42.472  22.231  28.055  1.00  0.00     0.010 A 
ATOM     39  C   UNL A   1      42.718  23.169  27.043  1.00  0.00    -0.014 A 
BRANCH  39  40
ATOM     40  C   UNL A   1      43.089  24.560  27.407  1.00  0.00     0.031 A 
ATOM     41  C   UNL A   1      44.531  24.988  27.351  1.00  0.00     0.074 A 
ATOM     42  C   UNL A   1      42.143  25.420  27.826  1.00  0.00     0.049 A 
ATOM     43  N   UNL A   1      45.067  26.137  27.675  1.00  0.00    -0.248 NA
ATOM     44  C   UNL A   1      45.503  23.981  26.897  1.00  0.00     0.031 C 
ATOM     45  C   UNL A   1      40.718  25.114  27.957  1.00  0.00     0.029 A 
ATOM     46  N   UNL A   1      42.239  26.731  28.221  1.00  0.00    -0.354 N 
ATOM     47  C   UNL A   1      46.434  25.985  27.476  1.00  0.00     0.074 A 
ATOM     48  C   UNL A   1      46.652  24.614  27.070  1.00  0.00     0.031 C 
ATOM     49  C   UNL A   1      40.068  26.215  28.372  1.00  0.00     0.029 A 
ATOM     50  C   UNL A   1      41.036  27.290  28.575  1.00  0.00     0.049 A 
ATOM     51  H   UNL A   1      43.091  27.224  28.250  1.00  0.00     0.167 HD
ATOM     52  C   UNL A   1      47.415  26.910  27.589  1.00  0.00     0.037 A 
ATOM     53  C   UNL A   1      40.746  28.529  29.015  1.00  0.00     0.037 A 
ATOM     54  C   UNL A   1      47.191  28.278  27.977  1.00  0.00     0.049 A 
ATOM     55  C   UNL A   1      41.858  29.532  29.159  1.00  0.00     0.074 A 
ATOM     56  C   UNL A   1      48.111  29.306  28.085  1.00  0.00     0.029 A 
ATOM     57  N   UNL A   1      45.956  28.807  28.323  1.00  0.00    -0.354 N 
ATOM     58  N   UNL A   1      43.138  29.393  28.910  1.00  0.00    -0.248 NA
ATOM     59  C   UNL A   1      41.482  30.870  29.637  1.00  0.00     0.031 C 
ATOM     60  C   UNL A   1      47.441  30.444  28.546  1.00  0.00     0.029 A 
ATOM     61  C   UNL A   1      46.093  30.142  28.664  1.00  0.00     0.049 A 
ATOM     62  H   UNL A   1      45.108  28.307  28.326  1.00  0.00     0.167 HD
ATOM     63  C   UNL A   1      43.713  30.632  29.162  1.00  0.00     0.074 A 
ATOM     64  C   UNL A   1      42.639  31.513  29.574  1.00  0.00     0.031 C 
ATOM     65  C   UNL A   1      45.011  31.009  29.057  1.00  0.00     0.037 A 
BRANCH  52  66
ATOM     66  C   UNL A   1      48.819  26.468  27.289  1.00  0.00     0.057 A 
ATOM     67  C   UNL A   1      49.361  26.544  25.997  1.00  0.00     0.134 A 
ATOM     68  C   UNL A   1      49.647  25.971  28.304  1.00  0.00     0.134 A 
ATOM     69  F   UNL A   1      48.619  26.997  24.974  1.00  0.00    -0.206 F 
ATOM     70  C   UNL A   1      50.658  26.111  25.720  1.00  0.00     0.040 A 
ATOM     71  C   UNL A   1      50.959  25.566  28.045  1.00  0.00     0.040 A 
ATOM     72  F   UNL A   1      49.199  25.875  29.564  1.00  0.00    -0.206 F 
ATOM     73  C   UNL A   1      51.464  25.626  26.748  1.00  0.00     0.006 A 
ENDBRANCH  52  66
BRANCH  53  74
ATOM     74  C   UNL A   1      39.342  28.904  29.319  1.00  0.00     0.057 A 
ATOM     75  C   UNL A   1      38.805  28.709  30.598  1.00  0.00     0.134 A 
ATOM     76  C   UNL A   1      38.499  29.451  28.344  1.00  0.00     0.134 A 
ATOM     77  F   UNL A   1      39.557  28.174  31.572  1.00  0.00    -0.206 F 
ATOM     78  C   UNL A   1      37.475  29.019  30.888  1.00  0.00     0.040 A 
ATOM     79  C   UNL A   1      37.175  29.791  28.628  1.00  0.00     0.040 A 
ATOM     80  F   UNL A   1      38.955  29.672  27.102  1.00  0.00    -0.206 F 
ATOM     81  C   UNL A   1      36.658  29.566  29.902  1.00  0.00     0.006 A 
ENDBRANCH  53  74
BRANCH  65  82
ATOM     82  C   UNL A   1      45.336  32.450  29.335  1.00  0.00     0.057 A 
ATOM     83  C   UNL A   1      45.773  32.888  30.590  1.00  0.00     0.134 A 
ATOM     84  C   UNL A   1      45.242  33.405  28.314  1.00  0.00     0.134 A 
ATOM     85  F   UNL A   1      45.873  32.027  31.615  1.00  0.00    -0.206 F 
ATOM     86  C   UNL A   1      46.080  34.229  30.829  1.00  0.00     0.040 A 
ATOM     87  C   UNL A   1      45.576  34.742  28.531  1.00  0.00     0.040 A 
ATOM     88  F   UNL A   1      44.840  33.052  27.084  1.00  0.00    -0.206 F 
ATOM     89  C   UNL A   1      45.989  35.159  29.794  1.00  0.00     0.006 A 
ENDBRANCH  65  82
ENDBRANCH  39  40
ENDBRANCH  31  34
ENDBRANCH  29  30
ENDBRANCH  28  29
ENDBRANCH  27  28
ENDBRANCH  26  27
ENDBRANCH   1  26
TORSDOF 19
ENDMDL
MODEL 2
REMARK VINA RESULT:     -11.0      0.534      6.186
REMARK SMILES Cc1ccc(CNC(=O)NC[C@@H](CC(C)C)C(=O)NCCCCCCNC(=O)c2ccc(-c3c4nc(c(-c5c(F)cccc5F)c5ccc([nH]5)c(-c5c(F)cccc5F)c5nc(c(-c6c(F)cccc6F)c6ccc3[nH]6)C=C5)C=C4)cc2)s1
REMARK SMILES IDX 21 1 20 2 19 3 17 4 18 5 12 7 11 8 10 9 7 10 8 11 9 13 6 15
REMARK SMILES IDX 5 16 1 17 2 18 3 19 83 20 4 21 13 22 14 23 15 24 16 25 22 26
REMARK SMILES IDX 23 27 24 28 25 29 26 30 27 31 28 33 29 34 30 35 82 36 31 37
REMARK SMILES IDX 81 38 32 39 33 40 34 41 75 42 35 43 80 44 74 45 76 46 36 47
REMARK SMILES IDX 79 48 73 49 72 50 37 52 63 53 46 54 62 55 47 56 50 57 61 58
REMARK SMILES IDX 77 59 48 60 49 61 60 63 78 64 51 65 38 66 39 67 44 68 40 69
REMARK SMILES IDX 41 70 43 71 45 72 42 73 64 74 65 75 70 76 66 77 67 78 69 79
REMARK SMILES IDX 71 80 68 81 52 82 53 83 58 84 54 85 55 86 57 87 59 88 56 89
REMARK H PARENT 19 6 7 12 10 14 26 32 76 51 50 62
REMARK Flexibility Score: inf
ROOT
ATOM      1  C   UNL A   1      36.144  23.228  23.924  1.00  0.00     0.021 C 
ENDROOT
BRANCH   1   2
ATOM      2  C   UNL A   1      34.801  23.455  24.600  1.00  0.00     0.116 C 
BRANCH   2   3
ATOM      3  N   UNL A   1      34.731  22.892  25.931  1.00  0.00    -0.356 N 
ATOM      4  C   UNL A   1      34.054  21.815  26.407  1.00  0.00     0.224 C 
ATOM      5  O   UNL A   1      34.328  21.452  27.556  1.00  0.00    -0.275 OA
ATOM      6  H   UNL A   1      35.264  23.372  26.605  1.00  0.00     0.163 HD
BRANCH   4   7
ATOM      7  C   UNL A   1      33.016  21.044  25.596  1.00  0.00     0.098 C 
BRANCH   7   8
ATOM      8  C   UNL A   1      31.745  21.847  25.288  1.00  0.00     0.131 C 
BRANCH   8   9
ATOM      9  N   UNL A   1      31.000  22.207  26.482  1.00  0.00    -0.337 N 
ATOM     10  N   UNL A   1      30.277  24.423  26.104  1.00  0.00    -0.333 N 
ATOM     11  C   UNL A   1      30.200  23.252  26.746  1.00  0.00     0.315 C 
ATOM     12  H   UNL A   1      29.460  24.966  26.179  1.00  0.00     0.165 HD
ATOM     13  O   UNL A   1      29.347  23.120  27.625  1.00  0.00    -0.249 OA
ATOM     14  H   UNL A   1      31.099  21.573  27.228  1.00  0.00     0.165 HD
BRANCH  10  15
ATOM     15  C   UNL A   1      31.320  25.052  25.321  1.00  0.00     0.164 C 
BRANCH  15  16
ATOM     16  C   UNL A   1      31.809  26.301  25.999  1.00  0.00     0.024 A 
ATOM     17  C   UNL A   1      34.193  29.286  26.935  1.00  0.00     0.056 C 
ATOM     18  C   UNL A   1      33.126  28.259  26.763  1.00  0.00     0.002 A 
ATOM     19  C   UNL A   1      31.863  28.237  27.311  1.00  0.00     0.015 A 
ATOM     20  S   UNL A   1      33.408  26.889  25.779  1.00  0.00    -0.144 S 
ATOM     21  C   UNL A   1      31.107  27.110  26.874  1.00  0.00     0.017 A 
ENDBRANCH  15  16
ENDBRANCH  10  15
ENDBRANCH   8   9
ENDBRANCH   7   8
BRANCH   7  22
ATOM     22  C   UNL A   1      33.589  20.264  24.384  1.00  0.00     0.018 C 
BRANCH  22  23
ATOM     23  C   UNL A   1      33.238  18.766  24.259  1.00  0.00    -0.017 C 
ATOM     24  C   UNL A   1      32.471  18.462  22.966  1.00  0.00     0.007 C 
ATOM     25  C   UNL A   1      34.498  17.894  24.280  1.00  0.00     0.007 C 
ENDBRANCH  22  23
ENDBRANCH   7  22
ENDBRANCH   4   7
ENDBRANCH   2   3
ENDBRANCH   1   2
BRANCH   1  26
ATOM     26  C   UNL A   1      37.059  22.239  24.650  1.00  0.00     0.002 C 
BRANCH  26  27
ATOM     27  C   UNL A   1      37.068  20.804  24.106  1.00  0.00     0.002 C 
BRANCH  27  28
ATOM     28  C   UNL A   1      37.733  19.750  24.994  1.00  0.00     0.021 C 
BRANCH  28  29
ATOM     29  C   UNL A   1      38.971  20.220  25.745  1.00  0.00     0.116 C 
BRANCH  29  30
ATOM     30  N   UNL A   1      40.008  19.208  25.804  1.00  0.00    -0.352 N 
ATOM     31  C   UNL A   1      41.354  19.360  26.028  1.00  0.00     0.251 C 
ATOM     32  H   UNL A   1      39.705  18.283  25.663  1.00  0.00     0.163 HD
ATOM     33  O   UNL A   1      42.110  18.404  25.907  1.00  0.00    -0.269 OA
BRANCH  31  34
ATOM     34  C   UNL A   1      41.890  20.688  26.394  1.00  0.00     0.039 A 
ATOM     35  C   UNL A   1      42.199  21.590  25.374  1.00  0.00     0.014 A 
ATOM     36  C   UNL A   1      42.096  21.041  27.731  1.00  0.00     0.014 A 
ATOM     37  C   UNL A   1      42.681  22.858  25.695  1.00  0.00     0.010 A 
ATOM     38  C   UNL A   1      42.494  22.334  28.052  1.00  0.00     0.010 A 
ATOM     39  C   UNL A   1      42.812  23.248  27.038  1.00  0.00    -0.014 A 
BRANCH  39  40
ATOM     40  C   UNL A   1      43.326  24.594  27.399  1.00  0.00     0.031 A 
ATOM     41  C   UNL A   1      42.368  25.664  27.848  1.00  0.00     0.074 A 
ATOM     42  C   UNL A   1      44.639  24.865  27.283  1.00  0.00     0.049 A 
ATOM     43  N   UNL A   1      42.607  26.912  28.159  1.00  0.00    -0.248 NA
ATOM     44  C   UNL A   1      40.947  25.287  27.932  1.00  0.00     0.031 C 
ATOM     45  C   UNL A   1      45.662  23.924  26.825  1.00  0.00     0.029 A 
ATOM     46  N   UNL A   1      45.339  26.017  27.541  1.00  0.00    -0.354 N 
ATOM     47  C   UNL A   1      41.370  27.469  28.462  1.00  0.00     0.074 A 
ATOM     48  C   UNL A   1      40.377  26.443  28.231  1.00  0.00     0.031 C 
ATOM     49  C   UNL A   1      46.862  24.526  26.865  1.00  0.00     0.029 A 
ATOM     50  C   UNL A   1      46.688  25.905  27.310  1.00  0.00     0.049 A 
ATOM     51  H   UNL A   1      44.914  26.846  27.861  1.00  0.00     0.167 HD
ATOM     52  C   UNL A   1      41.089  28.711  28.921  1.00  0.00     0.037 A 
ATOM     53  C   UNL A   1      47.673  26.815  27.442  1.00  0.00     0.037 A 
ATOM     54  C   UNL A   1      42.083  29.723  29.165  1.00  0.00     0.049 A 
ATOM     55  C   UNL A   1      47.331  28.197  27.928  1.00  0.00     0.074 A 
ATOM     56  C   UNL A   1      41.908  31.000  29.668  1.00  0.00     0.029 A 
ATOM     57  N   UNL A   1      43.440  29.569  28.924  1.00  0.00    -0.354 N 
ATOM     58  N   UNL A   1      46.166  28.693  28.267  1.00  0.00    -0.248 NA
ATOM     59  C   UNL A   1      48.447  29.145  28.058  1.00  0.00     0.031 C 
ATOM     60  C   UNL A   1      43.153  31.638  29.680  1.00  0.00     0.029 A 
ATOM     61  C   UNL A   1      44.112  30.736  29.246  1.00  0.00     0.049 A 
ATOM     62  H   UNL A   1      43.863  28.753  28.573  1.00  0.00     0.167 HD
ATOM     63  C   UNL A   1      46.412  29.993  28.688  1.00  0.00     0.074 A 
ATOM     64  C   UNL A   1      47.840  30.205  28.570  1.00  0.00     0.031 C 
ATOM     65  C   UNL A   1      45.537  30.926  29.137  1.00  0.00     0.037 A 
BRANCH  52  66
ATOM     66  C   UNL A   1      39.647  29.038  29.187  1.00  0.00     0.057 A 
ATOM     67  C   UNL A   1      39.084  28.925  30.467  1.00  0.00     0.134 A 
ATOM     68  C   UNL A   1      38.811  29.486  28.155  1.00  0.00     0.134 A 
ATOM     69  F   UNL A   1      39.823  28.489  31.498  1.00  0.00    -0.206 F 
ATOM     70  C   UNL A   1      37.738  29.210  30.702  1.00  0.00     0.040 A 
ATOM     71  C   UNL A   1      37.472  29.806  28.386  1.00  0.00     0.040 A 
ATOM     72  F   UNL A   1      39.282  29.624  26.907  1.00  0.00    -0.206 F 
ATOM     73  C   UNL A   1      36.929  29.659  29.661  1.00  0.00     0.006 A 
ENDBRANCH  52  66
BRANCH  53  74
ATOM     74  C   UNL A   1      49.078  26.442  27.142  1.00  0.00     0.057 A 
ATOM     75  C   UNL A   1      49.587  26.535  25.841  1.00  0.00     0.134 A 
ATOM     76  C   UNL A   1      49.942  25.971  28.138  1.00  0.00     0.134 A 
ATOM     77  F   UNL A   1      48.804  26.964  24.839  1.00  0.00    -0.206 F 
ATOM     78  C   UNL A   1      50.894  26.149  25.536  1.00  0.00     0.040 A 
ATOM     79  C   UNL A   1      51.260  25.608  27.853  1.00  0.00     0.040 A 
ATOM     80  F   UNL A   1      49.520  25.867  29.407  1.00  0.00    -0.206 F 
ATOM     81  C   UNL A   1      51.735  25.688  26.546  1.00  0.00     0.006 A 
ENDBRANCH  53  74
BRANCH  65  82
ATOM     82  C   UNL A   1      46.103  32.243  29.590  1.00  0.00     0.057 A 
ATOM     83  C   UNL A   1      46.528  32.459  30.906  1.00  0.00     0.134 A 
ATOM     84  C   UNL A   1      46.257  33.296  28.680  1.00  0.00     0.134 A 
ATOM     85  F   UNL A   1      46.397  31.495  31.831  1.00  0.00    -0.206 F 
ATOM     86  C   UNL A   1      47.061  33.685  31.308  1.00  0.00     0.040 A 
ATOM     87  C   UNL A   1      46.818  34.515  29.061  1.00  0.00     0.040 A 
ATOM     88  F   UNL A   1      45.880  33.153  27.401  1.00  0.00    -0.206 F 
ATOM     89  C   UNL A   1      47.213  34.716  30.381  1.00  0.00     0.006 A 
ENDBRANCH  65  82
ENDBRANCH  39  40
ENDBRANCH  31  34
ENDBRANCH  29  30
ENDBRANCH  28  29
ENDBRANCH  27  28
ENDBRANCH  26  27
ENDBRANCH   1  26
TORSDOF 19
ENDMDL
MODEL 3
REMARK VINA RESULT:     -10.6      2.590      5.104
REMARK SMILES Cc1ccc(CNC(=O)NC[C@@H](CC(C)C)C(=O)NCCCCCCNC(=O)c2ccc(-c3c4nc(c(-c5c(F)cccc5F)c5ccc([nH]5)c(-c5c(F)cccc5F)c5nc(c(-c6c(F)cccc6F)c6ccc3[nH]6)C=C5)C=C4)cc2)s1
REMARK SMILES IDX 21 1 20 2 19 3 17 4 18 5 12 7 11 8 10 9 7 10 8 11 9 13 6 15
REMARK SMILES IDX 5 16 1 17 2 18 3 19 83 20 4 21 13 22 14 23 15 24 16 25 22 26
REMARK SMILES IDX 23 27 24 28 25 29 26 30 27 31 28 33 29 34 30 35 82 36 31 37
REMARK SMILES IDX 81 38 32 39 33 40 34 41 75 42 35 43 80 44 74 45 76 46 36 47
REMARK SMILES IDX 79 48 73 49 72 50 37 52 63 53 46 54 62 55 47 56 50 57 61 58
REMARK SMILES IDX 77 59 48 60 49 61 60 63 78 64 51 65 38 66 39 67 44 68 40 69
REMARK SMILES IDX 41 70 43 71 45 72 42 73 64 74 65 75 70 76 66 77 67 78 69 79
REMARK SMILES IDX 71 80 68 81 52 82 53 83 58 84 54 85 55 86 57 87 59 88 56 89
REMARK H PARENT 19 6 7 12 10 14 26 32 76 51 50 62
REMARK Flexibility Score: inf
ROOT
ATOM      1  C   UNL A   1      33.747  23.583  22.795  1.00  0.00     0.021 C 
ENDROOT
BRANCH   1   2
ATOM      2  C   UNL A   1      33.319  25.027  22.588  1.00  0.00     0.116 C 
BRANCH   2   3
ATOM      3  N   UNL A   1      31.954  25.281  22.994  1.00  0.00    -0.356 N 
ATOM      4  C   UNL A   1      31.447  25.778  24.153  1.00  0.00     0.224 C 
ATOM      5  O   UNL A   1      30.246  26.066  24.155  1.00  0.00    -0.275 OA
ATOM      6  H   UNL A   1      31.278  25.056  22.315  1.00  0.00     0.163 HD
BRANCH   4   7
ATOM      7  C   UNL A   1      32.284  26.009  25.408  1.00  0.00     0.098 C 
BRANCH   7   8
ATOM      8  C   UNL A   1      32.366  24.789  26.335  1.00  0.00     0.131 C 
BRANCH   8   9
ATOM      9  N   UNL A   1      31.063  24.334  26.788  1.00  0.00    -0.337 N 
ATOM     10  N   UNL A   1      30.964  22.058  26.168  1.00  0.00    -0.333 N 
ATOM     11  C   UNL A   1      30.541  23.101  26.889  1.00  0.00     0.315 C 
ATOM     12  H   UNL A   1      30.716  21.187  26.555  1.00  0.00     0.165 HD
ATOM     13  O   UNL A   1      29.625  22.926  27.695  1.00  0.00    -0.249 OA
ATOM     14  H   UNL A   1      30.457  25.056  27.070  1.00  0.00     0.165 HD
BRANCH  10  15
ATOM     15  C   UNL A   1      31.712  21.950  24.933  1.00  0.00     0.164 C 
BRANCH  15  16
ATOM     16  C   UNL A   1      32.279  20.567  24.777  1.00  0.00     0.024 A 
ATOM     17  C   UNL A   1      33.472  17.258  23.018  1.00  0.00     0.056 C 
ATOM     18  C   UNL A   1      33.090  18.389  23.910  1.00  0.00     0.002 A 
ATOM     19  C   UNL A   1      33.311  18.525  25.263  1.00  0.00     0.015 A 
ATOM     20  S   UNL A   1      32.265  19.743  23.270  1.00  0.00    -0.144 S 
ATOM     21  C   UNL A   1      32.843  19.776  25.762  1.00  0.00     0.017 A 
ENDBRANCH  15  16
ENDBRANCH  10  15
ENDBRANCH   8   9
ENDBRANCH   7   8
BRANCH   7  22
ATOM     22  C   UNL A   1      33.641  26.718  25.161  1.00  0.00     0.018 C 
BRANCH  22  23
ATOM     23  C   UNL A   1      33.764  28.203  25.563  1.00  0.00    -0.017 C 
ATOM     24  C   UNL A   1      32.726  29.078  24.849  1.00  0.00     0.007 C 
ATOM     25  C   UNL A   1      33.583  28.389  27.074  1.00  0.00     0.007 C 
ENDBRANCH  22  23
ENDBRANCH   7  22
ENDBRANCH   4   7
ENDBRANCH   2   3
ENDBRANCH   1   2
BRANCH   1  26
ATOM     26  C   UNL A   1      35.160  23.416  23.361  1.00  0.00     0.002 C 
BRANCH  26  27
ATOM     27  C   UNL A   1      35.365  22.240  24.325  1.00  0.00     0.002 C 
BRANCH  27  28
ATOM     28  C   UNL A   1      35.721  22.605  25.768  1.00  0.00     0.021 C 
BRANCH  28  29
ATOM     29  C   UNL A   1      37.077  23.273  25.953  1.00  0.00     0.116 C 
BRANCH  29  30
ATOM     30  N   UNL A   1      38.164  22.317  26.042  1.00  0.00    -0.352 N 
ATOM     31  C   UNL A   1      39.476  22.528  26.384  1.00  0.00     0.251 C 
ATOM     32  H   UNL A   1      37.928  21.386  25.827  1.00  0.00     0.163 HD
ATOM     33  O   UNL A   1      40.295  21.624  26.274  1.00  0.00    -0.269 OA
BRANCH  31  34
ATOM     34  C   UNL A   1      39.903  23.860  26.865  1.00  0.00     0.039 A 
ATOM     35  C   UNL A   1      40.103  24.877  25.929  1.00  0.00     0.014 A 
ATOM     36  C   UNL A   1      40.113  24.105  28.225  1.00  0.00     0.014 A 
ATOM     37  C   UNL A   1      40.480  26.148  26.360  1.00  0.00     0.010 A 
ATOM     38  C   UNL A   1      40.403  25.393  28.660  1.00  0.00     0.010 A 
ATOM     39  C   UNL A   1      40.612  26.422  27.731  1.00  0.00    -0.014 A 
BRANCH  39  40
ATOM     40  C   UNL A   1      41.014  27.769  28.209  1.00  0.00     0.031 A 
ATOM     41  C   UNL A   1      42.467  28.158  28.215  1.00  0.00     0.074 A 
ATOM     42  C   UNL A   1      40.083  28.623  28.674  1.00  0.00     0.049 A 
ATOM     43  N   UNL A   1      43.028  29.262  28.637  1.00  0.00    -0.248 NA
ATOM     44  C   UNL A   1      43.421  27.160  27.704  1.00  0.00     0.031 C 
ATOM     45  C   UNL A   1      38.647  28.350  28.753  1.00  0.00     0.029 A 
ATOM     46  N   UNL A   1      40.207  29.896  29.171  1.00  0.00    -0.354 N 
ATOM     47  C   UNL A   1      44.394  29.086  28.453  1.00  0.00     0.074 A 
ATOM     48  C   UNL A   1      44.583  27.744  27.948  1.00  0.00     0.031 C 
ATOM     49  C   UNL A   1      38.020  29.435  29.237  1.00  0.00     0.029 A 
ATOM     50  C   UNL A   1      39.012  30.461  29.542  1.00  0.00     0.049 A 
ATOM     51  H   UNL A   1      41.071  30.360  29.254  1.00  0.00     0.167 HD
ATOM     52  C   UNL A   1      45.399  29.971  28.657  1.00  0.00     0.037 A 
ATOM     53  C   UNL A   1      38.747  31.672  30.070  1.00  0.00     0.037 A 
ATOM     54  C   UNL A   1      45.204  31.310  29.145  1.00  0.00     0.049 A 
ATOM     55  C   UNL A   1      39.883  32.627  30.313  1.00  0.00     0.074 A 
ATOM     56  C   UNL A   1      46.149  32.300  29.349  1.00  0.00     0.029 A 
ATOM     57  N   UNL A   1      43.977  31.848  29.505  1.00  0.00    -0.354 N 
ATOM     58  N   UNL A   1      41.164  32.470  30.080  1.00  0.00    -0.248 NA
ATOM     59  C   UNL A   1      39.534  33.936  30.885  1.00  0.00     0.031 C 
ATOM     60  C   UNL A   1      45.501  33.418  29.883  1.00  0.00     0.029 A 
ATOM     61  C   UNL A   1      44.143  33.148  29.951  1.00  0.00     0.049 A 
ATOM     62  H   UNL A   1      43.116  31.374  29.453  1.00  0.00     0.167 HD
ATOM     63  C   UNL A   1      41.767  33.669  30.438  1.00  0.00     0.074 A 
ATOM     64  C   UNL A   1      40.710  34.547  30.894  1.00  0.00     0.031 C 
ATOM     65  C   UNL A   1      43.078  34.015  30.388  1.00  0.00     0.037 A 
BRANCH  52  66
ATOM     66  C   UNL A   1      46.796  29.511  28.351  1.00  0.00     0.057 A 
ATOM     67  C   UNL A   1      47.369  29.672  27.081  1.00  0.00     0.134 A 
ATOM     68  C   UNL A   1      47.586  28.911  29.341  1.00  0.00     0.134 A 
ATOM     69  F   UNL A   1      46.664  30.227  26.083  1.00  0.00    -0.206 F 
ATOM     70  C   UNL A   1      48.659  29.223  26.798  1.00  0.00     0.040 A 
ATOM     71  C   UNL A   1      48.891  28.489  29.078  1.00  0.00     0.040 A 
ATOM     72  F   UNL A   1      47.107  28.730  30.580  1.00  0.00    -0.206 F 
ATOM     73  C   UNL A   1      49.428  28.635  27.800  1.00  0.00     0.006 A 
ENDBRANCH  52  66
BRANCH  53  74
ATOM     74  C   UNL A   1      37.348  32.064  30.375  1.00  0.00     0.057 A 
ATOM     75  C   UNL A   1      36.576  32.767  29.441  1.00  0.00     0.134 A 
ATOM     76  C   UNL A   1      36.751  31.761  31.605  1.00  0.00     0.134 A 
ATOM     77  F   UNL A   1      37.096  33.101  28.250  1.00  0.00    -0.206 F 
ATOM     78  C   UNL A   1      35.273  33.178  29.729  1.00  0.00     0.040 A 
ATOM     79  C   UNL A   1      35.440  32.142  31.895  1.00  0.00     0.040 A 
ATOM     80  F   UNL A   1      37.433  31.082  32.539  1.00  0.00    -0.206 F 
ATOM     81  C   UNL A   1      34.701  32.861  30.958  1.00  0.00     0.006 A 
ENDBRANCH  53  74
BRANCH  65  82
ATOM     82  C   UNL A   1      43.436  35.420  30.782  1.00  0.00     0.057 A 
ATOM     83  C   UNL A   1      43.567  36.449  29.842  1.00  0.00     0.134 A 
ATOM     84  C   UNL A   1      43.616  35.751  32.132  1.00  0.00     0.134 A 
ATOM     85  F   UNL A   1      43.419  36.197  28.532  1.00  0.00    -0.206 F 
ATOM     86  C   UNL A   1      43.892  37.751  30.227  1.00  0.00     0.040 A 
ATOM     87  C   UNL A   1      43.909  37.055  32.531  1.00  0.00     0.040 A 
ATOM     88  F   UNL A   1      43.494  34.816  33.085  1.00  0.00    -0.206 F 
ATOM     89  C   UNL A   1      44.056  38.058  31.577  1.00  0.00     0.006 A 
ENDBRANCH  65  82
ENDBRANCH  39  40
ENDBRANCH  31  34
ENDBRANCH  29  30
ENDBRANCH  28  29
ENDBRANCH  27  28
ENDBRANCH  26  27
ENDBRANCH   1  26
TORSDOF 19
ENDMDL
