MODEL 1
REMARK VINA RESULT:     -11.0      0.000      0.000
REMARK SMILES O=C(NCCCCCCNC(=O)[C@@]1(c2ccccc2)CCCC[NH2+]1)c1ccc(-c2c3nc(c(-c4c(F)cccc4F)c4ccc([nH]4)c(-c4c(F)cccc4F)c4nc(c(-c5c(F)cccc5F)c5ccc2[nH]5)C=C4)C=C3)cc1
REMARK SMILES IDX 6 1 5 2 4 3 3 4 1 5 2 6 25 8 26 9 78 10 27 11 77 12 28 13
REMARK SMILES IDX 29 14 30 15 71 16 31 17 76 18 70 19 72 20 32 21 75 22 69 23
REMARK SMILES IDX 68 24 33 26 59 27 42 28 58 29 43 30 46 31 57 32 73 33 44 34
REMARK SMILES IDX 45 35 56 37 74 38 47 39 34 40 35 41 40 42 36 43 37 44 39 45
REMARK SMILES IDX 41 46 38 47 60 48 61 49 66 50 62 51 63 52 65 53 67 54 64 55
REMARK SMILES IDX 48 56 49 57 54 58 50 59 51 60 53 61 55 62 52 63 7 64 8 65
REMARK SMILES IDX 9 66 10 67 11 68 12 70 13 71 20 72 24 73 21 74 23 75 22 78
REMARK SMILES IDX 14 79 15 80 19 81 16 82 18 83 17 84
REMARK H PARENT 3 7 72 25 46 36 10 69 24 76 24 77
REMARK Flexibility Score: inf
ROOT
ATOM      1  C   UNL A   1      36.377  20.343  24.982  1.00  0.00     0.002 C 
ENDROOT
BRANCH   1   2
ATOM      2  C   UNL A   1      37.712  19.622  24.799  1.00  0.00     0.021 C 
BRANCH   2   3
ATOM      3  C   UNL A   1      38.848  20.177  25.648  1.00  0.00     0.116 C 
BRANCH   3   4
ATOM      4  N   UNL A   1      39.957  19.246  25.760  1.00  0.00    -0.352 N 
ATOM      5  O   UNL A   1      42.127  18.653  25.987  1.00  0.00    -0.269 OA
ATOM      6  C   UNL A   1      41.262  19.508  26.106  1.00  0.00     0.251 C 
ATOM      7  H   UNL A   1      39.747  18.304  25.564  1.00  0.00     0.163 HD
BRANCH   6   8
ATOM      8  C   UNL A   1      41.608  20.854  26.611  1.00  0.00     0.039 A 
ATOM      9  C   UNL A   1      41.994  21.857  25.720  1.00  0.00     0.014 A 
ATOM     10  C   UNL A   1      41.557  21.107  27.984  1.00  0.00     0.014 A 
ATOM     11  C   UNL A   1      42.450  23.073  26.210  1.00  0.00     0.010 A 
ATOM     12  C   UNL A   1      41.927  22.364  28.469  1.00  0.00     0.010 A 
ATOM     13  C   UNL A   1      42.392  23.351  27.586  1.00  0.00    -0.014 A 
BRANCH  13  14
ATOM     14  C   UNL A   1      42.724  24.722  28.048  1.00  0.00     0.031 A 
ATOM     15  C   UNL A   1      41.663  25.759  28.273  1.00  0.00     0.074 A 
ATOM     16  C   UNL A   1      44.018  25.001  28.303  1.00  0.00     0.049 A 
ATOM     17  N   UNL A   1      41.797  26.984  28.714  1.00  0.00    -0.248 NA
ATOM     18  C   UNL A   1      40.277  25.382  27.962  1.00  0.00     0.031 C 
ATOM     19  C   UNL A   1      45.134  24.072  28.098  1.00  0.00     0.029 A 
ATOM     20  N   UNL A   1      44.613  26.125  28.812  1.00  0.00    -0.354 N 
ATOM     21  C   UNL A   1      40.519  27.529  28.724  1.00  0.00     0.074 A 
ATOM     22  C   UNL A   1      39.624  26.509  28.220  1.00  0.00     0.031 C 
ATOM     23  C   UNL A   1      46.267  24.643  28.530  1.00  0.00     0.029 A 
ATOM     24  C   UNL A   1      45.970  25.997  28.977  1.00  0.00     0.049 A 
ATOM     25  H   UNL A   1      44.116  26.944  29.038  1.00  0.00     0.167 HD
ATOM     26  C   UNL A   1      40.134  28.764  29.125  1.00  0.00     0.037 A 
ATOM     27  C   UNL A   1      46.882  26.878  29.424  1.00  0.00     0.037 A 
ATOM     28  C   UNL A   1      41.033  29.772  29.630  1.00  0.00     0.049 A 
ATOM     29  C   UNL A   1      46.423  28.242  29.844  1.00  0.00     0.074 A 
ATOM     30  C   UNL A   1      40.736  31.049  30.078  1.00  0.00     0.029 A 
ATOM     31  N   UNL A   1      42.406  29.617  29.755  1.00  0.00    -0.354 N 
ATOM     32  N   UNL A   1      45.207  28.731  29.871  1.00  0.00    -0.248 NA
ATOM     33  C   UNL A   1      47.462  29.178  30.291  1.00  0.00     0.031 C 
ATOM     34  C   UNL A   1      41.933  31.679  30.436  1.00  0.00     0.029 A 
ATOM     35  C   UNL A   1      42.971  30.780  30.256  1.00  0.00     0.049 A 
ATOM     36  H   UNL A   1      42.906  28.802  29.522  1.00  0.00     0.167 HD
ATOM     37  C   UNL A   1      45.334  30.029  30.344  1.00  0.00     0.074 A 
ATOM     38  C   UNL A   1      46.740  30.238  30.624  1.00  0.00     0.031 C 
ATOM     39  C   UNL A   1      44.374  30.969  30.521  1.00  0.00     0.037 A 
BRANCH  26  40
ATOM     40  C   UNL A   1      38.676  29.109  29.031  1.00  0.00     0.057 A 
ATOM     41  C   UNL A   1      37.823  29.013  30.137  1.00  0.00     0.134 A 
ATOM     42  C   UNL A   1      38.134  29.612  27.840  1.00  0.00     0.134 A 
ATOM     43  F   UNL A   1      38.274  28.530  31.304  1.00  0.00    -0.206 F 
ATOM     44  C   UNL A   1      36.481  29.397  30.061  1.00  0.00     0.040 A 
ATOM     45  C   UNL A   1      36.801  30.019  27.757  1.00  0.00     0.040 A 
ATOM     46  F   UNL A   1      38.898  29.737  26.744  1.00  0.00    -0.206 F 
ATOM     47  C   UNL A   1      35.970  29.909  28.870  1.00  0.00     0.006 A 
ENDBRANCH  26  40
BRANCH  27  48
ATOM     48  C   UNL A   1      48.316  26.500  29.476  1.00  0.00     0.057 A 
ATOM     49  C   UNL A   1      48.857  25.849  30.590  1.00  0.00     0.134 A 
ATOM     50  C   UNL A   1      49.181  26.786  28.412  1.00  0.00     0.134 A 
ATOM     51  F   UNL A   1      48.082  25.563  31.646  1.00  0.00    -0.206 F 
ATOM     52  C   UNL A   1      50.211  25.514  30.653  1.00  0.00     0.040 A 
ATOM     53  C   UNL A   1      50.528  26.429  28.448  1.00  0.00     0.040 A 
ATOM     54  F   UNL A   1      48.721  27.399  27.311  1.00  0.00    -0.206 F 
ATOM     55  C   UNL A   1      51.049  25.799  29.576  1.00  0.00     0.006 A 
ENDBRANCH  27  48
BRANCH  39  56
ATOM     56  C   UNL A   1      44.825  32.295  31.054  1.00  0.00     0.057 A 
ATOM     57  C   UNL A   1      44.890  32.551  32.430  1.00  0.00     0.134 A 
ATOM     58  C   UNL A   1      45.195  33.328  30.184  1.00  0.00     0.134 A 
ATOM     59  F   UNL A   1      44.532  31.608  33.315  1.00  0.00    -0.206 F 
ATOM     60  C   UNL A   1      45.276  33.800  32.921  1.00  0.00     0.040 A 
ATOM     61  C   UNL A   1      45.608  34.571  30.664  1.00  0.00     0.040 A 
ATOM     62  F   UNL A   1      45.160  33.145  28.855  1.00  0.00    -0.206 F 
ATOM     63  C   UNL A   1      45.639  34.813  32.035  1.00  0.00     0.006 A 
ENDBRANCH  39  56
ENDBRANCH  13  14
ENDBRANCH   6   8
ENDBRANCH   3   4
ENDBRANCH   2   3
ENDBRANCH   1   2
BRANCH   1  64
ATOM     64  C   UNL A   1      36.376  21.812  24.554  1.00  0.00     0.002 C 
BRANCH  64  65
ATOM     65  C   UNL A   1      36.219  22.824  25.697  1.00  0.00     0.021 C 
BRANCH  65  66
ATOM     66  C   UNL A   1      35.463  24.098  25.308  1.00  0.00     0.116 C 
BRANCH  66  67
ATOM     67  N   UNL A   1      34.158  24.109  25.929  1.00  0.00    -0.350 N 
ATOM     68  C   UNL A   1      32.892  23.880  25.492  1.00  0.00     0.286 C 
ATOM     69  H   UNL A   1      34.195  24.333  26.888  1.00  0.00     0.163 HD
ATOM     70  O   UNL A   1      32.025  24.168  26.333  1.00  0.00    -0.267 OA
BRANCH  68  71
ATOM     71  C   UNL A   1      32.494  23.177  24.129  1.00  0.00     0.201 C 
ATOM     72  C   UNL A   1      31.008  23.557  23.829  1.00  0.00     0.085 C 
ATOM     73  N   UNL A   1      33.288  23.611  22.954  1.00  0.00    -0.330 N 
ATOM     74  C   UNL A   1      30.838  25.042  23.484  1.00  0.00     0.013 C 
ATOM     75  C   UNL A   1      33.200  25.024  22.636  1.00  0.00     0.261 C 
ATOM     76  H   UNL A   1      32.964  23.084  22.143  1.00  0.00     0.347 HD
ATOM     77  H   UNL A   1      34.264  23.434  23.191  1.00  0.00     0.347 HD
ATOM     78  C   UNL A   1      31.766  25.439  22.343  1.00  0.00     0.062 C 
BRANCH  71  79
ATOM     79  C   UNL A   1      32.577  21.634  24.257  1.00  0.00     0.022 A 
ATOM     80  C   UNL A   1      32.377  20.823  23.119  1.00  0.00     0.011 A 
ATOM     81  C   UNL A   1      32.800  20.980  25.482  1.00  0.00     0.011 A 
ATOM     82  C   UNL A   1      32.394  19.429  23.204  1.00  0.00     0.001 A 
ATOM     83  C   UNL A   1      32.825  19.584  25.565  1.00  0.00     0.001 A 
ATOM     84  C   UNL A   1      32.618  18.809  24.428  1.00  0.00     0.000 A 
ENDBRANCH  71  79
ENDBRANCH  68  71
ENDBRANCH  66  67
ENDBRANCH  65  66
ENDBRANCH  64  65
ENDBRANCH   1  64
TORSDOF 14
ENDMDL
MODEL 2
REMARK VINA RESULT:     -11.0      4.585      9.010
REMARK SMILES O=C(NCCCCCCNC(=O)[C@@]1(c2ccccc2)CCCC[NH2+]1)c1ccc(-c2c3nc(c(-c4c(F)cccc4F)c4ccc([nH]4)c(-c4c(F)cccc4F)c4nc(c(-c5c(F)cccc5F)c5ccc2[nH]5)C=C4)C=C3)cc1
REMARK SMILES IDX 6 1 5 2 4 3 3 4 1 5 2 6 25 8 26 9 78 10 27 11 77 12 28 13
REMARK SMILES IDX 29 14 30 15 71 16 31 17 76 18 70 19 72 20 32 21 75 22 69 23
REMARK SMILES IDX 68 24 33 26 59 27 42 28 58 29 43 30 46 31 57 32 73 33 44 34
REMARK SMILES IDX 45 35 56 37 74 38 47 39 34 40 35 41 40 42 36 43 37 44 39 45
REMARK SMILES IDX 41 46 38 47 60 48 61 49 66 50 62 51 63 52 65 53 67 54 64 55
REMARK SMILES IDX 48 56 49 57 54 58 50 59 51 60 53 61 55 62 52 63 7 64 8 65
REMARK SMILES IDX 9 66 10 67 11 68 12 70 13 71 20 72 24 73 21 74 23 75 22 78
REMARK SMILES IDX 14 79 15 80 19 81 16 82 18 83 17 84
REMARK H PARENT 3 7 72 25 46 36 10 69 24 76 24 77
REMARK Flexibility Score: inf
ROOT
ATOM      1  C   UNL A   1      31.379  30.558  25.657  1.00  0.00     0.002 C 
ENDROOT
BRANCH   1   2
ATOM      2  C   UNL A   1      31.178  31.886  26.383  1.00  0.00     0.021 C 
BRANCH   2   3
ATOM      3  C   UNL A   1      32.424  32.419  27.077  1.00  0.00     0.116 C 
BRANCH   3   4
ATOM      4  N   UNL A   1      32.292  33.816  27.453  1.00  0.00    -0.352 N 
ATOM      5  O   UNL A   1      32.668  35.646  28.725  1.00  0.00    -0.269 OA
ATOM      6  C   UNL A   1      33.008  34.521  28.391  1.00  0.00     0.251 C 
ATOM      7  H   UNL A   1      31.600  34.324  26.972  1.00  0.00     0.163 HD
BRANCH   6   8
ATOM      8  C   UNL A   1      34.194  33.887  29.005  1.00  0.00     0.039 A 
ATOM      9  C   UNL A   1      34.037  32.815  29.886  1.00  0.00     0.014 A 
ATOM     10  C   UNL A   1      35.468  34.377  28.706  1.00  0.00     0.014 A 
ATOM     11  C   UNL A   1      35.140  32.316  30.564  1.00  0.00     0.010 A 
ATOM     12  C   UNL A   1      36.588  33.810  29.320  1.00  0.00     0.010 A 
ATOM     13  C   UNL A   1      36.430  32.786  30.266  1.00  0.00    -0.014 A 
BRANCH  13  14
ATOM     14  C   UNL A   1      37.594  32.106  30.885  1.00  0.00     0.031 A 
ATOM     15  C   UNL A   1      38.019  32.393  32.296  1.00  0.00     0.074 A 
ATOM     16  C   UNL A   1      38.245  31.182  30.151  1.00  0.00     0.049 A 
ATOM     17  N   UNL A   1      38.989  31.849  32.986  1.00  0.00    -0.248 NA
ATOM     18  C   UNL A   1      37.267  33.423  33.028  1.00  0.00     0.031 C 
ATOM     19  C   UNL A   1      37.929  30.839  28.760  1.00  0.00     0.029 A 
ATOM     20  N   UNL A   1      39.280  30.343  30.470  1.00  0.00    -0.354 N 
ATOM     21  C   UNL A   1      38.974  32.473  34.226  1.00  0.00     0.074 A 
ATOM     22  C   UNL A   1      37.913  33.457  34.187  1.00  0.00     0.031 C 
ATOM     23  C   UNL A   1      38.714  29.826  28.366  1.00  0.00     0.029 A 
ATOM     24  C   UNL A   1      39.631  29.494  29.449  1.00  0.00     0.049 A 
ATOM     25  H   UNL A   1      39.728  30.348  31.346  1.00  0.00     0.167 HD
ATOM     26  C   UNL A   1      39.769  32.237  35.297  1.00  0.00     0.037 A 
ATOM     27  C   UNL A   1      40.596  28.561  29.382  1.00  0.00     0.037 A 
ATOM     28  C   UNL A   1      40.820  31.250  35.328  1.00  0.00     0.049 A 
ATOM     29  C   UNL A   1      41.468  28.337  30.581  1.00  0.00     0.074 A 
ATOM     30  C   UNL A   1      41.669  30.924  36.372  1.00  0.00     0.029 A 
ATOM     31  N   UNL A   1      41.166  30.429  34.264  1.00  0.00    -0.354 N 
ATOM     32  N   UNL A   1      41.422  28.919  31.755  1.00  0.00    -0.248 NA
ATOM     33  C   UNL A   1      42.529  27.331  30.444  1.00  0.00     0.031 C 
ATOM     34  C   UNL A   1      42.553  29.935  35.928  1.00  0.00     0.029 A 
ATOM     35  C   UNL A   1      42.226  29.610  34.622  1.00  0.00     0.049 A 
ATOM     36  H   UNL A   1      40.724  30.428  33.385  1.00  0.00     0.167 HD
ATOM     37  C   UNL A   1      42.442  28.345  32.499  1.00  0.00     0.074 A 
ATOM     38  C   UNL A   1      43.066  27.346  31.655  1.00  0.00     0.031 C 
ATOM     39  C   UNL A   1      42.836  28.627  33.765  1.00  0.00     0.037 A 
BRANCH  26  40
ATOM     40  C   UNL A   1      39.545  33.061  36.532  1.00  0.00     0.057 A 
ATOM     41  C   UNL A   1      40.208  34.277  36.736  1.00  0.00     0.134 A 
ATOM     42  C   UNL A   1      38.600  32.673  37.491  1.00  0.00     0.134 A 
ATOM     43  F   UNL A   1      41.133  34.703  35.862  1.00  0.00    -0.206 F 
ATOM     44  C   UNL A   1      39.948  35.073  37.855  1.00  0.00     0.040 A 
ATOM     45  C   UNL A   1      38.315  33.470  38.602  1.00  0.00     0.040 A 
ATOM     46  F   UNL A   1      37.922  31.523  37.353  1.00  0.00    -0.206 F 
ATOM     47  C   UNL A   1      38.992  34.673  38.787  1.00  0.00     0.006 A 
ENDBRANCH  26  40
BRANCH  27  48
ATOM     48  C   UNL A   1      40.795  27.788  28.131  1.00  0.00     0.057 A 
ATOM     49  C   UNL A   1      41.605  28.272  27.098  1.00  0.00     0.134 A 
ATOM     50  C   UNL A   1      40.175  26.547  27.938  1.00  0.00     0.134 A 
ATOM     51  F   UNL A   1      42.212  29.462  27.218  1.00  0.00    -0.206 F 
ATOM     52  C   UNL A   1      41.776  27.559  25.910  1.00  0.00     0.040 A 
ATOM     53  C   UNL A   1      40.362  25.810  26.770  1.00  0.00     0.040 A 
ATOM     54  F   UNL A   1      39.394  26.024  28.895  1.00  0.00    -0.206 F 
ATOM     55  C   UNL A   1      41.157  26.321  25.747  1.00  0.00     0.006 A 
ENDBRANCH  27  48
BRANCH  39  56
ATOM     56  C   UNL A   1      43.984  27.828  34.303  1.00  0.00     0.057 A 
ATOM     57  C   UNL A   1      43.791  26.584  34.918  1.00  0.00     0.134 A 
ATOM     58  C   UNL A   1      45.296  28.308  34.210  1.00  0.00     0.134 A 
ATOM     59  F   UNL A   1      42.556  26.078  35.054  1.00  0.00    -0.206 F 
ATOM     60  C   UNL A   1      44.859  25.861  35.450  1.00  0.00     0.040 A 
ATOM     61  C   UNL A   1      46.375  27.582  34.714  1.00  0.00     0.040 A 
ATOM     62  F   UNL A   1      45.550  29.491  33.627  1.00  0.00    -0.206 F 
ATOM     63  C   UNL A   1      46.157  26.359  35.346  1.00  0.00     0.006 A 
ENDBRANCH  39  56
ENDBRANCH  13  14
ENDBRANCH   6   8
ENDBRANCH   3   4
ENDBRANCH   2   3
ENDBRANCH   1   2
BRANCH   1  64
ATOM     64  C   UNL A   1      32.485  29.671  26.234  1.00  0.00     0.002 C 
BRANCH  64  65
ATOM     65  C   UNL A   1      32.006  28.344  26.841  1.00  0.00     0.021 C 
BRANCH  65  66
ATOM     66  C   UNL A   1      32.885  27.141  26.488  1.00  0.00     0.116 C 
BRANCH  66  67
ATOM     67  N   UNL A   1      32.064  25.965  26.306  1.00  0.00    -0.350 N 
ATOM     68  C   UNL A   1      31.409  25.414  25.251  1.00  0.00     0.286 C 
ATOM     69  H   UNL A   1      31.956  25.445  27.135  1.00  0.00     0.163 HD
ATOM     70  O   UNL A   1      30.665  24.473  25.575  1.00  0.00    -0.267 OA
BRANCH  68  71
ATOM     71  C   UNL A   1      31.634  25.776  23.726  1.00  0.00     0.201 C 
ATOM     72  C   UNL A   1      33.157  26.072  23.539  1.00  0.00     0.085 C 
ATOM     73  N   UNL A   1      31.293  24.690  22.775  1.00  0.00    -0.330 N 
ATOM     74  C   UNL A   1      34.024  24.818  23.700  1.00  0.00     0.013 C 
ATOM     75  C   UNL A   1      32.052  23.464  22.939  1.00  0.00     0.261 C 
ATOM     76  H   UNL A   1      31.454  25.038  21.829  1.00  0.00     0.347 HD
ATOM     77  H   UNL A   1      30.320  24.448  22.959  1.00  0.00     0.347 HD
ATOM     78  C   UNL A   1      33.544  23.709  22.771  1.00  0.00     0.062 C 
BRANCH  71  79
ATOM     79  C   UNL A   1      30.848  27.055  23.339  1.00  0.00     0.022 A 
ATOM     80  C   UNL A   1      29.448  27.100  23.514  1.00  0.00     0.011 A 
ATOM     81  C   UNL A   1      31.460  28.184  22.765  1.00  0.00     0.011 A 
ATOM     82  C   UNL A   1      28.699  28.215  23.130  1.00  0.00     0.001 A 
ATOM     83  C   UNL A   1      30.711  29.304  22.389  1.00  0.00     0.001 A 
ATOM     84  C   UNL A   1      29.332  29.318  22.567  1.00  0.00     0.000 A 
ENDBRANCH  71  79
ENDBRANCH  68  71
ENDBRANCH  66  67
ENDBRANCH  65  66
ENDBRANCH  64  65
ENDBRANCH   1  64
TORSDOF 14
ENDMDL
MODEL 3
REMARK VINA RESULT:     -11.0      4.529      8.964
REMARK SMILES O=C(NCCCCCCNC(=O)[C@@]1(c2ccccc2)CCCC[NH2+]1)c1ccc(-c2c3nc(c(-c4c(F)cccc4F)c4ccc([nH]4)c(-c4c(F)cccc4F)c4nc(c(-c5c(F)cccc5F)c5ccc2[nH]5)C=C4)C=C3)cc1
REMARK SMILES IDX 6 1 5 2 4 3 3 4 1 5 2 6 25 8 26 9 78 10 27 11 77 12 28 13
REMARK SMILES IDX 29 14 30 15 71 16 31 17 76 18 70 19 72 20 32 21 75 22 69 23
REMARK SMILES IDX 68 24 33 26 59 27 42 28 58 29 43 30 46 31 57 32 73 33 44 34
REMARK SMILES IDX 45 35 56 37 74 38 47 39 34 40 35 41 40 42 36 43 37 44 39 45
REMARK SMILES IDX 41 46 38 47 60 48 61 49 66 50 62 51 63 52 65 53 67 54 64 55
REMARK SMILES IDX 48 56 49 57 54 58 50 59 51 60 53 61 55 62 52 63 7 64 8 65
REMARK SMILES IDX 9 66 10 67 11 68 12 70 13 71 20 72 24 73 21 74 23 75 22 78
REMARK SMILES IDX 14 79 15 80 19 81 16 82 18 83 17 84
REMARK H PARENT 3 7 72 25 46 36 10 69 24 76 24 77
REMARK Flexibility Score: inf
ROOT
ATOM      1  C   UNL A   1      31.368  30.930  25.944  1.00  0.00     0.002 C 
ENDROOT
BRANCH   1   2
ATOM      2  C   UNL A   1      31.299  32.342  26.521  1.00  0.00     0.021 C 
BRANCH   2   3
ATOM      3  C   UNL A   1      32.559  32.784  27.254  1.00  0.00     0.116 C 
BRANCH   3   4
ATOM      4  N   UNL A   1      32.489  34.171  27.682  1.00  0.00    -0.352 N 
ATOM      5  O   UNL A   1      32.947  35.934  29.021  1.00  0.00    -0.269 OA
ATOM      6  C   UNL A   1      33.236  34.807  28.645  1.00  0.00     0.251 C 
ATOM      7  H   UNL A   1      31.822  34.728  27.220  1.00  0.00     0.163 HD
BRANCH   6   8
ATOM      8  C   UNL A   1      34.391  34.097  29.235  1.00  0.00     0.039 A 
ATOM      9  C   UNL A   1      35.691  34.458  28.875  1.00  0.00     0.014 A 
ATOM     10  C   UNL A   1      34.170  33.060  30.144  1.00  0.00     0.014 A 
ATOM     11  C   UNL A   1      36.764  33.700  29.325  1.00  0.00     0.010 A 
ATOM     12  C   UNL A   1      35.257  32.358  30.670  1.00  0.00     0.010 A 
ATOM     13  C   UNL A   1      36.562  32.663  30.251  1.00  0.00    -0.014 A 
BRANCH  13  14
ATOM     14  C   UNL A   1      37.749  31.993  30.838  1.00  0.00     0.031 A 
ATOM     15  C   UNL A   1      38.223  32.301  32.228  1.00  0.00     0.074 A 
ATOM     16  C   UNL A   1      38.374  31.060  30.094  1.00  0.00     0.049 A 
ATOM     17  N   UNL A   1      39.219  31.768  32.890  1.00  0.00    -0.248 NA
ATOM     18  C   UNL A   1      37.496  33.339  32.973  1.00  0.00     0.031 C 
ATOM     19  C   UNL A   1      38.010  30.698  28.720  1.00  0.00     0.029 A 
ATOM     20  N   UNL A   1      39.422  30.228  30.387  1.00  0.00    -0.354 N 
ATOM     21  C   UNL A   1      39.246  32.409  34.122  1.00  0.00     0.074 A 
ATOM     22  C   UNL A   1      38.183  33.391  34.107  1.00  0.00     0.031 C 
ATOM     23  C   UNL A   1      38.782  29.680  28.312  1.00  0.00     0.029 A 
ATOM     24  C   UNL A   1      39.738  29.365  29.366  1.00  0.00     0.049 A 
ATOM     25  H   UNL A   1      39.902  30.246  31.246  1.00  0.00     0.167 HD
ATOM     26  C   UNL A   1      40.080  32.189  35.167  1.00  0.00     0.037 A 
ATOM     27  C   UNL A   1      40.701  28.432  29.277  1.00  0.00     0.037 A 
ATOM     28  C   UNL A   1      41.134  31.205  35.173  1.00  0.00     0.049 A 
ATOM     29  C   UNL A   1      41.617  28.226  30.447  1.00  0.00     0.074 A 
ATOM     30  C   UNL A   1      42.021  30.895  36.191  1.00  0.00     0.029 A 
ATOM     31  N   UNL A   1      41.443  30.370  34.109  1.00  0.00    -0.354 N 
ATOM     32  N   UNL A   1      41.612  28.824  31.613  1.00  0.00    -0.248 NA
ATOM     33  C   UNL A   1      42.674  27.220  30.287  1.00  0.00     0.031 C 
ATOM     34  C   UNL A   1      42.889  29.901  35.729  1.00  0.00     0.029 A 
ATOM     35  C   UNL A   1      42.517  29.557  34.440  1.00  0.00     0.049 A 
ATOM     36  H   UNL A   1      40.969  30.356  33.246  1.00  0.00     0.167 HD
ATOM     37  C   UNL A   1      42.659  28.263  32.329  1.00  0.00     0.074 A 
ATOM     38  C   UNL A   1      43.254  27.253  31.477  1.00  0.00     0.031 C 
ATOM     39  C   UNL A   1      43.098  28.563  33.575  1.00  0.00     0.037 A 
BRANCH  26  40
ATOM     40  C   UNL A   1      39.899  33.031  36.397  1.00  0.00     0.057 A 
ATOM     41  C   UNL A   1      38.996  32.676  37.406  1.00  0.00     0.134 A 
ATOM     42  C   UNL A   1      40.689  34.168  36.609  1.00  0.00     0.134 A 
ATOM     43  F   UNL A   1      38.201  31.604  37.262  1.00  0.00    -0.206 F 
ATOM     44  C   UNL A   1      38.878  33.427  38.578  1.00  0.00     0.040 A 
ATOM     45  C   UNL A   1      40.596  34.915  37.786  1.00  0.00     0.040 A 
ATOM     46  F   UNL A   1      41.580  34.560  35.686  1.00  0.00    -0.206 F 
ATOM     47  C   UNL A   1      39.686  34.545  38.774  1.00  0.00     0.006 A 
ENDBRANCH  26  40
BRANCH  27  48
ATOM     48  C   UNL A   1      40.857  27.642  28.031  1.00  0.00     0.057 A 
ATOM     49  C   UNL A   1      40.228  26.402  27.873  1.00  0.00     0.134 A 
ATOM     50  C   UNL A   1      41.644  28.107  26.970  1.00  0.00     0.134 A 
ATOM     51  F   UNL A   1      39.475  25.897  28.860  1.00  0.00    -0.206 F 
ATOM     52  C   UNL A   1      40.392  25.644  26.712  1.00  0.00     0.040 A 
ATOM     53  C   UNL A   1      41.791  27.376  25.793  1.00  0.00     0.040 A 
ATOM     54  F   UNL A   1      42.265  29.294  27.057  1.00  0.00    -0.206 F 
ATOM     55  C   UNL A   1      41.171  26.135  25.666  1.00  0.00     0.006 A 
ENDBRANCH  27  48
BRANCH  39  56
ATOM     56  C   UNL A   1      44.266  27.774  34.084  1.00  0.00     0.057 A 
ATOM     57  C   UNL A   1      44.096  26.549  34.741  1.00  0.00     0.134 A 
ATOM     58  C   UNL A   1      45.574  28.244  33.916  1.00  0.00     0.134 A 
ATOM     59  F   UNL A   1      42.866  26.053  34.948  1.00  0.00    -0.206 F 
ATOM     60  C   UNL A   1      45.185  25.835  35.245  1.00  0.00     0.040 A 
ATOM     61  C   UNL A   1      46.672  27.526  34.391  1.00  0.00     0.040 A 
ATOM     62  F   UNL A   1      45.806  29.407  33.288  1.00  0.00    -0.206 F 
ATOM     63  C   UNL A   1      46.478  26.323  35.067  1.00  0.00     0.006 A 
ENDBRANCH  39  56
ENDBRANCH  13  14
ENDBRANCH   6   8
ENDBRANCH   3   4
ENDBRANCH   2   3
ENDBRANCH   1   2
BRANCH   1  64
ATOM     64  C   UNL A   1      32.370  30.001  26.634  1.00  0.00     0.002 C 
BRANCH  64  65
ATOM     65  C   UNL A   1      31.763  28.739  27.263  1.00  0.00     0.021 C 
BRANCH  65  66
ATOM     66  C   UNL A   1      32.379  27.430  26.760  1.00  0.00     0.116 C 
BRANCH  66  67
ATOM     67  N   UNL A   1      31.416  26.357  26.866  1.00  0.00    -0.350 N 
ATOM     68  C   UNL A   1      30.603  25.716  25.987  1.00  0.00     0.286 C 
ATOM     69  H   UNL A   1      31.330  26.013  27.785  1.00  0.00     0.163 HD
ATOM     70  O   UNL A   1      29.792  24.953  26.537  1.00  0.00    -0.267 OA
BRANCH  68  71
ATOM     71  C   UNL A   1      30.720  25.766  24.408  1.00  0.00     0.201 C 
ATOM     72  C   UNL A   1      32.236  25.917  24.059  1.00  0.00     0.085 C 
ATOM     73  N   UNL A   1      30.244  24.545  23.713  1.00  0.00    -0.330 N 
ATOM     74  C   UNL A   1      33.045  24.659  24.398  1.00  0.00     0.013 C 
ATOM     75  C   UNL A   1      30.947  23.324  24.057  1.00  0.00     0.261 C 
ATOM     76  H   UNL A   1      30.344  24.695  22.708  1.00  0.00     0.347 HD
ATOM     77  H   UNL A   1      29.277  24.409  24.009  1.00  0.00     0.347 HD
ATOM     78  C   UNL A   1      32.431  23.430  23.739  1.00  0.00     0.062 C 
BRANCH  71  79
ATOM     79  C   UNL A   1      29.974  26.999  23.837  1.00  0.00     0.022 A 
ATOM     80  C   UNL A   1      30.698  28.157  23.478  1.00  0.00     0.011 A 
ATOM     81  C   UNL A   1      28.575  27.047  23.695  1.00  0.00     0.011 A 
ATOM     82  C   UNL A   1      30.056  29.304  23.007  1.00  0.00     0.001 A 
ATOM     83  C   UNL A   1      27.932  28.194  23.217  1.00  0.00     0.001 A 
ATOM     84  C   UNL A   1      28.671  29.323  22.877  1.00  0.00     0.000 A 
ENDBRANCH  71  79
ENDBRANCH  68  71
ENDBRANCH  66  67
ENDBRANCH  65  66
ENDBRANCH  64  65
ENDBRANCH   1  64
TORSDOF 14
ENDMDL
