MODEL 1
REMARK VINA RESULT:     -11.2      0.000      0.000
REMARK SMILES O=C(NCCCCCCNC(=O)[C@H]1C[C@H]1c1ccc(C2CC2)cc1)c1ccc(-c2c3nc(c(-c4c(F)cccc4F)c4ccc([nH]4)c(-c4c(F)cccc4F)c4nc(c(-c5c(F)cccc5F)c5ccc2[nH]5)C=C4)C=C3)cc1
REMARK SMILES IDX 6 1 5 2 4 3 3 4 1 5 2 6 25 8 26 9 78 10 27 11 77 12 28 13
REMARK SMILES IDX 29 14 30 15 71 16 31 17 76 18 70 19 72 20 32 21 75 22 69 23
REMARK SMILES IDX 68 24 33 26 59 27 42 28 58 29 43 30 46 31 57 32 73 33 44 34
REMARK SMILES IDX 45 35 56 37 74 38 47 39 34 40 35 41 40 42 36 43 37 44 39 45
REMARK SMILES IDX 41 46 38 47 60 48 61 49 66 50 62 51 63 52 65 53 67 54 64 55
REMARK SMILES IDX 48 56 49 57 54 58 50 59 51 60 53 61 55 62 52 63 7 64 8 65
REMARK SMILES IDX 9 66 10 67 11 68 12 70 13 71 14 72 15 73 16 74 17 75 24 76
REMARK SMILES IDX 18 77 23 78 19 79 20 80 21 81 22 82
REMARK H PARENT 3 7 72 25 46 36 10 69
REMARK Flexibility Score: inf
ROOT
ATOM      1  C   UNL A   1      36.378  20.374  24.951  1.00  0.00     0.002 C 
ENDROOT
BRANCH   1   2
ATOM      2  C   UNL A   1      37.728  19.676  24.781  1.00  0.00     0.021 C 
BRANCH   2   3
ATOM      3  C   UNL A   1      38.830  20.213  25.683  1.00  0.00     0.116 C 
BRANCH   3   4
ATOM      4  N   UNL A   1      39.964  19.306  25.760  1.00  0.00    -0.352 N 
ATOM      5  O   UNL A   1      42.145  18.737  25.890  1.00  0.00    -0.269 OA
ATOM      6  C   UNL A   1      41.273  19.584  26.063  1.00  0.00     0.251 C 
ATOM      7  H   UNL A   1      39.765  18.362  25.568  1.00  0.00     0.163 HD
BRANCH   6   8
ATOM      8  C   UNL A   1      41.635  20.918  26.588  1.00  0.00     0.039 A 
ATOM      9  C   UNL A   1      42.020  21.941  25.718  1.00  0.00     0.014 A 
ATOM     10  C   UNL A   1      41.570  21.153  27.964  1.00  0.00     0.014 A 
ATOM     11  C   UNL A   1      42.461  23.154  26.230  1.00  0.00     0.010 A 
ATOM     12  C   UNL A   1      41.929  22.404  28.472  1.00  0.00     0.010 A 
ATOM     13  C   UNL A   1      42.396  23.408  27.609  1.00  0.00    -0.014 A 
BRANCH  13  14
ATOM     14  C   UNL A   1      42.738  24.760  28.116  1.00  0.00     0.031 A 
ATOM     15  C   UNL A   1      41.681  25.801  28.343  1.00  0.00     0.074 A 
ATOM     16  C   UNL A   1      44.030  25.035  28.385  1.00  0.00     0.049 A 
ATOM     17  N   UNL A   1      41.815  27.029  28.777  1.00  0.00    -0.248 NA
ATOM     18  C   UNL A   1      40.293  25.421  28.040  1.00  0.00     0.031 C 
ATOM     19  C   UNL A   1      45.145  24.102  28.193  1.00  0.00     0.029 A 
ATOM     20  N   UNL A   1      44.624  26.164  28.883  1.00  0.00    -0.354 N 
ATOM     21  C   UNL A   1      40.538  27.573  28.786  1.00  0.00     0.074 A 
ATOM     22  C   UNL A   1      39.642  26.549  28.288  1.00  0.00     0.031 C 
ATOM     23  C   UNL A   1      46.279  24.683  28.607  1.00  0.00     0.029 A 
ATOM     24  C   UNL A   1      45.986  26.047  29.028  1.00  0.00     0.049 A 
ATOM     25  H   UNL A   1      44.125  26.981  29.115  1.00  0.00     0.167 HD
ATOM     26  C   UNL A   1      40.150  28.810  29.182  1.00  0.00     0.037 A 
ATOM     27  C   UNL A   1      46.902  26.945  29.432  1.00  0.00     0.037 A 
ATOM     28  C   UNL A   1      41.050  29.821  29.679  1.00  0.00     0.049 A 
ATOM     29  C   UNL A   1      46.448  28.321  29.820  1.00  0.00     0.074 A 
ATOM     30  C   UNL A   1      40.751  31.094  30.133  1.00  0.00     0.029 A 
ATOM     31  N   UNL A   1      42.426  29.677  29.777  1.00  0.00    -0.354 N 
ATOM     32  N   UNL A   1      45.233  28.809  29.858  1.00  0.00    -0.248 NA
ATOM     33  C   UNL A   1      47.494  29.272  30.216  1.00  0.00     0.031 C 
ATOM     34  C   UNL A   1      41.949  31.738  30.459  1.00  0.00     0.029 A 
ATOM     35  C   UNL A   1      42.993  30.847  30.260  1.00  0.00     0.049 A 
ATOM     36  H   UNL A   1      42.928  28.863  29.541  1.00  0.00     0.167 HD
ATOM     37  C   UNL A   1      45.363  30.119  30.298  1.00  0.00     0.074 A 
ATOM     38  C   UNL A   1      46.776  30.340  30.535  1.00  0.00     0.031 C 
ATOM     39  C   UNL A   1      44.400  31.052  30.490  1.00  0.00     0.037 A 
BRANCH  26  40
ATOM     40  C   UNL A   1      38.691  29.151  29.076  1.00  0.00     0.057 A 
ATOM     41  C   UNL A   1      37.822  29.039  30.170  1.00  0.00     0.134 A 
ATOM     42  C   UNL A   1      38.158  29.646  27.878  1.00  0.00     0.134 A 
ATOM     43  F   UNL A   1      38.265  28.564  31.344  1.00  0.00    -0.206 F 
ATOM     44  C   UNL A   1      36.474  29.388  30.070  1.00  0.00     0.040 A 
ATOM     45  C   UNL A   1      36.817  30.022  27.774  1.00  0.00     0.040 A 
ATOM     46  F   UNL A   1      38.935  29.787  26.795  1.00  0.00    -0.206 F 
ATOM     47  C   UNL A   1      35.969  29.888  28.871  1.00  0.00     0.006 A 
ENDBRANCH  26  40
BRANCH  27  48
ATOM     48  C   UNL A   1      48.336  26.567  29.474  1.00  0.00     0.057 A 
ATOM     49  C   UNL A   1      49.178  26.799  28.382  1.00  0.00     0.134 A 
ATOM     50  C   UNL A   1      48.901  25.977  30.612  1.00  0.00     0.134 A 
ATOM     51  F   UNL A   1      48.692  27.347  27.258  1.00  0.00    -0.206 F 
ATOM     52  C   UNL A   1      50.528  26.446  28.413  1.00  0.00     0.040 A 
ATOM     53  C   UNL A   1      50.254  25.646  30.668  1.00  0.00     0.040 A 
ATOM     54  F   UNL A   1      48.148  25.737  31.696  1.00  0.00    -0.206 F 
ATOM     55  C   UNL A   1      51.071  25.873  29.563  1.00  0.00     0.006 A 
ENDBRANCH  27  48
BRANCH  39  56
ATOM     56  C   UNL A   1      44.843  32.390  31.005  1.00  0.00     0.057 A 
ATOM     57  C   UNL A   1      44.959  32.654  32.375  1.00  0.00     0.134 A 
ATOM     58  C   UNL A   1      45.182  33.418  30.116  1.00  0.00     0.134 A 
ATOM     59  F   UNL A   1      44.634  31.717  33.278  1.00  0.00    -0.206 F 
ATOM     60  C   UNL A   1      45.375  33.902  32.844  1.00  0.00     0.040 A 
ATOM     61  C   UNL A   1      45.626  34.660  30.572  1.00  0.00     0.040 A 
ATOM     62  F   UNL A   1      45.099  33.228  28.790  1.00  0.00    -0.206 F 
ATOM     63  C   UNL A   1      45.717  34.906  31.940  1.00  0.00     0.006 A 
ENDBRANCH  39  56
ENDBRANCH  13  14
ENDBRANCH   6   8
ENDBRANCH   3   4
ENDBRANCH   2   3
ENDBRANCH   1   2
BRANCH   1  64
ATOM     64  C   UNL A   1      36.360  21.861  24.573  1.00  0.00     0.002 C 
BRANCH  64  65
ATOM     65  C   UNL A   1      35.752  22.804  25.622  1.00  0.00     0.021 C 
BRANCH  65  66
ATOM     66  C   UNL A   1      35.223  24.116  25.050  1.00  0.00     0.116 C 
BRANCH  66  67
ATOM     67  N   UNL A   1      34.829  23.983  23.669  1.00  0.00    -0.356 N 
ATOM     68  C   UNL A   1      33.627  24.072  23.033  1.00  0.00     0.223 C 
ATOM     69  H   UNL A   1      35.581  23.790  23.063  1.00  0.00     0.163 HD
ATOM     70  O   UNL A   1      33.635  24.013  21.803  1.00  0.00    -0.275 OA
BRANCH  68  71
ATOM     71  C   UNL A   1      32.309  24.187  23.698  1.00  0.00     0.086 C 
ATOM     72  C   UNL A   1      30.952  23.654  23.365  1.00  0.00     0.023 C 
ATOM     73  C   UNL A   1      31.738  23.020  24.488  1.00  0.00     0.032 C 
BRANCH  73  74
ATOM     74  C   UNL A   1      32.245  21.598  24.374  1.00  0.00    -0.044 A 
ATOM     75  C   UNL A   1      32.193  20.886  23.168  1.00  0.00     0.004 A 
ATOM     76  C   UNL A   1      32.679  20.886  25.501  1.00  0.00     0.004 A 
ATOM     77  C   UNL A   1      32.524  19.525  23.102  1.00  0.00     0.004 A 
ATOM     78  C   UNL A   1      33.006  19.522  25.434  1.00  0.00     0.004 A 
ATOM     79  C   UNL A   1      32.915  18.797  24.237  1.00  0.00    -0.045 A 
BRANCH  79  80
ATOM     80  C   UNL A   1      33.163  17.304  24.123  1.00  0.00     0.019 C 
ATOM     81  C   UNL A   1      34.074  16.677  23.096  1.00  0.00     0.009 C 
ATOM     82  C   UNL A   1      34.514  16.755  24.529  1.00  0.00     0.009 C 
ENDBRANCH  79  80
ENDBRANCH  73  74
ENDBRANCH  68  71
ENDBRANCH  66  67
ENDBRANCH  65  66
ENDBRANCH  64  65
ENDBRANCH   1  64
TORSDOF 15
ENDMDL
MODEL 2
REMARK VINA RESULT:     -11.0      4.951      9.420
REMARK SMILES O=C(NCCCCCCNC(=O)[C@H]1C[C@H]1c1ccc(C2CC2)cc1)c1ccc(-c2c3nc(c(-c4c(F)cccc4F)c4ccc([nH]4)c(-c4c(F)cccc4F)c4nc(c(-c5c(F)cccc5F)c5ccc2[nH]5)C=C4)C=C3)cc1
REMARK SMILES IDX 6 1 5 2 4 3 3 4 1 5 2 6 25 8 26 9 78 10 27 11 77 12 28 13
REMARK SMILES IDX 29 14 30 15 71 16 31 17 76 18 70 19 72 20 32 21 75 22 69 23
REMARK SMILES IDX 68 24 33 26 59 27 42 28 58 29 43 30 46 31 57 32 73 33 44 34
REMARK SMILES IDX 45 35 56 37 74 38 47 39 34 40 35 41 40 42 36 43 37 44 39 45
REMARK SMILES IDX 41 46 38 47 60 48 61 49 66 50 62 51 63 52 65 53 67 54 64 55
REMARK SMILES IDX 48 56 49 57 54 58 50 59 51 60 53 61 55 62 52 63 7 64 8 65
REMARK SMILES IDX 9 66 10 67 11 68 12 70 13 71 14 72 15 73 16 74 17 75 24 76
REMARK SMILES IDX 18 77 23 78 19 79 20 80 21 81 22 82
REMARK H PARENT 3 7 72 25 46 36 10 69
REMARK Flexibility Score: inf
ROOT
ATOM      1  C   UNL A   1      31.400  30.469  25.795  1.00  0.00     0.002 C 
ENDROOT
BRANCH   1   2
ATOM      2  C   UNL A   1      31.280  31.840  26.460  1.00  0.00     0.021 C 
BRANCH   2   3
ATOM      3  C   UNL A   1      32.608  32.448  26.888  1.00  0.00     0.116 C 
BRANCH   3   4
ATOM      4  N   UNL A   1      32.451  33.798  27.405  1.00  0.00    -0.352 N 
ATOM      5  O   UNL A   1      32.719  35.486  28.880  1.00  0.00    -0.269 OA
ATOM      6  C   UNL A   1      33.110  34.408  28.442  1.00  0.00     0.251 C 
ATOM      7  H   UNL A   1      31.778  34.351  26.948  1.00  0.00     0.163 HD
BRANCH   6   8
ATOM      8  C   UNL A   1      34.292  33.753  29.044  1.00  0.00     0.039 A 
ATOM      9  C   UNL A   1      34.135  32.780  30.033  1.00  0.00     0.014 A 
ATOM     10  C   UNL A   1      35.569  34.105  28.598  1.00  0.00     0.014 A 
ATOM     11  C   UNL A   1      35.253  32.251  30.665  1.00  0.00     0.010 A 
ATOM     12  C   UNL A   1      36.693  33.507  29.175  1.00  0.00     0.010 A 
ATOM     13  C   UNL A   1      36.543  32.589  30.227  1.00  0.00    -0.014 A 
BRANCH  13  14
ATOM     14  C   UNL A   1      37.716  31.903  30.824  1.00  0.00     0.031 A 
ATOM     15  C   UNL A   1      38.203  32.243  32.202  1.00  0.00     0.074 A 
ATOM     16  C   UNL A   1      38.333  30.947  30.101  1.00  0.00     0.049 A 
ATOM     17  N   UNL A   1      39.213  31.739  32.865  1.00  0.00    -0.248 NA
ATOM     18  C   UNL A   1      37.467  33.285  32.933  1.00  0.00     0.031 C 
ATOM     19  C   UNL A   1      37.952  30.540  28.746  1.00  0.00     0.029 A 
ATOM     20  N   UNL A   1      39.398  30.140  30.403  1.00  0.00    -0.354 N 
ATOM     21  C   UNL A   1      39.246  32.409  34.080  1.00  0.00     0.074 A 
ATOM     22  C   UNL A   1      38.169  33.377  34.055  1.00  0.00     0.031 C 
ATOM     23  C   UNL A   1      38.744  29.534  28.350  1.00  0.00     0.029 A 
ATOM     24  C   UNL A   1      39.729  29.271  29.391  1.00  0.00     0.049 A 
ATOM     25  H   UNL A   1      39.881  30.179  31.261  1.00  0.00     0.167 HD
ATOM     26  C   UNL A   1      40.093  32.226  35.122  1.00  0.00     0.037 A 
ATOM     27  C   UNL A   1      40.730  28.377  29.300  1.00  0.00     0.037 A 
ATOM     28  C   UNL A   1      41.161  31.257  35.138  1.00  0.00     0.049 A 
ATOM     29  C   UNL A   1      41.679  28.229  30.451  1.00  0.00     0.074 A 
ATOM     30  C   UNL A   1      42.053  30.974  36.158  1.00  0.00     0.029 A 
ATOM     31  N   UNL A   1      41.486  30.419  34.082  1.00  0.00    -0.354 N 
ATOM     32  N   UNL A   1      41.676  28.844  31.608  1.00  0.00    -0.248 NA
ATOM     33  C   UNL A   1      42.775  27.266  30.283  1.00  0.00     0.031 C 
ATOM     34  C   UNL A   1      42.949  30.002  35.702  1.00  0.00     0.029 A 
ATOM     35  C   UNL A   1      42.582  29.639  34.415  1.00  0.00     0.049 A 
ATOM     36  H   UNL A   1      41.009  30.383  33.221  1.00  0.00     0.167 HD
ATOM     37  C   UNL A   1      42.755  28.332  32.314  1.00  0.00     0.074 A 
ATOM     38  C   UNL A   1      43.378  27.340  31.461  1.00  0.00     0.031 C 
ATOM     39  C   UNL A   1      43.191  28.655  33.555  1.00  0.00     0.037 A 
BRANCH  26  40
ATOM     40  C   UNL A   1      39.915  33.104  36.328  1.00  0.00     0.057 A 
ATOM     41  C   UNL A   1      40.622  34.305  36.481  1.00  0.00     0.134 A 
ATOM     42  C   UNL A   1      38.990  32.770  37.325  1.00  0.00     0.134 A 
ATOM     43  F   UNL A   1      41.530  34.680  35.568  1.00  0.00    -0.206 F 
ATOM     44  C   UNL A   1      40.428  35.130  37.590  1.00  0.00     0.040 A 
ATOM     45  C   UNL A   1      38.769  33.600  38.427  1.00  0.00     0.040 A 
ATOM     46  F   UNL A   1      38.273  31.640  37.239  1.00  0.00    -0.206 F 
ATOM     47  C   UNL A   1      39.494  34.782  38.564  1.00  0.00     0.006 A 
ENDBRANCH  26  40
BRANCH  27  48
ATOM     48  C   UNL A   1      40.884  27.567  28.066  1.00  0.00     0.057 A 
ATOM     49  C   UNL A   1      40.270  26.317  27.939  1.00  0.00     0.134 A 
ATOM     50  C   UNL A   1      41.637  28.030  26.980  1.00  0.00     0.134 A 
ATOM     51  F   UNL A   1      39.547  25.814  28.951  1.00  0.00    -0.206 F 
ATOM     52  C   UNL A   1      40.409  25.549  26.782  1.00  0.00     0.040 A 
ATOM     53  C   UNL A   1      41.763  27.287  25.807  1.00  0.00     0.040 A 
ATOM     54  F   UNL A   1      42.244  29.225  27.036  1.00  0.00    -0.206 F 
ATOM     55  C   UNL A   1      41.153  26.037  25.709  1.00  0.00     0.006 A 
ENDBRANCH  27  48
BRANCH  39  56
ATOM     56  C   UNL A   1      44.383  27.906  34.074  1.00  0.00     0.057 A 
ATOM     57  C   UNL A   1      44.256  26.677  34.732  1.00  0.00     0.134 A 
ATOM     58  C   UNL A   1      45.676  28.411  33.887  1.00  0.00     0.134 A 
ATOM     59  F   UNL A   1      43.044  26.148  34.957  1.00  0.00    -0.206 F 
ATOM     60  C   UNL A   1      45.372  25.987  35.208  1.00  0.00     0.040 A 
ATOM     61  C   UNL A   1      46.802  27.717  34.333  1.00  0.00     0.040 A 
ATOM     62  F   UNL A   1      45.868  29.581  33.258  1.00  0.00    -0.206 F 
ATOM     63  C   UNL A   1      46.651  26.504  35.002  1.00  0.00     0.006 A 
ENDBRANCH  39  56
ENDBRANCH  13  14
ENDBRANCH   6   8
ENDBRANCH   3   4
ENDBRANCH   2   3
ENDBRANCH   1   2
BRANCH   1  64
ATOM     64  C   UNL A   1      31.795  29.320  26.733  1.00  0.00     0.002 C 
BRANCH  64  65
ATOM     65  C   UNL A   1      33.190  28.721  26.496  1.00  0.00     0.021 C 
BRANCH  65  66
ATOM     66  C   UNL A   1      33.174  27.270  26.026  1.00  0.00     0.116 C 
BRANCH  66  67
ATOM     67  N   UNL A   1      31.979  26.579  26.446  1.00  0.00    -0.356 N 
ATOM     68  C   UNL A   1      31.279  25.533  25.924  1.00  0.00     0.223 C 
ATOM     69  H   UNL A   1      31.591  26.934  27.278  1.00  0.00     0.163 HD
ATOM     70  O   UNL A   1      30.338  25.097  26.589  1.00  0.00    -0.275 OA
BRANCH  68  71
ATOM     71  C   UNL A   1      31.524  24.907  24.604  1.00  0.00     0.086 C 
ATOM     72  C   UNL A   1      30.611  24.371  23.547  1.00  0.00     0.023 C 
ATOM     73  C   UNL A   1      31.302  25.695  23.323  1.00  0.00     0.032 C 
BRANCH  73  74
ATOM     74  C   UNL A   1      30.507  26.982  23.252  1.00  0.00    -0.044 A 
ATOM     75  C   UNL A   1      29.141  27.029  23.563  1.00  0.00     0.004 A 
ATOM     76  C   UNL A   1      31.075  28.163  22.756  1.00  0.00     0.004 A 
ATOM     77  C   UNL A   1      28.378  28.187  23.354  1.00  0.00     0.004 A 
ATOM     78  C   UNL A   1      30.309  29.321  22.543  1.00  0.00     0.004 A 
ATOM     79  C   UNL A   1      28.933  29.358  22.814  1.00  0.00    -0.045 A 
BRANCH  79  80
ATOM     80  C   UNL A   1      28.036  30.546  22.516  1.00  0.00     0.019 C 
ATOM     81  C   UNL A   1      27.484  31.470  23.573  1.00  0.00     0.009 C 
ATOM     82  C   UNL A   1      28.596  31.942  22.684  1.00  0.00     0.009 C 
ENDBRANCH  79  80
ENDBRANCH  73  74
ENDBRANCH  68  71
ENDBRANCH  66  67
ENDBRANCH  65  66
ENDBRANCH  64  65
ENDBRANCH   1  64
TORSDOF 15
ENDMDL
MODEL 3
REMARK VINA RESULT:     -10.9      5.115      9.903
REMARK SMILES O=C(NCCCCCCNC(=O)[C@H]1C[C@H]1c1ccc(C2CC2)cc1)c1ccc(-c2c3nc(c(-c4c(F)cccc4F)c4ccc([nH]4)c(-c4c(F)cccc4F)c4nc(c(-c5c(F)cccc5F)c5ccc2[nH]5)C=C4)C=C3)cc1
REMARK SMILES IDX 6 1 5 2 4 3 3 4 1 5 2 6 25 8 26 9 78 10 27 11 77 12 28 13
REMARK SMILES IDX 29 14 30 15 71 16 31 17 76 18 70 19 72 20 32 21 75 22 69 23
REMARK SMILES IDX 68 24 33 26 59 27 42 28 58 29 43 30 46 31 57 32 73 33 44 34
REMARK SMILES IDX 45 35 56 37 74 38 47 39 34 40 35 41 40 42 36 43 37 44 39 45
REMARK SMILES IDX 41 46 38 47 60 48 61 49 66 50 62 51 63 52 65 53 67 54 64 55
REMARK SMILES IDX 48 56 49 57 54 58 50 59 51 60 53 61 55 62 52 63 7 64 8 65
REMARK SMILES IDX 9 66 10 67 11 68 12 70 13 71 14 72 15 73 16 74 17 75 24 76
REMARK SMILES IDX 18 77 23 78 19 79 20 80 21 81 22 82
REMARK H PARENT 3 7 72 25 46 36 10 69
REMARK Flexibility Score: inf
ROOT
ATOM      1  C   UNL A   1      31.384  30.801  25.750  1.00  0.00     0.002 C 
ENDROOT
BRANCH   1   2
ATOM      2  C   UNL A   1      31.306  32.128  26.506  1.00  0.00     0.021 C 
BRANCH   2   3
ATOM      3  C   UNL A   1      32.619  32.566  27.140  1.00  0.00     0.116 C 
BRANCH   3   4
ATOM      4  N   UNL A   1      32.573  33.947  27.594  1.00  0.00    -0.352 N 
ATOM      5  O   UNL A   1      33.002  35.679  28.977  1.00  0.00    -0.269 OA
ATOM      6  C   UNL A   1      33.302  34.555  28.584  1.00  0.00     0.251 C 
ATOM      7  H   UNL A   1      31.929  34.525  27.126  1.00  0.00     0.163 HD
BRANCH   6   8
ATOM      8  C   UNL A   1      34.450  33.845  29.189  1.00  0.00     0.039 A 
ATOM      9  C   UNL A   1      35.759  34.203  28.857  1.00  0.00     0.014 A 
ATOM     10  C   UNL A   1      34.212  32.822  30.111  1.00  0.00     0.014 A 
ATOM     11  C   UNL A   1      36.823  33.458  29.347  1.00  0.00     0.010 A 
ATOM     12  C   UNL A   1      35.289  32.131  30.672  1.00  0.00     0.010 A 
ATOM     13  C   UNL A   1      36.603  32.432  30.279  1.00  0.00    -0.014 A 
BRANCH  13  14
ATOM     14  C   UNL A   1      37.767  31.747  30.894  1.00  0.00     0.031 A 
ATOM     15  C   UNL A   1      38.535  30.691  30.154  1.00  0.00     0.074 A 
ATOM     16  C   UNL A   1      38.135  32.108  32.140  1.00  0.00     0.049 A 
ATOM     17  N   UNL A   1      39.571  29.997  30.552  1.00  0.00    -0.248 NA
ATOM     18  C   UNL A   1      38.081  30.365  28.794  1.00  0.00     0.031 C 
ATOM     19  C   UNL A   1      37.457  33.117  32.958  1.00  0.00     0.029 A 
ATOM     20  N   UNL A   1      39.169  31.679  32.930  1.00  0.00    -0.354 N 
ATOM     21  C   UNL A   1      39.885  29.143  29.503  1.00  0.00     0.074 A 
ATOM     22  C   UNL A   1      38.912  29.387  28.458  1.00  0.00     0.031 C 
ATOM     23  C   UNL A   1      38.115  33.258  34.117  1.00  0.00     0.029 A 
ATOM     24  C   UNL A   1      39.218  32.306  34.153  1.00  0.00     0.049 A 
ATOM     25  H   UNL A   1      39.814  30.990  32.651  1.00  0.00     0.167 HD
ATOM     26  C   UNL A   1      40.897  28.247  29.419  1.00  0.00     0.037 A 
ATOM     27  C   UNL A   1      40.043  32.119  35.198  1.00  0.00     0.037 A 
ATOM     28  C   UNL A   1      41.863  28.014  30.464  1.00  0.00     0.049 A 
ATOM     29  C   UNL A   1      41.126  31.086  35.093  1.00  0.00     0.074 A 
ATOM     30  C   UNL A   1      42.943  27.148  30.463  1.00  0.00     0.029 A 
ATOM     31  N   UNL A   1      41.859  28.642  31.701  1.00  0.00    -0.354 N 
ATOM     32  N   UNL A   1      41.433  30.313  34.081  1.00  0.00    -0.248 NA
ATOM     33  C   UNL A   1      41.974  30.897  36.276  1.00  0.00     0.031 C 
ATOM     34  C   UNL A   1      43.563  27.216  31.715  1.00  0.00     0.029 A 
ATOM     35  C   UNL A   1      42.901  28.165  32.480  1.00  0.00     0.049 A 
ATOM     36  H   UNL A   1      41.211  29.328  31.984  1.00  0.00     0.167 HD
ATOM     37  C   UNL A   1      42.520  29.557  34.497  1.00  0.00     0.074 A 
ATOM     38  C   UNL A   1      42.831  29.982  35.847  1.00  0.00     0.031 C 
ATOM     39  C   UNL A   1      43.198  28.598  33.822  1.00  0.00     0.037 A 
BRANCH  26  40
ATOM     40  C   UNL A   1      41.005  27.431  28.162  1.00  0.00     0.057 A 
ATOM     41  C   UNL A   1      40.323  26.217  28.006  1.00  0.00     0.134 A 
ATOM     42  C   UNL A   1      41.759  27.891  27.074  1.00  0.00     0.134 A 
ATOM     43  F   UNL A   1      39.590  25.715  29.010  1.00  0.00    -0.206 F 
ATOM     44  C   UNL A   1      40.404  25.480  26.821  1.00  0.00     0.040 A 
ATOM     45  C   UNL A   1      41.828  27.175  25.876  1.00  0.00     0.040 A 
ATOM     46  F   UNL A   1      42.430  29.048  27.152  1.00  0.00    -0.206 F 
ATOM     47  C   UNL A   1      41.153  25.963  25.750  1.00  0.00     0.006 A 
ENDBRANCH  26  40
BRANCH  27  48
ATOM     48  C   UNL A   1      39.863  32.922  36.432  1.00  0.00     0.057 A 
ATOM     49  C   UNL A   1      38.920  32.560  37.400  1.00  0.00     0.134 A 
ATOM     50  C   UNL A   1      40.637  34.062  36.680  1.00  0.00     0.134 A 
ATOM     51  F   UNL A   1      38.138  31.486  37.213  1.00  0.00    -0.206 F 
ATOM     52  C   UNL A   1      38.743  33.309  38.564  1.00  0.00     0.040 A 
ATOM     53  C   UNL A   1      40.492  34.805  37.851  1.00  0.00     0.040 A 
ATOM     54  F   UNL A   1      41.565  34.457  35.795  1.00  0.00    -0.206 F 
ATOM     55  C   UNL A   1      39.537  34.432  38.795  1.00  0.00     0.006 A 
ENDBRANCH  27  48
BRANCH  39  56
ATOM     56  C   UNL A   1      44.361  27.964  34.526  1.00  0.00     0.057 A 
ATOM     57  C   UNL A   1      45.648  28.514  34.474  1.00  0.00     0.134 A 
ATOM     58  C   UNL A   1      44.184  26.802  35.288  1.00  0.00     0.134 A 
ATOM     59  F   UNL A   1      45.887  29.617  33.748  1.00  0.00    -0.206 F 
ATOM     60  C   UNL A   1      46.722  27.917  35.136  1.00  0.00     0.040 A 
ATOM     61  C   UNL A   1      45.244  26.212  35.977  1.00  0.00     0.040 A 
ATOM     62  F   UNL A   1      42.975  26.227  35.384  1.00  0.00    -0.206 F 
ATOM     63  C   UNL A   1      46.520  26.767  35.896  1.00  0.00     0.006 A 
ENDBRANCH  39  56
ENDBRANCH  13  14
ENDBRANCH   6   8
ENDBRANCH   3   4
ENDBRANCH   2   3
ENDBRANCH   1   2
BRANCH   1  64
ATOM     64  C   UNL A   1      31.778  29.587  26.601  1.00  0.00     0.002 C 
BRANCH  64  65
ATOM     65  C   UNL A   1      32.940  28.744  26.054  1.00  0.00     0.021 C 
BRANCH  65  66
ATOM     66  C   UNL A   1      32.921  27.286  26.506  1.00  0.00     0.116 C 
BRANCH  66  67
ATOM     67  N   UNL A   1      31.576  26.797  26.694  1.00  0.00    -0.356 N 
ATOM     68  C   UNL A   1      30.814  25.892  26.018  1.00  0.00     0.223 C 
ATOM     69  H   UNL A   1      31.117  27.197  27.468  1.00  0.00     0.163 HD
ATOM     70  O   UNL A   1      29.717  25.608  26.501  1.00  0.00    -0.275 OA
BRANCH  68  71
ATOM     71  C   UNL A   1      31.174  25.258  24.729  1.00  0.00     0.086 C 
ATOM     72  C   UNL A   1      30.356  24.723  23.596  1.00  0.00     0.023 C 
ATOM     73  C   UNL A   1      31.075  26.041  23.430  1.00  0.00     0.032 C 
BRANCH  73  74
ATOM     74  C   UNL A   1      30.301  27.334  23.281  1.00  0.00    -0.044 A 
ATOM     75  C   UNL A   1      28.907  27.383  23.414  1.00  0.00     0.004 A 
ATOM     76  C   UNL A   1      30.933  28.520  22.885  1.00  0.00     0.004 A 
ATOM     77  C   UNL A   1      28.181  28.549  23.130  1.00  0.00     0.004 A 
ATOM     78  C   UNL A   1      30.205  29.686  22.597  1.00  0.00     0.004 A 
ATOM     79  C   UNL A   1      28.806  29.726  22.689  1.00  0.00    -0.045 A 
BRANCH  79  80
ATOM     80  C   UNL A   1      27.959  30.925  22.300  1.00  0.00     0.019 C 
ATOM     81  C   UNL A   1      28.522  32.293  22.003  1.00  0.00     0.009 C 
ATOM     82  C   UNL A   1      28.028  31.435  20.876  1.00  0.00     0.009 C 
ENDBRANCH  79  80
ENDBRANCH  73  74
ENDBRANCH  68  71
ENDBRANCH  66  67
ENDBRANCH  65  66
ENDBRANCH  64  65
ENDBRANCH   1  64
TORSDOF 15
ENDMDL
