MODEL 1
REMARK VINA RESULT:     -12.3      0.000      0.000
REMARK SMILES CN1C(=O)C[C@@H](C(=O)NCCCCCCNC(=O)c2ccc(-c3c4nc(c(-c5c(F)cccc5F)c5ccc([nH]5)c(-c5c(F)cccc5F)c5nc(c(-c6c(F)cccc6F)c6ccc3[nH]6)C=C5)C=C4)cc2)C12CC[NH+](CCSc1ccccc1)CC2
REMARK SMILES IDX 11 1 10 2 9 3 7 4 8 5 6 7 1 8 2 9 3 10 73 11 4 12 5 13 74 14
REMARK SMILES IDX 87 15 75 16 86 17 76 18 77 20 78 21 79 22 80 23 81 24 85 25
REMARK SMILES IDX 82 26 84 27 83 28 12 29 13 30 14 31 15 32 16 33 17 34 18 36
REMARK SMILES IDX 19 37 20 38 72 39 21 40 71 41 22 42 23 43 24 44 65 45 25 46
REMARK SMILES IDX 70 47 64 48 66 49 26 50 69 51 63 52 62 53 27 55 53 56 36 57
REMARK SMILES IDX 52 58 37 59 40 60 51 61 67 62 38 63 39 64 50 66 68 67 41 68
REMARK SMILES IDX 28 69 29 70 34 71 30 72 31 73 33 74 35 75 32 76 54 77 55 78
REMARK SMILES IDX 60 79 56 80 57 81 59 82 61 83 58 84 42 85 43 86 48 87 44 88
REMARK SMILES IDX 45 89 47 90 49 91 46 92
REMARK H PARENT 9 6 76 19 16 35 66 54 40 65
REMARK Flexibility Score: inf
ROOT
ATOM      1  C   UNL A   1      31.611  28.518  27.489  1.00  0.00     0.021 C 
ENDROOT
BRANCH   1   2
ATOM      2  C   UNL A   1      31.595  27.146  26.838  1.00  0.00     0.116 C 
BRANCH   2   3
ATOM      3  N   UNL A   1      30.721  27.115  25.696  1.00  0.00    -0.356 N 
ATOM      4  C   UNL A   1      30.991  26.822  24.407  1.00  0.00     0.226 C 
ATOM      5  O   UNL A   1      30.073  26.933  23.590  1.00  0.00    -0.275 OA
ATOM      6  H   UNL A   1      29.782  27.342  25.884  1.00  0.00     0.163 HD
BRANCH   4   7
ATOM      7  C   UNL A   1      32.353  26.370  23.948  1.00  0.00     0.114 C 
ATOM      8  C   UNL A   1      32.899  23.367  21.698  1.00  0.00     0.147 C 
ATOM      9  N   UNL A   1      32.688  24.644  22.367  1.00  0.00    -0.339 N 
ATOM     10  C   UNL A   1      32.975  25.821  21.678  1.00  0.00     0.223 C 
ATOM     11  C   UNL A   1      32.647  24.847  23.837  1.00  0.00     0.065 C 
ATOM     12  O   UNL A   1      33.278  25.913  20.499  1.00  0.00    -0.275 OA
ATOM     13  C   UNL A   1      32.835  26.986  22.624  1.00  0.00     0.116 C 
ATOM     14  C   UNL A   1      31.719  23.840  24.576  1.00  0.00     0.091 C 
ATOM     15  C   UNL A   1      34.068  24.717  24.364  1.00  0.00     0.091 C 
ATOM     16  C   UNL A   1      32.116  23.384  25.990  1.00  0.00     0.264 C 
ATOM     17  C   UNL A   1      34.127  24.590  25.874  1.00  0.00     0.264 C 
ATOM     18  N   UNL A   1      33.540  23.347  26.271  1.00  0.00    -0.334 N 
ATOM     19  H   UNL A   1      33.585  23.233  27.284  1.00  0.00     0.348 HD
BRANCH  18  20
ATOM     20  C   UNL A   1      34.338  22.141  25.997  1.00  0.00     0.273 C 
BRANCH  20  21
ATOM     21  C   UNL A   1      34.172  21.177  24.757  1.00  0.00     0.136 C 
BRANCH  21  22
ATOM     22  S   UNL A   1      32.621  20.176  24.329  1.00  0.00    -0.120 SA
BRANCH  22  23
ATOM     23  C   UNL A   1      32.977  18.414  24.382  1.00  0.00     0.007 A 
ATOM     24  C   UNL A   1      33.662  17.698  23.387  1.00  0.00     0.015 A 
ATOM     25  C   UNL A   1      32.528  17.700  25.506  1.00  0.00     0.015 A 
ATOM     26  C   UNL A   1      34.033  16.352  23.605  1.00  0.00     0.001 A 
ATOM     27  C   UNL A   1      32.947  16.386  25.751  1.00  0.00     0.001 A 
ATOM     28  C   UNL A   1      33.723  15.719  24.811  1.00  0.00     0.000 A 
ENDBRANCH  22  23
ENDBRANCH  21  22
ENDBRANCH  20  21
ENDBRANCH  18  20
ENDBRANCH   4   7
ENDBRANCH   2   3
ENDBRANCH   1   2
BRANCH   1  29
ATOM     29  C   UNL A   1      32.536  29.481  26.754  1.00  0.00     0.002 C 
BRANCH  29  30
ATOM     30  C   UNL A   1      31.771  30.463  25.864  1.00  0.00     0.002 C 
BRANCH  30  31
ATOM     31  C   UNL A   1      31.444  31.785  26.564  1.00  0.00     0.021 C 
BRANCH  31  32
ATOM     32  C   UNL A   1      32.654  32.404  27.251  1.00  0.00     0.116 C 
BRANCH  32  33
ATOM     33  N   UNL A   1      32.457  33.833  27.433  1.00  0.00    -0.352 N 
ATOM     34  C   UNL A   1      33.003  34.623  28.403  1.00  0.00     0.251 C 
ATOM     35  H   UNL A   1      31.865  34.279  26.786  1.00  0.00     0.163 HD
ATOM     36  O   UNL A   1      32.528  35.723  28.678  1.00  0.00    -0.269 OA
BRANCH  34  37
ATOM     37  C   UNL A   1      34.189  34.113  29.104  1.00  0.00     0.039 A 
ATOM     38  C   UNL A   1      34.031  33.266  30.199  1.00  0.00     0.014 A 
ATOM     39  C   UNL A   1      35.458  34.435  28.610  1.00  0.00     0.014 A 
ATOM     40  C   UNL A   1      35.164  32.713  30.793  1.00  0.00     0.010 A 
ATOM     41  C   UNL A   1      36.574  33.821  29.152  1.00  0.00     0.010 A 
ATOM     42  C   UNL A   1      36.438  32.972  30.261  1.00  0.00    -0.014 A 
BRANCH  42  43
ATOM     43  C   UNL A   1      37.663  32.405  30.869  1.00  0.00     0.031 A 
ATOM     44  C   UNL A   1      38.322  31.221  30.216  1.00  0.00     0.074 A 
ATOM     45  C   UNL A   1      38.121  32.894  32.037  1.00  0.00     0.049 A 
ATOM     46  N   UNL A   1      39.314  30.489  30.647  1.00  0.00    -0.248 NA
ATOM     47  C   UNL A   1      37.771  30.783  28.921  1.00  0.00     0.031 C 
ATOM     48  C   UNL A   1      37.538  34.014  32.778  1.00  0.00     0.029 A 
ATOM     49  N   UNL A   1      39.176  32.494  32.817  1.00  0.00    -0.354 N 
ATOM     50  C   UNL A   1      39.484  29.491  29.696  1.00  0.00     0.074 A 
ATOM     51  C   UNL A   1      38.468  29.682  28.687  1.00  0.00     0.031 C 
ATOM     52  C   UNL A   1      38.249  34.217  33.900  1.00  0.00     0.029 A 
ATOM     53  C   UNL A   1      39.306  33.214  33.981  1.00  0.00     0.049 A 
ATOM     54  H   UNL A   1      39.784  31.760  32.566  1.00  0.00     0.167 HD
ATOM     55  C   UNL A   1      40.418  28.513  29.663  1.00  0.00     0.037 A 
ATOM     56  C   UNL A   1      40.167  33.062  35.004  1.00  0.00     0.037 A 
ATOM     57  C   UNL A   1      41.453  28.360  30.648  1.00  0.00     0.049 A 
ATOM     58  C   UNL A   1      41.191  31.958  34.938  1.00  0.00     0.074 A 
ATOM     59  C   UNL A   1      42.498  27.454  30.661  1.00  0.00     0.029 A 
ATOM     60  N   UNL A   1      41.574  29.132  31.792  1.00  0.00    -0.354 N 
ATOM     61  N   UNL A   1      41.392  31.071  33.993  1.00  0.00    -0.248 NA
ATOM     62  C   UNL A   1      42.111  31.836  36.078  1.00  0.00     0.031 C 
ATOM     63  C   UNL A   1      43.217  27.638  31.843  1.00  0.00     0.029 A 
ATOM     64  C   UNL A   1      42.659  28.702  32.534  1.00  0.00     0.049 A 
ATOM     65  H   UNL A   1      40.976  29.874  32.041  1.00  0.00     0.167 HD
ATOM     66  C   UNL A   1      42.484  30.319  34.404  1.00  0.00     0.074 A 
ATOM     67  C   UNL A   1      42.908  30.857  35.679  1.00  0.00     0.031 C 
ATOM     68  C   UNL A   1      43.085  29.275  33.783  1.00  0.00     0.037 A 
BRANCH  55  69
ATOM     69  C   UNL A   1      40.374  27.531  28.530  1.00  0.00     0.057 A 
ATOM     70  C   UNL A   1      41.116  27.717  27.357  1.00  0.00     0.134 A 
ATOM     71  C   UNL A   1      39.645  26.341  28.653  1.00  0.00     0.134 A 
ATOM     72  F   UNL A   1      41.825  28.841  27.171  1.00  0.00    -0.206 F 
ATOM     73  C   UNL A   1      41.127  26.759  26.343  1.00  0.00     0.040 A 
ATOM     74  C   UNL A   1      39.670  25.364  27.659  1.00  0.00     0.040 A 
ATOM     75  F   UNL A   1      38.916  26.100  29.753  1.00  0.00    -0.206 F 
ATOM     76  C   UNL A   1      40.414  25.571  26.499  1.00  0.00     0.006 A 
ENDBRANCH  55  69
BRANCH  56  77
ATOM     77  C   UNL A   1      40.106  33.960  36.187  1.00  0.00     0.057 A 
ATOM     78  C   UNL A   1      39.339  33.628  37.310  1.00  0.00     0.134 A 
ATOM     79  C   UNL A   1      40.765  35.195  36.202  1.00  0.00     0.134 A 
ATOM     80  F   UNL A   1      38.671  32.465  37.351  1.00  0.00    -0.206 F 
ATOM     81  C   UNL A   1      39.190  34.509  38.383  1.00  0.00     0.040 A 
ATOM     82  C   UNL A   1      40.651  36.072  37.283  1.00  0.00     0.040 A 
ATOM     83  F   UNL A   1      41.526  35.571  35.164  1.00  0.00    -0.206 F 
ATOM     84  C   UNL A   1      39.849  35.735  38.371  1.00  0.00     0.006 A 
ENDBRANCH  56  77
BRANCH  68  85
ATOM     85  C   UNL A   1      44.304  28.689  34.431  1.00  0.00     0.057 A 
ATOM     86  C   UNL A   1      44.234  27.589  35.292  1.00  0.00     0.134 A 
ATOM     87  C   UNL A   1      45.577  29.195  34.126  1.00  0.00     0.134 A 
ATOM     88  F   UNL A   1      43.047  27.065  35.632  1.00  0.00    -0.206 F 
ATOM     89  C   UNL A   1      45.385  27.022  35.843  1.00  0.00     0.040 A 
ATOM     90  C   UNL A   1      46.734  28.618  34.645  1.00  0.00     0.040 A 
ATOM     91  F   UNL A   1      45.713  30.241  33.297  1.00  0.00    -0.206 F 
ATOM     92  C   UNL A   1      46.640  27.529  35.509  1.00  0.00     0.006 A 
ENDBRANCH  68  85
ENDBRANCH  42  43
ENDBRANCH  34  37
ENDBRANCH  32  33
ENDBRANCH  31  32
ENDBRANCH  30  31
ENDBRANCH  29  30
ENDBRANCH   1  29
TORSDOF 17
ENDMDL
MODEL 2
REMARK VINA RESULT:     -12.1      4.591     10.010
REMARK SMILES CN1C(=O)C[C@@H](C(=O)NCCCCCCNC(=O)c2ccc(-c3c4nc(c(-c5c(F)cccc5F)c5ccc([nH]5)c(-c5c(F)cccc5F)c5nc(c(-c6c(F)cccc6F)c6ccc3[nH]6)C=C5)C=C4)cc2)C12CC[NH+](CCSc1ccccc1)CC2
REMARK SMILES IDX 11 1 10 2 9 3 7 4 8 5 6 7 1 8 2 9 3 10 73 11 4 12 5 13 74 14
REMARK SMILES IDX 87 15 75 16 86 17 76 18 77 20 78 21 79 22 80 23 81 24 85 25
REMARK SMILES IDX 82 26 84 27 83 28 12 29 13 30 14 31 15 32 16 33 17 34 18 36
REMARK SMILES IDX 19 37 20 38 72 39 21 40 71 41 22 42 23 43 24 44 65 45 25 46
REMARK SMILES IDX 70 47 64 48 66 49 26 50 69 51 63 52 62 53 27 55 53 56 36 57
REMARK SMILES IDX 52 58 37 59 40 60 51 61 67 62 38 63 39 64 50 66 68 67 41 68
REMARK SMILES IDX 28 69 29 70 34 71 30 72 31 73 33 74 35 75 32 76 54 77 55 78
REMARK SMILES IDX 60 79 56 80 57 81 59 82 61 83 58 84 42 85 43 86 48 87 44 88
REMARK SMILES IDX 45 89 47 90 49 91 46 92
REMARK H PARENT 9 6 76 19 16 35 66 54 40 65
REMARK Flexibility Score: inf
ROOT
ATOM      1  C   UNL A   1      36.978  22.789  24.172  1.00  0.00     0.021 C 
ENDROOT
BRANCH   1   2
ATOM      2  C   UNL A   1      35.682  23.581  24.211  1.00  0.00     0.116 C 
BRANCH   2   3
ATOM      3  N   UNL A   1      34.547  22.750  23.909  1.00  0.00    -0.356 N 
ATOM      4  C   UNL A   1      33.326  22.711  24.481  1.00  0.00     0.226 C 
ATOM      5  O   UNL A   1      32.535  21.850  24.085  1.00  0.00    -0.275 OA
ATOM      6  H   UNL A   1      34.683  22.110  23.173  1.00  0.00     0.163 HD
BRANCH   4   7
ATOM      7  C   UNL A   1      32.909  23.672  25.565  1.00  0.00     0.114 C 
ATOM      8  C   UNL A   1      29.581  25.488  25.566  1.00  0.00     0.147 C 
ATOM      9  N   UNL A   1      30.752  24.632  25.695  1.00  0.00    -0.339 N 
ATOM     10  C   UNL A   1      30.782  23.679  26.712  1.00  0.00     0.223 C 
ATOM     11  C   UNL A   1      32.108  24.947  25.177  1.00  0.00     0.065 C 
ATOM     12  O   UNL A   1      29.860  23.389  27.457  1.00  0.00    -0.275 OA
ATOM     13  C   UNL A   1      32.146  23.040  26.741  1.00  0.00     0.116 C 
ATOM     14  C   UNL A   1      32.111  25.424  23.697  1.00  0.00     0.091 C 
ATOM     15  C   UNL A   1      32.705  26.028  26.066  1.00  0.00     0.091 C 
ATOM     16  C   UNL A   1      33.159  26.465  23.268  1.00  0.00     0.264 C 
ATOM     17  C   UNL A   1      33.947  26.661  25.471  1.00  0.00     0.264 C 
ATOM     18  N   UNL A   1      33.590  27.396  24.295  1.00  0.00    -0.334 N 
ATOM     19  H   UNL A   1      34.410  27.845  23.887  1.00  0.00     0.348 HD
BRANCH  18  20
ATOM     20  C   UNL A   1      32.879  28.664  24.519  1.00  0.00     0.273 C 
BRANCH  20  21
ATOM     21  C   UNL A   1      31.315  28.877  24.467  1.00  0.00     0.136 C 
BRANCH  21  22
ATOM     22  S   UNL A   1      30.223  28.709  22.927  1.00  0.00    -0.120 SA
BRANCH  22  23
ATOM     23  C   UNL A   1      29.314  30.234  22.635  1.00  0.00     0.007 A 
ATOM     24  C   UNL A   1      29.196  31.292  23.549  1.00  0.00     0.015 A 
ATOM     25  C   UNL A   1      28.667  30.369  21.394  1.00  0.00     0.015 A 
ATOM     26  C   UNL A   1      28.600  32.511  23.156  1.00  0.00     0.001 A 
ATOM     27  C   UNL A   1      28.131  31.595  20.981  1.00  0.00     0.001 A 
ATOM     28  C   UNL A   1      28.120  32.677  21.854  1.00  0.00     0.000 A 
ENDBRANCH  22  23
ENDBRANCH  21  22
ENDBRANCH  20  21
ENDBRANCH  18  20
ENDBRANCH   4   7
ENDBRANCH   2   3
ENDBRANCH   1   2
BRANCH   1  29
ATOM     29  C   UNL A   1      37.025  21.730  25.267  1.00  0.00     0.002 C 
BRANCH  29  30
ATOM     30  C   UNL A   1      36.881  20.311  24.714  1.00  0.00     0.002 C 
BRANCH  30  31
ATOM     31  C   UNL A   1      37.990  19.364  25.182  1.00  0.00     0.021 C 
BRANCH  31  32
ATOM     32  C   UNL A   1      39.216  20.102  25.701  1.00  0.00     0.116 C 
BRANCH  32  33
ATOM     33  N   UNL A   1      40.352  19.199  25.791  1.00  0.00    -0.352 N 
ATOM     34  C   UNL A   1      41.659  19.536  25.997  1.00  0.00     0.251 C 
ATOM     35  H   UNL A   1      40.157  18.240  25.692  1.00  0.00     0.163 HD
ATOM     36  O   UNL A   1      42.571  18.758  25.728  1.00  0.00    -0.269 OA
BRANCH  34  37
ATOM     37  C   UNL A   1      41.935  20.863  26.563  1.00  0.00     0.039 A 
ATOM     38  C   UNL A   1      41.989  21.025  27.945  1.00  0.00     0.014 A 
ATOM     39  C   UNL A   1      42.207  21.926  25.695  1.00  0.00     0.014 A 
ATOM     40  C   UNL A   1      42.347  22.266  28.466  1.00  0.00     0.010 A 
ATOM     41  C   UNL A   1      42.640  23.134  26.214  1.00  0.00     0.010 A 
ATOM     42  C   UNL A   1      42.693  23.320  27.604  1.00  0.00    -0.014 A 
BRANCH  42  43
ATOM     43  C   UNL A   1      43.074  24.654  28.122  1.00  0.00     0.031 A 
ATOM     44  C   UNL A   1      41.998  25.674  28.377  1.00  0.00     0.074 A 
ATOM     45  C   UNL A   1      44.374  24.968  28.276  1.00  0.00     0.049 A 
ATOM     46  N   UNL A   1      42.116  26.934  28.698  1.00  0.00    -0.248 NA
ATOM     47  C   UNL A   1      40.604  25.223  28.217  1.00  0.00     0.031 C 
ATOM     48  C   UNL A   1      45.503  24.070  28.022  1.00  0.00     0.029 A 
ATOM     49  N   UNL A   1      44.966  26.142  28.666  1.00  0.00    -0.354 N 
ATOM     50  C   UNL A   1      40.821  27.432  28.748  1.00  0.00     0.074 A 
ATOM     51  C   UNL A   1      39.932  26.353  28.383  1.00  0.00     0.031 C 
ATOM     52  C   UNL A   1      46.649  24.724  28.272  1.00  0.00     0.029 A 
ATOM     53  C   UNL A   1      46.340  26.097  28.657  1.00  0.00     0.049 A 
ATOM     54  H   UNL A   1      44.455  26.943  28.928  1.00  0.00     0.167 HD
ATOM     55  C   UNL A   1      40.411  28.676  29.087  1.00  0.00     0.037 A 
ATOM     56  C   UNL A   1      47.242  27.064  28.908  1.00  0.00     0.037 A 
ATOM     57  C   UNL A   1      41.300  29.729  29.494  1.00  0.00     0.049 A 
ATOM     58  C   UNL A   1      46.752  28.441  29.276  1.00  0.00     0.074 A 
ATOM     59  C   UNL A   1      40.980  30.999  29.937  1.00  0.00     0.029 A 
ATOM     60  N   UNL A   1      42.683  29.633  29.508  1.00  0.00    -0.354 N 
ATOM     61  N   UNL A   1      45.521  28.876  29.399  1.00  0.00    -0.248 NA
ATOM     62  C   UNL A   1      47.776  29.461  29.545  1.00  0.00     0.031 C 
ATOM     63  C   UNL A   1      42.170  31.693  30.163  1.00  0.00     0.029 A 
ATOM     64  C   UNL A   1      43.231  30.833  29.923  1.00  0.00     0.049 A 
ATOM     65  H   UNL A   1      43.198  28.831  29.258  1.00  0.00     0.167 HD
ATOM     66  C   UNL A   1      45.624  30.201  29.800  1.00  0.00     0.074 A 
ATOM     67  C   UNL A   1      47.037  30.497  29.908  1.00  0.00     0.031 C 
ATOM     68  C   UNL A   1      44.639  31.095  30.058  1.00  0.00     0.037 A 
BRANCH  55  69
ATOM     69  C   UNL A   1      38.943  28.975  29.038  1.00  0.00     0.057 A 
ATOM     70  C   UNL A   1      38.124  28.862  30.169  1.00  0.00     0.134 A 
ATOM     71  C   UNL A   1      38.359  29.465  27.862  1.00  0.00     0.134 A 
ATOM     72  F   UNL A   1      38.618  28.386  31.322  1.00  0.00    -0.206 F 
ATOM     73  C   UNL A   1      36.775  29.218  30.129  1.00  0.00     0.040 A 
ATOM     74  C   UNL A   1      37.020  29.850  27.818  1.00  0.00     0.040 A 
ATOM     75  F   UNL A   1      39.089  29.600  26.745  1.00  0.00    -0.206 F 
ATOM     76  C   UNL A   1      36.223  29.727  28.955  1.00  0.00     0.006 A 
ENDBRANCH  55  69
BRANCH  56  77
ATOM     77  C   UNL A   1      48.699  26.786  28.816  1.00  0.00     0.057 A 
ATOM     78  C   UNL A   1      49.406  27.012  27.628  1.00  0.00     0.134 A 
ATOM     79  C   UNL A   1      49.408  26.234  29.890  1.00  0.00     0.134 A 
ATOM     80  F   UNL A   1      48.781  27.524  26.558  1.00  0.00    -0.206 F 
ATOM     81  C   UNL A   1      50.750  26.657  27.496  1.00  0.00     0.040 A 
ATOM     82  C   UNL A   1      50.760  25.905  29.782  1.00  0.00     0.040 A 
ATOM     83  F   UNL A   1      48.794  26.002  31.060  1.00  0.00    -0.206 F 
ATOM     84  C   UNL A   1      51.431  26.103  28.577  1.00  0.00     0.006 A 
ENDBRANCH  56  77
BRANCH  68  85
ATOM     85  C   UNL A   1      45.043  32.454  30.548  1.00  0.00     0.057 A 
ATOM     86  C   UNL A   1      45.252  32.725  31.905  1.00  0.00     0.134 A 
ATOM     87  C   UNL A   1      45.296  33.487  29.633  1.00  0.00     0.134 A 
ATOM     88  F   UNL A   1      45.017  31.784  32.831  1.00  0.00    -0.206 F 
ATOM     89  C   UNL A   1      45.681  33.981  32.338  1.00  0.00     0.040 A 
ATOM     90  C   UNL A   1      45.756  34.735  30.051  1.00  0.00     0.040 A 
ATOM     91  F   UNL A   1      45.127  33.287  28.317  1.00  0.00    -0.206 F 
ATOM     92  C   UNL A   1      45.946  34.986  31.407  1.00  0.00     0.006 A 
ENDBRANCH  68  85
ENDBRANCH  42  43
ENDBRANCH  34  37
ENDBRANCH  32  33
ENDBRANCH  31  32
ENDBRANCH  30  31
ENDBRANCH  29  30
ENDBRANCH   1  29
TORSDOF 17
ENDMDL
MODEL 3
REMARK VINA RESULT:     -11.8      0.947      2.041
REMARK SMILES CN1C(=O)C[C@@H](C(=O)NCCCCCCNC(=O)c2ccc(-c3c4nc(c(-c5c(F)cccc5F)c5ccc([nH]5)c(-c5c(F)cccc5F)c5nc(c(-c6c(F)cccc6F)c6ccc3[nH]6)C=C5)C=C4)cc2)C12CC[NH+](CCSc1ccccc1)CC2
REMARK SMILES IDX 11 1 10 2 9 3 7 4 8 5 6 7 1 8 2 9 3 10 73 11 4 12 5 13 74 14
REMARK SMILES IDX 87 15 75 16 86 17 76 18 77 20 78 21 79 22 80 23 81 24 85 25
REMARK SMILES IDX 82 26 84 27 83 28 12 29 13 30 14 31 15 32 16 33 17 34 18 36
REMARK SMILES IDX 19 37 20 38 72 39 21 40 71 41 22 42 23 43 24 44 65 45 25 46
REMARK SMILES IDX 70 47 64 48 66 49 26 50 69 51 63 52 62 53 27 55 53 56 36 57
REMARK SMILES IDX 52 58 37 59 40 60 51 61 67 62 38 63 39 64 50 66 68 67 41 68
REMARK SMILES IDX 28 69 29 70 34 71 30 72 31 73 33 74 35 75 32 76 54 77 55 78
REMARK SMILES IDX 60 79 56 80 57 81 59 82 61 83 58 84 42 85 43 86 48 87 44 88
REMARK SMILES IDX 45 89 47 90 49 91 46 92
REMARK H PARENT 9 6 76 19 16 35 66 54 40 65
REMARK Flexibility Score: inf
ROOT
ATOM      1  C   UNL A   1      33.595  29.463  25.934  1.00  0.00     0.021 C 
ENDROOT
BRANCH   1   2
ATOM      2  C   UNL A   1      32.758  29.400  24.669  1.00  0.00     0.116 C 
BRANCH   2   3
ATOM      3  N   UNL A   1      33.577  29.192  23.504  1.00  0.00    -0.356 N 
ATOM      4  C   UNL A   1      33.551  28.196  22.595  1.00  0.00     0.226 C 
ATOM      5  O   UNL A   1      34.414  28.204  21.712  1.00  0.00    -0.275 OA
ATOM      6  H   UNL A   1      34.262  29.882  23.348  1.00  0.00     0.163 HD
BRANCH   4   7
ATOM      7  C   UNL A   1      32.518  27.099  22.625  1.00  0.00     0.114 C 
ATOM      8  C   UNL A   1      30.543  26.187  25.730  1.00  0.00     0.147 C 
ATOM      9  N   UNL A   1      31.123  26.674  24.486  1.00  0.00    -0.339 N 
ATOM     10  C   UNL A   1      30.290  27.274  23.543  1.00  0.00     0.223 C 
ATOM     11  C   UNL A   1      32.401  26.206  23.892  1.00  0.00     0.065 C 
ATOM     12  O   UNL A   1      29.112  27.556  23.695  1.00  0.00    -0.275 OA
ATOM     13  C   UNL A   1      31.084  27.542  22.291  1.00  0.00     0.116 C 
ATOM     14  C   UNL A   1      33.579  26.170  24.906  1.00  0.00     0.091 C 
ATOM     15  C   UNL A   1      32.167  24.813  23.327  1.00  0.00     0.091 C 
ATOM     16  C   UNL A   1      34.646  25.072  24.748  1.00  0.00     0.264 C 
ATOM     17  C   UNL A   1      33.455  24.096  22.975  1.00  0.00     0.264 C 
ATOM     18  N   UNL A   1      34.189  23.820  24.172  1.00  0.00    -0.334 N 
ATOM     19  H   UNL A   1      35.054  23.321  23.960  1.00  0.00     0.348 HD
BRANCH  18  20
ATOM     20  C   UNL A   1      33.657  22.743  25.021  1.00  0.00     0.273 C 
BRANCH  20  21
ATOM     21  C   UNL A   1      33.801  21.192  24.758  1.00  0.00     0.136 C 
BRANCH  21  22
ATOM     22  S   UNL A   1      32.523  20.090  23.893  1.00  0.00    -0.120 SA
BRANCH  22  23
ATOM     23  C   UNL A   1      32.913  18.354  24.157  1.00  0.00     0.007 A 
ATOM     24  C   UNL A   1      33.601  17.534  23.249  1.00  0.00     0.015 A 
ATOM     25  C   UNL A   1      32.487  17.776  25.365  1.00  0.00     0.015 A 
ATOM     26  C   UNL A   1      33.999  16.231  23.625  1.00  0.00     0.001 A 
ATOM     27  C   UNL A   1      32.933  16.509  25.764  1.00  0.00     0.001 A 
ATOM     28  C   UNL A   1      33.712  15.745  24.903  1.00  0.00     0.000 A 
ENDBRANCH  22  23
ENDBRANCH  21  22
ENDBRANCH  20  21
ENDBRANCH  18  20
ENDBRANCH   4   7
ENDBRANCH   2   3
ENDBRANCH   1   2
BRANCH   1  29
ATOM     29  C   UNL A   1      32.859  30.172  27.064  1.00  0.00     0.002 C 
BRANCH  29  30
ATOM     30  C   UNL A   1      31.511  30.742  26.618  1.00  0.00     0.002 C 
BRANCH  30  31
ATOM     31  C   UNL A   1      31.362  32.238  26.906  1.00  0.00     0.021 C 
BRANCH  31  32
ATOM     32  C   UNL A   1      32.655  32.878  27.392  1.00  0.00     0.116 C 
BRANCH  32  33
ATOM     33  N   UNL A   1      32.470  34.305  27.593  1.00  0.00    -0.352 N 
ATOM     34  C   UNL A   1      32.997  35.072  28.592  1.00  0.00     0.251 C 
ATOM     35  H   UNL A   1      31.903  34.770  26.938  1.00  0.00     0.163 HD
ATOM     36  O   UNL A   1      32.527  36.173  28.872  1.00  0.00    -0.269 OA
BRANCH  34  37
ATOM     37  C   UNL A   1      34.156  34.536  29.318  1.00  0.00     0.039 A 
ATOM     38  C   UNL A   1      33.968  33.895  30.540  1.00  0.00     0.014 A 
ATOM     39  C   UNL A   1      35.422  34.621  28.728  1.00  0.00     0.014 A 
ATOM     40  C   UNL A   1      35.063  33.306  31.169  1.00  0.00     0.010 A 
ATOM     41  C   UNL A   1      36.491  33.966  29.316  1.00  0.00     0.010 A 
ATOM     42  C   UNL A   1      36.324  33.322  30.551  1.00  0.00    -0.014 A 
BRANCH  42  43
ATOM     43  C   UNL A   1      37.511  32.710  31.193  1.00  0.00     0.031 A 
ATOM     44  C   UNL A   1      38.198  31.559  30.512  1.00  0.00     0.074 A 
ATOM     45  C   UNL A   1      37.907  33.130  32.410  1.00  0.00     0.049 A 
ATOM     46  N   UNL A   1      39.160  30.795  30.955  1.00  0.00    -0.248 NA
ATOM     47  C   UNL A   1      37.716  31.199  29.166  1.00  0.00     0.031 C 
ATOM     48  C   UNL A   1      37.290  34.212  33.180  1.00  0.00     0.029 A 
ATOM     49  N   UNL A   1      38.914  32.677  33.223  1.00  0.00    -0.354 N 
ATOM     50  C   UNL A   1      39.376  29.850  29.960  1.00  0.00     0.074 A 
ATOM     51  C   UNL A   1      38.419  30.107  28.909  1.00  0.00     0.031 C 
ATOM     52  C   UNL A   1      37.939  34.345  34.349  1.00  0.00     0.029 A 
ATOM     53  C   UNL A   1      38.984  33.330  34.431  1.00  0.00     0.049 A 
ATOM     54  H   UNL A   1      39.530  31.952  32.965  1.00  0.00     0.167 HD
ATOM     55  C   UNL A   1      40.305  28.867  29.923  1.00  0.00     0.037 A 
ATOM     56  C   UNL A   1      39.786  33.112  35.490  1.00  0.00     0.037 A 
ATOM     57  C   UNL A   1      41.283  28.649  30.953  1.00  0.00     0.049 A 
ATOM     58  C   UNL A   1      40.805  32.005  35.418  1.00  0.00     0.074 A 
ATOM     59  C   UNL A   1      42.320  27.734  30.973  1.00  0.00     0.029 A 
ATOM     60  N   UNL A   1      41.345  29.356  32.144  1.00  0.00    -0.354 N 
ATOM     61  N   UNL A   1      41.053  31.170  34.437  1.00  0.00    -0.248 NA
ATOM     62  C   UNL A   1      41.660  31.811  36.598  1.00  0.00     0.031 C 
ATOM     63  C   UNL A   1      42.973  27.846  32.201  1.00  0.00     0.029 A 
ATOM     64  C   UNL A   1      42.385  28.875  32.919  1.00  0.00     0.049 A 
ATOM     65  H   UNL A   1      40.739  30.088  32.401  1.00  0.00     0.167 HD
ATOM     66  C   UNL A   1      42.116  30.386  34.865  1.00  0.00     0.074 A 
ATOM     67  C   UNL A   1      42.472  30.848  36.189  1.00  0.00     0.031 C 
ATOM     68  C   UNL A   1      42.744  29.373  34.220  1.00  0.00     0.037 A 
BRANCH  55  69
ATOM     69  C   UNL A   1      40.317  27.950  28.736  1.00  0.00     0.057 A 
ATOM     70  C   UNL A   1      41.050  28.244  27.580  1.00  0.00     0.134 A 
ATOM     71  C   UNL A   1      39.656  26.717  28.788  1.00  0.00     0.134 A 
ATOM     72  F   UNL A   1      41.696  29.414  27.461  1.00  0.00    -0.206 F 
ATOM     73  C   UNL A   1      41.117  27.346  26.512  1.00  0.00     0.040 A 
ATOM     74  C   UNL A   1      39.737  25.800  27.740  1.00  0.00     0.040 A 
ATOM     75  F   UNL A   1      38.938  26.373  29.869  1.00  0.00    -0.206 F 
ATOM     76  C   UNL A   1      40.470  26.114  26.597  1.00  0.00     0.006 A 
ENDBRANCH  55  69
BRANCH  56  77
ATOM     77  C   UNL A   1      39.665  33.944  36.716  1.00  0.00     0.057 A 
ATOM     78  C   UNL A   1      40.380  35.140  36.854  1.00  0.00     0.134 A 
ATOM     79  C   UNL A   1      38.881  33.536  37.802  1.00  0.00     0.134 A 
ATOM     80  F   UNL A   1      41.163  35.577  35.855  1.00  0.00    -0.206 F 
ATOM     81  C   UNL A   1      40.357  35.876  38.040  1.00  0.00     0.040 A 
ATOM     82  C   UNL A   1      38.822  34.280  38.982  1.00  0.00     0.040 A 
ATOM     83  F   UNL A   1      38.161  32.407  37.733  1.00  0.00    -0.206 F 
ATOM     84  C   UNL A   1      39.575  35.446  39.109  1.00  0.00     0.006 A 
ENDBRANCH  56  77
BRANCH  68  85
ATOM     85  C   UNL A   1      43.922  28.741  34.900  1.00  0.00     0.057 A 
ATOM     86  C   UNL A   1      45.224  29.229  34.743  1.00  0.00     0.134 A 
ATOM     87  C   UNL A   1      43.733  27.667  35.782  1.00  0.00     0.134 A 
ATOM     88  F   UNL A   1      45.473  30.246  33.906  1.00  0.00    -0.206 F 
ATOM     89  C   UNL A   1      46.301  28.661  35.427  1.00  0.00     0.040 A 
ATOM     90  C   UNL A   1      44.795  27.112  36.494  1.00  0.00     0.040 A 
ATOM     91  F   UNL A   1      42.507  27.160  35.986  1.00  0.00    -0.206 F 
ATOM     92  C   UNL A   1      46.085  27.608  36.315  1.00  0.00     0.006 A 
ENDBRANCH  68  85
ENDBRANCH  42  43
ENDBRANCH  34  37
ENDBRANCH  32  33
ENDBRANCH  31  32
ENDBRANCH  30  31
ENDBRANCH  29  30
ENDBRANCH   1  29
TORSDOF 17
ENDMDL
