MODEL 1
REMARK VINA RESULT:     -12.1      0.000      0.000
REMARK SMILES CC(C)Cc1cc2c(cc1Cl)C=C(C(=O)NCCCCCCNC(=O)c1ccc(-c3c4nc(c(-c5c(F)cccc5F)c5ccc([nH]5)c(-c5c(F)cccc5F)c5nc(c(-c6c(F)cccc6F)c6ccc3[nH]6)C=C5)C=C4)cc1)[C@H](C(F)(F)F)O2
REMARK SMILES IDX 19 1 18 2 17 3 16 4 14 5 15 6 13 8 5 9 6 10 10 11 7 12 9 13
REMARK SMILES IDX 11 14 8 15 85 16 12 17 80 18 4 19 2 20 1 21 3 22 81 23 82 24
REMARK SMILES IDX 83 25 84 26 20 27 21 28 22 29 23 30 24 31 25 33 26 34 27 35
REMARK SMILES IDX 79 36 28 37 78 38 29 39 30 40 31 41 72 42 32 43 77 44 71 45
REMARK SMILES IDX 73 46 33 47 76 48 70 49 69 50 34 52 60 53 43 54 59 55 44 56
REMARK SMILES IDX 47 57 58 58 74 59 45 60 46 61 57 63 75 64 48 65 35 66 36 67
REMARK SMILES IDX 41 68 37 69 38 70 40 71 42 72 39 73 61 74 62 75 67 76 63 77
REMARK SMILES IDX 64 78 66 79 68 80 65 81 49 82 50 83 55 84 51 85 52 86 54 87
REMARK SMILES IDX 56 88 53 89
REMARK H PARENT 16 7 23 32 73 51 47 62
REMARK Flexibility Score: inf
ROOT
ATOM      1  C   UNL A   1      36.510  21.829  24.343  1.00  0.00     0.002 C 
ENDROOT
BRANCH   1   2
ATOM      2  C   UNL A   1      36.932  22.984  25.251  1.00  0.00     0.021 C 
BRANCH   2   3
ATOM      3  C   UNL A   1      35.847  24.039  25.445  1.00  0.00     0.116 C 
BRANCH   3   4
ATOM      4  N   UNL A   1      34.636  23.461  25.997  1.00  0.00    -0.352 N 
ATOM      5  C   UNL A   1      33.303  23.669  25.907  1.00  0.00     0.251 C 
ATOM      6  O   UNL A   1      32.609  22.903  26.585  1.00  0.00    -0.270 OA
ATOM      7  H   UNL A   1      34.841  22.713  26.604  1.00  0.00     0.163 HD
BRANCH   5   8
ATOM      8  C   UNL A   1      32.645  24.712  25.065  1.00  0.00     0.067 C 
ATOM      9  C   UNL A   1      30.453  28.971  23.467  1.00  0.00    -0.025 A 
ATOM     10  C   UNL A   1      30.559  27.665  22.968  1.00  0.00     0.052 A 
ATOM     11  C   UNL A   1      31.102  29.279  24.674  1.00  0.00     0.045 A 
ATOM     12  C   UNL A   1      31.247  26.689  23.678  1.00  0.00     0.128 A 
ATOM     13  C   UNL A   1      31.802  28.293  25.380  1.00  0.00     0.032 A 
ATOM     14  Cl  UNL A   1      31.034  30.855  25.377  1.00  0.00    -0.084 Cl
ATOM     15  C   UNL A   1      31.863  26.987  24.889  1.00  0.00     0.019 A 
ATOM     16  O   UNL A   1      31.206  25.437  23.148  1.00  0.00    -0.475 OA
ATOM     17  C   UNL A   1      32.501  25.918  25.644  1.00  0.00     0.025 C 
ATOM     18  C   UNL A   1      32.178  24.489  23.653  1.00  0.00     0.314 C 
BRANCH   9  19
ATOM     19  C   UNL A   1      29.563  29.931  22.713  1.00  0.00     0.040 C 
BRANCH  19  20
ATOM     20  C   UNL A   1      28.235  30.201  23.457  1.00  0.00    -0.013 C 
ATOM     21  C   UNL A   1      27.653  31.578  23.128  1.00  0.00     0.008 C 
ATOM     22  C   UNL A   1      27.220  29.109  23.126  1.00  0.00     0.008 C 
ENDBRANCH  19  20
ENDBRANCH   9  19
BRANCH  18  23
ATOM     23  C   UNL A   1      33.331  24.363  22.642  1.00  0.00     0.429 C 
ATOM     24  F   UNL A   1      34.312  25.271  22.852  1.00  0.00    -0.167 F 
ATOM     25  F   UNL A   1      33.919  23.146  22.660  1.00  0.00    -0.167 F 
ATOM     26  F   UNL A   1      32.873  24.555  21.378  1.00  0.00    -0.167 F 
ENDBRANCH  18  23
ENDBRANCH   5   8
ENDBRANCH   3   4
ENDBRANCH   2   3
ENDBRANCH   1   2
BRANCH   1  27
ATOM     27  C   UNL A   1      36.546  20.444  25.001  1.00  0.00     0.002 C 
BRANCH  27  28
ATOM     28  C   UNL A   1      37.850  19.669  24.804  1.00  0.00     0.021 C 
BRANCH  28  29
ATOM     29  C   UNL A   1      38.960  20.056  25.773  1.00  0.00     0.116 C 
BRANCH  29  30
ATOM     30  N   UNL A   1      40.017  19.057  25.818  1.00  0.00    -0.352 N 
ATOM     31  C   UNL A   1      41.371  19.218  25.963  1.00  0.00     0.251 C 
ATOM     32  H   UNL A   1      39.714  18.124  25.731  1.00  0.00     0.163 HD
ATOM     33  O   UNL A   1      42.132  18.276  25.752  1.00  0.00    -0.269 OA
BRANCH  31  34
ATOM     34  C   UNL A   1      41.917  20.533  26.360  1.00  0.00     0.039 A 
ATOM     35  C   UNL A   1      42.124  20.835  27.705  1.00  0.00     0.014 A 
ATOM     36  C   UNL A   1      42.229  21.474  25.375  1.00  0.00     0.014 A 
ATOM     37  C   UNL A   1      42.472  22.126  28.075  1.00  0.00     0.010 A 
ATOM     38  C   UNL A   1      42.687  22.742  25.746  1.00  0.00     0.010 A 
ATOM     39  C   UNL A   1      42.770  23.094  27.102  1.00  0.00    -0.014 A 
BRANCH  39  40
ATOM     40  C   UNL A   1      43.188  24.450  27.546  1.00  0.00     0.031 A 
ATOM     41  C   UNL A   1      44.626  24.885  27.479  1.00  0.00     0.074 A 
ATOM     42  C   UNL A   1      42.239  25.321  27.944  1.00  0.00     0.049 A 
ATOM     43  N   UNL A   1      45.146  26.058  27.746  1.00  0.00    -0.248 NA
ATOM     44  C   UNL A   1      45.613  23.874  27.070  1.00  0.00     0.031 C 
ATOM     45  C   UNL A   1      40.810  25.016  28.060  1.00  0.00     0.029 A 
ATOM     46  N   UNL A   1      42.322  26.645  28.288  1.00  0.00    -0.354 N 
ATOM     47  C   UNL A   1      46.514  25.925  27.545  1.00  0.00     0.074 A 
ATOM     48  C   UNL A   1      46.751  24.545  27.179  1.00  0.00     0.031 C 
ATOM     49  C   UNL A   1      40.144  26.134  28.379  1.00  0.00     0.029 A 
ATOM     50  C   UNL A   1      41.103  27.217  28.558  1.00  0.00     0.049 A 
ATOM     51  H   UNL A   1      43.173  27.138  28.336  1.00  0.00     0.167 HD
ATOM     52  C   UNL A   1      47.483  26.868  27.642  1.00  0.00     0.037 A 
ATOM     53  C   UNL A   1      40.790  28.475  28.920  1.00  0.00     0.037 A 
ATOM     54  C   UNL A   1      47.246  28.241  28.011  1.00  0.00     0.049 A 
ATOM     55  C   UNL A   1      41.892  29.484  29.067  1.00  0.00     0.074 A 
ATOM     56  C   UNL A   1      48.158  29.278  28.121  1.00  0.00     0.029 A 
ATOM     57  N   UNL A   1      46.005  28.769  28.339  1.00  0.00    -0.354 N 
ATOM     58  N   UNL A   1      43.176  29.350  28.840  1.00  0.00    -0.248 NA
ATOM     59  C   UNL A   1      41.495  30.820  29.526  1.00  0.00     0.031 C 
ATOM     60  C   UNL A   1      47.478  30.416  28.568  1.00  0.00     0.029 A 
ATOM     61  C   UNL A   1      46.131  30.109  28.677  1.00  0.00     0.049 A 
ATOM     62  H   UNL A   1      45.158  28.266  28.333  1.00  0.00     0.167 HD
ATOM     63  C   UNL A   1      43.739  30.591  29.108  1.00  0.00     0.074 A 
ATOM     64  C   UNL A   1      42.649  31.470  29.480  1.00  0.00     0.031 C 
ATOM     65  C   UNL A   1      45.039  30.969  29.058  1.00  0.00     0.037 A 
BRANCH  52  66
ATOM     66  C   UNL A   1      48.897  26.436  27.363  1.00  0.00     0.057 A 
ATOM     67  C   UNL A   1      49.718  25.965  28.395  1.00  0.00     0.134 A 
ATOM     68  C   UNL A   1      49.455  26.503  26.079  1.00  0.00     0.134 A 
ATOM     69  F   UNL A   1      49.253  25.882  29.652  1.00  0.00    -0.206 F 
ATOM     70  C   UNL A   1      51.037  25.573  28.161  1.00  0.00     0.040 A 
ATOM     71  C   UNL A   1      50.764  26.086  25.826  1.00  0.00     0.040 A 
ATOM     72  F   UNL A   1      48.722  26.934  25.040  1.00  0.00    -0.206 F 
ATOM     73  C   UNL A   1      51.561  25.624  26.872  1.00  0.00     0.006 A 
ENDBRANCH  52  66
BRANCH  53  74
ATOM     74  C   UNL A   1      39.377  28.851  29.180  1.00  0.00     0.057 A 
ATOM     75  C   UNL A   1      38.801  28.691  30.445  1.00  0.00     0.134 A 
ATOM     76  C   UNL A   1      38.580  29.413  28.175  1.00  0.00     0.134 A 
ATOM     77  F   UNL A   1      39.508  28.149  31.449  1.00  0.00    -0.206 F 
ATOM     78  C   UNL A   1      37.485  29.073  30.704  1.00  0.00     0.040 A 
ATOM     79  C   UNL A   1      37.273  29.833  28.430  1.00  0.00     0.040 A 
ATOM     80  F   UNL A   1      39.079  29.609  26.946  1.00  0.00    -0.206 F 
ATOM     81  C   UNL A   1      36.721  29.659  29.697  1.00  0.00     0.006 A 
ENDBRANCH  53  74
BRANCH  65  82
ATOM     82  C   UNL A   1      45.334  32.405  29.386  1.00  0.00     0.057 A 
ATOM     83  C   UNL A   1      45.266  33.391  28.394  1.00  0.00     0.134 A 
ATOM     84  C   UNL A   1      45.656  32.819  30.687  1.00  0.00     0.134 A 
ATOM     85  F   UNL A   1      44.974  33.065  27.127  1.00  0.00    -0.206 F 
ATOM     86  C   UNL A   1      45.490  34.738  28.687  1.00  0.00     0.040 A 
ATOM     87  C   UNL A   1      45.847  34.167  30.998  1.00  0.00     0.040 A 
ATOM     88  F   UNL A   1      45.723  31.928  31.688  1.00  0.00    -0.206 F 
ATOM     89  C   UNL A   1      45.765  35.131  29.995  1.00  0.00     0.006 A 
ENDBRANCH  65  82
ENDBRANCH  39  40
ENDBRANCH  31  34
ENDBRANCH  29  30
ENDBRANCH  28  29
ENDBRANCH  27  28
ENDBRANCH   1  27
TORSDOF 16
ENDMDL
MODEL 2
REMARK VINA RESULT:     -12.0      5.133     10.258
REMARK SMILES CC(C)Cc1cc2c(cc1Cl)C=C(C(=O)NCCCCCCNC(=O)c1ccc(-c3c4nc(c(-c5c(F)cccc5F)c5ccc([nH]5)c(-c5c(F)cccc5F)c5nc(c(-c6c(F)cccc6F)c6ccc3[nH]6)C=C5)C=C4)cc1)[C@H](C(F)(F)F)O2
REMARK SMILES IDX 19 1 18 2 17 3 16 4 14 5 15 6 13 8 5 9 6 10 10 11 7 12 9 13
REMARK SMILES IDX 11 14 8 15 85 16 12 17 80 18 4 19 2 20 1 21 3 22 81 23 82 24
REMARK SMILES IDX 83 25 84 26 20 27 21 28 22 29 23 30 24 31 25 33 26 34 27 35
REMARK SMILES IDX 79 36 28 37 78 38 29 39 30 40 31 41 72 42 32 43 77 44 71 45
REMARK SMILES IDX 73 46 33 47 76 48 70 49 69 50 34 52 60 53 43 54 59 55 44 56
REMARK SMILES IDX 47 57 58 58 74 59 45 60 46 61 57 63 75 64 48 65 35 66 36 67
REMARK SMILES IDX 41 68 37 69 38 70 40 71 42 72 39 73 61 74 62 75 67 76 63 77
REMARK SMILES IDX 64 78 66 79 68 80 65 81 49 82 50 83 55 84 51 85 52 86 54 87
REMARK SMILES IDX 56 88 53 89
REMARK H PARENT 16 7 23 32 73 51 47 62
REMARK Flexibility Score: inf
ROOT
ATOM      1  C   UNL A   1      32.621  29.994  26.965  1.00  0.00     0.002 C 
ENDROOT
BRANCH   1   2
ATOM      2  C   UNL A   1      32.503  28.470  27.002  1.00  0.00     0.021 C 
BRANCH   2   3
ATOM      3  C   UNL A   1      33.654  27.749  26.308  1.00  0.00     0.116 C 
BRANCH   3   4
ATOM      4  N   UNL A   1      33.474  27.721  24.869  1.00  0.00    -0.352 N 
ATOM      5  C   UNL A   1      33.298  26.787  23.906  1.00  0.00     0.251 C 
ATOM      6  O   UNL A   1      33.184  27.235  22.760  1.00  0.00    -0.270 OA
ATOM      7  H   UNL A   1      33.481  28.629  24.489  1.00  0.00     0.163 HD
BRANCH   5   8
ATOM      8  C   UNL A   1      33.222  25.313  24.133  1.00  0.00     0.067 C 
ATOM      9  C   UNL A   1      34.392  20.429  24.655  1.00  0.00    -0.025 A 
ATOM     10  C   UNL A   1      33.202  21.147  24.468  1.00  0.00     0.052 A 
ATOM     11  C   UNL A   1      35.594  21.146  24.769  1.00  0.00     0.045 A 
ATOM     12  C   UNL A   1      33.222  22.531  24.349  1.00  0.00     0.128 A 
ATOM     13  C   UNL A   1      35.605  22.542  24.658  1.00  0.00     0.032 A 
ATOM     14  Cl  UNL A   1      37.114  20.359  25.000  1.00  0.00    -0.084 Cl
ATOM     15  C   UNL A   1      34.416  23.238  24.431  1.00  0.00     0.019 A 
ATOM     16  O   UNL A   1      32.024  23.115  24.077  1.00  0.00    -0.475 OA
ATOM     17  C   UNL A   1      34.406  24.678  24.216  1.00  0.00     0.025 C 
ATOM     18  C   UNL A   1      31.939  24.545  24.290  1.00  0.00     0.314 C 
BRANCH   9  19
ATOM     19  C   UNL A   1      34.303  18.920  24.624  1.00  0.00     0.040 C 
BRANCH  19  20
ATOM     20  C   UNL A   1      32.854  18.427  24.405  1.00  0.00    -0.013 C 
ATOM     21  C   UNL A   1      32.612  17.952  22.970  1.00  0.00     0.008 C 
ATOM     22  C   UNL A   1      32.529  17.307  25.391  1.00  0.00     0.008 C 
ENDBRANCH  19  20
ENDBRANCH   9  19
BRANCH  18  23
ATOM     23  C   UNL A   1      31.226  24.814  25.626  1.00  0.00     0.429 C 
ATOM     24  F   UNL A   1      32.085  24.907  26.668  1.00  0.00    -0.167 F 
ATOM     25  F   UNL A   1      30.502  25.956  25.618  1.00  0.00    -0.167 F 
ATOM     26  F   UNL A   1      30.361  23.806  25.911  1.00  0.00    -0.167 F 
ENDBRANCH  18  23
ENDBRANCH   5   8
ENDBRANCH   3   4
ENDBRANCH   2   3
ENDBRANCH   1   2
BRANCH   1  27
ATOM     27  C   UNL A   1      31.475  30.713  26.244  1.00  0.00     0.002 C 
BRANCH  27  28
ATOM     28  C   UNL A   1      31.393  32.219  26.499  1.00  0.00     0.021 C 
BRANCH  28  29
ATOM     29  C   UNL A   1      32.594  32.794  27.240  1.00  0.00     0.116 C 
BRANCH  29  30
ATOM     30  N   UNL A   1      32.378  34.178  27.635  1.00  0.00    -0.352 N 
ATOM     31  C   UNL A   1      32.987  34.914  28.618  1.00  0.00     0.251 C 
ATOM     32  H   UNL A   1      31.692  34.658  27.117  1.00  0.00     0.163 HD
ATOM     33  O   UNL A   1      32.519  36.000  28.956  1.00  0.00    -0.269 OA
BRANCH  31  34
ATOM     34  C   UNL A   1      34.200  34.394  29.282  1.00  0.00     0.039 A 
ATOM     35  C   UNL A   1      35.455  34.572  28.701  1.00  0.00     0.014 A 
ATOM     36  C   UNL A   1      34.083  33.724  30.503  1.00  0.00     0.014 A 
ATOM     37  C   UNL A   1      36.561  33.933  29.243  1.00  0.00     0.010 A 
ATOM     38  C   UNL A   1      35.219  33.177  31.106  1.00  0.00     0.010 A 
ATOM     39  C   UNL A   1      36.462  33.237  30.459  1.00  0.00    -0.014 A 
BRANCH  39  40
ATOM     40  C   UNL A   1      37.685  32.612  31.026  1.00  0.00     0.031 A 
ATOM     41  C   UNL A   1      38.266  33.078  32.333  1.00  0.00     0.074 A 
ATOM     42  C   UNL A   1      38.231  31.559  30.385  1.00  0.00     0.049 A 
ATOM     43  N   UNL A   1      39.275  32.587  33.010  1.00  0.00    -0.248 NA
ATOM     44  C   UNL A   1      37.642  34.253  32.962  1.00  0.00     0.031 C 
ATOM     45  C   UNL A   1      37.765  31.018  29.105  1.00  0.00     0.029 A 
ATOM     46  N   UNL A   1      39.269  30.734  30.733  1.00  0.00    -0.354 N 
ATOM     47  C   UNL A   1      39.412  33.392  34.133  1.00  0.00     0.074 A 
ATOM     48  C   UNL A   1      38.412  34.433  34.025  1.00  0.00     0.031 C 
ATOM     49  C   UNL A   1      38.465  29.914  28.811  1.00  0.00     0.029 A 
ATOM     50  C   UNL A   1      39.474  29.708  29.843  1.00  0.00     0.049 A 
ATOM     51  H   UNL A   1      39.813  30.864  31.543  1.00  0.00     0.167 HD
ATOM     52  C   UNL A   1      40.280  33.268  35.167  1.00  0.00     0.037 A 
ATOM     53  C   UNL A   1      40.380  28.714  29.851  1.00  0.00     0.037 A 
ATOM     54  C   UNL A   1      41.278  32.233  35.270  1.00  0.00     0.049 A 
ATOM     55  C   UNL A   1      41.361  28.634  30.985  1.00  0.00     0.074 A 
ATOM     56  C   UNL A   1      42.194  32.012  36.286  1.00  0.00     0.029 A 
ATOM     57  N   UNL A   1      41.497  31.248  34.318  1.00  0.00    -0.354 N 
ATOM     58  N   UNL A   1      41.454  29.383  32.057  1.00  0.00    -0.248 NA
ATOM     59  C   UNL A   1      42.365  27.567  30.905  1.00  0.00     0.031 C 
ATOM     60  C   UNL A   1      43.001  30.929  35.922  1.00  0.00     0.029 A 
ATOM     61  C   UNL A   1      42.550  30.434  34.709  1.00  0.00     0.049 A 
ATOM     62  H   UNL A   1      40.982  31.143  33.486  1.00  0.00     0.167 HD
ATOM     63  C   UNL A   1      42.514  28.866  32.789  1.00  0.00     0.074 A 
ATOM     64  C   UNL A   1      43.006  27.718  32.054  1.00  0.00     0.031 C 
ATOM     65  C   UNL A   1      43.038  29.303  33.961  1.00  0.00     0.037 A 
BRANCH  52  66
ATOM     66  C   UNL A   1      40.199  34.297  36.262  1.00  0.00     0.057 A 
ATOM     67  C   UNL A   1      40.988  35.454  36.217  1.00  0.00     0.134 A 
ATOM     68  C   UNL A   1      39.358  34.137  37.371  1.00  0.00     0.134 A 
ATOM     69  F   UNL A   1      41.824  35.668  35.189  1.00  0.00    -0.206 F 
ATOM     70  C   UNL A   1      40.940  36.413  37.229  1.00  0.00     0.040 A 
ATOM     71  C   UNL A   1      39.279  35.104  38.376  1.00  0.00     0.040 A 
ATOM     72  F   UNL A   1      38.565  33.058  37.475  1.00  0.00    -0.206 F 
ATOM     73  C   UNL A   1      40.076  36.244  38.309  1.00  0.00     0.006 A 
ENDBRANCH  52  66
BRANCH  53  74
ATOM     74  C   UNL A   1      40.415  27.722  28.747  1.00  0.00     0.057 A 
ATOM     75  C   UNL A   1      39.657  26.546  28.801  1.00  0.00     0.134 A 
ATOM     76  C   UNL A   1      41.179  27.944  27.596  1.00  0.00     0.134 A 
ATOM     77  F   UNL A   1      38.910  26.268  29.880  1.00  0.00    -0.206 F 
ATOM     78  C   UNL A   1      39.659  25.626  27.753  1.00  0.00     0.040 A 
ATOM     79  C   UNL A   1      41.163  27.048  26.525  1.00  0.00     0.040 A 
ATOM     80  F   UNL A   1      41.913  29.060  27.476  1.00  0.00    -0.206 F 
ATOM     81  C   UNL A   1      40.404  25.883  26.604  1.00  0.00     0.006 A 
ENDBRANCH  53  74
BRANCH  65  82
ATOM     82  C   UNL A   1      44.183  28.507  34.522  1.00  0.00     0.057 A 
ATOM     83  C   UNL A   1      45.506  28.852  34.219  1.00  0.00     0.134 A 
ATOM     84  C   UNL A   1      43.980  27.420  35.383  1.00  0.00     0.134 A 
ATOM     85  F   UNL A   1      45.774  29.874  33.393  1.00  0.00    -0.206 F 
ATOM     86  C   UNL A   1      46.585  28.155  34.767  1.00  0.00     0.040 A 
ATOM     87  C   UNL A   1      45.051  26.739  35.965  1.00  0.00     0.040 A 
ATOM     88  F   UNL A   1      42.738  27.046  35.727  1.00  0.00    -0.206 F 
ATOM     89  C   UNL A   1      46.359  27.106  35.655  1.00  0.00     0.006 A 
ENDBRANCH  65  82
ENDBRANCH  39  40
ENDBRANCH  31  34
ENDBRANCH  29  30
ENDBRANCH  28  29
ENDBRANCH  27  28
ENDBRANCH   1  27
TORSDOF 16
ENDMDL
MODEL 3
REMARK VINA RESULT:     -11.9      1.892      2.918
REMARK SMILES CC(C)Cc1cc2c(cc1Cl)C=C(C(=O)NCCCCCCNC(=O)c1ccc(-c3c4nc(c(-c5c(F)cccc5F)c5ccc([nH]5)c(-c5c(F)cccc5F)c5nc(c(-c6c(F)cccc6F)c6ccc3[nH]6)C=C5)C=C4)cc1)[C@H](C(F)(F)F)O2
REMARK SMILES IDX 19 1 18 2 17 3 16 4 14 5 15 6 13 8 5 9 6 10 10 11 7 12 9 13
REMARK SMILES IDX 11 14 8 15 85 16 12 17 80 18 4 19 2 20 1 21 3 22 81 23 82 24
REMARK SMILES IDX 83 25 84 26 20 27 21 28 22 29 23 30 24 31 25 33 26 34 27 35
REMARK SMILES IDX 79 36 28 37 78 38 29 39 30 40 31 41 72 42 32 43 77 44 71 45
REMARK SMILES IDX 73 46 33 47 76 48 70 49 69 50 34 52 60 53 43 54 59 55 44 56
REMARK SMILES IDX 47 57 58 58 74 59 45 60 46 61 57 63 75 64 48 65 35 66 36 67
REMARK SMILES IDX 41 68 37 69 38 70 40 71 42 72 39 73 61 74 62 75 67 76 63 77
REMARK SMILES IDX 64 78 66 79 68 80 65 81 49 82 50 83 55 84 51 85 52 86 54 87
REMARK SMILES IDX 56 88 53 89
REMARK H PARENT 16 7 23 32 73 51 47 62
REMARK Flexibility Score: inf
ROOT
ATOM      1  C   UNL A   1      35.711  21.129  25.023  1.00  0.00     0.002 C 
ENDROOT
BRANCH   1   2
ATOM      2  C   UNL A   1      35.028  19.765  24.914  1.00  0.00     0.021 C 
BRANCH   2   3
ATOM      3  C   UNL A   1      33.511  19.826  25.070  1.00  0.00     0.116 C 
BRANCH   3   4
ATOM      4  N   UNL A   1      32.873  20.342  23.875  1.00  0.00    -0.352 N 
ATOM      5  C   UNL A   1      32.479  21.545  23.397  1.00  0.00     0.251 C 
ATOM      6  O   UNL A   1      31.953  21.516  22.280  1.00  0.00    -0.270 OA
ATOM      7  H   UNL A   1      32.671  19.621  23.236  1.00  0.00     0.163 HD
BRANCH   5   8
ATOM      8  C   UNL A   1      32.647  22.852  24.100  1.00  0.00     0.067 C 
ATOM      9  C   UNL A   1      33.766  27.653  25.192  1.00  0.00    -0.025 A 
ATOM     10  C   UNL A   1      33.454  26.513  25.947  1.00  0.00     0.052 A 
ATOM     11  C   UNL A   1      33.762  27.548  23.792  1.00  0.00     0.045 A 
ATOM     12  C   UNL A   1      33.197  25.299  25.322  1.00  0.00     0.128 A 
ATOM     13  C   UNL A   1      33.492  26.324  23.168  1.00  0.00     0.032 A 
ATOM     14  Cl  UNL A   1      34.134  28.890  22.769  1.00  0.00    -0.084 Cl
ATOM     15  C   UNL A   1      33.223  25.189  23.937  1.00  0.00     0.019 A 
ATOM     16  O   UNL A   1      32.998  24.242  26.154  1.00  0.00    -0.475 OA
ATOM     17  C   UNL A   1      33.032  23.882  23.324  1.00  0.00     0.025 C 
ATOM     18  C   UNL A   1      32.393  23.063  25.566  1.00  0.00     0.314 C 
BRANCH   9  19
ATOM     19  C   UNL A   1      34.181  28.894  25.949  1.00  0.00     0.040 C 
BRANCH  19  20
ATOM     20  C   UNL A   1      32.993  29.545  26.694  1.00  0.00    -0.013 C 
ATOM     21  C   UNL A   1      33.389  30.849  27.392  1.00  0.00     0.008 C 
ATOM     22  C   UNL A   1      31.842  29.797  25.723  1.00  0.00     0.008 C 
ENDBRANCH  19  20
ENDBRANCH   9  19
BRANCH  18  23
ATOM     23  C   UNL A   1      30.900  23.025  25.939  1.00  0.00     0.429 C 
ATOM     24  F   UNL A   1      30.136  23.775  25.112  1.00  0.00    -0.167 F 
ATOM     25  F   UNL A   1      30.383  21.776  25.919  1.00  0.00    -0.167 F 
ATOM     26  F   UNL A   1      30.716  23.502  27.197  1.00  0.00    -0.167 F 
ENDBRANCH  18  23
ENDBRANCH   5   8
ENDBRANCH   3   4
ENDBRANCH   2   3
ENDBRANCH   1   2
BRANCH   1  27
ATOM     27  C   UNL A   1      37.167  21.162  24.548  1.00  0.00     0.002 C 
BRANCH  27  28
ATOM     28  C   UNL A   1      38.001  19.938  24.931  1.00  0.00     0.021 C 
BRANCH  28  29
ATOM     29  C   UNL A   1      39.056  20.209  25.996  1.00  0.00     0.116 C 
BRANCH  29  30
ATOM     30  N   UNL A   1      40.180  19.289  25.895  1.00  0.00    -0.352 N 
ATOM     31  C   UNL A   1      41.526  19.534  25.999  1.00  0.00     0.251 C 
ATOM     32  H   UNL A   1      39.938  18.350  25.728  1.00  0.00     0.163 HD
ATOM     33  O   UNL A   1      42.337  18.674  25.662  1.00  0.00    -0.269 OA
BRANCH  31  34
ATOM     34  C   UNL A   1      41.999  20.840  26.502  1.00  0.00     0.039 A 
ATOM     35  C   UNL A   1      42.138  21.062  27.871  1.00  0.00     0.014 A 
ATOM     36  C   UNL A   1      42.312  21.855  25.594  1.00  0.00     0.014 A 
ATOM     37  C   UNL A   1      42.416  22.338  28.337  1.00  0.00     0.010 A 
ATOM     38  C   UNL A   1      42.702  23.112  26.065  1.00  0.00     0.010 A 
ATOM     39  C   UNL A   1      42.714  23.379  27.442  1.00  0.00    -0.014 A 
BRANCH  39  40
ATOM     40  C   UNL A   1      43.056  24.717  27.990  1.00  0.00     0.031 A 
ATOM     41  C   UNL A   1      44.486  25.156  28.143  1.00  0.00     0.074 A 
ATOM     42  C   UNL A   1      42.054  25.572  28.280  1.00  0.00     0.049 A 
ATOM     43  N   UNL A   1      44.956  26.319  28.524  1.00  0.00    -0.248 NA
ATOM     44  C   UNL A   1      45.527  24.162  27.842  1.00  0.00     0.031 C 
ATOM     45  C   UNL A   1      40.625  25.262  28.181  1.00  0.00     0.029 A 
ATOM     46  N   UNL A   1      42.080  26.883  28.680  1.00  0.00    -0.354 N 
ATOM     47  C   UNL A   1      46.339  26.194  28.514  1.00  0.00     0.074 A 
ATOM     48  C   UNL A   1      46.634  24.829  28.136  1.00  0.00     0.031 C 
ATOM     49  C   UNL A   1      39.914  26.367  28.442  1.00  0.00     0.029 A 
ATOM     50  C   UNL A   1      40.831  27.444  28.795  1.00  0.00     0.049 A 
ATOM     51  H   UNL A   1      42.913  27.375  28.867  1.00  0.00     0.167 HD
ATOM     52  C   UNL A   1      47.279  27.135  28.782  1.00  0.00     0.037 A 
ATOM     53  C   UNL A   1      40.463  28.687  29.154  1.00  0.00     0.037 A 
ATOM     54  C   UNL A   1      46.983  28.493  29.163  1.00  0.00     0.049 A 
ATOM     55  C   UNL A   1      41.526  29.691  29.493  1.00  0.00     0.074 A 
ATOM     56  C   UNL A   1      47.864  29.526  29.439  1.00  0.00     0.029 A 
ATOM     57  N   UNL A   1      45.705  29.007  29.330  1.00  0.00    -0.354 N 
ATOM     58  N   UNL A   1      42.830  29.567  29.445  1.00  0.00    -0.248 NA
ATOM     59  C   UNL A   1      41.060  31.009  29.938  1.00  0.00     0.031 C 
ATOM     60  C   UNL A   1      47.121  30.647  29.825  1.00  0.00     0.029 A 
ATOM     61  C   UNL A   1      45.774  30.334  29.731  1.00  0.00     0.049 A 
ATOM     62  H   UNL A   1      44.871  28.505  29.186  1.00  0.00     0.167 HD
ATOM     63  C   UNL A   1      43.342  30.798  29.835  1.00  0.00     0.074 A 
ATOM     64  C   UNL A   1      42.204  31.661  30.080  1.00  0.00     0.031 C 
ATOM     65  C   UNL A   1      44.634  31.178  29.984  1.00  0.00     0.037 A 
BRANCH  52  66
ATOM     66  C   UNL A   1      48.720  26.715  28.691  1.00  0.00     0.057 A 
ATOM     67  C   UNL A   1      49.432  26.852  27.492  1.00  0.00     0.134 A 
ATOM     68  C   UNL A   1      49.402  26.156  29.781  1.00  0.00     0.134 A 
ATOM     69  F   UNL A   1      48.841  27.371  26.405  1.00  0.00    -0.206 F 
ATOM     70  C   UNL A   1      50.766  26.455  27.382  1.00  0.00     0.040 A 
ATOM     71  C   UNL A   1      50.744  25.782  29.692  1.00  0.00     0.040 A 
ATOM     72  F   UNL A   1      48.785  26.005  30.964  1.00  0.00    -0.206 F 
ATOM     73  C   UNL A   1      51.429  25.926  28.487  1.00  0.00     0.006 A 
ENDBRANCH  52  66
BRANCH  53  74
ATOM     74  C   UNL A   1      39.025  29.052  29.224  1.00  0.00     0.057 A 
ATOM     75  C   UNL A   1      38.333  29.509  28.096  1.00  0.00     0.134 A 
ATOM     76  C   UNL A   1      38.300  28.919  30.414  1.00  0.00     0.134 A 
ATOM     77  F   UNL A   1      38.972  29.667  26.926  1.00  0.00    -0.206 F 
ATOM     78  C   UNL A   1      36.975  29.821  28.147  1.00  0.00     0.040 A 
ATOM     79  C   UNL A   1      36.932  29.195  30.471  1.00  0.00     0.040 A 
ATOM     80  F   UNL A   1      38.901  28.470  31.526  1.00  0.00    -0.206 F 
ATOM     81  C   UNL A   1      36.268  29.651  29.335  1.00  0.00     0.006 A 
ENDBRANCH  53  74
BRANCH  65  82
ATOM     82  C   UNL A   1      44.870  32.602  30.402  1.00  0.00     0.057 A 
ATOM     83  C   UNL A   1      45.058  32.927  31.752  1.00  0.00     0.134 A 
ATOM     84  C   UNL A   1      44.942  33.648  29.471  1.00  0.00     0.134 A 
ATOM     85  F   UNL A   1      44.992  31.979  32.698  1.00  0.00    -0.206 F 
ATOM     86  C   UNL A   1      45.325  34.237  32.157  1.00  0.00     0.040 A 
ATOM     87  C   UNL A   1      45.243  34.954  29.860  1.00  0.00     0.040 A 
ATOM     88  F   UNL A   1      44.787  33.404  28.160  1.00  0.00    -0.206 F 
ATOM     89  C   UNL A   1      45.435  35.251  31.208  1.00  0.00     0.006 A 
ENDBRANCH  65  82
ENDBRANCH  39  40
ENDBRANCH  31  34
ENDBRANCH  29  30
ENDBRANCH  28  29
ENDBRANCH  27  28
ENDBRANCH   1  27
TORSDOF 16
ENDMDL
