MODEL 1
REMARK VINA RESULT:     -11.2      0.000      0.000
REMARK SMILES COCc1cccc(O[C@@H](C)c2ccc(C(=O)NCCCCCCNC(=O)c3ccc(-c4c5nc(c(-c6c(F)cccc6F)c6ccc([nH]6)c(-c6c(F)cccc6F)c6nc(c(-c7c(F)cccc7F)c7ccc4[nH]7)C=C6)C=C5)cc3)o2)c1
REMARK SMILES IDX 20 1 19 2 18 3 16 4 17 5 15 7 12 8 13 9 82 10 14 11 10 12
REMARK SMILES IDX 11 13 9 14 8 15 4 16 5 17 83 18 6 19 7 20 3 21 2 22 1 23
REMARK SMILES IDX 21 24 22 25 23 26 24 27 25 28 26 29 27 31 28 32 29 33 81 34
REMARK SMILES IDX 30 35 80 36 31 37 32 38 33 39 74 40 34 41 79 42 73 43 75 44
REMARK SMILES IDX 35 45 78 46 72 47 71 48 36 50 62 51 45 52 61 53 46 54 49 55
REMARK SMILES IDX 60 56 76 57 47 58 48 59 59 61 77 62 50 63 37 64 38 65 43 66
REMARK SMILES IDX 39 67 40 68 42 69 44 70 41 71 63 72 64 73 69 74 65 75 66 76
REMARK SMILES IDX 68 77 70 78 67 79 51 80 52 81 57 82 53 83 54 84 56 85 58 86
REMARK SMILES IDX 55 87
REMARK H PARENT 18 6 25 30 75 49 49 60
REMARK Flexibility Score: inf
ROOT
ATOM      1  C   UNL A   1      31.947  28.262  23.324  1.00  0.00     0.021 C 
ENDROOT
BRANCH   1   2
ATOM      2  C   UNL A   1      31.016  27.278  22.622  1.00  0.00     0.116 C 
BRANCH   2   3
ATOM      3  N   UNL A   1      31.674  26.633  21.507  1.00  0.00    -0.349 N 
ATOM      4  C   UNL A   1      32.619  25.635  21.437  1.00  0.00     0.286 C 
ATOM      5  O   UNL A   1      33.083  25.438  20.312  1.00  0.00    -0.266 OA
ATOM      6  H   UNL A   1      31.392  26.974  20.628  1.00  0.00     0.163 HD
BRANCH   4   7
ATOM      7  C   UNL A   1      33.004  24.846  22.596  1.00  0.00     0.191 A 
ATOM      8  C   UNL A   1      32.597  23.296  24.140  1.00  0.00     0.145 A 
ATOM      9  C   UNL A   1      33.757  23.937  24.516  1.00  0.00     0.050 A 
ATOM     10  O   UNL A   1      32.113  23.872  23.003  1.00  0.00    -0.452 OA
ATOM     11  C   UNL A   1      34.066  24.844  23.485  1.00  0.00     0.057 A 
BRANCH   8  12
ATOM     12  C   UNL A   1      31.818  22.161  24.730  1.00  0.00     0.236 C 
ATOM     13  C   UNL A   1      30.912  22.572  25.889  1.00  0.00     0.062 C 
BRANCH  12  14
ATOM     14  O   UNL A   1      32.646  21.029  25.081  1.00  0.00    -0.483 OA
BRANCH  14  15
ATOM     15  C   UNL A   1      32.712  19.876  24.357  1.00  0.00     0.120 A 
ATOM     16  C   UNL A   1      33.418  17.578  23.905  1.00  0.00    -0.019 A 
ATOM     17  C   UNL A   1      32.901  17.673  22.612  1.00  0.00     0.006 A 
ATOM     18  C   UNL A   1      33.253  18.666  24.774  1.00  0.00     0.052 A 
ATOM     19  C   UNL A   1      32.278  18.851  22.199  1.00  0.00     0.004 A 
ATOM     20  C   UNL A   1      32.203  19.951  23.061  1.00  0.00     0.046 A 
BRANCH  16  21
ATOM     21  C   UNL A   1      34.187  16.367  24.370  1.00  0.00     0.195 C 
BRANCH  21  22
ATOM     22  O   UNL A   1      33.767  15.877  25.640  1.00  0.00    -0.380 OA
ATOM     23  C   UNL A   1      32.671  14.975  25.571  1.00  0.00     0.195 C 
ENDBRANCH  21  22
ENDBRANCH  16  21
ENDBRANCH  14  15
ENDBRANCH  12  14
ENDBRANCH   8  12
ENDBRANCH   4   7
ENDBRANCH   2   3
ENDBRANCH   1   2
BRANCH   1  24
ATOM     24  C   UNL A   1      31.208  29.211  24.268  1.00  0.00     0.002 C 
BRANCH  24  25
ATOM     25  C   UNL A   1      31.886  29.413  25.630  1.00  0.00     0.002 C 
BRANCH  25  26
ATOM     26  C   UNL A   1      33.237  28.709  25.796  1.00  0.00     0.021 C 
BRANCH  26  27
ATOM     27  C   UNL A   1      33.802  28.770  27.212  1.00  0.00     0.116 C 
BRANCH  27  28
ATOM     28  N   UNL A   1      33.841  30.137  27.711  1.00  0.00    -0.352 N 
ATOM     29  C   UNL A   1      34.805  30.770  28.454  1.00  0.00     0.251 C 
ATOM     30  H   UNL A   1      33.060  30.689  27.481  1.00  0.00     0.163 HD
ATOM     31  O   UNL A   1      34.558  31.836  29.007  1.00  0.00    -0.269 OA
BRANCH  29  32
ATOM     32  C   UNL A   1      36.140  30.155  28.598  1.00  0.00     0.039 A 
ATOM     33  C   UNL A   1      37.031  30.213  27.524  1.00  0.00     0.014 A 
ATOM     34  C   UNL A   1      36.506  29.521  29.789  1.00  0.00     0.014 A 
ATOM     35  C   UNL A   1      38.321  29.703  27.673  1.00  0.00     0.010 A 
ATOM     36  C   UNL A   1      37.813  29.075  29.958  1.00  0.00     0.010 A 
ATOM     37  C   UNL A   1      38.736  29.173  28.906  1.00  0.00    -0.014 A 
BRANCH  37  38
ATOM     38  C   UNL A   1      40.145  28.771  29.134  1.00  0.00     0.031 A 
ATOM     39  C   UNL A   1      41.132  29.737  29.720  1.00  0.00     0.074 A 
ATOM     40  C   UNL A   1      40.548  27.548  28.733  1.00  0.00     0.049 A 
ATOM     41  N   UNL A   1      42.418  29.586  29.915  1.00  0.00    -0.248 NA
ATOM     42  C   UNL A   1      40.614  31.056  30.115  1.00  0.00     0.031 C 
ATOM     43  C   UNL A   1      39.689  26.538  28.111  1.00  0.00     0.029 A 
ATOM     44  N   UNL A   1      41.782  26.953  28.775  1.00  0.00    -0.354 N 
ATOM     45  C   UNL A   1      42.862  30.787  30.451  1.00  0.00     0.074 A 
ATOM     46  C   UNL A   1      41.720  31.676  30.502  1.00  0.00     0.031 C 
ATOM     47  C   UNL A   1      40.418  25.443  27.849  1.00  0.00     0.029 A 
ATOM     48  C   UNL A   1      41.802  25.690  28.237  1.00  0.00     0.049 A 
ATOM     49  H   UNL A   1      42.579  27.391  29.154  1.00  0.00     0.167 HD
ATOM     50  C   UNL A   1      44.107  31.112  30.879  1.00  0.00     0.037 A 
ATOM     51  C   UNL A   1      42.824  24.831  28.060  1.00  0.00     0.037 A 
ATOM     52  C   UNL A   1      45.235  30.219  30.831  1.00  0.00     0.049 A 
ATOM     53  C   UNL A   1      44.203  25.233  28.501  1.00  0.00     0.074 A 
ATOM     54  C   UNL A   1      46.520  30.431  31.302  1.00  0.00     0.029 A 
ATOM     55  N   UNL A   1      45.219  28.952  30.268  1.00  0.00    -0.354 N 
ATOM     56  N   UNL A   1      44.594  26.342  29.081  1.00  0.00    -0.248 NA
ATOM     57  C   UNL A   1      45.284  24.268  28.259  1.00  0.00     0.031 C 
ATOM     58  C   UNL A   1      47.295  29.315  30.969  1.00  0.00     0.029 A 
ATOM     59  C   UNL A   1      46.482  28.386  30.340  1.00  0.00     0.049 A 
ATOM     60  H   UNL A   1      44.427  28.518  29.875  1.00  0.00     0.167 HD
ATOM     61  C   UNL A   1      45.960  26.203  29.287  1.00  0.00     0.074 A 
ATOM     62  C   UNL A   1      46.325  24.891  28.791  1.00  0.00     0.031 C 
ATOM     63  C   UNL A   1      46.833  27.083  29.833  1.00  0.00     0.037 A 
BRANCH  50  64
ATOM     64  C   UNL A   1      44.313  32.493  31.431  1.00  0.00     0.057 A 
ATOM     65  C   UNL A   1      44.149  32.777  32.794  1.00  0.00     0.134 A 
ATOM     66  C   UNL A   1      44.721  33.542  30.598  1.00  0.00     0.134 A 
ATOM     67  F   UNL A   1      43.751  31.821  33.646  1.00  0.00    -0.206 F 
ATOM     68  C   UNL A   1      44.357  34.061  33.302  1.00  0.00     0.040 A 
ATOM     69  C   UNL A   1      44.961  34.823  31.100  1.00  0.00     0.040 A 
ATOM     70  F   UNL A   1      44.905  33.339  29.285  1.00  0.00    -0.206 F 
ATOM     71  C   UNL A   1      44.772  35.087  32.455  1.00  0.00     0.006 A 
ENDBRANCH  50  64
BRANCH  51  72
ATOM     72  C   UNL A   1      42.580  23.507  27.432  1.00  0.00     0.057 A 
ATOM     73  C   UNL A   1      42.275  22.386  28.211  1.00  0.00     0.134 A 
ATOM     74  C   UNL A   1      42.646  23.331  26.045  1.00  0.00     0.134 A 
ATOM     75  F   UNL A   1      42.216  22.488  29.547  1.00  0.00    -0.206 F 
ATOM     76  C   UNL A   1      42.059  21.132  27.636  1.00  0.00     0.040 A 
ATOM     77  C   UNL A   1      42.405  22.090  25.453  1.00  0.00     0.040 A 
ATOM     78  F   UNL A   1      42.926  24.367  25.242  1.00  0.00    -0.206 F 
ATOM     79  C   UNL A   1      42.119  20.984  26.251  1.00  0.00     0.006 A 
ENDBRANCH  51  72
BRANCH  63  80
ATOM     80  C   UNL A   1      48.270  26.657  29.925  1.00  0.00     0.057 A 
ATOM     81  C   UNL A   1      49.199  26.983  28.929  1.00  0.00     0.134 A 
ATOM     82  C   UNL A   1      48.739  25.953  31.042  1.00  0.00     0.134 A 
ATOM     83  F   UNL A   1      48.810  27.641  27.826  1.00  0.00    -0.206 F 
ATOM     84  C   UNL A   1      50.540  26.610  29.032  1.00  0.00     0.040 A 
ATOM     85  C   UNL A   1      50.083  25.599  31.169  1.00  0.00     0.040 A 
ATOM     86  F   UNL A   1      47.903  25.616  32.035  1.00  0.00    -0.206 F 
ATOM     87  C   UNL A   1      50.987  25.924  30.160  1.00  0.00     0.006 A 
ENDBRANCH  63  80
ENDBRANCH  37  38
ENDBRANCH  29  32
ENDBRANCH  27  28
ENDBRANCH  26  27
ENDBRANCH  25  26
ENDBRANCH  24  25
ENDBRANCH   1  24
TORSDOF 18
ENDMDL
MODEL 2
REMARK VINA RESULT:     -11.0      3.800      7.926
REMARK SMILES COCc1cccc(O[C@@H](C)c2ccc(C(=O)NCCCCCCNC(=O)c3ccc(-c4c5nc(c(-c6c(F)cccc6F)c6ccc([nH]6)c(-c6c(F)cccc6F)c6nc(c(-c7c(F)cccc7F)c7ccc4[nH]7)C=C6)C=C5)cc3)o2)c1
REMARK SMILES IDX 20 1 19 2 18 3 16 4 17 5 15 7 12 8 13 9 82 10 14 11 10 12
REMARK SMILES IDX 11 13 9 14 8 15 4 16 5 17 83 18 6 19 7 20 3 21 2 22 1 23
REMARK SMILES IDX 21 24 22 25 23 26 24 27 25 28 26 29 27 31 28 32 29 33 81 34
REMARK SMILES IDX 30 35 80 36 31 37 32 38 33 39 74 40 34 41 79 42 73 43 75 44
REMARK SMILES IDX 35 45 78 46 72 47 71 48 36 50 62 51 45 52 61 53 46 54 49 55
REMARK SMILES IDX 60 56 76 57 47 58 48 59 59 61 77 62 50 63 37 64 38 65 43 66
REMARK SMILES IDX 39 67 40 68 42 69 44 70 41 71 63 72 64 73 69 74 65 75 66 76
REMARK SMILES IDX 68 77 70 78 67 79 51 80 52 81 57 82 53 83 54 84 56 85 58 86
REMARK SMILES IDX 55 87
REMARK H PARENT 18 6 25 30 75 49 49 60
REMARK Flexibility Score: inf
ROOT
ATOM      1  C   UNL A   1      33.041  28.742  25.052  1.00  0.00     0.021 C 
ENDROOT
BRANCH   1   2
ATOM      2  C   UNL A   1      33.190  29.013  23.558  1.00  0.00     0.116 C 
BRANCH   2   3
ATOM      3  N   UNL A   1      31.907  29.248  22.934  1.00  0.00    -0.349 N 
ATOM      4  C   UNL A   1      30.860  28.412  22.619  1.00  0.00     0.286 C 
ATOM      5  O   UNL A   1      29.972  28.927  21.935  1.00  0.00    -0.266 OA
ATOM      6  H   UNL A   1      31.753  30.188  22.684  1.00  0.00     0.163 HD
BRANCH   4   7
ATOM      7  C   UNL A   1      30.788  27.041  23.099  1.00  0.00     0.191 A 
ATOM      8  C   UNL A   1      31.506  24.935  23.141  1.00  0.00     0.145 A 
ATOM      9  C   UNL A   1      30.308  24.962  23.821  1.00  0.00     0.050 A 
ATOM     10  O   UNL A   1      31.779  26.183  22.663  1.00  0.00    -0.452 OA
ATOM     11  C   UNL A   1      29.911  26.311  23.881  1.00  0.00     0.057 A 
BRANCH   8  12
ATOM     12  C   UNL A   1      32.489  23.846  22.843  1.00  0.00     0.236 C 
ATOM     13  C   UNL A   1      33.139  23.963  21.465  1.00  0.00     0.062 C 
BRANCH  12  14
ATOM     14  O   UNL A   1      31.953  22.523  23.064  1.00  0.00    -0.483 OA
BRANCH  14  15
ATOM     15  C   UNL A   1      32.670  21.481  23.576  1.00  0.00     0.120 A 
ATOM     16  C   UNL A   1      33.053  19.150  24.205  1.00  0.00    -0.019 A 
ATOM     17  C   UNL A   1      34.223  19.519  24.868  1.00  0.00     0.006 A 
ATOM     18  C   UNL A   1      32.332  20.135  23.515  1.00  0.00     0.052 A 
ATOM     19  C   UNL A   1      34.626  20.856  24.870  1.00  0.00     0.004 A 
ATOM     20  C   UNL A   1      33.843  21.831  24.243  1.00  0.00     0.046 A 
BRANCH  16  21
ATOM     21  C   UNL A   1      32.519  17.739  24.255  1.00  0.00     0.195 C 
BRANCH  21  22
ATOM     22  O   UNL A   1      32.809  17.061  25.474  1.00  0.00    -0.380 OA
ATOM     23  C   UNL A   1      33.352  15.761  25.290  1.00  0.00     0.195 C 
ENDBRANCH  21  22
ENDBRANCH  16  21
ENDBRANCH  14  15
ENDBRANCH  12  14
ENDBRANCH   8  12
ENDBRANCH   4   7
ENDBRANCH   2   3
ENDBRANCH   1   2
BRANCH   1  24
ATOM     24  C   UNL A   1      33.023  30.020  25.891  1.00  0.00     0.002 C 
BRANCH  24  25
ATOM     25  C   UNL A   1      31.631  30.450  26.373  1.00  0.00     0.002 C 
BRANCH  25  26
ATOM     26  C   UNL A   1      31.458  31.955  26.604  1.00  0.00     0.021 C 
BRANCH  26  27
ATOM     27  C   UNL A   1      32.650  32.622  27.283  1.00  0.00     0.116 C 
BRANCH  27  28
ATOM     28  N   UNL A   1      32.398  34.033  27.538  1.00  0.00    -0.352 N 
ATOM     29  C   UNL A   1      32.940  34.862  28.486  1.00  0.00     0.251 C 
ATOM     30  H   UNL A   1      31.740  34.455  26.939  1.00  0.00     0.163 HD
ATOM     31  O   UNL A   1      32.425  35.948  28.725  1.00  0.00    -0.269 OA
BRANCH  29  32
ATOM     32  C   UNL A   1      34.142  34.435  29.230  1.00  0.00     0.039 A 
ATOM     33  C   UNL A   1      33.986  33.853  30.491  1.00  0.00     0.014 A 
ATOM     34  C   UNL A   1      35.417  34.613  28.685  1.00  0.00     0.014 A 
ATOM     35  C   UNL A   1      35.108  33.377  31.171  1.00  0.00     0.010 A 
ATOM     36  C   UNL A   1      36.524  34.075  29.333  1.00  0.00     0.010 A 
ATOM     37  C   UNL A   1      36.378  33.441  30.576  1.00  0.00    -0.014 A 
BRANCH  37  38
ATOM     38  C   UNL A   1      37.556  32.801  31.210  1.00  0.00     0.031 A 
ATOM     39  C   UNL A   1      38.188  31.585  30.599  1.00  0.00     0.074 A 
ATOM     40  C   UNL A   1      38.004  33.280  32.388  1.00  0.00     0.049 A 
ATOM     41  N   UNL A   1      39.171  30.850  31.055  1.00  0.00    -0.248 NA
ATOM     42  C   UNL A   1      37.629  31.118  29.322  1.00  0.00     0.031 C 
ATOM     43  C   UNL A   1      37.442  34.431  33.101  1.00  0.00     0.029 A 
ATOM     44  N   UNL A   1      39.022  32.852  33.201  1.00  0.00    -0.354 N 
ATOM     45  C   UNL A   1      39.344  29.834  30.125  1.00  0.00     0.074 A 
ATOM     46  C   UNL A   1      38.332  30.016  29.106  1.00  0.00     0.031 C 
ATOM     47  C   UNL A   1      38.136  34.628  34.232  1.00  0.00     0.029 A 
ATOM     48  C   UNL A   1      39.157  33.592  34.350  1.00  0.00     0.049 A 
ATOM     49  H   UNL A   1      39.602  32.086  32.981  1.00  0.00     0.167 HD
ATOM     50  C   UNL A   1      40.276  28.850  30.114  1.00  0.00     0.037 A 
ATOM     51  C   UNL A   1      39.996  33.444  35.392  1.00  0.00     0.037 A 
ATOM     52  C   UNL A   1      41.284  28.680  31.129  1.00  0.00     0.049 A 
ATOM     53  C   UNL A   1      40.989  32.316  35.377  1.00  0.00     0.074 A 
ATOM     54  C   UNL A   1      42.312  27.755  31.172  1.00  0.00     0.029 A 
ATOM     55  N   UNL A   1      41.380  29.441  32.283  1.00  0.00    -0.354 N 
ATOM     56  N   UNL A   1      41.196  31.410  34.452  1.00  0.00    -0.248 NA
ATOM     57  C   UNL A   1      41.863  32.186  36.551  1.00  0.00     0.031 C 
ATOM     58  C   UNL A   1      42.995  27.919  32.383  1.00  0.00     0.029 A 
ATOM     59  C   UNL A   1      42.424  28.980  33.068  1.00  0.00     0.049 A 
ATOM     60  H   UNL A   1      40.793  30.198  32.512  1.00  0.00     0.167 HD
ATOM     61  C   UNL A   1      42.230  30.613  34.924  1.00  0.00     0.074 A 
ATOM     62  C   UNL A   1      42.625  31.158  36.207  1.00  0.00     0.031 C 
ATOM     63  C   UNL A   1      42.799  29.526  34.349  1.00  0.00     0.037 A 
BRANCH  50  64
ATOM     64  C   UNL A   1      40.244  27.876  28.971  1.00  0.00     0.057 A 
ATOM     65  C   UNL A   1      40.962  28.100  27.788  1.00  0.00     0.134 A 
ATOM     66  C   UNL A   1      39.522  26.680  29.070  1.00  0.00     0.134 A 
ATOM     67  F   UNL A   1      41.667  29.229  27.624  1.00  0.00    -0.206 F 
ATOM     68  C   UNL A   1      40.939  27.183  26.735  1.00  0.00     0.040 A 
ATOM     69  C   UNL A   1      39.516  25.743  28.035  1.00  0.00     0.040 A 
ATOM     70  F   UNL A   1      38.819  26.398  30.177  1.00  0.00    -0.206 F 
ATOM     71  C   UNL A   1      40.220  25.997  26.861  1.00  0.00     0.006 A 
ENDBRANCH  50  64
BRANCH  51  72
ATOM     72  C   UNL A   1      39.931  34.386  36.538  1.00  0.00     0.057 A 
ATOM     73  C   UNL A   1      40.635  35.595  36.518  1.00  0.00     0.134 A 
ATOM     74  C   UNL A   1      39.166  34.104  37.676  1.00  0.00     0.134 A 
ATOM     75  F   UNL A   1      41.400  35.913  35.463  1.00  0.00    -0.206 F 
ATOM     76  C   UNL A   1      40.595  36.483  37.594  1.00  0.00     0.040 A 
ATOM     77  C   UNL A   1      39.094  34.994  38.748  1.00  0.00     0.040 A 
ATOM     78  F   UNL A   1      38.461  32.966  37.755  1.00  0.00    -0.206 F 
ATOM     79  C   UNL A   1      39.818  36.184  38.712  1.00  0.00     0.006 A 
ENDBRANCH  51  72
BRANCH  63  80
ATOM     80  C   UNL A   1      43.910  28.853  35.102  1.00  0.00     0.057 A 
ATOM     81  C   UNL A   1      45.245  29.248  34.954  1.00  0.00     0.134 A 
ATOM     82  C   UNL A   1      43.637  27.829  36.019  1.00  0.00     0.134 A 
ATOM     83  F   UNL A   1      45.575  30.212  34.080  1.00  0.00    -0.206 F 
ATOM     84  C   UNL A   1      46.271  28.640  35.677  1.00  0.00     0.040 A 
ATOM     85  C   UNL A   1      44.651  27.232  36.769  1.00  0.00     0.040 A 
ATOM     86  F   UNL A   1      42.378  27.407  36.214  1.00  0.00    -0.206 F 
ATOM     87  C   UNL A   1      45.974  27.634  36.595  1.00  0.00     0.006 A 
ENDBRANCH  63  80
ENDBRANCH  37  38
ENDBRANCH  29  32
ENDBRANCH  27  28
ENDBRANCH  26  27
ENDBRANCH  25  26
ENDBRANCH  24  25
ENDBRANCH   1  24
TORSDOF 18
ENDMDL
MODEL 3
REMARK VINA RESULT:     -11.0      1.868      2.227
REMARK SMILES COCc1cccc(O[C@@H](C)c2ccc(C(=O)NCCCCCCNC(=O)c3ccc(-c4c5nc(c(-c6c(F)cccc6F)c6ccc([nH]6)c(-c6c(F)cccc6F)c6nc(c(-c7c(F)cccc7F)c7ccc4[nH]7)C=C6)C=C5)cc3)o2)c1
REMARK SMILES IDX 20 1 19 2 18 3 16 4 17 5 15 7 12 8 13 9 82 10 14 11 10 12
REMARK SMILES IDX 11 13 9 14 8 15 4 16 5 17 83 18 6 19 7 20 3 21 2 22 1 23
REMARK SMILES IDX 21 24 22 25 23 26 24 27 25 28 26 29 27 31 28 32 29 33 81 34
REMARK SMILES IDX 30 35 80 36 31 37 32 38 33 39 74 40 34 41 79 42 73 43 75 44
REMARK SMILES IDX 35 45 78 46 72 47 71 48 36 50 62 51 45 52 61 53 46 54 49 55
REMARK SMILES IDX 60 56 76 57 47 58 48 59 59 61 77 62 50 63 37 64 38 65 43 66
REMARK SMILES IDX 39 67 40 68 42 69 44 70 41 71 63 72 64 73 69 74 65 75 66 76
REMARK SMILES IDX 68 77 70 78 67 79 51 80 52 81 57 82 53 83 54 84 56 85 58 86
REMARK SMILES IDX 55 87
REMARK H PARENT 18 6 25 30 75 49 49 60
REMARK Flexibility Score: inf
ROOT
ATOM      1  C   UNL A   1      31.627  28.488  22.999  1.00  0.00     0.021 C 
ENDROOT
BRANCH   1   2
ATOM      2  C   UNL A   1      30.868  27.304  22.407  1.00  0.00     0.116 C 
BRANCH   2   3
ATOM      3  N   UNL A   1      31.640  26.643  21.378  1.00  0.00    -0.349 N 
ATOM      4  C   UNL A   1      32.642  25.702  21.429  1.00  0.00     0.286 C 
ATOM      5  O   UNL A   1      33.197  25.474  20.352  1.00  0.00    -0.266 OA
ATOM      6  H   UNL A   1      31.404  26.922  20.464  1.00  0.00     0.163 HD
BRANCH   4   7
ATOM      7  C   UNL A   1      32.985  24.997  22.655  1.00  0.00     0.191 A 
ATOM      8  C   UNL A   1      32.604  23.437  24.195  1.00  0.00     0.145 A 
ATOM      9  C   UNL A   1      33.612  24.241  24.682  1.00  0.00     0.050 A 
ATOM     10  O   UNL A   1      32.190  23.918  22.988  1.00  0.00    -0.452 OA
ATOM     11  C   UNL A   1      33.919  25.161  23.662  1.00  0.00     0.057 A 
BRANCH   8  12
ATOM     12  C   UNL A   1      31.920  22.217  24.730  1.00  0.00     0.236 C 
ATOM     13  C   UNL A   1      30.958  22.506  25.881  1.00  0.00     0.062 C 
BRANCH  12  14
ATOM     14  O   UNL A   1      32.838  21.153  25.062  1.00  0.00    -0.483 OA
BRANCH  14  15
ATOM     15  C   UNL A   1      32.869  19.944  24.432  1.00  0.00     0.120 A 
ATOM     16  C   UNL A   1      33.579  17.625  24.115  1.00  0.00    -0.019 A 
ATOM     17  C   UNL A   1      32.961  17.606  22.864  1.00  0.00     0.006 A 
ATOM     18  C   UNL A   1      33.463  18.780  24.902  1.00  0.00     0.052 A 
ATOM     19  C   UNL A   1      32.286  18.738  22.406  1.00  0.00     0.004 A 
ATOM     20  C   UNL A   1      32.258  19.904  23.179  1.00  0.00     0.046 A 
BRANCH  16  21
ATOM     21  C   UNL A   1      34.405  16.466  24.616  1.00  0.00     0.195 C 
BRANCH  21  22
ATOM     22  O   UNL A   1      33.845  15.815  25.753  1.00  0.00    -0.380 OA
ATOM     23  C   UNL A   1      32.773  14.936  25.440  1.00  0.00     0.195 C 
ENDBRANCH  21  22
ENDBRANCH  16  21
ENDBRANCH  14  15
ENDBRANCH  12  14
ENDBRANCH   8  12
ENDBRANCH   4   7
ENDBRANCH   2   3
ENDBRANCH   1   2
BRANCH   1  24
ATOM     24  C   UNL A   1      30.784  29.310  23.974  1.00  0.00     0.002 C 
BRANCH  24  25
ATOM     25  C   UNL A   1      31.498  29.682  25.281  1.00  0.00     0.002 C 
BRANCH  25  26
ATOM     26  C   UNL A   1      32.948  29.199  25.390  1.00  0.00     0.021 C 
BRANCH  26  27
ATOM     27  C   UNL A   1      33.546  29.335  26.787  1.00  0.00     0.116 C 
BRANCH  27  28
ATOM     28  N   UNL A   1      33.675  30.731  27.178  1.00  0.00    -0.352 N 
ATOM     29  C   UNL A   1      34.581  31.325  28.020  1.00  0.00     0.251 C 
ATOM     30  H   UNL A   1      33.014  31.340  26.778  1.00  0.00     0.163 HD
ATOM     31  O   UNL A   1      34.384  32.460  28.438  1.00  0.00    -0.269 OA
BRANCH  29  32
ATOM     32  C   UNL A   1      35.791  30.585  28.432  1.00  0.00     0.039 A 
ATOM     33  C   UNL A   1      36.959  30.724  27.679  1.00  0.00     0.014 A 
ATOM     34  C   UNL A   1      35.768  29.755  29.557  1.00  0.00     0.014 A 
ATOM     35  C   UNL A   1      38.129  30.091  28.101  1.00  0.00     0.010 A 
ATOM     36  C   UNL A   1      36.950  29.181  30.013  1.00  0.00     0.010 A 
ATOM     37  C   UNL A   1      38.143  29.354  29.297  1.00  0.00    -0.014 A 
BRANCH  37  38
ATOM     38  C   UNL A   1      39.408  28.805  29.844  1.00  0.00     0.031 A 
ATOM     39  C   UNL A   1      40.060  29.433  31.040  1.00  0.00     0.074 A 
ATOM     40  C   UNL A   1      40.007  27.781  29.204  1.00  0.00     0.049 A 
ATOM     41  N   UNL A   1      41.203  29.138  31.606  1.00  0.00    -0.248 NA
ATOM     42  C   UNL A   1      39.349  30.556  31.670  1.00  0.00     0.031 C 
ATOM     43  C   UNL A   1      39.489  27.116  28.005  1.00  0.00     0.029 A 
ATOM     44  N   UNL A   1      41.186  27.130  29.461  1.00  0.00    -0.354 N 
ATOM     45  C   UNL A   1      41.350  30.039  32.653  1.00  0.00     0.074 A 
ATOM     46  C   UNL A   1      40.206  30.924  32.612  1.00  0.00     0.031 C 
ATOM     47  C   UNL A   1      40.336  26.140  27.644  1.00  0.00     0.029 A 
ATOM     48  C   UNL A   1      41.477  26.142  28.553  1.00  0.00     0.049 A 
ATOM     49  H   UNL A   1      41.768  27.351  30.224  1.00  0.00     0.167 HD
ATOM     50  C   UNL A   1      42.342  30.107  33.574  1.00  0.00     0.037 A 
ATOM     51  C   UNL A   1      42.552  25.337  28.452  1.00  0.00     0.037 A 
ATOM     52  C   UNL A   1      43.473  29.218  33.611  1.00  0.00     0.049 A 
ATOM     53  C   UNL A   1      43.659  25.465  29.460  1.00  0.00     0.074 A 
ATOM     54  C   UNL A   1      44.495  29.164  34.543  1.00  0.00     0.029 A 
ATOM     55  N   UNL A   1      43.741  28.238  32.668  1.00  0.00    -0.354 N 
ATOM     56  N   UNL A   1      43.747  26.267  30.493  1.00  0.00    -0.248 NA
ATOM     57  C   UNL A   1      44.819  24.579  29.286  1.00  0.00     0.031 C 
ATOM     58  C   UNL A   1      45.411  28.190  34.131  1.00  0.00     0.029 A 
ATOM     59  C   UNL A   1      44.934  27.602  32.971  1.00  0.00     0.049 A 
ATOM     60  H   UNL A   1      43.167  28.025  31.896  1.00  0.00     0.167 HD
ATOM     61  C   UNL A   1      44.960  25.974  31.100  1.00  0.00     0.074 A 
ATOM     62  C   UNL A   1      45.564  24.903  30.333  1.00  0.00     0.031 C 
ATOM     63  C   UNL A   1      45.527  26.544  32.192  1.00  0.00     0.037 A 
BRANCH  50  64
ATOM     64  C   UNL A   1      42.248  31.186  34.616  1.00  0.00     0.057 A 
ATOM     65  C   UNL A   1      41.601  30.977  35.841  1.00  0.00     0.134 A 
ATOM     66  C   UNL A   1      42.849  32.434  34.408  1.00  0.00     0.134 A 
ATOM     67  F   UNL A   1      40.997  29.808  36.101  1.00  0.00    -0.206 F 
ATOM     68  C   UNL A   1      41.531  31.980  36.810  1.00  0.00     0.040 A 
ATOM     69  C   UNL A   1      42.811  33.434  35.382  1.00  0.00     0.040 A 
ATOM     70  F   UNL A   1      43.492  32.699  33.261  1.00  0.00    -0.206 F 
ATOM     71  C   UNL A   1      42.144  33.210  36.584  1.00  0.00     0.006 A 
ENDBRANCH  50  64
BRANCH  51  72
ATOM     72  C   UNL A   1      42.633  24.341  27.353  1.00  0.00     0.057 A 
ATOM     73  C   UNL A   1      42.155  23.038  27.525  1.00  0.00     0.134 A 
ATOM     74  C   UNL A   1      43.187  24.667  26.109  1.00  0.00     0.134 A 
ATOM     75  F   UNL A   1      41.630  22.661  28.700  1.00  0.00    -0.206 F 
ATOM     76  C   UNL A   1      42.239  22.088  26.505  1.00  0.00     0.040 A 
ATOM     77  C   UNL A   1      43.253  23.735  25.071  1.00  0.00     0.040 A 
ATOM     78  F   UNL A   1      43.656  25.901  25.877  1.00  0.00    -0.206 F 
ATOM     79  C   UNL A   1      42.785  22.439  25.272  1.00  0.00     0.006 A 
ENDBRANCH  51  72
BRANCH  63  80
ATOM     80  C   UNL A   1      46.866  26.020  32.623  1.00  0.00     0.057 A 
ATOM     81  C   UNL A   1      48.060  26.550  32.120  1.00  0.00     0.134 A 
ATOM     82  C   UNL A   1      46.963  25.005  33.584  1.00  0.00     0.134 A 
ATOM     83  F   UNL A   1      48.036  27.512  31.185  1.00  0.00    -0.206 F 
ATOM     84  C   UNL A   1      49.303  26.079  32.546  1.00  0.00     0.040 A 
ATOM     85  C   UNL A   1      48.201  24.545  34.038  1.00  0.00     0.040 A 
ATOM     86  F   UNL A   1      45.857  24.458  34.112  1.00  0.00    -0.206 F 
ATOM     87  C   UNL A   1      49.375  25.080  33.514  1.00  0.00     0.006 A 
ENDBRANCH  63  80
ENDBRANCH  37  38
ENDBRANCH  29  32
ENDBRANCH  27  28
ENDBRANCH  26  27
ENDBRANCH  25  26
ENDBRANCH  24  25
ENDBRANCH   1  24
TORSDOF 18
ENDMDL
