MODEL 1
REMARK VINA RESULT:     -12.3      0.000      0.000
REMARK SMILES O=C(NCCCCCCNC(=O)c1cn(Cc2ccc(N3CCCC3=O)cc2)c2cc(F)c(F)cc2c1=O)c1ccc(-c2c3nc(c(-c4c(F)cccc4F)c4ccc([nH]4)c(-c4c(F)cccc4F)c4nc(c(-c5c(F)cccc5F)c5ccc2[nH]5)C=C4)C=C3)cc1
REMARK SMILES IDX 7 1 6 2 5 3 4 4 3 5 1 6 2 7 39 9 40 10 92 11 41 12 91 13
REMARK SMILES IDX 42 14 43 15 44 16 85 17 45 18 90 19 84 20 86 21 46 22 89 23
REMARK SMILES IDX 83 24 82 25 47 27 73 28 56 29 72 30 57 31 60 32 71 33 87 34
REMARK SMILES IDX 58 35 59 36 70 38 88 39 61 40 48 41 49 42 54 43 50 44 51 45
REMARK SMILES IDX 53 46 55 47 52 48 74 49 75 50 80 51 76 52 77 53 79 54 81 55
REMARK SMILES IDX 78 56 62 57 63 58 68 59 64 60 65 61 67 62 69 63 66 64 8 65
REMARK SMILES IDX 9 66 10 67 11 68 12 70 13 71 14 72 37 73 15 74 36 75 38 76
REMARK SMILES IDX 29 77 35 78 30 79 33 80 31 81 34 82 32 83 16 84 17 85 18 86
REMARK SMILES IDX 28 87 19 88 27 89 20 90 21 91 22 92 25 93 23 94 24 95 26 96
REMARK H PARENT 3 8 86 26 60 37 10 69
REMARK Flexibility Score: inf
ROOT
ATOM      1  C   UNL A   1      32.799  29.061  26.741  1.00  0.00     0.002 C 
ENDROOT
BRANCH   1   2
ATOM      2  C   UNL A   1      31.806  29.967  26.007  1.00  0.00     0.002 C 
BRANCH   2   3
ATOM      3  C   UNL A   1      31.565  31.335  26.650  1.00  0.00     0.021 C 
BRANCH   3   4
ATOM      4  C   UNL A   1      32.827  32.065  27.093  1.00  0.00     0.116 C 
BRANCH   4   5
ATOM      5  N   UNL A   1      32.555  33.441  27.471  1.00  0.00    -0.352 N 
ATOM      6  O   UNL A   1      32.638  35.287  28.752  1.00  0.00    -0.269 OA
ATOM      7  C   UNL A   1      33.147  34.216  28.432  1.00  0.00     0.251 C 
ATOM      8  H   UNL A   1      31.837  33.881  26.961  1.00  0.00     0.163 HD
BRANCH   7   9
ATOM      9  C   UNL A   1      34.398  33.776  29.088  1.00  0.00     0.039 A 
ATOM     10  C   UNL A   1      35.620  34.146  28.516  1.00  0.00     0.014 A 
ATOM     11  C   UNL A   1      34.377  32.943  30.210  1.00  0.00     0.014 A 
ATOM     12  C   UNL A   1      36.814  33.683  29.070  1.00  0.00     0.010 A 
ATOM     13  C   UNL A   1      35.570  32.552  30.812  1.00  0.00     0.010 A 
ATOM     14  C   UNL A   1      36.800  32.882  30.223  1.00  0.00    -0.014 A 
BRANCH  14  15
ATOM     15  C   UNL A   1      38.053  32.292  30.759  1.00  0.00     0.031 A 
ATOM     16  C   UNL A   1      38.595  31.025  30.150  1.00  0.00     0.074 A 
ATOM     17  C   UNL A   1      38.697  32.876  31.786  1.00  0.00     0.049 A 
ATOM     18  N   UNL A   1      39.641  30.318  30.495  1.00  0.00    -0.248 NA
ATOM     19  C   UNL A   1      37.844  30.465  29.013  1.00  0.00     0.031 C 
ATOM     20  C   UNL A   1      38.272  34.099  32.470  1.00  0.00     0.029 A 
ATOM     21  N   UNL A   1      39.852  32.516  32.434  1.00  0.00    -0.354 N 
ATOM     22  C   UNL A   1      39.665  29.232  29.628  1.00  0.00     0.074 A 
ATOM     23  C   UNL A   1      38.494  29.334  28.789  1.00  0.00     0.031 C 
ATOM     24  C   UNL A   1      39.170  34.403  33.421  1.00  0.00     0.029 A 
ATOM     25  C   UNL A   1      40.209  33.377  33.443  1.00  0.00     0.049 A 
ATOM     26  H   UNL A   1      40.375  31.717  32.197  1.00  0.00     0.167 HD
ATOM     27  C   UNL A   1      40.595  28.253  29.518  1.00  0.00     0.037 A 
ATOM     28  C   UNL A   1      41.251  33.334  34.294  1.00  0.00     0.037 A 
ATOM     29  C   UNL A   1      41.770  28.161  30.341  1.00  0.00     0.049 A 
ATOM     30  C   UNL A   1      42.240  32.203  34.188  1.00  0.00     0.074 A 
ATOM     31  C   UNL A   1      42.791  27.228  30.289  1.00  0.00     0.029 A 
ATOM     32  N   UNL A   1      42.081  29.036  31.371  1.00  0.00    -0.354 N 
ATOM     33  N   UNL A   1      42.274  31.206  33.336  1.00  0.00    -0.248 NA
ATOM     34  C   UNL A   1      43.336  32.194  35.166  1.00  0.00     0.031 C 
ATOM     35  C   UNL A   1      43.692  27.508  31.322  1.00  0.00     0.029 A 
ATOM     36  C   UNL A   1      43.263  28.649  31.980  1.00  0.00     0.049 A 
ATOM     37  H   UNL A   1      41.541  29.818  31.630  1.00  0.00     0.167 HD
ATOM     38  C   UNL A   1      43.408  30.471  33.657  1.00  0.00     0.074 A 
ATOM     39  C   UNL A   1      44.045  31.148  34.767  1.00  0.00     0.031 C 
ATOM     40  C   UNL A   1      43.884  29.337  33.084  1.00  0.00     0.037 A 
BRANCH  27  41
ATOM     41  C   UNL A   1      40.364  27.201  28.469  1.00  0.00     0.057 A 
ATOM     42  C   UNL A   1      40.988  27.288  27.218  1.00  0.00     0.134 A 
ATOM     43  C   UNL A   1      39.521  26.104  28.693  1.00  0.00     0.134 A 
ATOM     44  F   UNL A   1      41.802  28.314  26.932  1.00  0.00    -0.206 F 
ATOM     45  C   UNL A   1      40.787  26.321  26.232  1.00  0.00     0.040 A 
ATOM     46  C   UNL A   1      39.338  25.111  27.727  1.00  0.00     0.040 A 
ATOM     47  F   UNL A   1      38.902  25.951  29.874  1.00  0.00    -0.206 F 
ATOM     48  C   UNL A   1      39.968  25.222  26.490  1.00  0.00     0.006 A 
ENDBRANCH  27  41
BRANCH  28  49
ATOM     49  C   UNL A   1      41.429  34.394  35.321  1.00  0.00     0.057 A 
ATOM     50  C   UNL A   1      42.102  35.587  35.032  1.00  0.00     0.134 A 
ATOM     51  C   UNL A   1      40.887  34.255  36.604  1.00  0.00     0.134 A 
ATOM     52  F   UNL A   1      42.650  35.782  33.823  1.00  0.00    -0.206 F 
ATOM     53  C   UNL A   1      42.230  36.602  35.981  1.00  0.00     0.040 A 
ATOM     54  C   UNL A   1      40.980  35.274  37.553  1.00  0.00     0.040 A 
ATOM     55  F   UNL A   1      40.212  33.144  36.935  1.00  0.00    -0.206 F 
ATOM     56  C   UNL A   1      41.657  36.452  37.242  1.00  0.00     0.006 A 
ENDBRANCH  28  49
BRANCH  40  57
ATOM     57  C   UNL A   1      45.168  28.782  33.629  1.00  0.00     0.057 A 
ATOM     58  C   UNL A   1      46.401  29.197  33.109  1.00  0.00     0.134 A 
ATOM     59  C   UNL A   1      45.190  27.826  34.655  1.00  0.00     0.134 A 
ATOM     60  F   UNL A   1      46.453  30.101  32.119  1.00  0.00    -0.206 F 
ATOM     61  C   UNL A   1      47.607  28.684  33.589  1.00  0.00     0.040 A 
ATOM     62  C   UNL A   1      46.390  27.330  35.164  1.00  0.00     0.040 A 
ATOM     63  F   UNL A   1      44.045  27.396  35.206  1.00  0.00    -0.206 F 
ATOM     64  C   UNL A   1      47.603  27.756  34.627  1.00  0.00     0.006 A 
ENDBRANCH  40  57
ENDBRANCH  14  15
ENDBRANCH   7   9
ENDBRANCH   4   5
ENDBRANCH   3   4
ENDBRANCH   2   3
ENDBRANCH   1   2
BRANCH   1  65
ATOM     65  C   UNL A   1      33.996  28.590  25.915  1.00  0.00     0.021 C 
BRANCH  65  66
ATOM     66  C   UNL A   1      34.183  29.302  24.579  1.00  0.00     0.116 C 
BRANCH  66  67
ATOM     67  N   UNL A   1      34.457  28.392  23.480  1.00  0.00    -0.352 N 
ATOM     68  C   UNL A   1      33.599  27.603  22.759  1.00  0.00     0.256 C 
ATOM     69  H   UNL A   1      35.402  28.335  23.211  1.00  0.00     0.163 HD
ATOM     70  O   UNL A   1      34.038  26.901  21.853  1.00  0.00    -0.269 OA
BRANCH  68  71
ATOM     71  C   UNL A   1      32.162  27.626  23.101  1.00  0.00     0.104 A 
ATOM     72  C   UNL A   1      31.607  26.607  23.776  1.00  0.00     0.104 A 
ATOM     73  C   UNL A   1      31.288  28.756  22.726  1.00  0.00     0.202 A 
ATOM     74  N   UNL A   1      30.251  26.421  24.019  1.00  0.00    -0.342 N 
ATOM     75  C   UNL A   1      29.852  28.643  23.073  1.00  0.00     0.050 A 
ATOM     76  O   UNL A   1      31.688  29.721  22.085  1.00  0.00    -0.288 OA
ATOM     77  C   UNL A   1      29.354  27.414  23.561  1.00  0.00     0.055 A 
ATOM     78  C   UNL A   1      29.014  29.744  22.842  1.00  0.00     0.056 A 
ATOM     79  C   UNL A   1      27.963  27.268  23.564  1.00  0.00     0.069 A 
ATOM     80  C   UNL A   1      27.651  29.606  23.041  1.00  0.00     0.159 A 
ATOM     81  C   UNL A   1      27.125  28.364  23.359  1.00  0.00     0.160 A 
ATOM     82  F   UNL A   1      26.844  30.663  22.891  1.00  0.00    -0.204 F 
ATOM     83  F   UNL A   1      25.803  28.203  23.499  1.00  0.00    -0.204 F 
BRANCH  74  84
ATOM     84  C   UNL A   1      29.765  25.263  24.816  1.00  0.00     0.157 C 
BRANCH  84  85
ATOM     85  C   UNL A   1      30.680  24.052  24.745  1.00  0.00    -0.028 A 
ATOM     86  C   UNL A   1      31.029  23.483  23.516  1.00  0.00     0.008 A 
ATOM     87  C   UNL A   1      31.215  23.464  25.896  1.00  0.00     0.008 A 
ATOM     88  C   UNL A   1      31.806  22.330  23.430  1.00  0.00     0.027 A 
ATOM     89  C   UNL A   1      32.011  22.305  25.810  1.00  0.00     0.027 A 
ATOM     90  C   UNL A   1      32.295  21.708  24.575  1.00  0.00     0.044 A 
BRANCH  90  91
ATOM     91  N   UNL A   1      33.028  20.504  24.462  1.00  0.00    -0.312 N 
ATOM     92  C   UNL A   1      32.521  19.330  23.790  1.00  0.00     0.126 C 
ATOM     93  C   UNL A   1      34.331  20.294  24.933  1.00  0.00     0.227 C 
ATOM     94  C   UNL A   1      33.371  18.199  24.320  1.00  0.00     0.032 C 
ATOM     95  C   UNL A   1      34.701  18.861  24.626  1.00  0.00     0.102 C 
ATOM     96  O   UNL A   1      35.077  21.077  25.495  1.00  0.00    -0.275 OA
ENDBRANCH  90  91
ENDBRANCH  84  85
ENDBRANCH  74  84
ENDBRANCH  68  71
ENDBRANCH  66  67
ENDBRANCH  65  66
ENDBRANCH   1  65
TORSDOF 16
ENDMDL
MODEL 2
REMARK VINA RESULT:     -11.9      2.459      6.612
REMARK SMILES O=C(NCCCCCCNC(=O)c1cn(Cc2ccc(N3CCCC3=O)cc2)c2cc(F)c(F)cc2c1=O)c1ccc(-c2c3nc(c(-c4c(F)cccc4F)c4ccc([nH]4)c(-c4c(F)cccc4F)c4nc(c(-c5c(F)cccc5F)c5ccc2[nH]5)C=C4)C=C3)cc1
REMARK SMILES IDX 7 1 6 2 5 3 4 4 3 5 1 6 2 7 39 9 40 10 92 11 41 12 91 13
REMARK SMILES IDX 42 14 43 15 44 16 85 17 45 18 90 19 84 20 86 21 46 22 89 23
REMARK SMILES IDX 83 24 82 25 47 27 73 28 56 29 72 30 57 31 60 32 71 33 87 34
REMARK SMILES IDX 58 35 59 36 70 38 88 39 61 40 48 41 49 42 54 43 50 44 51 45
REMARK SMILES IDX 53 46 55 47 52 48 74 49 75 50 80 51 76 52 77 53 79 54 81 55
REMARK SMILES IDX 78 56 62 57 63 58 68 59 64 60 65 61 67 62 69 63 66 64 8 65
REMARK SMILES IDX 9 66 10 67 11 68 12 70 13 71 14 72 37 73 15 74 36 75 38 76
REMARK SMILES IDX 29 77 35 78 30 79 33 80 31 81 34 82 32 83 16 84 17 85 18 86
REMARK SMILES IDX 28 87 19 88 27 89 20 90 21 91 22 92 25 93 23 94 24 95 26 96
REMARK H PARENT 3 8 86 26 60 37 10 69
REMARK Flexibility Score: inf
ROOT
ATOM      1  C   UNL A   1      34.421  31.949  28.589  1.00  0.00     0.002 C 
ENDROOT
BRANCH   1   2
ATOM      2  C   UNL A   1      34.540  33.410  29.034  1.00  0.00     0.002 C 
BRANCH   2   3
ATOM      3  C   UNL A   1      33.258  34.238  28.922  1.00  0.00     0.021 C 
BRANCH   3   4
ATOM      4  C   UNL A   1      33.408  35.705  29.308  1.00  0.00     0.116 C 
BRANCH   4   5
ATOM      5  N   UNL A   1      32.580  36.054  30.448  1.00  0.00    -0.352 N 
ATOM      6  O   UNL A   1      31.755  35.881  32.533  1.00  0.00    -0.269 OA
ATOM      7  C   UNL A   1      32.675  35.648  31.753  1.00  0.00     0.251 C 
ATOM      8  H   UNL A   1      31.840  36.674  30.255  1.00  0.00     0.163 HD
BRANCH   7   9
ATOM      9  C   UNL A   1      33.878  34.934  32.233  1.00  0.00     0.039 A 
ATOM     10  C   UNL A   1      35.113  35.587  32.172  1.00  0.00     0.014 A 
ATOM     11  C   UNL A   1      33.812  33.608  32.668  1.00  0.00     0.014 A 
ATOM     12  C   UNL A   1      36.276  34.912  32.547  1.00  0.00     0.010 A 
ATOM     13  C   UNL A   1      34.959  32.963  33.122  1.00  0.00     0.010 A 
ATOM     14  C   UNL A   1      36.209  33.593  33.026  1.00  0.00    -0.014 A 
BRANCH  14  15
ATOM     15  C   UNL A   1      37.444  32.826  33.325  1.00  0.00     0.031 A 
ATOM     16  C   UNL A   1      38.189  33.091  34.607  1.00  0.00     0.074 A 
ATOM     17  C   UNL A   1      37.902  31.906  32.455  1.00  0.00     0.049 A 
ATOM     18  N   UNL A   1      39.310  32.571  35.039  1.00  0.00    -0.248 NA
ATOM     19  C   UNL A   1      37.606  34.094  35.514  1.00  0.00     0.031 C 
ATOM     20  C   UNL A   1      37.279  31.562  31.176  1.00  0.00     0.029 A 
ATOM     21  N   UNL A   1      39.003  31.090  32.520  1.00  0.00    -0.354 N 
ATOM     22  C   UNL A   1      39.568  33.190  36.256  1.00  0.00     0.074 A 
ATOM     23  C   UNL A   1      38.527  34.171  36.461  1.00  0.00     0.031 C 
ATOM     24  C   UNL A   1      37.991  30.584  30.591  1.00  0.00     0.029 A 
ATOM     25  C   UNL A   1      39.142  30.264  31.431  1.00  0.00     0.049 A 
ATOM     26  H   UNL A   1      39.634  31.096  33.275  1.00  0.00     0.167 HD
ATOM     27  C   UNL A   1      40.563  32.944  37.142  1.00  0.00     0.037 A 
ATOM     28  C   UNL A   1      40.096  29.358  31.142  1.00  0.00     0.037 A 
ATOM     29  C   UNL A   1      41.589  31.956  36.946  1.00  0.00     0.049 A 
ATOM     30  C   UNL A   1      41.224  29.144  32.117  1.00  0.00     0.074 A 
ATOM     31  C   UNL A   1      42.624  31.604  37.796  1.00  0.00     0.029 A 
ATOM     32  N   UNL A   1      41.711  31.159  35.818  1.00  0.00    -0.354 N 
ATOM     33  N   UNL A   1      41.431  29.706  33.284  1.00  0.00    -0.248 NA
ATOM     34  C   UNL A   1      42.251  28.168  31.729  1.00  0.00     0.031 C 
ATOM     35  C   UNL A   1      43.402  30.632  37.157  1.00  0.00     0.029 A 
ATOM     36  C   UNL A   1      42.820  30.337  35.936  1.00  0.00     0.049 A 
ATOM     37  H   UNL A   1      41.099  31.175  35.046  1.00  0.00     0.167 HD
ATOM     38  C   UNL A   1      42.594  29.129  33.781  1.00  0.00     0.074 A 
ATOM     39  C   UNL A   1      43.033  28.161  32.799  1.00  0.00     0.031 C 
ATOM     40  C   UNL A   1      43.241  29.377  34.947  1.00  0.00     0.037 A 
BRANCH  27  41
ATOM     41  C   UNL A   1      40.586  33.770  38.397  1.00  0.00     0.057 A 
ATOM     42  C   UNL A   1      39.804  33.413  39.503  1.00  0.00     0.134 A 
ATOM     43  C   UNL A   1      41.379  34.921  38.513  1.00  0.00     0.134 A 
ATOM     44  F   UNL A   1      39.018  32.329  39.460  1.00  0.00    -0.206 F 
ATOM     45  C   UNL A   1      39.813  34.167  40.678  1.00  0.00     0.040 A 
ATOM     46  C   UNL A   1      41.422  35.664  39.695  1.00  0.00     0.040 A 
ATOM     47  F   UNL A   1      42.163  35.312  37.497  1.00  0.00    -0.206 F 
ATOM     48  C   UNL A   1      40.633  35.290  40.780  1.00  0.00     0.006 A 
ENDBRANCH  27  41
BRANCH  28  49
ATOM     49  C   UNL A   1      40.033  28.575  29.882  1.00  0.00     0.057 A 
ATOM     50  C   UNL A   1      40.713  28.986  28.729  1.00  0.00     0.134 A 
ATOM     51  C   UNL A   1      39.325  27.368  29.815  1.00  0.00     0.134 A 
ATOM     52  F   UNL A   1      41.406  30.135  28.724  1.00  0.00    -0.206 F 
ATOM     53  C   UNL A   1      40.693  28.227  27.559  1.00  0.00     0.040 A 
ATOM     54  C   UNL A   1      39.321  26.584  28.661  1.00  0.00     0.040 A 
ATOM     55  F   UNL A   1      38.671  26.909  30.892  1.00  0.00    -0.206 F 
ATOM     56  C   UNL A   1      40.005  27.016  27.526  1.00  0.00     0.006 A 
ENDBRANCH  28  49
BRANCH  40  57
ATOM     57  C   UNL A   1      44.471  28.563  35.234  1.00  0.00     0.057 A 
ATOM     58  C   UNL A   1      45.733  29.016  34.832  1.00  0.00     0.134 A 
ATOM     59  C   UNL A   1      44.407  27.327  35.892  1.00  0.00     0.134 A 
ATOM     60  F   UNL A   1      45.866  30.185  34.188  1.00  0.00    -0.206 F 
ATOM     61  C   UNL A   1      46.888  28.270  35.074  1.00  0.00     0.040 A 
ATOM     62  C   UNL A   1      45.558  26.588  36.168  1.00  0.00     0.040 A 
ATOM     63  F   UNL A   1      43.230  26.842  36.316  1.00  0.00    -0.206 F 
ATOM     64  C   UNL A   1      46.803  27.057  35.753  1.00  0.00     0.006 A 
ENDBRANCH  40  57
ENDBRANCH  14  15
ENDBRANCH   7   9
ENDBRANCH   4   5
ENDBRANCH   3   4
ENDBRANCH   2   3
ENDBRANCH   1   2
BRANCH   1  65
ATOM     65  C   UNL A   1      33.841  31.732  27.190  1.00  0.00     0.021 C 
BRANCH  65  66
ATOM     66  C   UNL A   1      33.561  30.279  26.822  1.00  0.00     0.116 C 
BRANCH  66  67
ATOM     67  N   UNL A   1      32.507  29.680  27.624  1.00  0.00    -0.352 N 
ATOM     68  C   UNL A   1      31.839  28.496  27.453  1.00  0.00     0.256 C 
ATOM     69  H   UNL A   1      32.231  30.205  28.410  1.00  0.00     0.163 HD
ATOM     70  O   UNL A   1      30.975  28.166  28.258  1.00  0.00    -0.269 OA
BRANCH  68  71
ATOM     71  C   UNL A   1      32.190  27.649  26.295  1.00  0.00     0.104 A 
ATOM     72  C   UNL A   1      33.168  26.733  26.394  1.00  0.00     0.104 A 
ATOM     73  C   UNL A   1      31.490  27.766  24.999  1.00  0.00     0.202 A 
ATOM     74  N   UNL A   1      33.709  25.989  25.350  1.00  0.00    -0.342 N 
ATOM     75  C   UNL A   1      31.967  26.903  23.893  1.00  0.00     0.050 A 
ATOM     76  O   UNL A   1      30.604  28.588  24.795  1.00  0.00    -0.288 OA
ATOM     77  C   UNL A   1      33.160  26.164  24.059  1.00  0.00     0.055 A 
ATOM     78  C   UNL A   1      31.251  26.897  22.686  1.00  0.00     0.056 A 
ATOM     79  C   UNL A   1      33.724  25.632  22.895  1.00  0.00     0.069 A 
ATOM     80  C   UNL A   1      31.759  26.196  21.607  1.00  0.00     0.159 A 
ATOM     81  C   UNL A   1      33.008  25.603  21.698  1.00  0.00     0.160 A 
ATOM     82  F   UNL A   1      31.059  26.124  20.469  1.00  0.00    -0.204 F 
ATOM     83  F   UNL A   1      33.537  24.969  20.643  1.00  0.00    -0.204 F 
BRANCH  74  84
ATOM     84  C   UNL A   1      34.768  24.975  25.599  1.00  0.00     0.157 C 
BRANCH  84  85
ATOM     85  C   UNL A   1      34.305  23.547  25.364  1.00  0.00    -0.028 A 
ATOM     86  C   UNL A   1      35.144  22.609  24.751  1.00  0.00     0.008 A 
ATOM     87  C   UNL A   1      33.035  23.110  25.752  1.00  0.00     0.008 A 
ATOM     88  C   UNL A   1      34.715  21.316  24.459  1.00  0.00     0.027 A 
ATOM     89  C   UNL A   1      32.605  21.800  25.468  1.00  0.00     0.027 A 
ATOM     90  C   UNL A   1      33.432  20.893  24.794  1.00  0.00     0.044 A 
BRANCH  90  91
ATOM     91  N   UNL A   1      33.002  19.596  24.428  1.00  0.00    -0.312 N 
ATOM     92  C   UNL A   1      33.088  18.457  25.312  1.00  0.00     0.126 C 
ATOM     93  C   UNL A   1      32.407  19.247  23.209  1.00  0.00     0.227 C 
ATOM     94  C   UNL A   1      32.996  17.262  24.392  1.00  0.00     0.032 C 
ATOM     95  C   UNL A   1      32.142  17.759  23.241  1.00  0.00     0.102 C 
ATOM     96  O   UNL A   1      32.129  19.960  22.260  1.00  0.00    -0.275 OA
ENDBRANCH  90  91
ENDBRANCH  84  85
ENDBRANCH  74  84
ENDBRANCH  68  71
ENDBRANCH  66  67
ENDBRANCH  65  66
ENDBRANCH   1  65
TORSDOF 16
ENDMDL
MODEL 3
REMARK VINA RESULT:     -11.9      3.344      9.027
REMARK SMILES O=C(NCCCCCCNC(=O)c1cn(Cc2ccc(N3CCCC3=O)cc2)c2cc(F)c(F)cc2c1=O)c1ccc(-c2c3nc(c(-c4c(F)cccc4F)c4ccc([nH]4)c(-c4c(F)cccc4F)c4nc(c(-c5c(F)cccc5F)c5ccc2[nH]5)C=C4)C=C3)cc1
REMARK SMILES IDX 7 1 6 2 5 3 4 4 3 5 1 6 2 7 39 9 40 10 92 11 41 12 91 13
REMARK SMILES IDX 42 14 43 15 44 16 85 17 45 18 90 19 84 20 86 21 46 22 89 23
REMARK SMILES IDX 83 24 82 25 47 27 73 28 56 29 72 30 57 31 60 32 71 33 87 34
REMARK SMILES IDX 58 35 59 36 70 38 88 39 61 40 48 41 49 42 54 43 50 44 51 45
REMARK SMILES IDX 53 46 55 47 52 48 74 49 75 50 80 51 76 52 77 53 79 54 81 55
REMARK SMILES IDX 78 56 62 57 63 58 68 59 64 60 65 61 67 62 69 63 66 64 8 65
REMARK SMILES IDX 9 66 10 67 11 68 12 70 13 71 14 72 37 73 15 74 36 75 38 76
REMARK SMILES IDX 29 77 35 78 30 79 33 80 31 81 34 82 32 83 16 84 17 85 18 86
REMARK SMILES IDX 28 87 19 88 27 89 20 90 21 91 22 92 25 93 23 94 24 95 26 96
REMARK H PARENT 3 8 86 26 60 37 10 69
REMARK Flexibility Score: inf
ROOT
ATOM      1  C   UNL A   1      40.158  21.149  26.455  1.00  0.00     0.002 C 
ENDROOT
BRANCH   1   2
ATOM      2  C   UNL A   1      41.536  21.033  27.113  1.00  0.00     0.002 C 
BRANCH   2   3
ATOM      3  C   UNL A   1      42.727  21.343  26.203  1.00  0.00     0.021 C 
BRANCH   3   4
ATOM      4  C   UNL A   1      42.530  22.532  25.270  1.00  0.00     0.116 C 
BRANCH   4   5
ATOM      5  N   UNL A   1      43.791  23.152  24.905  1.00  0.00    -0.352 N 
ATOM      6  O   UNL A   1      45.267  24.826  24.630  1.00  0.00    -0.269 OA
ATOM      7  C   UNL A   1      44.270  24.400  25.206  1.00  0.00     0.251 C 
ATOM      8  H   UNL A   1      44.390  22.594  24.360  1.00  0.00     0.163 HD
BRANCH   7   9
ATOM      9  C   UNL A   1      43.597  25.237  26.224  1.00  0.00     0.039 A 
ATOM     10  C   UNL A   1      43.931  26.593  26.302  1.00  0.00     0.014 A 
ATOM     11  C   UNL A   1      42.703  24.685  27.145  1.00  0.00     0.014 A 
ATOM     12  C   UNL A   1      43.369  27.391  27.299  1.00  0.00     0.010 A 
ATOM     13  C   UNL A   1      42.078  25.500  28.085  1.00  0.00     0.010 A 
ATOM     14  C   UNL A   1      42.437  26.851  28.200  1.00  0.00    -0.014 A 
BRANCH  14  15
ATOM     15  C   UNL A   1      41.914  27.657  29.332  1.00  0.00     0.031 A 
ATOM     16  C   UNL A   1      42.605  27.591  30.670  1.00  0.00     0.074 A 
ATOM     17  C   UNL A   1      40.827  28.433  29.171  1.00  0.00     0.049 A 
ATOM     18  N   UNL A   1      42.286  28.171  31.799  1.00  0.00    -0.248 NA
ATOM     19  C   UNL A   1      43.801  26.737  30.753  1.00  0.00     0.031 C 
ATOM     20  C   UNL A   1      40.062  28.579  27.932  1.00  0.00     0.029 A 
ATOM     21  N   UNL A   1      40.177  29.251  30.062  1.00  0.00    -0.354 N 
ATOM     22  C   UNL A   1      43.234  27.745  32.722  1.00  0.00     0.074 A 
ATOM     23  C   UNL A   1      44.095  26.805  32.041  1.00  0.00     0.031 C 
ATOM     24  C   UNL A   1      39.066  29.457  28.132  1.00  0.00     0.029 A 
ATOM     25  C   UNL A   1      39.094  29.903  29.523  1.00  0.00     0.049 A 
ATOM     26  H   UNL A   1      40.461  29.361  30.998  1.00  0.00     0.167 HD
ATOM     27  C   UNL A   1      43.395  28.124  34.012  1.00  0.00     0.037 A 
ATOM     28  C   UNL A   1      38.221  30.755  30.091  1.00  0.00     0.037 A 
ATOM     29  C   UNL A   1      42.549  29.073  34.685  1.00  0.00     0.049 A 
ATOM     30  C   UNL A   1      38.387  31.116  31.544  1.00  0.00     0.074 A 
ATOM     31  C   UNL A   1      42.645  29.550  35.980  1.00  0.00     0.029 A 
ATOM     32  N   UNL A   1      41.446  29.688  34.113  1.00  0.00    -0.354 N 
ATOM     33  N   UNL A   1      39.313  30.739  32.393  1.00  0.00    -0.248 NA
ATOM     34  C   UNL A   1      37.382  32.023  32.115  1.00  0.00     0.031 C 
ATOM     35  C   UNL A   1      41.569  30.415  36.208  1.00  0.00     0.029 A 
ATOM     36  C   UNL A   1      40.836  30.521  35.037  1.00  0.00     0.049 A 
ATOM     37  H   UNL A   1      41.141  29.554  33.186  1.00  0.00     0.167 HD
ATOM     38  C   UNL A   1      39.019  31.386  33.587  1.00  0.00     0.074 A 
ATOM     39  C   UNL A   1      37.843  32.194  33.346  1.00  0.00     0.031 C 
ATOM     40  C   UNL A   1      39.665  31.320  34.779  1.00  0.00     0.037 A 
BRANCH  27  41
ATOM     41  C   UNL A   1      44.528  27.499  34.777  1.00  0.00     0.057 A 
ATOM     42  C   UNL A   1      45.762  28.152  34.889  1.00  0.00     0.134 A 
ATOM     43  C   UNL A   1      44.402  26.249  35.398  1.00  0.00     0.134 A 
ATOM     44  F   UNL A   1      45.955  29.348  34.315  1.00  0.00    -0.206 F 
ATOM     45  C   UNL A   1      46.825  27.588  35.596  1.00  0.00     0.040 A 
ATOM     46  C   UNL A   1      45.448  25.689  36.136  1.00  0.00     0.040 A 
ATOM     47  F   UNL A   1      43.244  25.574  35.342  1.00  0.00    -0.206 F 
ATOM     48  C   UNL A   1      46.666  26.358  36.232  1.00  0.00     0.006 A 
ENDBRANCH  27  41
BRANCH  28  49
ATOM     49  C   UNL A   1      37.111  31.338  29.294  1.00  0.00     0.057 A 
ATOM     50  C   UNL A   1      37.178  32.642  28.789  1.00  0.00     0.134 A 
ATOM     51  C   UNL A   1      35.973  30.584  28.981  1.00  0.00     0.134 A 
ATOM     52  F   UNL A   1      38.238  33.419  29.057  1.00  0.00    -0.206 F 
ATOM     53  C   UNL A   1      36.157  33.174  28.001  1.00  0.00     0.040 A 
ATOM     54  C   UNL A   1      34.957  31.093  28.169  1.00  0.00     0.040 A 
ATOM     55  F   UNL A   1      35.859  29.321  29.417  1.00  0.00    -0.206 F 
ATOM     56  C   UNL A   1      35.047  32.395  27.679  1.00  0.00     0.006 A 
ENDBRANCH  28  49
BRANCH  40  57
ATOM     57  C   UNL A   1      39.129  32.169  35.895  1.00  0.00     0.057 A 
ATOM     58  C   UNL A   1      39.542  33.500  36.038  1.00  0.00     0.134 A 
ATOM     59  C   UNL A   1      38.220  31.670  36.839  1.00  0.00     0.134 A 
ATOM     60  F   UNL A   1      40.418  34.039  35.177  1.00  0.00    -0.206 F 
ATOM     61  C   UNL A   1      39.069  34.304  37.077  1.00  0.00     0.040 A 
ATOM     62  C   UNL A   1      37.717  32.473  37.862  1.00  0.00     0.040 A 
ATOM     63  F   UNL A   1      37.774  30.408  36.751  1.00  0.00    -0.206 F 
ATOM     64  C   UNL A   1      38.146  33.794  37.986  1.00  0.00     0.006 A 
ENDBRANCH  40  57
ENDBRANCH  14  15
ENDBRANCH   7   9
ENDBRANCH   4   5
ENDBRANCH   3   4
ENDBRANCH   2   3
ENDBRANCH   1   2
BRANCH   1  65
ATOM     65  C   UNL A   1      39.381  22.427  26.774  1.00  0.00     0.021 C 
BRANCH  65  66
ATOM     66  C   UNL A   1      37.935  22.445  26.289  1.00  0.00     0.116 C 
BRANCH  66  67
ATOM     67  N   UNL A   1      37.773  23.093  24.999  1.00  0.00    -0.352 N 
ATOM     68  C   UNL A   1      36.843  22.874  24.017  1.00  0.00     0.256 C 
ATOM     69  H   UNL A   1      38.432  23.798  24.801  1.00  0.00     0.163 HD
ATOM     70  O   UNL A   1      36.878  23.544  22.989  1.00  0.00    -0.269 OA
BRANCH  68  71
ATOM     71  C   UNL A   1      35.821  21.830  24.233  1.00  0.00     0.104 A 
ATOM     72  C   UNL A   1      34.522  22.159  24.323  1.00  0.00     0.104 A 
ATOM     73  C   UNL A   1      36.176  20.401  24.354  1.00  0.00     0.202 A 
ATOM     74  N   UNL A   1      33.480  21.312  24.685  1.00  0.00    -0.342 N 
ATOM     75  C   UNL A   1      35.071  19.452  24.627  1.00  0.00     0.050 A 
ATOM     76  O   UNL A   1      37.333  19.998  24.315  1.00  0.00    -0.288 OA
ATOM     77  C   UNL A   1      33.789  19.956  24.943  1.00  0.00     0.055 A 
ATOM     78  C   UNL A   1      35.349  18.077  24.628  1.00  0.00     0.056 A 
ATOM     79  C   UNL A   1      32.886  19.043  25.497  1.00  0.00     0.069 A 
ATOM     80  C   UNL A   1      34.356  17.191  25.007  1.00  0.00     0.159 A 
ATOM     81  C   UNL A   1      33.147  17.674  25.479  1.00  0.00     0.160 A 
ATOM     82  F   UNL A   1      34.581  15.872  24.951  1.00  0.00    -0.204 F 
ATOM     83  F   UNL A   1      32.197  16.829  25.903  1.00  0.00    -0.204 F 
BRANCH  74  84
ATOM     84  C   UNL A   1      32.073  21.792  24.711  1.00  0.00     0.157 C 
BRANCH  84  85
ATOM     85  C   UNL A   1      31.947  23.280  24.995  1.00  0.00    -0.028 A 
ATOM     86  C   UNL A   1      31.808  24.203  23.953  1.00  0.00     0.008 A 
ATOM     87  C   UNL A   1      31.957  23.785  26.299  1.00  0.00     0.008 A 
ATOM     88  C   UNL A   1      31.764  25.576  24.185  1.00  0.00     0.027 A 
ATOM     89  C   UNL A   1      31.901  25.172  26.535  1.00  0.00     0.027 A 
ATOM     90  C   UNL A   1      31.830  26.087  25.478  1.00  0.00     0.044 A 
BRANCH  90  91
ATOM     91  N   UNL A   1      31.848  27.487  25.680  1.00  0.00    -0.312 N 
ATOM     92  C   UNL A   1      32.036  28.439  24.609  1.00  0.00     0.126 C 
ATOM     93  C   UNL A   1      31.648  28.137  26.905  1.00  0.00     0.227 C 
ATOM     94  C   UNL A   1      32.466  29.708  25.307  1.00  0.00     0.032 C 
ATOM     95  C   UNL A   1      31.784  29.623  26.660  1.00  0.00     0.102 C 
ATOM     96  O   UNL A   1      31.407  27.655  27.998  1.00  0.00    -0.275 OA
ENDBRANCH  90  91
ENDBRANCH  84  85
ENDBRANCH  74  84
ENDBRANCH  68  71
ENDBRANCH  66  67
ENDBRANCH  65  66
ENDBRANCH   1  65
TORSDOF 16
ENDMDL
