MODEL 1
REMARK VINA RESULT:     -10.1      0.000      0.000
REMARK SMILES N#C[C@@H]1CN(C(=O)NCCCC(=O)NCCCCCCNC(=O)c2ccc(-c3c4nc(c(-c5c(F)cccc5F)c5ccc([nH]5)c(-c5c(F)cccc5F)c5nc(c(-c6c(F)cccc6F)c6ccc3[nH]6)C=C5)C=C4)cc2)CCO1
REMARK SMILES IDX 16 1 15 2 14 3 12 4 13 5 11 7 10 8 9 9 8 10 6 11 7 12 5 14
REMARK SMILES IDX 3 15 4 16 80 17 79 18 78 19 2 20 1 21 17 22 18 23 19 24
REMARK SMILES IDX 20 25 21 26 22 27 23 29 24 30 25 31 77 32 26 33 76 34 27 35
REMARK SMILES IDX 28 36 29 37 70 38 30 39 75 40 69 41 71 42 31 43 74 44 68 45
REMARK SMILES IDX 67 46 32 48 58 49 41 50 57 51 42 52 45 53 56 54 72 55 43 56
REMARK SMILES IDX 44 57 55 59 73 60 46 61 33 62 34 63 39 64 35 65 36 66 38 67
REMARK SMILES IDX 40 68 37 69 59 70 60 71 65 72 61 73 62 74 64 75 66 76 63 77
REMARK SMILES IDX 47 78 48 79 53 80 49 81 50 82 52 83 54 84 51 85
REMARK H PARENT 14 6 8 13 21 28 71 47 45 58
REMARK Flexibility Score: inf
ROOT
ATOM      1  C   UNL A   1      33.565  28.057  26.265  1.00  0.00     0.021 C 
ENDROOT
BRANCH   1   2
ATOM      2  C   UNL A   1      33.137  26.665  25.799  1.00  0.00     0.116 C 
BRANCH   2   3
ATOM      3  N   UNL A   1      31.699  26.494  25.926  1.00  0.00    -0.356 N 
ATOM      4  C   UNL A   1      30.775  26.071  25.021  1.00  0.00     0.220 C 
ATOM      5  O   UNL A   1      29.584  26.117  25.332  1.00  0.00    -0.275 OA
ATOM      6  H   UNL A   1      31.334  26.721  26.811  1.00  0.00     0.163 HD
BRANCH   4   7
ATOM      7  C   UNL A   1      31.197  25.567  23.656  1.00  0.00     0.102 C 
BRANCH   7   8
ATOM      8  C   UNL A   1      30.595  24.200  23.324  1.00  0.00     0.031 C 
BRANCH   8   9
ATOM      9  C   UNL A   1      31.548  23.024  23.526  1.00  0.00     0.118 C 
BRANCH   9  10
ATOM     10  N   UNL A   1      32.896  23.304  23.069  1.00  0.00    -0.338 N 
ATOM     11  C   UNL A   1      34.122  23.203  23.614  1.00  0.00     0.317 C 
ATOM     12  O   UNL A   1      35.039  23.691  22.949  1.00  0.00    -0.249 OA
ATOM     13  H   UNL A   1      32.919  23.649  22.148  1.00  0.00     0.165 HD
BRANCH  11  14
ATOM     14  N   UNL A   1      34.344  22.622  24.828  1.00  0.00    -0.319 N 
ATOM     15  C   UNL A   1      33.926  22.719  27.281  1.00  0.00     0.240 C 
ATOM     16  C   UNL A   1      34.719  23.264  26.090  1.00  0.00     0.169 C 
ATOM     17  O   UNL A   1      34.023  21.279  27.348  1.00  0.00    -0.360 OA
ATOM     18  C   UNL A   1      33.539  20.657  26.145  1.00  0.00     0.183 C 
ATOM     19  C   UNL A   1      34.290  21.152  24.906  1.00  0.00     0.150 C 
BRANCH  15  20
ATOM     20  C   UNL A   1      32.475  23.170  27.227  1.00  0.00     0.096 C 
ATOM     21  N   UNL A   1      31.272  23.544  27.183  1.00  0.00    -0.195 NA
ENDBRANCH  15  20
ENDBRANCH  11  14
ENDBRANCH   9  10
ENDBRANCH   8   9
ENDBRANCH   7   8
ENDBRANCH   4   7
ENDBRANCH   2   3
ENDBRANCH   1   2
BRANCH   1  22
ATOM     22  C   UNL A   1      32.665  29.204  25.785  1.00  0.00     0.002 C 
BRANCH  22  23
ATOM     23  C   UNL A   1      31.904  29.961  26.885  1.00  0.00     0.002 C 
BRANCH  23  24
ATOM     24  C   UNL A   1      31.714  31.466  26.663  1.00  0.00     0.021 C 
BRANCH  24  25
ATOM     25  C   UNL A   1      32.888  32.346  27.089  1.00  0.00     0.116 C 
BRANCH  25  26
ATOM     26  N   UNL A   1      32.511  33.654  27.587  1.00  0.00    -0.352 N 
ATOM     27  C   UNL A   1      33.165  34.473  28.480  1.00  0.00     0.251 C 
ATOM     28  H   UNL A   1      31.663  34.009  27.235  1.00  0.00     0.163 HD
ATOM     29  O   UNL A   1      32.717  35.584  28.725  1.00  0.00    -0.269 OA
BRANCH  27  30
ATOM     30  C   UNL A   1      34.366  33.996  29.215  1.00  0.00     0.039 A 
ATOM     31  C   UNL A   1      34.149  33.148  30.308  1.00  0.00     0.014 A 
ATOM     32  C   UNL A   1      35.672  34.349  28.864  1.00  0.00     0.014 A 
ATOM     33  C   UNL A   1      35.232  32.586  30.987  1.00  0.00     0.010 A 
ATOM     34  C   UNL A   1      36.757  33.748  29.514  1.00  0.00     0.010 A 
ATOM     35  C   UNL A   1      36.545  32.845  30.567  1.00  0.00    -0.014 A 
BRANCH  35  36
ATOM     36  C   UNL A   1      37.681  32.108  31.183  1.00  0.00     0.031 A 
ATOM     37  C   UNL A   1      38.379  30.999  30.453  1.00  0.00     0.074 A 
ATOM     38  C   UNL A   1      38.077  32.439  32.427  1.00  0.00     0.049 A 
ATOM     39  N   UNL A   1      39.407  30.282  30.834  1.00  0.00    -0.248 NA
ATOM     40  C   UNL A   1      37.850  30.642  29.131  1.00  0.00     0.031 C 
ATOM     41  C   UNL A   1      37.467  33.480  33.257  1.00  0.00     0.029 A 
ATOM     42  N   UNL A   1      39.090  31.942  33.210  1.00  0.00    -0.354 N 
ATOM     43  C   UNL A   1      39.651  29.390  29.798  1.00  0.00     0.074 A 
ATOM     44  C   UNL A   1      38.636  29.628  28.793  1.00  0.00     0.031 C 
ATOM     45  C   UNL A   1      38.136  33.565  34.417  1.00  0.00     0.029 A 
ATOM     46  C   UNL A   1      39.200  32.565  34.429  1.00  0.00     0.049 A 
ATOM     47  H   UNL A   1      39.682  31.208  32.924  1.00  0.00     0.167 HD
ATOM     48  C   UNL A   1      40.642  28.471  29.687  1.00  0.00     0.037 A 
ATOM     49  C   UNL A   1      40.058  32.355  35.446  1.00  0.00     0.037 A 
ATOM     50  C   UNL A   1      41.655  28.237  30.685  1.00  0.00     0.049 A 
ATOM     51  C   UNL A   1      41.107  31.289  35.325  1.00  0.00     0.074 A 
ATOM     52  C   UNL A   1      42.745  27.384  30.623  1.00  0.00     0.029 A 
ATOM     53  N   UNL A   1      41.694  28.842  31.931  1.00  0.00    -0.354 N 
ATOM     54  N   UNL A   1      41.376  30.509  34.306  1.00  0.00    -0.248 NA
ATOM     55  C   UNL A   1      41.965  31.067  36.496  1.00  0.00     0.031 C 
ATOM     56  C   UNL A   1      43.412  27.434  31.853  1.00  0.00     0.029 A 
ATOM     57  C   UNL A   1      42.760  28.347  32.666  1.00  0.00     0.049 A 
ATOM     58  H   UNL A   1      41.058  29.524  32.247  1.00  0.00     0.167 HD
ATOM     59  C   UNL A   1      42.439  29.711  34.709  1.00  0.00     0.074 A 
ATOM     60  C   UNL A   1      42.777  30.113  36.059  1.00  0.00     0.031 C 
ATOM     61  C   UNL A   1      43.076  28.734  34.018  1.00  0.00     0.037 A 
BRANCH  48  62
ATOM     62  C   UNL A   1      40.667  27.638  28.440  1.00  0.00     0.057 A 
ATOM     63  C   UNL A   1      39.959  26.432  28.343  1.00  0.00     0.134 A 
ATOM     64  C   UNL A   1      41.389  28.055  27.316  1.00  0.00     0.134 A 
ATOM     65  F   UNL A   1      39.252  25.973  29.387  1.00  0.00    -0.206 F 
ATOM     66  C   UNL A   1      39.995  25.656  27.183  1.00  0.00     0.040 A 
ATOM     67  C   UNL A   1      41.413  27.299  26.142  1.00  0.00     0.040 A 
ATOM     68  F   UNL A   1      42.081  29.204  27.337  1.00  0.00    -0.206 F 
ATOM     69  C   UNL A   1      40.721  26.091  26.077  1.00  0.00     0.006 A 
ENDBRANCH  48  62
BRANCH  49  70
ATOM     70  C   UNL A   1      39.964  33.190  36.668  1.00  0.00     0.057 A 
ATOM     71  C   UNL A   1      40.776  34.317  36.833  1.00  0.00     0.134 A 
ATOM     72  C   UNL A   1      39.052  32.893  37.688  1.00  0.00     0.134 A 
ATOM     73  F   UNL A   1      41.684  34.637  35.898  1.00  0.00    -0.206 F 
ATOM     74  C   UNL A   1      40.688  35.121  37.970  1.00  0.00     0.040 A 
ATOM     75  C   UNL A   1      38.938  33.700  38.821  1.00  0.00     0.040 A 
ATOM     76  F   UNL A   1      38.247  31.826  37.587  1.00  0.00    -0.206 F 
ATOM     77  C   UNL A   1      39.760  34.816  38.966  1.00  0.00     0.006 A 
ENDBRANCH  49  70
BRANCH  61  78
ATOM     78  C   UNL A   1      44.196  28.022  34.716  1.00  0.00     0.057 A 
ATOM     79  C   UNL A   1      45.505  28.520  34.696  1.00  0.00     0.134 A 
ATOM     80  C   UNL A   1      43.961  26.849  35.444  1.00  0.00     0.134 A 
ATOM     81  F   UNL A   1      45.799  29.630  34.002  1.00  0.00    -0.206 F 
ATOM     82  C   UNL A   1      46.543  27.870  35.364  1.00  0.00     0.040 A 
ATOM     83  C   UNL A   1      44.986  26.202  36.134  1.00  0.00     0.040 A 
ATOM     84  F   UNL A   1      42.729  26.321  35.507  1.00  0.00    -0.206 F 
ATOM     85  C   UNL A   1      46.283  26.710  36.093  1.00  0.00     0.006 A 
ENDBRANCH  61  78
ENDBRANCH  35  36
ENDBRANCH  27  30
ENDBRANCH  25  26
ENDBRANCH  24  25
ENDBRANCH  23  24
ENDBRANCH  22  23
ENDBRANCH   1  22
TORSDOF 18
ENDMDL
MODEL 2
REMARK VINA RESULT:     -10.1      4.684      9.828
REMARK SMILES N#C[C@@H]1CN(C(=O)NCCCC(=O)NCCCCCCNC(=O)c2ccc(-c3c4nc(c(-c5c(F)cccc5F)c5ccc([nH]5)c(-c5c(F)cccc5F)c5nc(c(-c6c(F)cccc6F)c6ccc3[nH]6)C=C5)C=C4)cc2)CCO1
REMARK SMILES IDX 16 1 15 2 14 3 12 4 13 5 11 7 10 8 9 9 8 10 6 11 7 12 5 14
REMARK SMILES IDX 3 15 4 16 80 17 79 18 78 19 2 20 1 21 17 22 18 23 19 24
REMARK SMILES IDX 20 25 21 26 22 27 23 29 24 30 25 31 77 32 26 33 76 34 27 35
REMARK SMILES IDX 28 36 29 37 70 38 30 39 75 40 69 41 71 42 31 43 74 44 68 45
REMARK SMILES IDX 67 46 32 48 58 49 41 50 57 51 42 52 45 53 56 54 72 55 43 56
REMARK SMILES IDX 44 57 55 59 73 60 46 61 33 62 34 63 39 64 35 65 36 66 38 67
REMARK SMILES IDX 40 68 37 69 59 70 60 71 65 72 61 73 62 74 64 75 66 76 63 77
REMARK SMILES IDX 47 78 48 79 53 80 49 81 50 82 52 83 54 84 51 85
REMARK H PARENT 14 6 8 13 21 28 71 47 45 58
REMARK Flexibility Score: inf
ROOT
ATOM      1  C   UNL A   1      35.416  32.648  32.982  1.00  0.00     0.021 C 
ENDROOT
BRANCH   1   2
ATOM      2  C   UNL A   1      36.782  32.011  33.241  1.00  0.00     0.116 C 
BRANCH   2   3
ATOM      3  N   UNL A   1      36.697  30.561  33.194  1.00  0.00    -0.356 N 
ATOM      4  C   UNL A   1      37.672  29.615  33.256  1.00  0.00     0.220 C 
ATOM      5  O   UNL A   1      37.359  28.437  33.081  1.00  0.00    -0.275 OA
ATOM      6  H   UNL A   1      35.784  30.205  33.103  1.00  0.00     0.163 HD
BRANCH   4   7
ATOM      7  C   UNL A   1      39.113  30.000  33.522  1.00  0.00     0.102 C 
BRANCH   7   8
ATOM      8  C   UNL A   1      40.101  28.918  33.079  1.00  0.00     0.031 C 
BRANCH   8   9
ATOM      9  C   UNL A   1      41.538  29.148  33.540  1.00  0.00     0.118 C 
BRANCH   9  10
ATOM     10  N   UNL A   1      42.477  28.211  32.952  1.00  0.00    -0.338 N 
ATOM     11  C   UNL A   1      43.161  27.144  33.403  1.00  0.00     0.317 C 
ATOM     12  O   UNL A   1      43.996  26.682  32.622  1.00  0.00    -0.249 OA
ATOM     13  H   UNL A   1      42.656  28.401  32.002  1.00  0.00     0.165 HD
BRANCH  11  14
ATOM     14  N   UNL A   1      42.966  26.615  34.645  1.00  0.00    -0.319 N 
ATOM     15  C   UNL A   1      42.369  24.591  35.966  1.00  0.00     0.240 C 
ATOM     16  C   UNL A   1      41.873  25.758  35.108  1.00  0.00     0.169 C 
ATOM     17  O   UNL A   1      43.193  25.066  37.054  1.00  0.00    -0.360 OA
ATOM     18  C   UNL A   1      44.330  25.806  36.577  1.00  0.00     0.183 C 
ATOM     19  C   UNL A   1      43.910  26.996  35.709  1.00  0.00     0.150 C 
BRANCH  15  20
ATOM     20  C   UNL A   1      43.110  23.565  35.123  1.00  0.00     0.096 C 
ATOM     21  N   UNL A   1      43.724  22.715  34.424  1.00  0.00    -0.195 NA
ENDBRANCH  15  20
ENDBRANCH  11  14
ENDBRANCH   9  10
ENDBRANCH   8   9
ENDBRANCH   7   8
ENDBRANCH   4   7
ENDBRANCH   2   3
ENDBRANCH   1   2
BRANCH   1  22
ATOM     22  C   UNL A   1      35.006  32.721  31.504  1.00  0.00     0.002 C 
BRANCH  22  23
ATOM     23  C   UNL A   1      36.068  33.282  30.544  1.00  0.00     0.002 C 
BRANCH  23  24
ATOM     24  C   UNL A   1      35.538  33.999  29.296  1.00  0.00     0.021 C 
BRANCH  24  25
ATOM     25  C   UNL A   1      35.662  33.219  27.988  1.00  0.00     0.116 C 
BRANCH  25  26
ATOM     26  N   UNL A   1      34.662  32.186  27.804  1.00  0.00    -0.352 N 
ATOM     27  C   UNL A   1      34.765  30.825  27.982  1.00  0.00     0.251 C 
ATOM     28  H   UNL A   1      33.778  32.505  27.508  1.00  0.00     0.163 HD
ATOM     29  O   UNL A   1      33.778  30.118  27.840  1.00  0.00    -0.269 OA
BRANCH  27  30
ATOM     30  C   UNL A   1      36.079  30.190  28.262  1.00  0.00     0.039 A 
ATOM     31  C   UNL A   1      36.990  30.114  27.202  1.00  0.00     0.014 A 
ATOM     32  C   UNL A   1      36.434  29.681  29.515  1.00  0.00     0.014 A 
ATOM     33  C   UNL A   1      38.277  29.616  27.416  1.00  0.00     0.010 A 
ATOM     34  C   UNL A   1      37.739  29.226  29.741  1.00  0.00     0.010 A 
ATOM     35  C   UNL A   1      38.678  29.210  28.698  1.00  0.00    -0.014 A 
BRANCH  35  36
ATOM     36  C   UNL A   1      40.098  28.846  28.951  1.00  0.00     0.031 A 
ATOM     37  C   UNL A   1      41.034  29.793  29.644  1.00  0.00     0.074 A 
ATOM     38  C   UNL A   1      40.550  27.647  28.537  1.00  0.00     0.049 A 
ATOM     39  N   UNL A   1      42.289  29.615  29.973  1.00  0.00    -0.248 NA
ATOM     40  C   UNL A   1      40.494  31.110  30.005  1.00  0.00     0.031 C 
ATOM     41  C   UNL A   1      39.752  26.645  27.828  1.00  0.00     0.029 A 
ATOM     42  N   UNL A   1      41.787  27.063  28.656  1.00  0.00    -0.354 N 
ATOM     43  C   UNL A   1      42.691  30.796  30.583  1.00  0.00     0.074 A 
ATOM     44  C   UNL A   1      41.558  31.697  30.538  1.00  0.00     0.031 C 
ATOM     45  C   UNL A   1      40.509  25.560  27.604  1.00  0.00     0.029 A 
ATOM     46  C   UNL A   1      41.853  25.800  28.121  1.00  0.00     0.049 A 
ATOM     47  H   UNL A   1      42.554  27.508  29.084  1.00  0.00     0.167 HD
ATOM     48  C   UNL A   1      43.888  31.095  31.146  1.00  0.00     0.037 A 
ATOM     49  C   UNL A   1      42.879  24.931  28.051  1.00  0.00     0.037 A 
ATOM     50  C   UNL A   1      45.014  30.197  31.196  1.00  0.00     0.049 A 
ATOM     51  C   UNL A   1      44.213  25.308  28.626  1.00  0.00     0.074 A 
ATOM     52  C   UNL A   1      46.238  30.383  31.817  1.00  0.00     0.029 A 
ATOM     53  N   UNL A   1      45.062  28.952  30.587  1.00  0.00    -0.354 N 
ATOM     54  N   UNL A   1      44.555  26.397  29.271  1.00  0.00    -0.248 NA
ATOM     55  C   UNL A   1      45.306  24.341  28.455  1.00  0.00     0.031 C 
ATOM     56  C   UNL A   1      47.045  29.274  31.537  1.00  0.00     0.029 A 
ATOM     57  C   UNL A   1      46.310  28.379  30.777  1.00  0.00     0.049 A 
ATOM     58  H   UNL A   1      44.318  28.537  30.094  1.00  0.00     0.167 HD
ATOM     59  C   UNL A   1      45.897  26.243  29.592  1.00  0.00     0.074 A 
ATOM     60  C   UNL A   1      46.304  24.948  29.085  1.00  0.00     0.031 C 
ATOM     61  C   UNL A   1      46.715  27.101  30.249  1.00  0.00     0.037 A 
BRANCH  48  62
ATOM     62  C   UNL A   1      44.042  32.462  31.744  1.00  0.00     0.057 A 
ATOM     63  C   UNL A   1      43.811  32.703  33.105  1.00  0.00     0.134 A 
ATOM     64  C   UNL A   1      44.446  33.546  30.955  1.00  0.00     0.134 A 
ATOM     65  F   UNL A   1      43.415  31.708  33.913  1.00  0.00    -0.206 F 
ATOM     66  C   UNL A   1      43.946  33.979  33.653  1.00  0.00     0.040 A 
ATOM     67  C   UNL A   1      44.607  34.822  31.497  1.00  0.00     0.040 A 
ATOM     68  F   UNL A   1      44.693  33.383  29.646  1.00  0.00    -0.206 F 
ATOM     69  C   UNL A   1      44.348  35.043  32.849  1.00  0.00     0.006 A 
ENDBRANCH  48  62
BRANCH  49  70
ATOM     70  C   UNL A   1      42.674  23.604  27.419  1.00  0.00     0.057 A 
ATOM     71  C   UNL A   1      42.357  22.482  28.191  1.00  0.00     0.134 A 
ATOM     72  C   UNL A   1      42.774  23.432  26.034  1.00  0.00     0.134 A 
ATOM     73  F   UNL A   1      42.272  22.583  29.525  1.00  0.00    -0.206 F 
ATOM     74  C   UNL A   1      42.147  21.231  27.608  1.00  0.00     0.040 A 
ATOM     75  C   UNL A   1      42.545  22.192  25.435  1.00  0.00     0.040 A 
ATOM     76  F   UNL A   1      43.075  24.471  25.242  1.00  0.00    -0.206 F 
ATOM     77  C   UNL A   1      42.233  21.086  26.224  1.00  0.00     0.006 A 
ENDBRANCH  49  70
BRANCH  61  78
ATOM     78  C   UNL A   1      48.139  26.672  30.446  1.00  0.00     0.057 A 
ATOM     79  C   UNL A   1      49.150  27.062  29.559  1.00  0.00     0.134 A 
ATOM     80  C   UNL A   1      48.510  25.893  31.549  1.00  0.00     0.134 A 
ATOM     81  F   UNL A   1      48.857  27.795  28.474  1.00  0.00    -0.206 F 
ATOM     82  C   UNL A   1      50.479  26.681  29.754  1.00  0.00     0.040 A 
ATOM     83  C   UNL A   1      49.838  25.523  31.766  1.00  0.00     0.040 A 
ATOM     84  F   UNL A   1      47.591  25.488  32.437  1.00  0.00    -0.206 F 
ATOM     85  C   UNL A   1      50.827  25.916  30.866  1.00  0.00     0.006 A 
ENDBRANCH  61  78
ENDBRANCH  35  36
ENDBRANCH  27  30
ENDBRANCH  25  26
ENDBRANCH  24  25
ENDBRANCH  23  24
ENDBRANCH  22  23
ENDBRANCH   1  22
TORSDOF 18
ENDMDL
MODEL 3
REMARK VINA RESULT:     -10.1      1.231      6.246
REMARK SMILES N#C[C@@H]1CN(C(=O)NCCCC(=O)NCCCCCCNC(=O)c2ccc(-c3c4nc(c(-c5c(F)cccc5F)c5ccc([nH]5)c(-c5c(F)cccc5F)c5nc(c(-c6c(F)cccc6F)c6ccc3[nH]6)C=C5)C=C4)cc2)CCO1
REMARK SMILES IDX 16 1 15 2 14 3 12 4 13 5 11 7 10 8 9 9 8 10 6 11 7 12 5 14
REMARK SMILES IDX 3 15 4 16 80 17 79 18 78 19 2 20 1 21 17 22 18 23 19 24
REMARK SMILES IDX 20 25 21 26 22 27 23 29 24 30 25 31 77 32 26 33 76 34 27 35
REMARK SMILES IDX 28 36 29 37 70 38 30 39 75 40 69 41 71 42 31 43 74 44 68 45
REMARK SMILES IDX 67 46 32 48 58 49 41 50 57 51 42 52 45 53 56 54 72 55 43 56
REMARK SMILES IDX 44 57 55 59 73 60 46 61 33 62 34 63 39 64 35 65 36 66 38 67
REMARK SMILES IDX 40 68 37 69 59 70 60 71 65 72 61 73 62 74 64 75 66 76 63 77
REMARK SMILES IDX 47 78 48 79 53 80 49 81 50 82 52 83 54 84 51 85
REMARK H PARENT 14 6 8 13 21 28 71 47 45 58
REMARK Flexibility Score: inf
ROOT
ATOM      1  C   UNL A   1      32.988  28.711  25.216  1.00  0.00     0.021 C 
ENDROOT
BRANCH   1   2
ATOM      2  C   UNL A   1      32.784  28.955  23.720  1.00  0.00     0.116 C 
BRANCH   2   3
ATOM      3  N   UNL A   1      31.467  29.513  23.459  1.00  0.00    -0.356 N 
ATOM      4  C   UNL A   1      30.337  28.925  22.982  1.00  0.00     0.220 C 
ATOM      5  O   UNL A   1      29.363  29.639  22.737  1.00  0.00    -0.275 OA
ATOM      6  H   UNL A   1      31.379  30.471  23.660  1.00  0.00     0.163 HD
BRANCH   4   7
ATOM      7  C   UNL A   1      30.277  27.430  22.745  1.00  0.00     0.102 C 
BRANCH   7   8
ATOM      8  C   UNL A   1      30.016  26.642  24.030  1.00  0.00     0.031 C 
BRANCH   8   9
ATOM      9  C   UNL A   1      30.896  25.405  24.202  1.00  0.00     0.118 C 
BRANCH   9  10
ATOM     10  N   UNL A   1      32.041  25.399  23.311  1.00  0.00    -0.338 N 
ATOM     11  C   UNL A   1      33.148  24.643  23.195  1.00  0.00     0.317 C 
ATOM     12  O   UNL A   1      33.984  25.050  22.385  1.00  0.00    -0.249 OA
ATOM     13  H   UNL A   1      31.999  26.114  22.635  1.00  0.00     0.165 HD
BRANCH  11  14
ATOM     14  N   UNL A   1      33.351  23.514  23.934  1.00  0.00    -0.319 N 
ATOM     15  C   UNL A   1      33.381  22.502  26.209  1.00  0.00     0.240 C 
ATOM     16  C   UNL A   1      34.113  23.363  25.175  1.00  0.00     0.169 C 
ATOM     17  O   UNL A   1      33.000  21.230  25.640  1.00  0.00    -0.360 OA
ATOM     18  C   UNL A   1      32.151  21.393  24.490  1.00  0.00     0.183 C 
ATOM     19  C   UNL A   1      32.820  22.245  23.408  1.00  0.00     0.150 C 
BRANCH  15  20
ATOM     20  C   UNL A   1      32.177  23.233  26.778  1.00  0.00     0.096 C 
ATOM     21  N   UNL A   1      31.177  23.840  27.251  1.00  0.00    -0.195 NA
ENDBRANCH  15  20
ENDBRANCH  11  14
ENDBRANCH   9  10
ENDBRANCH   8   9
ENDBRANCH   7   8
ENDBRANCH   4   7
ENDBRANCH   2   3
ENDBRANCH   1   2
BRANCH   1  22
ATOM     22  C   UNL A   1      33.073  29.984  26.072  1.00  0.00     0.002 C 
BRANCH  22  23
ATOM     23  C   UNL A   1      31.774  30.399  26.781  1.00  0.00     0.002 C 
BRANCH  23  24
ATOM     24  C   UNL A   1      31.449  31.897  26.774  1.00  0.00     0.021 C 
BRANCH  24  25
ATOM     25  C   UNL A   1      32.617  32.825  27.105  1.00  0.00     0.116 C 
BRANCH  25  26
ATOM     26  N   UNL A   1      32.230  34.121  27.626  1.00  0.00    -0.352 N 
ATOM     27  C   UNL A   1      32.906  34.957  28.485  1.00  0.00     0.251 C 
ATOM     28  H   UNL A   1      31.354  34.451  27.321  1.00  0.00     0.163 HD
ATOM     29  O   UNL A   1      32.439  36.054  28.757  1.00  0.00    -0.269 OA
BRANCH  27  30
ATOM     30  C   UNL A   1      34.157  34.514  29.155  1.00  0.00     0.039 A 
ATOM     31  C   UNL A   1      34.029  33.915  30.413  1.00  0.00     0.014 A 
ATOM     32  C   UNL A   1      35.426  34.665  28.588  1.00  0.00     0.014 A 
ATOM     33  C   UNL A   1      35.151  33.391  31.059  1.00  0.00     0.010 A 
ATOM     34  C   UNL A   1      36.543  34.097  29.213  1.00  0.00     0.010 A 
ATOM     35  C   UNL A   1      36.411  33.435  30.444  1.00  0.00    -0.014 A 
BRANCH  35  36
ATOM     36  C   UNL A   1      37.562  32.723  31.058  1.00  0.00     0.031 A 
ATOM     37  C   UNL A   1      38.149  33.169  32.364  1.00  0.00     0.074 A 
ATOM     38  C   UNL A   1      38.093  31.663  30.417  1.00  0.00     0.049 A 
ATOM     39  N   UNL A   1      39.129  32.637  33.051  1.00  0.00    -0.248 NA
ATOM     40  C   UNL A   1      37.569  34.373  32.973  1.00  0.00     0.031 C 
ATOM     41  C   UNL A   1      37.634  31.142  29.128  1.00  0.00     0.029 A 
ATOM     42  N   UNL A   1      39.128  30.831  30.763  1.00  0.00    -0.354 N 
ATOM     43  C   UNL A   1      39.283  33.438  34.175  1.00  0.00     0.074 A 
ATOM     44  C   UNL A   1      38.323  34.516  34.054  1.00  0.00     0.031 C 
ATOM     45  C   UNL A   1      38.362  30.062  28.807  1.00  0.00     0.029 A 
ATOM     46  C   UNL A   1      39.360  29.832  29.848  1.00  0.00     0.049 A 
ATOM     47  H   UNL A   1      39.655  30.939  31.588  1.00  0.00     0.167 HD
ATOM     48  C   UNL A   1      40.132  33.278  35.220  1.00  0.00     0.037 A 
ATOM     49  C   UNL A   1      40.274  28.843  29.844  1.00  0.00     0.037 A 
ATOM     50  C   UNL A   1      41.083  32.202  35.344  1.00  0.00     0.049 A 
ATOM     51  C   UNL A   1      41.245  28.724  30.982  1.00  0.00     0.074 A 
ATOM     52  C   UNL A   1      41.925  31.914  36.405  1.00  0.00     0.029 A 
ATOM     53  N   UNL A   1      41.331  31.249  34.368  1.00  0.00    -0.354 N 
ATOM     54  N   UNL A   1      41.324  29.440  32.077  1.00  0.00    -0.248 NA
ATOM     55  C   UNL A   1      42.258  27.664  30.882  1.00  0.00     0.031 C 
ATOM     56  C   UNL A   1      42.722  30.819  36.048  1.00  0.00     0.029 A 
ATOM     57  C   UNL A   1      42.347  30.401  34.781  1.00  0.00     0.049 A 
ATOM     58  H   UNL A   1      40.855  31.185  33.509  1.00  0.00     0.167 HD
ATOM     59  C   UNL A   1      42.387  28.915  32.799  1.00  0.00     0.074 A 
ATOM     60  C   UNL A   1      42.913  27.807  32.027  1.00  0.00     0.031 C 
ATOM     61  C   UNL A   1      42.881  29.316  33.996  1.00  0.00     0.037 A 
BRANCH  48  62
ATOM     62  C   UNL A   1      40.075  34.305  36.312  1.00  0.00     0.057 A 
ATOM     63  C   UNL A   1      39.308  34.113  37.468  1.00  0.00     0.134 A 
ATOM     64  C   UNL A   1      40.814  35.491  36.217  1.00  0.00     0.134 A 
ATOM     65  F   UNL A   1      38.571  33.001  37.618  1.00  0.00    -0.206 F 
ATOM     66  C   UNL A   1      39.250  35.077  38.476  1.00  0.00     0.040 A 
ATOM     67  C   UNL A   1      40.784  36.452  37.228  1.00  0.00     0.040 A 
ATOM     68  F   UNL A   1      41.578  35.734  35.141  1.00  0.00    -0.206 F 
ATOM     69  C   UNL A   1      39.993  36.250  38.359  1.00  0.00     0.006 A 
ENDBRANCH  48  62
BRANCH  49  70
ATOM     70  C   UNL A   1      40.302  27.875  28.720  1.00  0.00     0.057 A 
ATOM     71  C   UNL A   1      41.031  28.146  27.557  1.00  0.00     0.134 A 
ATOM     72  C   UNL A   1      39.618  26.656  28.788  1.00  0.00     0.134 A 
ATOM     73  F   UNL A   1      41.687  29.308  27.427  1.00  0.00    -0.206 F 
ATOM     74  C   UNL A   1      41.079  27.238  26.498  1.00  0.00     0.040 A 
ATOM     75  C   UNL A   1      39.675  25.729  27.746  1.00  0.00     0.040 A 
ATOM     76  F   UNL A   1      38.903  26.341  29.878  1.00  0.00    -0.206 F 
ATOM     77  C   UNL A   1      40.405  26.021  26.595  1.00  0.00     0.006 A 
ENDBRANCH  49  70
BRANCH  61  78
ATOM     78  C   UNL A   1      44.058  28.561  34.539  1.00  0.00     0.057 A 
ATOM     79  C   UNL A   1      45.371  28.996  34.318  1.00  0.00     0.134 A 
ATOM     80  C   UNL A   1      43.879  27.411  35.318  1.00  0.00     0.134 A 
ATOM     81  F   UNL A   1      45.610  30.081  33.566  1.00  0.00    -0.206 F 
ATOM     82  C   UNL A   1      46.465  28.306  34.841  1.00  0.00     0.040 A 
ATOM     83  C   UNL A   1      44.964  26.725  35.864  1.00  0.00     0.040 A 
ATOM     84  F   UNL A   1      42.647  26.943  35.569  1.00  0.00    -0.206 F 
ATOM     85  C   UNL A   1      46.263  27.171  35.624  1.00  0.00     0.006 A 
ENDBRANCH  61  78
ENDBRANCH  35  36
ENDBRANCH  27  30
ENDBRANCH  25  26
ENDBRANCH  24  25
ENDBRANCH  23  24
ENDBRANCH  22  23
ENDBRANCH   1  22
TORSDOF 18
ENDMDL
