MODEL 1
REMARK VINA RESULT:     -13.5      0.000      0.000
REMARK SMILES Cc1ccc(-c2cnnc(-n3nc(C)c4c3NC(=O)C[C@@H]4c3ccc(C(=O)NCCCCCCNC(=O)c4ccc(-c5c6nc(c(-c7c(F)cccc7F)c7ccc([nH]7)c(-c7c(F)cccc7F)c7nc(c(-c8c(F)cccc8F)c8ccc5[nH]8)C=C7)C=C6)cc4)cc3)n2)cc1
REMARK SMILES IDX 31 1 30 2 29 3 28 4 26 5 27 6 25 8 22 9 23 10 93 11 24 12
REMARK SMILES IDX 92 13 21 14 11 15 12 16 16 17 13 18 15 19 17 20 14 21 18 22
REMARK SMILES IDX 20 24 19 25 10 26 6 27 7 28 94 29 8 30 9 31 5 32 1 33 2 34
REMARK SMILES IDX 3 35 96 36 4 37 95 38 32 39 33 40 34 41 35 42 36 43 37 45
REMARK SMILES IDX 38 46 39 47 91 48 40 49 90 50 41 51 42 52 43 53 84 54 44 55
REMARK SMILES IDX 89 56 83 57 85 58 45 59 88 60 82 61 81 62 46 64 72 65 55 66
REMARK SMILES IDX 71 67 56 68 59 69 70 70 86 71 57 72 58 73 69 75 87 76 60 77
REMARK SMILES IDX 47 78 48 79 53 80 49 81 50 82 52 83 54 84 51 85 73 86 74 87
REMARK SMILES IDX 79 88 75 89 76 90 78 91 80 92 77 93 61 94 62 95 67 96 63 97
REMARK SMILES IDX 64 98 66 99 68 100 65 101
REMARK H PARENT 28 7 17 23 35 44 85 63 59 74
REMARK Flexibility Score: inf
ROOT
ATOM      1  C   UNL A   1      32.069  28.210  26.232  1.00  0.00     0.002 C 
ENDROOT
BRANCH   1   2
ATOM      2  C   UNL A   1      32.019  28.836  24.831  1.00  0.00     0.021 C 
BRANCH   2   3
ATOM      3  C   UNL A   1      31.825  27.822  23.701  1.00  0.00     0.116 C 
BRANCH   3   4
ATOM      4  N   UNL A   1      30.421  27.482  23.536  1.00  0.00    -0.352 N 
ATOM      5  C   UNL A   1      29.711  26.361  23.892  1.00  0.00     0.251 C 
ATOM      6  O   UNL A   1      28.489  26.356  23.784  1.00  0.00    -0.269 OA
ATOM      7  H   UNL A   1      29.885  28.176  23.089  1.00  0.00     0.163 HD
BRANCH   5   8
ATOM      8  C   UNL A   1      30.391  25.186  24.479  1.00  0.00     0.039 A 
ATOM      9  C   UNL A   1      32.011  23.230  25.671  1.00  0.00    -0.040 A 
ATOM     10  C   UNL A   1      31.224  24.088  26.461  1.00  0.00     0.005 A 
ATOM     11  C   UNL A   1      31.810  23.245  24.284  1.00  0.00     0.005 A 
ATOM     12  C   UNL A   1      30.411  25.056  25.869  1.00  0.00     0.014 A 
ATOM     13  C   UNL A   1      31.016  24.223  23.691  1.00  0.00     0.014 A 
BRANCH   9  14
ATOM     14  C   UNL A   1      33.057  22.386  26.371  1.00  0.00     0.064 C 
ATOM     15  N   UNL A   1      36.318  21.921  24.879  1.00  0.00    -0.180 N 
ATOM     16  N   UNL A   1      36.323  23.279  24.766  1.00  0.00    -0.168 NA
ATOM     17  C   UNL A   1      35.008  21.497  25.031  1.00  0.00     0.143 A 
ATOM     18  C   UNL A   1      35.203  23.663  25.386  1.00  0.00     0.066 A 
ATOM     19  C   UNL A   1      34.380  22.540  25.692  1.00  0.00     0.026 A 
ATOM     20  N   UNL A   1      34.291  20.378  24.649  1.00  0.00    -0.310 N 
ATOM     21  C   UNL A   1      34.947  25.120  25.509  1.00  0.00     0.069 C 
ATOM     22  C   UNL A   1      32.950  20.226  25.151  1.00  0.00     0.226 C 
ATOM     23  H   UNL A   1      34.686  19.704  24.052  1.00  0.00     0.171 HD
ATOM     24  C   UNL A   1      32.667  20.912  26.466  1.00  0.00     0.113 C 
ATOM     25  O   UNL A   1      32.195  19.501  24.549  1.00  0.00    -0.275 OA
BRANCH  15  26
ATOM     26  C   UNL A   1      37.507  21.232  25.270  1.00  0.00     0.272 A 
ATOM     27  C   UNL A   1      39.700  21.114  25.892  1.00  0.00     0.095 A 
ATOM     28  C   UNL A   1      39.707  19.765  25.579  1.00  0.00     0.164 A 
ATOM     29  N   UNL A   1      38.603  21.902  25.687  1.00  0.00    -0.208 NA
ATOM     30  N   UNL A   1      38.603  19.156  25.132  1.00  0.00    -0.153 NA
ATOM     31  N   UNL A   1      37.481  19.894  25.021  1.00  0.00    -0.109 NA
BRANCH  27  32
ATOM     32  C   UNL A   1      40.849  21.716  26.579  1.00  0.00     0.002 A 
ATOM     33  C   UNL A   1      44.219  23.325  28.774  1.00  0.00     0.044 C 
ATOM     34  C   UNL A   1      43.050  22.746  28.031  1.00  0.00    -0.051 A 
ATOM     35  C   UNL A   1      43.251  22.075  26.820  1.00  0.00     0.004 A 
ATOM     36  C   UNL A   1      41.750  22.885  28.522  1.00  0.00     0.004 A 
ATOM     37  C   UNL A   1      42.164  21.563  26.104  1.00  0.00     0.011 A 
ATOM     38  C   UNL A   1      40.664  22.380  27.802  1.00  0.00     0.011 A 
ENDBRANCH  27  32
ENDBRANCH  15  26
ENDBRANCH   9  14
ENDBRANCH   5   8
ENDBRANCH   3   4
ENDBRANCH   2   3
ENDBRANCH   1   2
BRANCH   1  39
ATOM     39  C   UNL A   1      32.919  28.962  27.269  1.00  0.00     0.002 C 
BRANCH  39  40
ATOM     40  C   UNL A   1      34.422  28.697  27.201  1.00  0.00     0.021 C 
BRANCH  40  41
ATOM     41  C   UNL A   1      35.260  29.949  27.381  1.00  0.00     0.116 C 
BRANCH  41  42
ATOM     42  N   UNL A   1      34.471  31.172  27.384  1.00  0.00    -0.352 N 
ATOM     43  C   UNL A   1      34.428  32.224  28.276  1.00  0.00     0.251 C 
ATOM     44  H   UNL A   1      33.861  31.263  26.617  1.00  0.00     0.163 HD
ATOM     45  O   UNL A   1      33.551  33.074  28.138  1.00  0.00    -0.269 OA
BRANCH  43  46
ATOM     46  C   UNL A   1      35.536  32.468  29.241  1.00  0.00     0.039 A 
ATOM     47  C   UNL A   1      36.602  33.252  28.768  1.00  0.00     0.014 A 
ATOM     48  C   UNL A   1      35.740  31.600  30.299  1.00  0.00     0.014 A 
ATOM     49  C   UNL A   1      37.900  32.899  29.101  1.00  0.00     0.010 A 
ATOM     50  C   UNL A   1      36.998  31.102  30.465  1.00  0.00     0.010 A 
ATOM     51  C   UNL A   1      38.067  31.733  29.832  1.00  0.00    -0.014 A 
BRANCH  51  52
ATOM     52  C   UNL A   1      39.328  31.109  30.131  1.00  0.00     0.031 A 
ATOM     53  C   UNL A   1      39.664  29.927  29.325  1.00  0.00     0.074 A 
ATOM     54  C   UNL A   1      40.187  31.789  30.920  1.00  0.00     0.049 A 
ATOM     55  N   UNL A   1      40.505  29.031  29.682  1.00  0.00    -0.248 NA
ATOM     56  C   UNL A   1      39.017  29.619  28.046  1.00  0.00     0.031 C 
ATOM     57  C   UNL A   1      41.628  31.622  31.040  1.00  0.00     0.029 A 
ATOM     58  N   UNL A   1      39.866  32.716  31.916  1.00  0.00    -0.354 N 
ATOM     59  C   UNL A   1      40.769  28.258  28.571  1.00  0.00     0.074 A 
ATOM     60  C   UNL A   1      39.725  28.566  27.631  1.00  0.00     0.031 C 
ATOM     61  C   UNL A   1      42.037  32.178  32.195  1.00  0.00     0.029 A 
ATOM     62  C   UNL A   1      40.846  32.588  32.922  1.00  0.00     0.049 A 
ATOM     63  H   UNL A   1      39.103  33.338  31.916  1.00  0.00     0.167 HD
ATOM     64  C   UNL A   1      41.959  27.599  28.525  1.00  0.00     0.037 A 
ATOM     65  C   UNL A   1      40.499  32.126  34.163  1.00  0.00     0.037 A 
ATOM     66  C   UNL A   1      42.710  27.887  29.742  1.00  0.00     0.049 A 
ATOM     67  C   UNL A   1      41.121  30.783  34.453  1.00  0.00     0.074 A 
ATOM     68  C   UNL A   1      43.667  28.852  30.015  1.00  0.00     0.029 A 
ATOM     69  N   UNL A   1      42.234  27.436  30.964  1.00  0.00    -0.354 N 
ATOM     70  N   UNL A   1      41.417  29.907  33.531  1.00  0.00    -0.248 NA
ATOM     71  C   UNL A   1      41.523  30.354  35.789  1.00  0.00     0.031 C 
ATOM     72  C   UNL A   1      43.746  28.996  31.420  1.00  0.00     0.029 A 
ATOM     73  C   UNL A   1      42.842  28.118  31.995  1.00  0.00     0.049 A 
ATOM     74  H   UNL A   1      41.557  26.730  31.078  1.00  0.00     0.167 HD
ATOM     75  C   UNL A   1      42.057  28.841  34.111  1.00  0.00     0.074 A 
ATOM     76  C   UNL A   1      42.090  29.163  35.525  1.00  0.00     0.031 C 
ATOM     77  C   UNL A   1      42.546  27.795  33.379  1.00  0.00     0.037 A 
BRANCH  64  78
ATOM     78  C   UNL A   1      42.596  26.975  27.309  1.00  0.00     0.057 A 
ATOM     79  C   UNL A   1      41.917  25.955  26.607  1.00  0.00     0.134 A 
ATOM     80  C   UNL A   1      43.854  27.302  26.775  1.00  0.00     0.134 A 
ATOM     81  F   UNL A   1      40.677  25.571  26.939  1.00  0.00    -0.206 F 
ATOM     82  C   UNL A   1      42.468  25.270  25.520  1.00  0.00     0.040 A 
ATOM     83  C   UNL A   1      44.431  26.605  25.701  1.00  0.00     0.040 A 
ATOM     84  F   UNL A   1      44.570  28.337  27.228  1.00  0.00    -0.206 F 
ATOM     85  C   UNL A   1      43.740  25.579  25.072  1.00  0.00     0.006 A 
ENDBRANCH  64  78
BRANCH  65  86
ATOM     86  C   UNL A   1      39.124  32.560  34.551  1.00  0.00     0.057 A 
ATOM     87  C   UNL A   1      38.927  33.936  34.774  1.00  0.00     0.134 A 
ATOM     88  C   UNL A   1      38.001  31.806  34.190  1.00  0.00     0.134 A 
ATOM     89  F   UNL A   1      39.957  34.708  35.154  1.00  0.00    -0.206 F 
ATOM     90  C   UNL A   1      37.721  34.567  34.457  1.00  0.00     0.040 A 
ATOM     91  C   UNL A   1      36.785  32.431  33.883  1.00  0.00     0.040 A 
ATOM     92  F   UNL A   1      38.102  30.488  33.976  1.00  0.00    -0.206 F 
ATOM     93  C   UNL A   1      36.662  33.818  33.957  1.00  0.00     0.006 A 
ENDBRANCH  65  86
BRANCH  77  94
ATOM     94  C   UNL A   1      42.917  26.423  33.898  1.00  0.00     0.057 A 
ATOM     95  C   UNL A   1      42.091  25.642  34.715  1.00  0.00     0.134 A 
ATOM     96  C   UNL A   1      44.091  25.767  33.449  1.00  0.00     0.134 A 
ATOM     97  F   UNL A   1      40.883  26.064  35.110  1.00  0.00    -0.206 F 
ATOM     98  C   UNL A   1      42.440  24.348  35.123  1.00  0.00     0.040 A 
ATOM     99  C   UNL A   1      44.412  24.452  33.790  1.00  0.00     0.040 A 
ATOM    100  F   UNL A   1      44.975  26.355  32.630  1.00  0.00    -0.206 F 
ATOM    101  C   UNL A   1      43.597  23.744  34.654  1.00  0.00     0.006 A 
ENDBRANCH  77  94
ENDBRANCH  51  52
ENDBRANCH  43  46
ENDBRANCH  41  42
ENDBRANCH  40  41
ENDBRANCH  39  40
ENDBRANCH   1  39
TORSDOF 16
ENDMDL
MODEL 2
REMARK VINA RESULT:     -13.5      1.861      3.128
REMARK SMILES Cc1ccc(-c2cnnc(-n3nc(C)c4c3NC(=O)C[C@@H]4c3ccc(C(=O)NCCCCCCNC(=O)c4ccc(-c5c6nc(c(-c7c(F)cccc7F)c7ccc([nH]7)c(-c7c(F)cccc7F)c7nc(c(-c8c(F)cccc8F)c8ccc5[nH]8)C=C7)C=C6)cc4)cc3)n2)cc1
REMARK SMILES IDX 31 1 30 2 29 3 28 4 26 5 27 6 25 8 22 9 23 10 93 11 24 12
REMARK SMILES IDX 92 13 21 14 11 15 12 16 16 17 13 18 15 19 17 20 14 21 18 22
REMARK SMILES IDX 20 24 19 25 10 26 6 27 7 28 94 29 8 30 9 31 5 32 1 33 2 34
REMARK SMILES IDX 3 35 96 36 4 37 95 38 32 39 33 40 34 41 35 42 36 43 37 45
REMARK SMILES IDX 38 46 39 47 91 48 40 49 90 50 41 51 42 52 43 53 84 54 44 55
REMARK SMILES IDX 89 56 83 57 85 58 45 59 88 60 82 61 81 62 46 64 72 65 55 66
REMARK SMILES IDX 71 67 56 68 59 69 70 70 86 71 57 72 58 73 69 75 87 76 60 77
REMARK SMILES IDX 47 78 48 79 53 80 49 81 50 82 52 83 54 84 51 85 73 86 74 87
REMARK SMILES IDX 79 88 75 89 76 90 78 91 80 92 77 93 61 94 62 95 67 96 63 97
REMARK SMILES IDX 64 98 66 99 68 100 65 101
REMARK H PARENT 28 7 17 23 35 44 85 63 59 74
REMARK Flexibility Score: inf
ROOT
ATOM      1  C   UNL A   1      33.659  27.773  26.428  1.00  0.00     0.002 C 
ENDROOT
BRANCH   1   2
ATOM      2  C   UNL A   1      32.289  27.087  26.515  1.00  0.00     0.021 C 
BRANCH   2   3
ATOM      3  C   UNL A   1      32.176  25.811  25.678  1.00  0.00     0.116 C 
BRANCH   3   4
ATOM      4  N   UNL A   1      31.628  24.715  26.462  1.00  0.00    -0.352 N 
ATOM      5  C   UNL A   1      32.162  23.501  26.820  1.00  0.00     0.251 C 
ATOM      6  O   UNL A   1      31.565  22.787  27.621  1.00  0.00    -0.269 OA
ATOM      7  H   UNL A   1      30.715  24.870  26.794  1.00  0.00     0.163 HD
BRANCH   5   8
ATOM      8  C   UNL A   1      33.485  23.074  26.314  1.00  0.00     0.039 A 
ATOM      9  C   UNL A   1      36.099  22.686  25.373  1.00  0.00    -0.040 A 
ATOM     10  C   UNL A   1      35.841  22.783  26.753  1.00  0.00     0.005 A 
ATOM     11  C   UNL A   1      35.003  22.586  24.504  1.00  0.00     0.005 A 
ATOM     12  C   UNL A   1      34.540  22.967  27.222  1.00  0.00     0.014 A 
ATOM     13  C   UNL A   1      33.707  22.790  24.970  1.00  0.00     0.014 A 
BRANCH   9  14
ATOM     14  C   UNL A   1      37.542  22.748  24.918  1.00  0.00     0.064 C 
ATOM     15  N   UNL A   1      39.956  20.377  26.193  1.00  0.00    -0.180 N 
ATOM     16  N   UNL A   1      39.038  19.437  25.833  1.00  0.00    -0.168 NA
ATOM     17  C   UNL A   1      39.314  21.598  26.309  1.00  0.00     0.143 A 
ATOM     18  C   UNL A   1      38.079  20.135  25.217  1.00  0.00     0.066 A 
ATOM     19  C   UNL A   1      38.281  21.535  25.386  1.00  0.00     0.026 A 
ATOM     20  N   UNL A   1      39.468  22.714  27.110  1.00  0.00    -0.310 N 
ATOM     21  C   UNL A   1      36.948  19.379  24.626  1.00  0.00     0.069 C 
ATOM     22  C   UNL A   1      38.684  23.883  26.808  1.00  0.00     0.226 C 
ATOM     23  H   UNL A   1      40.098  22.710  27.867  1.00  0.00     0.171 HD
ATOM     24  C   UNL A   1      38.255  24.022  25.367  1.00  0.00     0.113 C 
ATOM     25  O   UNL A   1      38.511  24.696  27.684  1.00  0.00    -0.275 OA
BRANCH  15  26
ATOM     26  C   UNL A   1      41.347  20.143  25.962  1.00  0.00     0.272 A 
ATOM     27  C   UNL A   1      43.468  20.774  25.403  1.00  0.00     0.095 A 
ATOM     28  C   UNL A   1      43.796  19.447  25.184  1.00  0.00     0.164 A 
ATOM     29  N   UNL A   1      42.204  21.164  25.745  1.00  0.00    -0.208 NA
ATOM     30  N   UNL A   1      42.898  18.474  25.377  1.00  0.00    -0.153 NA
ATOM     31  N   UNL A   1      41.674  18.830  25.815  1.00  0.00    -0.109 NA
BRANCH  27  32
ATOM     32  C   UNL A   1      44.517  21.802  25.395  1.00  0.00     0.002 A 
ATOM     33  C   UNL A   1      47.451  24.987  25.295  1.00  0.00     0.044 C 
ATOM     34  C   UNL A   1      46.415  23.901  25.323  1.00  0.00    -0.051 A 
ATOM     35  C   UNL A   1      45.942  23.414  26.546  1.00  0.00     0.004 A 
ATOM     36  C   UNL A   1      45.923  23.349  24.138  1.00  0.00     0.004 A 
ATOM     37  C   UNL A   1      45.002  22.379  26.582  1.00  0.00     0.011 A 
ATOM     38  C   UNL A   1      44.990  22.310  24.175  1.00  0.00     0.011 A 
ENDBRANCH  27  32
ENDBRANCH  15  26
ENDBRANCH   9  14
ENDBRANCH   5   8
ENDBRANCH   3   4
ENDBRANCH   2   3
ENDBRANCH   1   2
BRANCH   1  39
ATOM     39  C   UNL A   1      33.685  29.264  26.797  1.00  0.00     0.002 C 
BRANCH  39  40
ATOM     40  C   UNL A   1      34.716  29.661  27.852  1.00  0.00     0.021 C 
BRANCH  40  41
ATOM     41  C   UNL A   1      35.316  31.034  27.616  1.00  0.00     0.116 C 
BRANCH  41  42
ATOM     42  N   UNL A   1      34.434  32.122  28.012  1.00  0.00    -0.352 N 
ATOM     43  C   UNL A   1      34.442  32.940  29.124  1.00  0.00     0.251 C 
ATOM     44  H   UNL A   1      33.706  32.306  27.376  1.00  0.00     0.163 HD
ATOM     45  O   UNL A   1      33.484  33.687  29.308  1.00  0.00    -0.269 OA
BRANCH  43  46
ATOM     46  C   UNL A   1      35.662  33.097  29.963  1.00  0.00     0.039 A 
ATOM     47  C   UNL A   1      36.737  33.777  29.364  1.00  0.00     0.014 A 
ATOM     48  C   UNL A   1      35.901  32.228  31.014  1.00  0.00     0.014 A 
ATOM     49  C   UNL A   1      38.027  33.314  29.568  1.00  0.00     0.010 A 
ATOM     50  C   UNL A   1      37.121  31.623  31.059  1.00  0.00     0.010 A 
ATOM     51  C   UNL A   1      38.168  32.148  30.303  1.00  0.00    -0.014 A 
BRANCH  51  52
ATOM     52  C   UNL A   1      39.395  31.419  30.484  1.00  0.00     0.031 A 
ATOM     53  C   UNL A   1      39.529  30.187  29.694  1.00  0.00     0.074 A 
ATOM     54  C   UNL A   1      40.397  32.039  31.142  1.00  0.00     0.049 A 
ATOM     55  N   UNL A   1      40.322  29.227  29.990  1.00  0.00    -0.248 NA
ATOM     56  C   UNL A   1      38.713  29.902  28.510  1.00  0.00     0.031 C 
ATOM     57  C   UNL A   1      41.822  31.742  31.106  1.00  0.00     0.029 A 
ATOM     58  N   UNL A   1      40.278  33.021  32.130  1.00  0.00    -0.354 N 
ATOM     59  C   UNL A   1      40.386  28.399  28.889  1.00  0.00     0.074 A 
ATOM     60  C   UNL A   1      39.271  28.775  28.061  1.00  0.00     0.031 C 
ATOM     61  C   UNL A   1      42.410  32.292  32.184  1.00  0.00     0.029 A 
ATOM     62  C   UNL A   1      41.353  32.834  33.023  1.00  0.00     0.049 A 
ATOM     63  H   UNL A   1      39.579  33.712  32.190  1.00  0.00     0.167 HD
ATOM     64  C   UNL A   1      41.498  27.631  28.736  1.00  0.00     0.037 A 
ATOM     65  C   UNL A   1      41.112  32.444  34.313  1.00  0.00     0.037 A 
ATOM     66  C   UNL A   1      42.408  27.885  29.848  1.00  0.00     0.049 A 
ATOM     67  C   UNL A   1      41.641  31.058  34.585  1.00  0.00     0.074 A 
ATOM     68  C   UNL A   1      43.473  28.764  29.971  1.00  0.00     0.029 A 
ATOM     69  N   UNL A   1      42.038  27.517  31.133  1.00  0.00    -0.354 N 
ATOM     70  N   UNL A   1      41.749  30.130  33.673  1.00  0.00    -0.248 NA
ATOM     71  C   UNL A   1      42.156  30.634  35.884  1.00  0.00     0.031 C 
ATOM     72  C   UNL A   1      43.726  28.943  31.351  1.00  0.00     0.029 A 
ATOM     73  C   UNL A   1      42.821  28.171  32.060  1.00  0.00     0.049 A 
ATOM     74  H   UNL A   1      41.319  26.881  31.351  1.00  0.00     0.167 HD
ATOM     75  C   UNL A   1      42.355  29.027  34.220  1.00  0.00     0.074 A 
ATOM     76  C   UNL A   1      42.580  29.388  35.607  1.00  0.00     0.031 C 
ATOM     77  C   UNL A   1      42.660  27.919  33.480  1.00  0.00     0.037 A 
BRANCH  64  78
ATOM     78  C   UNL A   1      41.932  26.914  27.482  1.00  0.00     0.057 A 
ATOM     79  C   UNL A   1      41.961  25.502  27.456  1.00  0.00     0.134 A 
ATOM     80  C   UNL A   1      42.341  27.521  26.283  1.00  0.00     0.134 A 
ATOM     81  F   UNL A   1      41.535  24.766  28.491  1.00  0.00    -0.206 F 
ATOM     82  C   UNL A   1      42.424  24.762  26.364  1.00  0.00     0.040 A 
ATOM     83  C   UNL A   1      42.833  26.790  25.188  1.00  0.00     0.040 A 
ATOM     84  F   UNL A   1      42.242  28.839  26.084  1.00  0.00    -0.206 F 
ATOM     85  C   UNL A   1      42.882  25.405  25.228  1.00  0.00     0.006 A 
ENDBRANCH  64  78
BRANCH  65  86
ATOM     86  C   UNL A   1      39.836  33.016  34.836  1.00  0.00     0.057 A 
ATOM     87  C   UNL A   1      38.724  32.155  34.890  1.00  0.00     0.134 A 
ATOM     88  C   UNL A   1      39.841  34.105  35.715  1.00  0.00     0.134 A 
ATOM     89  F   UNL A   1      38.644  31.109  34.051  1.00  0.00    -0.206 F 
ATOM     90  C   UNL A   1      37.766  32.253  35.904  1.00  0.00     0.040 A 
ATOM     91  C   UNL A   1      38.877  34.218  36.725  1.00  0.00     0.040 A 
ATOM     92  F   UNL A   1      40.855  34.980  35.714  1.00  0.00    -0.206 F 
ATOM     93  C   UNL A   1      37.874  33.258  36.858  1.00  0.00     0.006 A 
ENDBRANCH  65  86
BRANCH  77  94
ATOM     94  C   UNL A   1      42.965  26.535  34.010  1.00  0.00     0.057 A 
ATOM     95  C   UNL A   1      42.077  25.775  34.781  1.00  0.00     0.134 A 
ATOM     96  C   UNL A   1      44.141  25.847  33.616  1.00  0.00     0.134 A 
ATOM     97  F   UNL A   1      40.864  26.230  35.118  1.00  0.00    -0.206 F 
ATOM     98  C   UNL A   1      42.368  24.470  35.199  1.00  0.00     0.040 A 
ATOM     99  C   UNL A   1      44.406  24.522  33.965  1.00  0.00     0.040 A 
ATOM    100  F   UNL A   1      45.080  26.412  32.844  1.00  0.00    -0.206 F 
ATOM    101  C   UNL A   1      43.529  23.834  34.784  1.00  0.00     0.006 A 
ENDBRANCH  77  94
ENDBRANCH  51  52
ENDBRANCH  43  46
ENDBRANCH  41  42
ENDBRANCH  40  41
ENDBRANCH  39  40
ENDBRANCH   1  39
TORSDOF 16
ENDMDL
MODEL 3
REMARK VINA RESULT:     -12.9      3.263      9.564
REMARK SMILES Cc1ccc(-c2cnnc(-n3nc(C)c4c3NC(=O)C[C@@H]4c3ccc(C(=O)NCCCCCCNC(=O)c4ccc(-c5c6nc(c(-c7c(F)cccc7F)c7ccc([nH]7)c(-c7c(F)cccc7F)c7nc(c(-c8c(F)cccc8F)c8ccc5[nH]8)C=C7)C=C6)cc4)cc3)n2)cc1
REMARK SMILES IDX 31 1 30 2 29 3 28 4 26 5 27 6 25 8 22 9 23 10 93 11 24 12
REMARK SMILES IDX 92 13 21 14 11 15 12 16 16 17 13 18 15 19 17 20 14 21 18 22
REMARK SMILES IDX 20 24 19 25 10 26 6 27 7 28 94 29 8 30 9 31 5 32 1 33 2 34
REMARK SMILES IDX 3 35 96 36 4 37 95 38 32 39 33 40 34 41 35 42 36 43 37 45
REMARK SMILES IDX 38 46 39 47 91 48 40 49 90 50 41 51 42 52 43 53 84 54 44 55
REMARK SMILES IDX 89 56 83 57 85 58 45 59 88 60 82 61 81 62 46 64 72 65 55 66
REMARK SMILES IDX 71 67 56 68 59 69 70 70 86 71 57 72 58 73 69 75 87 76 60 77
REMARK SMILES IDX 47 78 48 79 53 80 49 81 50 82 52 83 54 84 51 85 73 86 74 87
REMARK SMILES IDX 79 88 75 89 76 90 78 91 80 92 77 93 61 94 62 95 67 96 63 97
REMARK SMILES IDX 64 98 66 99 68 100 65 101
REMARK H PARENT 28 7 17 23 35 44 85 63 59 74
REMARK Flexibility Score: inf
ROOT
ATOM      1  C   UNL A   1      38.135  21.211  25.415  1.00  0.00     0.002 C 
ENDROOT
BRANCH   1   2
ATOM      2  C   UNL A   1      36.764  21.326  24.734  1.00  0.00     0.021 C 
BRANCH   2   3
ATOM      3  C   UNL A   1      35.581  21.046  25.663  1.00  0.00     0.116 C 
BRANCH   3   4
ATOM      4  N   UNL A   1      34.769  19.948  25.164  1.00  0.00    -0.352 N 
ATOM      5  C   UNL A   1      33.525  19.932  24.580  1.00  0.00     0.251 C 
ATOM      6  O   UNL A   1      33.095  18.889  24.097  1.00  0.00    -0.269 OA
ATOM      7  H   UNL A   1      35.182  19.060  25.262  1.00  0.00     0.163 HD
BRANCH   5   8
ATOM      8  C   UNL A   1      32.728  21.171  24.456  1.00  0.00     0.039 A 
ATOM      9  C   UNL A   1      31.595  23.731  24.278  1.00  0.00    -0.040 A 
ATOM     10  C   UNL A   1      32.195  23.133  23.154  1.00  0.00     0.005 A 
ATOM     11  C   UNL A   1      31.401  22.941  25.419  1.00  0.00     0.005 A 
ATOM     12  C   UNL A   1      32.751  21.856  23.240  1.00  0.00     0.014 A 
ATOM     13  C   UNL A   1      31.974  21.675  25.512  1.00  0.00     0.014 A 
BRANCH   9  14
ATOM     14  C   UNL A   1      31.246  25.203  24.193  1.00  0.00     0.064 C 
ATOM     15  N   UNL A   1      32.949  27.602  26.296  1.00  0.00    -0.180 N 
ATOM     16  N   UNL A   1      34.087  27.016  25.829  1.00  0.00    -0.168 NA
ATOM     17  C   UNL A   1      31.893  26.726  26.105  1.00  0.00     0.143 A 
ATOM     18  C   UNL A   1      33.654  26.140  24.917  1.00  0.00     0.066 A 
ATOM     19  C   UNL A   1      32.236  26.012  24.968  1.00  0.00     0.026 A 
ATOM     20  N   UNL A   1      30.724  26.438  26.785  1.00  0.00    -0.310 N 
ATOM     21  C   UNL A   1      34.674  25.380  24.154  1.00  0.00     0.069 C 
ATOM     22  C   UNL A   1      29.776  25.551  26.164  1.00  0.00     0.226 C 
ATOM     23  H   UNL A   1      30.544  26.831  27.670  1.00  0.00     0.171 HD
ATOM     24  C   UNL A   1      29.821  25.505  24.655  1.00  0.00     0.113 C 
ATOM     25  O   UNL A   1      28.969  24.993  26.869  1.00  0.00    -0.275 OA
BRANCH  15  26
ATOM     26  C   UNL A   1      32.885  29.022  26.447  1.00  0.00     0.272 A 
ATOM     27  C   UNL A   1      33.497  31.016  27.373  1.00  0.00     0.095 A 
ATOM     28  C   UNL A   1      32.340  31.592  26.876  1.00  0.00     0.164 A 
ATOM     29  N   UNL A   1      33.772  29.687  27.218  1.00  0.00    -0.208 NA
ATOM     30  N   UNL A   1      31.473  30.879  26.149  1.00  0.00    -0.153 NA
ATOM     31  N   UNL A   1      31.777  29.590  25.897  1.00  0.00    -0.109 NA
BRANCH  27  32
ATOM     32  C   UNL A   1      34.535  31.858  27.981  1.00  0.00     0.002 A 
ATOM     33  C   UNL A   1      37.685  34.377  29.559  1.00  0.00     0.044 C 
ATOM     34  C   UNL A   1      36.602  33.510  28.987  1.00  0.00    -0.051 A 
ATOM     35  C   UNL A   1      35.280  33.966  28.960  1.00  0.00     0.004 A 
ATOM     36  C   UNL A   1      36.890  32.235  28.494  1.00  0.00     0.004 A 
ATOM     37  C   UNL A   1      34.259  33.150  28.460  1.00  0.00     0.011 A 
ATOM     38  C   UNL A   1      35.869  31.419  28.002  1.00  0.00     0.011 A 
ENDBRANCH  27  32
ENDBRANCH  15  26
ENDBRANCH   9  14
ENDBRANCH   5   8
ENDBRANCH   3   4
ENDBRANCH   2   3
ENDBRANCH   1   2
BRANCH   1  39
ATOM     39  C   UNL A   1      38.675  22.501  26.052  1.00  0.00     0.002 C 
BRANCH  39  40
ATOM     40  C   UNL A   1      39.928  22.334  26.909  1.00  0.00     0.021 C 
BRANCH  40  41
ATOM     41  C   UNL A   1      41.176  22.909  26.265  1.00  0.00     0.116 C 
BRANCH  41  42
ATOM     42  N   UNL A   1      42.031  21.895  25.665  1.00  0.00    -0.352 N 
ATOM     43  C   UNL A   1      43.349  21.944  25.257  1.00  0.00     0.251 C 
ATOM     44  H   UNL A   1      41.594  21.025  25.527  1.00  0.00     0.163 HD
ATOM     45  O   UNL A   1      43.802  20.991  24.626  1.00  0.00    -0.269 OA
BRANCH  43  46
ATOM     46  C   UNL A   1      44.276  22.999  25.751  1.00  0.00     0.039 A 
ATOM     47  C   UNL A   1      44.690  22.877  27.088  1.00  0.00     0.014 A 
ATOM     48  C   UNL A   1      44.315  24.236  25.131  1.00  0.00     0.014 A 
ATOM     49  C   UNL A   1      44.780  24.015  27.874  1.00  0.00     0.010 A 
ATOM     50  C   UNL A   1      44.184  25.336  25.924  1.00  0.00     0.010 A 
ATOM     51  C   UNL A   1      44.379  25.210  27.298  1.00  0.00    -0.014 A 
BRANCH  51  52
ATOM     52  C   UNL A   1      44.238  26.463  27.990  1.00  0.00     0.031 A 
ATOM     53  C   UNL A   1      42.859  26.890  28.266  1.00  0.00     0.074 A 
ATOM     54  C   UNL A   1      45.347  26.999  28.541  1.00  0.00     0.049 A 
ATOM     55  N   UNL A   1      42.515  28.101  28.498  1.00  0.00    -0.248 NA
ATOM     56  C   UNL A   1      41.716  25.972  28.241  1.00  0.00     0.031 C 
ATOM     57  C   UNL A   1      45.441  27.980  29.612  1.00  0.00     0.029 A 
ATOM     58  N   UNL A   1      46.667  26.843  28.105  1.00  0.00    -0.354 N 
ATOM     59  C   UNL A   1      41.227  28.069  28.991  1.00  0.00     0.074 A 
ATOM     60  C   UNL A   1      40.729  26.756  28.679  1.00  0.00     0.031 C 
ATOM     61  C   UNL A   1      46.661  28.546  29.581  1.00  0.00     0.029 A 
ATOM     62  C   UNL A   1      47.337  28.049  28.393  1.00  0.00     0.049 A 
ATOM     63  H   UNL A   1      47.054  26.043  27.681  1.00  0.00     0.167 HD
ATOM     64  C   UNL A   1      40.822  29.104  29.777  1.00  0.00     0.037 A 
ATOM     65  C   UNL A   1      47.791  28.841  27.373  1.00  0.00     0.037 A 
ATOM     66  C   UNL A   1      41.919  30.056  29.910  1.00  0.00     0.049 A 
ATOM     67  C   UNL A   1      47.052  30.154  27.313  1.00  0.00     0.074 A 
ATOM     68  C   UNL A   1      42.904  30.182  30.877  1.00  0.00     0.029 A 
ATOM     69  N   UNL A   1      42.357  30.758  28.796  1.00  0.00    -0.354 N 
ATOM     70  N   UNL A   1      45.817  30.310  27.709  1.00  0.00    -0.248 NA
ATOM     71  C   UNL A   1      47.665  31.404  26.873  1.00  0.00     0.031 C 
ATOM     72  C   UNL A   1      43.956  30.949  30.324  1.00  0.00     0.029 A 
ATOM     73  C   UNL A   1      43.606  31.290  29.028  1.00  0.00     0.049 A 
ATOM     74  H   UNL A   1      41.847  30.860  27.960  1.00  0.00     0.167 HD
ATOM     75  C   UNL A   1      45.478  31.636  27.617  1.00  0.00     0.074 A 
ATOM     76  C   UNL A   1      46.663  32.277  27.079  1.00  0.00     0.031 C 
ATOM     77  C   UNL A   1      44.264  32.110  28.027  1.00  0.00     0.037 A 
BRANCH  64  78
ATOM     78  C   UNL A   1      39.610  29.133  30.673  1.00  0.00     0.057 A 
ATOM     79  C   UNL A   1      38.321  29.236  30.106  1.00  0.00     0.134 A 
ATOM     80  C   UNL A   1      39.619  29.078  32.077  1.00  0.00     0.134 A 
ATOM     81  F   UNL A   1      38.128  29.228  28.780  1.00  0.00    -0.206 F 
ATOM     82  C   UNL A   1      37.153  29.349  30.865  1.00  0.00     0.040 A 
ATOM     83  C   UNL A   1      38.456  29.217  32.852  1.00  0.00     0.040 A 
ATOM     84  F   UNL A   1      40.737  28.840  32.771  1.00  0.00    -0.206 F 
ATOM     85  C   UNL A   1      37.216  29.360  32.247  1.00  0.00     0.006 A 
ENDBRANCH  64  78
BRANCH  65  86
ATOM     86  C   UNL A   1      48.241  28.031  26.201  1.00  0.00     0.057 A 
ATOM     87  C   UNL A   1      49.453  27.329  26.337  1.00  0.00     0.134 A 
ATOM     88  C   UNL A   1      47.320  27.538  25.269  1.00  0.00     0.134 A 
ATOM     89  F   UNL A   1      50.391  27.768  27.190  1.00  0.00    -0.206 F 
ATOM     90  C   UNL A   1      49.655  26.086  25.729  1.00  0.00     0.040 A 
ATOM     91  C   UNL A   1      47.521  26.300  24.645  1.00  0.00     0.040 A 
ATOM     92  F   UNL A   1      46.150  28.159  25.069  1.00  0.00    -0.206 F 
ATOM     93  C   UNL A   1      48.661  25.544  24.922  1.00  0.00     0.006 A 
ENDBRANCH  65  86
BRANCH  77  94
ATOM     94  C   UNL A   1      43.633  33.431  27.644  1.00  0.00     0.057 A 
ATOM     95  C   UNL A   1      43.299  34.437  28.559  1.00  0.00     0.134 A 
ATOM     96  C   UNL A   1      43.480  33.799  26.282  1.00  0.00     0.134 A 
ATOM     97  F   UNL A   1      43.515  34.299  29.873  1.00  0.00    -0.206 F 
ATOM     98  C   UNL A   1      42.777  35.675  28.161  1.00  0.00     0.040 A 
ATOM     99  C   UNL A   1      43.030  35.055  25.874  1.00  0.00     0.040 A 
ATOM    100  F   UNL A   1      43.789  32.970  25.275  1.00  0.00    -0.206 F 
ATOM    101  C   UNL A   1      42.650  35.993  26.817  1.00  0.00     0.006 A 
ENDBRANCH  77  94
ENDBRANCH  51  52
ENDBRANCH  43  46
ENDBRANCH  41  42
ENDBRANCH  40  41
ENDBRANCH  39  40
ENDBRANCH   1  39
TORSDOF 16
ENDMDL
