MODEL 1
REMARK VINA RESULT:     -12.2      0.000      0.000
REMARK SMILES NS(=O)(=O)c1ccc(-c2coc(=O)n2-c2ccc(C(=O)NCCCCCCNC(=O)c3ccc(-c4c5nc(c(-c6c(F)cccc6F)c6ccc([nH]6)c(-c6c(F)cccc6F)c6nc(c(-c7c(F)cccc7F)c7ccc4[nH]7)C=C6)C=C5)cc3)cc2)cc1
REMARK SMILES IDX 23 1 22 2 21 3 19 4 20 5 18 7 15 8 16 9 86 10 17 11 85 12
REMARK SMILES IDX 14 13 9 14 10 15 11 16 12 17 13 18 8 19 5 20 6 21 88 22 7 23
REMARK SMILES IDX 87 24 2 25 3 26 4 27 1 28 24 31 25 32 26 33 27 34 28 35
REMARK SMILES IDX 29 36 30 38 31 39 32 40 84 41 33 42 83 43 34 44 35 45 36 46
REMARK SMILES IDX 77 47 37 48 82 49 76 50 78 51 38 52 81 53 75 54 74 55 39 57
REMARK SMILES IDX 65 58 48 59 64 60 49 61 52 62 63 63 79 64 50 65 51 66 62 68
REMARK SMILES IDX 80 69 53 70 40 71 41 72 46 73 42 74 43 75 45 76 47 77 44 78
REMARK SMILES IDX 66 79 67 80 72 81 68 82 69 83 71 84 73 85 70 86 54 87 55 88
REMARK SMILES IDX 60 89 56 90 57 91 59 92 61 93 58 94
REMARK H PARENT 21 6 1 29 1 30 28 37 78 56 52 67
REMARK Flexibility Score: inf
ROOT
ATOM      1  C   UNL A   1      33.399  33.063  28.365  1.00  0.00     0.021 C 
ENDROOT
BRANCH   1   2
ATOM      2  C   UNL A   1      33.445  31.835  27.452  1.00  0.00     0.116 C 
BRANCH   2   3
ATOM      3  N   UNL A   1      34.422  30.883  27.947  1.00  0.00    -0.352 N 
ATOM      4  C   UNL A   1      34.620  29.543  27.734  1.00  0.00     0.251 C 
ATOM      5  O   UNL A   1      35.553  29.007  28.334  1.00  0.00    -0.269 OA
ATOM      6  H   UNL A   1      35.077  31.282  28.564  1.00  0.00     0.163 HD
BRANCH   4   7
ATOM      7  C   UNL A   1      33.827  28.740  26.762  1.00  0.00     0.039 A 
ATOM      8  C   UNL A   1      32.363  26.964  25.156  1.00  0.00     0.053 A 
ATOM      9  C   UNL A   1      31.886  27.299  26.422  1.00  0.00     0.028 A 
ATOM     10  C   UNL A   1      33.506  27.589  24.656  1.00  0.00     0.028 A 
ATOM     11  C   UNL A   1      32.636  28.157  27.233  1.00  0.00     0.016 A 
ATOM     12  C   UNL A   1      34.193  28.523  25.433  1.00  0.00     0.016 A 
BRANCH   8  13
ATOM     13  N   UNL A   1      31.728  25.981  24.384  1.00  0.00    -0.242 N 
ATOM     14  C   UNL A   1      30.604  26.111  23.618  1.00  0.00     0.095 A 
ATOM     15  C   UNL A   1      30.282  24.879  23.239  1.00  0.00     0.228 A 
ATOM     16  O   UNL A   1      31.145  23.888  23.707  1.00  0.00    -0.415 OA
ATOM     17  C   UNL A   1      32.074  24.635  24.431  1.00  0.00     0.424 A 
ATOM     18  O   UNL A   1      33.009  24.124  25.033  1.00  0.00    -0.223 OA
BRANCH  14  19
ATOM     19  C   UNL A   1      29.996  27.373  23.195  1.00  0.00     0.002 A 
ATOM     20  C   UNL A   1      28.806  29.799  22.439  1.00  0.00     0.082 A 
ATOM     21  C   UNL A   1      28.053  28.848  23.125  1.00  0.00     0.022 A 
ATOM     22  C   UNL A   1      30.148  29.556  22.132  1.00  0.00     0.022 A 
ATOM     23  C   UNL A   1      28.649  27.641  23.500  1.00  0.00     0.012 A 
ATOM     24  C   UNL A   1      30.740  28.347  22.516  1.00  0.00     0.012 A 
BRANCH  20  25
ATOM     25  S   UNL A   1      28.061  31.334  21.972  1.00  0.00     0.238 S 
ATOM     26  O   UNL A   1      27.179  31.774  23.015  1.00  0.00    -0.207 OA
ATOM     27  O   UNL A   1      27.652  31.239  20.581  1.00  0.00    -0.207 OA
BRANCH  25  28
ATOM     28  N   UNL A   1      29.358  32.403  22.003  1.00  0.00    -0.225 NA
ATOM     29  H   UNL A   1      29.132  33.227  21.445  1.00  0.00     0.137 HD
ATOM     30  H   UNL A   1      30.184  31.947  21.617  1.00  0.00     0.137 HD
ENDBRANCH  25  28
ENDBRANCH  20  25
ENDBRANCH  14  19
ENDBRANCH   8  13
ENDBRANCH   4   7
ENDBRANCH   2   3
ENDBRANCH   1   2
BRANCH   1  31
ATOM     31  C   UNL A   1      34.618  33.983  28.202  1.00  0.00     0.002 C 
BRANCH  31  32
ATOM     32  C   UNL A   1      34.341  35.486  28.376  1.00  0.00     0.002 C 
BRANCH  32  33
ATOM     33  C   UNL A   1      33.052  35.862  29.123  1.00  0.00     0.021 C 
BRANCH  33  34
ATOM     34  C   UNL A   1      33.278  36.843  30.262  1.00  0.00     0.116 C 
BRANCH  34  35
ATOM     35  N   UNL A   1      32.557  36.454  31.481  1.00  0.00    -0.352 N 
ATOM     36  C   UNL A   1      32.704  35.329  32.270  1.00  0.00     0.251 C 
ATOM     37  H   UNL A   1      31.867  37.089  31.780  1.00  0.00     0.163 HD
ATOM     38  O   UNL A   1      31.815  34.970  33.034  1.00  0.00    -0.269 OA
BRANCH  36  39
ATOM     39  C   UNL A   1      33.963  34.575  32.193  1.00  0.00     0.039 A 
ATOM     40  C   UNL A   1      34.027  33.224  31.831  1.00  0.00     0.014 A 
ATOM     41  C   UNL A   1      35.118  35.282  32.486  1.00  0.00     0.014 A 
ATOM     42  C   UNL A   1      35.281  32.621  31.727  1.00  0.00     0.010 A 
ATOM     43  C   UNL A   1      36.322  34.783  32.102  1.00  0.00     0.010 A 
ATOM     44  C   UNL A   1      36.421  33.421  31.874  1.00  0.00    -0.014 A 
BRANCH  44  45
ATOM     45  C   UNL A   1      37.779  32.917  31.773  1.00  0.00     0.031 A 
ATOM     46  C   UNL A   1      38.500  32.839  33.065  1.00  0.00     0.074 A 
ATOM     47  C   UNL A   1      38.179  32.256  30.662  1.00  0.00     0.049 A 
ATOM     48  N   UNL A   1      39.542  33.506  33.436  1.00  0.00    -0.248 NA
ATOM     49  C   UNL A   1      37.897  32.031  34.139  1.00  0.00     0.031 C 
ATOM     50  C   UNL A   1      37.393  31.942  29.455  1.00  0.00     0.029 A 
ATOM     51  N   UNL A   1      39.338  31.589  30.431  1.00  0.00    -0.354 N 
ATOM     52  C   UNL A   1      39.863  33.019  34.700  1.00  0.00     0.074 A 
ATOM     53  C   UNL A   1      38.697  32.321  35.167  1.00  0.00     0.031 C 
ATOM     54  C   UNL A   1      38.005  30.965  28.751  1.00  0.00     0.029 A 
ATOM     55  C   UNL A   1      39.297  30.707  29.353  1.00  0.00     0.049 A 
ATOM     56  H   UNL A   1      40.144  31.716  30.982  1.00  0.00     0.167 HD
ATOM     57  C   UNL A   1      41.158  32.967  35.120  1.00  0.00     0.037 A 
ATOM     58  C   UNL A   1      40.252  29.805  29.018  1.00  0.00     0.037 A 
ATOM     59  C   UNL A   1      42.002  33.786  34.279  1.00  0.00     0.049 A 
ATOM     60  C   UNL A   1      41.498  30.213  29.717  1.00  0.00     0.074 A 
ATOM     61  C   UNL A   1      42.015  35.119  33.913  1.00  0.00     0.029 A 
ATOM     62  N   UNL A   1      42.793  33.143  33.357  1.00  0.00    -0.354 N 
ATOM     63  N   UNL A   1      42.157  31.304  29.444  1.00  0.00    -0.248 NA
ATOM     64  C   UNL A   1      41.735  29.656  31.041  1.00  0.00     0.031 C 
ATOM     65  C   UNL A   1      42.388  35.118  32.536  1.00  0.00     0.029 A 
ATOM     66  C   UNL A   1      42.656  33.801  32.163  1.00  0.00     0.049 A 
ATOM     67  H   UNL A   1      43.356  32.353  33.525  1.00  0.00     0.167 HD
ATOM     68  C   UNL A   1      42.544  31.805  30.679  1.00  0.00     0.074 A 
ATOM     69  C   UNL A   1      42.326  30.706  31.618  1.00  0.00     0.031 C 
ATOM     70  C   UNL A   1      42.712  33.147  30.875  1.00  0.00     0.037 A 
BRANCH  57  71
ATOM     71  C   UNL A   1      41.732  31.874  35.997  1.00  0.00     0.057 A 
ATOM     72  C   UNL A   1      42.525  32.245  37.099  1.00  0.00     0.134 A 
ATOM     73  C   UNL A   1      41.802  30.506  35.656  1.00  0.00     0.134 A 
ATOM     74  F   UNL A   1      42.542  33.514  37.537  1.00  0.00    -0.206 F 
ATOM     75  C   UNL A   1      43.401  31.357  37.733  1.00  0.00     0.040 A 
ATOM     76  C   UNL A   1      42.634  29.598  36.317  1.00  0.00     0.040 A 
ATOM     77  F   UNL A   1      41.155  29.980  34.610  1.00  0.00    -0.206 F 
ATOM     78  C   UNL A   1      43.468  30.029  37.333  1.00  0.00     0.006 A 
ENDBRANCH  57  71
BRANCH  58  79
ATOM     79  C   UNL A   1      40.086  28.469  28.401  1.00  0.00     0.057 A 
ATOM     80  C   UNL A   1      40.680  28.157  27.170  1.00  0.00     0.134 A 
ATOM     81  C   UNL A   1      39.569  27.381  29.128  1.00  0.00     0.134 A 
ATOM     82  F   UNL A   1      41.237  29.120  26.421  1.00  0.00    -0.206 F 
ATOM     83  C   UNL A   1      40.775  26.840  26.699  1.00  0.00     0.040 A 
ATOM     84  C   UNL A   1      39.652  26.062  28.668  1.00  0.00     0.040 A 
ATOM     85  F   UNL A   1      39.047  27.553  30.352  1.00  0.00    -0.206 F 
ATOM     86  C   UNL A   1      40.270  25.786  27.455  1.00  0.00     0.006 A 
ENDBRANCH  58  79
BRANCH  70  87
ATOM     87  C   UNL A   1      42.710  34.041  29.664  1.00  0.00     0.057 A 
ATOM     88  C   UNL A   1      41.592  34.760  29.214  1.00  0.00     0.134 A 
ATOM     89  C   UNL A   1      43.926  34.312  29.027  1.00  0.00     0.134 A 
ATOM     90  F   UNL A   1      40.405  34.649  29.822  1.00  0.00    -0.206 F 
ATOM     91  C   UNL A   1      41.670  35.670  28.155  1.00  0.00     0.040 A 
ATOM     92  C   UNL A   1      44.026  35.242  27.990  1.00  0.00     0.040 A 
ATOM     93  F   UNL A   1      45.051  33.708  29.440  1.00  0.00    -0.206 F 
ATOM     94  C   UNL A   1      42.894  35.919  27.545  1.00  0.00     0.006 A 
ENDBRANCH  70  87
ENDBRANCH  44  45
ENDBRANCH  36  39
ENDBRANCH  34  35
ENDBRANCH  33  34
ENDBRANCH  32  33
ENDBRANCH  31  32
ENDBRANCH   1  31
TORSDOF 17
ENDMDL
MODEL 2
REMARK VINA RESULT:     -11.6      4.122      6.540
REMARK SMILES NS(=O)(=O)c1ccc(-c2coc(=O)n2-c2ccc(C(=O)NCCCCCCNC(=O)c3ccc(-c4c5nc(c(-c6c(F)cccc6F)c6ccc([nH]6)c(-c6c(F)cccc6F)c6nc(c(-c7c(F)cccc7F)c7ccc4[nH]7)C=C6)C=C5)cc3)cc2)cc1
REMARK SMILES IDX 23 1 22 2 21 3 19 4 20 5 18 7 15 8 16 9 86 10 17 11 85 12
REMARK SMILES IDX 14 13 9 14 10 15 11 16 12 17 13 18 8 19 5 20 6 21 88 22 7 23
REMARK SMILES IDX 87 24 2 25 3 26 4 27 1 28 24 31 25 32 26 33 27 34 28 35
REMARK SMILES IDX 29 36 30 38 31 39 32 40 84 41 33 42 83 43 34 44 35 45 36 46
REMARK SMILES IDX 77 47 37 48 82 49 76 50 78 51 38 52 81 53 75 54 74 55 39 57
REMARK SMILES IDX 65 58 48 59 64 60 49 61 52 62 63 63 79 64 50 65 51 66 62 68
REMARK SMILES IDX 80 69 53 70 40 71 41 72 46 73 42 74 43 75 45 76 47 77 44 78
REMARK SMILES IDX 66 79 67 80 72 81 68 82 69 83 71 84 73 85 70 86 54 87 55 88
REMARK SMILES IDX 60 89 56 90 57 91 59 92 61 93 58 94
REMARK H PARENT 21 6 1 29 1 30 28 37 78 56 52 67
REMARK Flexibility Score: inf
ROOT
ATOM      1  C   UNL A   1      32.028  27.962  25.681  1.00  0.00     0.021 C 
ENDROOT
BRANCH   1   2
ATOM      2  C   UNL A   1      31.646  27.123  26.903  1.00  0.00     0.116 C 
BRANCH   2   3
ATOM      3  N   UNL A   1      30.958  25.916  26.483  1.00  0.00    -0.352 N 
ATOM      4  C   UNL A   1      31.391  24.671  26.105  1.00  0.00     0.251 C 
ATOM      5  O   UNL A   1      30.534  23.849  25.779  1.00  0.00    -0.269 OA
ATOM      6  H   UNL A   1      29.979  26.012  26.465  1.00  0.00     0.163 HD
BRANCH   4   7
ATOM      7  C   UNL A   1      32.819  24.248  26.152  1.00  0.00     0.039 A 
ATOM      8  C   UNL A   1      35.454  23.310  25.928  1.00  0.00     0.053 A 
ATOM      9  C   UNL A   1      34.975  24.239  25.007  1.00  0.00     0.028 A 
ATOM     10  C   UNL A   1      34.659  22.931  27.011  1.00  0.00     0.028 A 
ATOM     11  C   UNL A   1      33.650  24.677  25.101  1.00  0.00     0.016 A 
ATOM     12  C   UNL A   1      33.373  23.452  27.156  1.00  0.00     0.016 A 
BRANCH   8  13
ATOM     13  N   UNL A   1      36.717  22.722  25.768  1.00  0.00    -0.242 N 
ATOM     14  C   UNL A   1      37.006  21.412  25.509  1.00  0.00     0.095 A 
ATOM     15  C   UNL A   1      38.324  21.303  25.636  1.00  0.00     0.228 A 
ATOM     16  O   UNL A   1      38.972  22.493  25.968  1.00  0.00    -0.415 OA
ATOM     17  C   UNL A   1      37.907  23.391  26.032  1.00  0.00     0.424 A 
ATOM     18  O   UNL A   1      38.053  24.571  26.323  1.00  0.00    -0.223 OA
BRANCH  14  19
ATOM     19  C   UNL A   1      36.057  20.401  25.043  1.00  0.00     0.002 A 
ATOM     20  C   UNL A   1      34.254  18.426  24.193  1.00  0.00     0.082 A 
ATOM     21  C   UNL A   1      35.558  18.067  24.533  1.00  0.00     0.022 A 
ATOM     22  C   UNL A   1      33.839  19.758  24.280  1.00  0.00     0.022 A 
ATOM     23  C   UNL A   1      36.452  19.053  24.956  1.00  0.00     0.012 A 
ATOM     24  C   UNL A   1      34.740  20.740  24.709  1.00  0.00     0.012 A 
BRANCH  20  25
ATOM     25  S   UNL A   1      33.113  17.180  23.669  1.00  0.00     0.238 S 
ATOM     26  O   UNL A   1      33.668  15.883  23.931  1.00  0.00    -0.207 OA
ATOM     27  O   UNL A   1      32.581  17.563  22.373  1.00  0.00    -0.207 OA
BRANCH  25  28
ATOM     28  N   UNL A   1      31.845  17.353  24.760  1.00  0.00    -0.225 NA
ATOM     29  H   UNL A   1      31.243  18.120  24.463  1.00  0.00     0.137 HD
ATOM     30  H   UNL A   1      32.219  17.553  25.687  1.00  0.00     0.137 HD
ENDBRANCH  25  28
ENDBRANCH  20  25
ENDBRANCH  14  19
ENDBRANCH   8  13
ENDBRANCH   4   7
ENDBRANCH   2   3
ENDBRANCH   1   2
BRANCH   1  31
ATOM     31  C   UNL A   1      33.506  28.379  25.672  1.00  0.00     0.002 C 
BRANCH  31  32
ATOM     32  C   UNL A   1      34.037  28.962  26.993  1.00  0.00     0.002 C 
BRANCH  32  33
ATOM     33  C   UNL A   1      33.554  30.374  27.361  1.00  0.00     0.021 C 
BRANCH  33  34
ATOM     34  C   UNL A   1      34.687  31.356  27.609  1.00  0.00     0.116 C 
BRANCH  34  35
ATOM     35  N   UNL A   1      34.506  32.110  28.856  1.00  0.00    -0.352 N 
ATOM     36  C   UNL A   1      35.083  31.911  30.097  1.00  0.00     0.251 C 
ATOM     37  H   UNL A   1      33.882  32.869  28.800  1.00  0.00     0.163 HD
ATOM     38  O   UNL A   1      34.582  32.384  31.111  1.00  0.00    -0.269 OA
BRANCH  36  39
ATOM     39  C   UNL A   1      36.329  31.136  30.178  1.00  0.00     0.039 A 
ATOM     40  C   UNL A   1      36.359  29.737  30.231  1.00  0.00     0.014 A 
ATOM     41  C   UNL A   1      37.505  31.868  30.182  1.00  0.00     0.014 A 
ATOM     42  C   UNL A   1      37.599  29.098  30.243  1.00  0.00     0.010 A 
ATOM     43  C   UNL A   1      38.679  31.246  29.898  1.00  0.00     0.010 A 
ATOM     44  C   UNL A   1      38.752  29.875  30.081  1.00  0.00    -0.014 A 
BRANCH  44  45
ATOM     45  C   UNL A   1      40.098  29.329  30.059  1.00  0.00     0.031 A 
ATOM     46  C   UNL A   1      40.727  29.199  31.394  1.00  0.00     0.074 A 
ATOM     47  C   UNL A   1      40.551  28.680  28.961  1.00  0.00     0.049 A 
ATOM     48  N   UNL A   1      41.761  29.822  31.851  1.00  0.00    -0.248 NA
ATOM     49  C   UNL A   1      40.027  28.387  32.405  1.00  0.00     0.031 C 
ATOM     50  C   UNL A   1      39.840  28.420  27.697  1.00  0.00     0.029 A 
ATOM     51  N   UNL A   1      41.702  27.980  28.793  1.00  0.00    -0.354 N 
ATOM     52  C   UNL A   1      41.980  29.296  33.121  1.00  0.00     0.074 A 
ATOM     53  C   UNL A   1      40.763  28.627  33.491  1.00  0.00     0.031 C 
ATOM     54  C   UNL A   1      40.467  27.439  27.012  1.00  0.00     0.029 A 
ATOM     55  C   UNL A   1      41.707  27.125  27.693  1.00  0.00     0.049 A 
ATOM     56  H   UNL A   1      42.472  28.068  29.400  1.00  0.00     0.167 HD
ATOM     57  C   UNL A   1      43.241  29.191  33.626  1.00  0.00     0.037 A 
ATOM     58  C   UNL A   1      42.653  26.199  27.401  1.00  0.00     0.037 A 
ATOM     59  C   UNL A   1      44.166  30.001  32.865  1.00  0.00     0.049 A 
ATOM     60  C   UNL A   1      43.861  26.550  28.192  1.00  0.00     0.074 A 
ATOM     61  C   UNL A   1      44.246  31.340  32.533  1.00  0.00     0.029 A 
ATOM     62  N   UNL A   1      44.997  29.353  31.982  1.00  0.00    -0.354 N 
ATOM     63  N   UNL A   1      44.571  27.624  27.991  1.00  0.00    -0.248 NA
ATOM     64  C   UNL A   1      43.989  25.956  29.515  1.00  0.00     0.031 C 
ATOM     65  C   UNL A   1      44.712  31.358  31.185  1.00  0.00     0.029 A 
ATOM     66  C   UNL A   1      44.963  30.041  30.798  1.00  0.00     0.049 A 
ATOM     67  H   UNL A   1      45.522  28.541  32.168  1.00  0.00     0.167 HD
ATOM     68  C   UNL A   1      44.888  28.084  29.261  1.00  0.00     0.074 A 
ATOM     69  C   UNL A   1      44.573  26.972  30.156  1.00  0.00     0.031 C 
ATOM     70  C   UNL A   1      45.086  29.415  29.501  1.00  0.00     0.037 A 
BRANCH  57  71
ATOM     71  C   UNL A   1      43.719  28.060  34.512  1.00  0.00     0.057 A 
ATOM     72  C   UNL A   1      44.286  28.380  35.760  1.00  0.00     0.134 A 
ATOM     73  C   UNL A   1      43.928  26.728  34.095  1.00  0.00     0.134 A 
ATOM     74  F   UNL A   1      44.152  29.610  36.282  1.00  0.00    -0.206 F 
ATOM     75  C   UNL A   1      45.091  27.486  36.476  1.00  0.00     0.040 A 
ATOM     76  C   UNL A   1      44.686  25.811  34.828  1.00  0.00     0.040 A 
ATOM     77  F   UNL A   1      43.504  26.257  32.918  1.00  0.00    -0.206 F 
ATOM     78  C   UNL A   1      45.305  26.199  36.003  1.00  0.00     0.006 A 
ENDBRANCH  57  71
BRANCH  58  79
ATOM     79  C   UNL A   1      42.487  24.884  26.741  1.00  0.00     0.057 A 
ATOM     80  C   UNL A   1      43.064  24.618  25.491  1.00  0.00     0.134 A 
ATOM     81  C   UNL A   1      41.989  23.768  27.438  1.00  0.00     0.134 A 
ATOM     82  F   UNL A   1      43.602  25.610  24.768  1.00  0.00    -0.206 F 
ATOM     83  C   UNL A   1      43.161  23.319  24.974  1.00  0.00     0.040 A 
ATOM     84  C   UNL A   1      42.075  22.466  26.933  1.00  0.00     0.040 A 
ATOM     85  F   UNL A   1      41.485  23.894  28.676  1.00  0.00    -0.206 F 
ATOM     86  C   UNL A   1      42.676  22.236  25.702  1.00  0.00     0.006 A 
ENDBRANCH  58  79
BRANCH  70  87
ATOM     87  C   UNL A   1      45.194  30.336  28.316  1.00  0.00     0.057 A 
ATOM     88  C   UNL A   1      44.113  31.028  27.750  1.00  0.00     0.134 A 
ATOM     89  C   UNL A   1      46.466  30.659  27.831  1.00  0.00     0.134 A 
ATOM     90  F   UNL A   1      42.867  30.865  28.212  1.00  0.00    -0.206 F 
ATOM     91  C   UNL A   1      44.282  31.964  26.725  1.00  0.00     0.040 A 
ATOM     92  C   UNL A   1      46.654  31.615  26.831  1.00  0.00     0.040 A 
ATOM     93  F   UNL A   1      47.556  30.083  28.362  1.00  0.00    -0.206 F 
ATOM     94  C   UNL A   1      45.560  32.265  26.268  1.00  0.00     0.006 A 
ENDBRANCH  70  87
ENDBRANCH  44  45
ENDBRANCH  36  39
ENDBRANCH  34  35
ENDBRANCH  33  34
ENDBRANCH  32  33
ENDBRANCH  31  32
ENDBRANCH   1  31
TORSDOF 17
ENDMDL
MODEL 3
REMARK VINA RESULT:     -11.5      5.007      9.643
REMARK SMILES NS(=O)(=O)c1ccc(-c2coc(=O)n2-c2ccc(C(=O)NCCCCCCNC(=O)c3ccc(-c4c5nc(c(-c6c(F)cccc6F)c6ccc([nH]6)c(-c6c(F)cccc6F)c6nc(c(-c7c(F)cccc7F)c7ccc4[nH]7)C=C6)C=C5)cc3)cc2)cc1
REMARK SMILES IDX 23 1 22 2 21 3 19 4 20 5 18 7 15 8 16 9 86 10 17 11 85 12
REMARK SMILES IDX 14 13 9 14 10 15 11 16 12 17 13 18 8 19 5 20 6 21 88 22 7 23
REMARK SMILES IDX 87 24 2 25 3 26 4 27 1 28 24 31 25 32 26 33 27 34 28 35
REMARK SMILES IDX 29 36 30 38 31 39 32 40 84 41 33 42 83 43 34 44 35 45 36 46
REMARK SMILES IDX 77 47 37 48 82 49 76 50 78 51 38 52 81 53 75 54 74 55 39 57
REMARK SMILES IDX 65 58 48 59 64 60 49 61 52 62 63 63 79 64 50 65 51 66 62 68
REMARK SMILES IDX 80 69 53 70 40 71 41 72 46 73 42 74 43 75 45 76 47 77 44 78
REMARK SMILES IDX 66 79 67 80 72 81 68 82 69 83 71 84 73 85 70 86 54 87 55 88
REMARK SMILES IDX 60 89 56 90 57 91 59 92 61 93 58 94
REMARK H PARENT 21 6 1 29 1 30 28 37 78 56 52 67
REMARK Flexibility Score: inf
ROOT
ATOM      1  C   UNL A   1      31.452  27.629  25.302  1.00  0.00     0.021 C 
ENDROOT
BRANCH   1   2
ATOM      2  C   UNL A   1      31.297  26.958  26.668  1.00  0.00     0.116 C 
BRANCH   2   3
ATOM      3  N   UNL A   1      30.660  25.663  26.517  1.00  0.00    -0.352 N 
ATOM      4  C   UNL A   1      31.144  24.396  26.315  1.00  0.00     0.251 C 
ATOM      5  O   UNL A   1      30.320  23.486  26.207  1.00  0.00    -0.269 OA
ATOM      6  H   UNL A   1      29.678  25.703  26.570  1.00  0.00     0.163 HD
BRANCH   4   7
ATOM      7  C   UNL A   1      32.595  24.062  26.305  1.00  0.00     0.039 A 
ATOM      8  C   UNL A   1      35.267  23.263  25.992  1.00  0.00     0.053 A 
ATOM      9  C   UNL A   1      34.676  24.076  25.028  1.00  0.00     0.028 A 
ATOM     10  C   UNL A   1      34.564  22.936  27.152  1.00  0.00     0.028 A 
ATOM     11  C   UNL A   1      33.333  24.443  25.169  1.00  0.00     0.016 A 
ATOM     12  C   UNL A   1      33.258  23.393  27.335  1.00  0.00     0.016 A 
BRANCH   8  13
ATOM     13  N   UNL A   1      36.553  22.737  25.801  1.00  0.00    -0.242 N 
ATOM     14  C   UNL A   1      36.899  21.445  25.524  1.00  0.00     0.095 A 
ATOM     15  C   UNL A   1      38.223  21.398  25.623  1.00  0.00     0.228 A 
ATOM     16  O   UNL A   1      38.820  22.615  25.953  1.00  0.00    -0.415 OA
ATOM     17  C   UNL A   1      37.715  23.460  26.048  1.00  0.00     0.424 A 
ATOM     18  O   UNL A   1      37.811  24.643  26.347  1.00  0.00    -0.223 OA
BRANCH  14  19
ATOM     19  C   UNL A   1      35.990  20.393  25.067  1.00  0.00     0.002 A 
ATOM     20  C   UNL A   1      34.267  18.342  24.234  1.00  0.00     0.082 A 
ATOM     21  C   UNL A   1      35.597  18.045  24.530  1.00  0.00     0.022 A 
ATOM     22  C   UNL A   1      33.787  19.648  24.356  1.00  0.00     0.022 A 
ATOM     23  C   UNL A   1      36.451  19.070  24.945  1.00  0.00     0.012 A 
ATOM     24  C   UNL A   1      34.647  20.669  24.777  1.00  0.00     0.012 A 
BRANCH  20  25
ATOM     25  S   UNL A   1      33.177  17.047  23.721  1.00  0.00     0.238 S 
ATOM     26  O   UNL A   1      33.754  15.776  24.051  1.00  0.00    -0.207 OA
ATOM     27  O   UNL A   1      32.680  17.367  22.394  1.00  0.00    -0.207 OA
BRANCH  25  28
ATOM     28  N   UNL A   1      31.867  17.227  24.761  1.00  0.00    -0.225 NA
ATOM     29  H   UNL A   1      32.153  17.769  25.576  1.00  0.00     0.137 HD
ATOM     30  H   UNL A   1      31.542  16.308  25.061  1.00  0.00     0.137 HD
ENDBRANCH  25  28
ENDBRANCH  20  25
ENDBRANCH  14  19
ENDBRANCH   8  13
ENDBRANCH   4   7
ENDBRANCH   2   3
ENDBRANCH   1   2
BRANCH   1  31
ATOM     31  C   UNL A   1      32.903  28.021  24.983  1.00  0.00     0.002 C 
BRANCH  31  32
ATOM     32  C   UNL A   1      33.879  27.970  26.171  1.00  0.00     0.002 C 
BRANCH  32  33
ATOM     33  C   UNL A   1      34.129  29.294  26.909  1.00  0.00     0.021 C 
BRANCH  33  34
ATOM     34  C   UNL A   1      35.522  29.399  27.507  1.00  0.00     0.116 C 
BRANCH  34  35
ATOM     35  N   UNL A   1      35.491  29.793  28.921  1.00  0.00    -0.352 N 
ATOM     36  C   UNL A   1      36.384  29.503  29.937  1.00  0.00     0.251 C 
ATOM     37  H   UNL A   1      34.721  30.347  29.186  1.00  0.00     0.163 HD
ATOM     38  O   UNL A   1      36.056  29.595  31.114  1.00  0.00    -0.269 OA
BRANCH  36  39
ATOM     39  C   UNL A   1      37.751  29.099  29.578  1.00  0.00     0.039 A 
ATOM     40  C   UNL A   1      38.466  29.672  28.520  1.00  0.00     0.014 A 
ATOM     41  C   UNL A   1      38.324  28.113  30.364  1.00  0.00     0.014 A 
ATOM     42  C   UNL A   1      39.782  29.260  28.305  1.00  0.00     0.010 A 
ATOM     43  C   UNL A   1      39.670  27.936  30.338  1.00  0.00     0.010 A 
ATOM     44  C   UNL A   1      40.365  28.382  29.226  1.00  0.00    -0.014 A 
BRANCH  44  45
ATOM     45  C   UNL A   1      41.728  27.892  29.123  1.00  0.00     0.031 A 
ATOM     46  C   UNL A   1      41.878  26.669  28.301  1.00  0.00     0.074 A 
ATOM     47  C   UNL A   1      42.767  28.697  29.448  1.00  0.00     0.049 A 
ATOM     48  N   UNL A   1      42.249  25.493  28.685  1.00  0.00    -0.248 NA
ATOM     49  C   UNL A   1      41.409  26.719  26.905  1.00  0.00     0.031 C 
ATOM     50  C   UNL A   1      42.726  30.093  29.919  1.00  0.00     0.029 A 
ATOM     51  N   UNL A   1      44.098  28.488  29.285  1.00  0.00    -0.354 N 
ATOM     52  C   UNL A   1      42.291  24.721  27.528  1.00  0.00     0.074 A 
ATOM     53  C   UNL A   1      41.537  25.442  26.539  1.00  0.00     0.031 C 
ATOM     54  C   UNL A   1      43.942  30.662  29.771  1.00  0.00     0.029 A 
ATOM     55  C   UNL A   1      44.882  29.637  29.364  1.00  0.00     0.049 A 
ATOM     56  H   UNL A   1      44.481  27.595  29.122  1.00  0.00     0.167 HD
ATOM     57  C   UNL A   1      43.197  23.712  27.393  1.00  0.00     0.037 A 
ATOM     58  C   UNL A   1      46.202  29.729  29.072  1.00  0.00     0.037 A 
ATOM     59  C   UNL A   1      43.769  23.364  28.674  1.00  0.00     0.049 A 
ATOM     60  C   UNL A   1      46.745  28.346  29.076  1.00  0.00     0.074 A 
ATOM     61  C   UNL A   1      43.259  22.949  29.890  1.00  0.00     0.029 A 
ATOM     62  N   UNL A   1      45.043  23.807  28.941  1.00  0.00    -0.354 N 
ATOM     63  N   UNL A   1      46.834  27.607  30.147  1.00  0.00    -0.248 NA
ATOM     64  C   UNL A   1      46.732  27.619  27.815  1.00  0.00     0.031 C 
ATOM     65  C   UNL A   1      44.049  23.622  30.869  1.00  0.00     0.029 A 
ATOM     66  C   UNL A   1      45.040  24.344  30.202  1.00  0.00     0.049 A 
ATOM     67  H   UNL A   1      45.817  23.750  28.336  1.00  0.00     0.167 HD
ATOM     68  C   UNL A   1      46.455  26.337  29.735  1.00  0.00     0.074 A 
ATOM     69  C   UNL A   1      46.484  26.388  28.274  1.00  0.00     0.031 C 
ATOM     70  C   UNL A   1      45.864  25.461  30.601  1.00  0.00     0.037 A 
BRANCH  57  71
ATOM     71  C   UNL A   1      43.874  23.336  26.092  1.00  0.00     0.057 A 
ATOM     72  C   UNL A   1      43.894  21.980  25.714  1.00  0.00     0.134 A 
ATOM     73  C   UNL A   1      44.750  24.164  25.358  1.00  0.00     0.134 A 
ATOM     74  F   UNL A   1      43.101  21.085  26.323  1.00  0.00    -0.206 F 
ATOM     75  C   UNL A   1      44.792  21.472  24.768  1.00  0.00     0.040 A 
ATOM     76  C   UNL A   1      45.614  23.675  24.373  1.00  0.00     0.040 A 
ATOM     77  F   UNL A   1      44.901  25.469  25.607  1.00  0.00    -0.206 F 
ATOM     78  C   UNL A   1      45.667  22.320  24.103  1.00  0.00     0.006 A 
ENDBRANCH  57  71
BRANCH  58  79
ATOM     79  C   UNL A   1      46.943  30.874  28.493  1.00  0.00     0.057 A 
ATOM     80  C   UNL A   1      48.238  31.195  28.923  1.00  0.00     0.134 A 
ATOM     81  C   UNL A   1      46.509  31.513  27.317  1.00  0.00     0.134 A 
ATOM     82  F   UNL A   1      48.757  30.608  30.011  1.00  0.00    -0.206 F 
ATOM     83  C   UNL A   1      49.062  32.081  28.216  1.00  0.00     0.040 A 
ATOM     84  C   UNL A   1      47.319  32.403  26.603  1.00  0.00     0.040 A 
ATOM     85  F   UNL A   1      45.318  31.223  26.771  1.00  0.00    -0.206 F 
ATOM     86  C   UNL A   1      48.607  32.680  27.044  1.00  0.00     0.006 A 
ENDBRANCH  58  79
BRANCH  70  87
ATOM     87  C   UNL A   1      45.858  25.814  32.065  1.00  0.00     0.057 A 
ATOM     88  C   UNL A   1      46.960  25.658  32.920  1.00  0.00     0.134 A 
ATOM     89  C   UNL A   1      44.750  26.487  32.589  1.00  0.00     0.134 A 
ATOM     90  F   UNL A   1      48.104  25.118  32.485  1.00  0.00    -0.206 F 
ATOM     91  C   UNL A   1      46.944  26.110  34.243  1.00  0.00     0.040 A 
ATOM     92  C   UNL A   1      44.732  26.973  33.898  1.00  0.00     0.040 A 
ATOM     93  F   UNL A   1      43.680  26.727  31.815  1.00  0.00    -0.206 F 
ATOM     94  C   UNL A   1      45.828  26.778  34.733  1.00  0.00     0.006 A 
ENDBRANCH  70  87
ENDBRANCH  44  45
ENDBRANCH  36  39
ENDBRANCH  34  35
ENDBRANCH  33  34
ENDBRANCH  32  33
ENDBRANCH  31  32
ENDBRANCH   1  31
TORSDOF 17
ENDMDL
