MODEL 1
REMARK VINA RESULT:     -12.7      0.000      0.000
REMARK SMILES Cc1cccc(-c2ncc(C[NH+]3CCC4(CC3)NC(=O)C[C@H]4C(=O)NCCCCCCNC(=O)c3ccc(-c4c5nc(c(-c6c(F)cccc6F)c6ccc([nH]6)c(-c6c(F)cccc6F)c6nc(c(-c7c(F)cccc7F)c7ccc4[nH]7)C=C6)C=C5)cc3)cn2)c1
REMARK SMILES IDX 28 1 27 2 26 3 25 4 23 5 24 6 22 8 12 9 13 10 17 11 14 13
REMARK SMILES IDX 16 14 15 15 18 16 19 17 21 19 20 20 11 21 10 22 7 23 8 24
REMARK SMILES IDX 90 25 9 26 89 27 6 28 1 29 2 30 3 31 91 32 4 33 5 34 29 35
REMARK SMILES IDX 30 36 31 37 32 38 33 39 34 41 35 42 36 43 88 44 37 45 87 46
REMARK SMILES IDX 38 47 39 48 40 49 81 50 41 51 86 52 80 53 82 54 42 55 85 56
REMARK SMILES IDX 79 57 78 58 43 60 69 61 52 62 68 63 53 64 56 65 67 66 83 67
REMARK SMILES IDX 54 68 55 69 66 71 84 72 57 73 44 74 45 75 50 76 46 77 47 78
REMARK SMILES IDX 49 79 51 80 48 81 70 82 71 83 76 84 72 85 73 86 75 87 77 88
REMARK SMILES IDX 74 89 58 90 59 91 64 92 60 93 61 94 63 95 65 96 62 97
REMARK H PARENT 25 7 12 12 18 18 32 40 82 59 56 70
REMARK Flexibility Score: inf
ROOT
ATOM      1  C   UNL A   1      33.508  29.190  25.178  1.00  0.00     0.002 C 
ENDROOT
BRANCH   1   2
ATOM      2  C   UNL A   1      33.950  28.400  23.949  1.00  0.00     0.021 C 
BRANCH   2   3
ATOM      3  C   UNL A   1      33.035  28.511  22.713  1.00  0.00     0.116 C 
BRANCH   3   4
ATOM      4  N   UNL A   1      33.281  27.516  21.670  1.00  0.00    -0.356 N 
ATOM      5  C   UNL A   1      32.792  26.264  21.422  1.00  0.00     0.226 C 
ATOM      6  O   UNL A   1      33.279  25.673  20.449  1.00  0.00    -0.275 OA
ATOM      7  H   UNL A   1      33.943  27.811  21.004  1.00  0.00     0.163 HD
BRANCH   5   8
ATOM      8  C   UNL A   1      31.710  25.538  22.255  1.00  0.00     0.114 C 
ATOM      9  N   UNL A   1      33.555  22.151  23.800  1.00  0.00    -0.331 N 
ATOM     10  C   UNL A   1      32.102  22.169  23.680  1.00  0.00     0.264 C 
ATOM     11  C   UNL A   1      34.136  23.242  23.050  1.00  0.00     0.264 C 
ATOM     12  H   UNL A   1      33.810  21.265  23.363  1.00  0.00     0.348 HD
ATOM     13  C   UNL A   1      31.395  23.507  23.938  1.00  0.00     0.091 C 
ATOM     14  C   UNL A   1      33.663  24.587  23.559  1.00  0.00     0.091 C 
ATOM     15  C   UNL A   1      32.152  24.811  23.550  1.00  0.00     0.063 C 
ATOM     16  N   UNL A   1      31.725  25.770  24.564  1.00  0.00    -0.349 N 
ATOM     17  C   UNL A   1      30.824  26.719  24.130  1.00  0.00     0.221 C 
ATOM     18  H   UNL A   1      32.056  25.742  25.491  1.00  0.00     0.164 HD
ATOM     19  C   UNL A   1      30.619  26.537  22.655  1.00  0.00     0.116 C 
ATOM     20  O   UNL A   1      30.303  27.560  24.830  1.00  0.00    -0.275 OA
BRANCH   9  21
ATOM     21  C   UNL A   1      34.195  21.841  25.093  1.00  0.00     0.302 C 
BRANCH  21  22
ATOM     22  C   UNL A   1      35.699  21.881  25.152  1.00  0.00     0.043 A 
ATOM     23  C   UNL A   1      38.335  21.687  25.808  1.00  0.00     0.159 A 
ATOM     24  N   UNL A   1      37.759  20.641  25.182  1.00  0.00    -0.236 NA
ATOM     25  N   UNL A   1      37.725  22.864  26.047  1.00  0.00    -0.236 NA
ATOM     26  C   UNL A   1      36.466  20.786  24.827  1.00  0.00     0.124 A 
ATOM     27  C   UNL A   1      36.415  22.936  25.702  1.00  0.00     0.124 A 
BRANCH  23  28
ATOM     28  C   UNL A   1      39.675  21.470  26.370  1.00  0.00     0.019 A 
ATOM     29  C   UNL A   1      42.496  18.872  26.184  1.00  0.00     0.044 C 
ATOM     30  C   UNL A   1      41.721  20.107  26.545  1.00  0.00    -0.050 A 
ATOM     31  C   UNL A   1      42.306  21.101  27.329  1.00  0.00     0.003 A 
ATOM     32  C   UNL A   1      40.414  20.305  26.071  1.00  0.00     0.015 A 
ATOM     33  C   UNL A   1      41.589  22.254  27.654  1.00  0.00     0.001 A 
ATOM     34  C   UNL A   1      40.282  22.431  27.189  1.00  0.00     0.012 A 
ENDBRANCH  23  28
ENDBRANCH  21  22
ENDBRANCH   9  21
ENDBRANCH   5   8
ENDBRANCH   3   4
ENDBRANCH   2   3
ENDBRANCH   1   2
BRANCH   1  35
ATOM     35  C   UNL A   1      34.266  28.864  26.465  1.00  0.00     0.002 C 
BRANCH  35  36
ATOM     36  C   UNL A   1      33.982  29.793  27.644  1.00  0.00     0.021 C 
BRANCH  36  37
ATOM     37  C   UNL A   1      34.329  31.245  27.384  1.00  0.00     0.116 C 
BRANCH  37  38
ATOM     38  N   UNL A   1      34.947  31.887  28.534  1.00  0.00    -0.352 N 
ATOM     39  C   UNL A   1      35.933  31.456  29.394  1.00  0.00     0.251 C 
ATOM     40  H   UNL A   1      34.599  32.785  28.733  1.00  0.00     0.163 HD
ATOM     41  O   UNL A   1      36.174  32.131  30.393  1.00  0.00    -0.269 OA
BRANCH  39  42
ATOM     42  C   UNL A   1      36.846  30.341  29.028  1.00  0.00     0.039 A 
ATOM     43  C   UNL A   1      36.785  29.205  29.855  1.00  0.00     0.014 A 
ATOM     44  C   UNL A   1      37.980  30.575  28.266  1.00  0.00     0.014 A 
ATOM     45  C   UNL A   1      37.955  28.539  30.179  1.00  0.00     0.010 A 
ATOM     46  C   UNL A   1      39.159  30.061  28.720  1.00  0.00     0.010 A 
ATOM     47  C   UNL A   1      39.140  29.086  29.715  1.00  0.00    -0.014 A 
BRANCH  47  48
ATOM     48  C   UNL A   1      40.461  28.645  30.079  1.00  0.00     0.031 A 
ATOM     49  C   UNL A   1      40.957  27.454  29.379  1.00  0.00     0.074 A 
ATOM     50  C   UNL A   1      41.232  29.499  30.785  1.00  0.00     0.049 A 
ATOM     51  N   UNL A   1      42.016  26.817  29.704  1.00  0.00    -0.248 NA
ATOM     52  C   UNL A   1      40.256  26.851  28.244  1.00  0.00     0.031 C 
ATOM     53  C   UNL A   1      42.682  29.522  30.901  1.00  0.00     0.029 A 
ATOM     54  N   UNL A   1      40.800  30.453  31.715  1.00  0.00    -0.354 N 
ATOM     55  C   UNL A   1      42.315  25.951  28.675  1.00  0.00     0.074 A 
ATOM     56  C   UNL A   1      41.136  25.928  27.851  1.00  0.00     0.031 C 
ATOM     57  C   UNL A   1      43.019  30.186  32.021  1.00  0.00     0.029 A 
ATOM     58  C   UNL A   1      41.782  30.472  32.730  1.00  0.00     0.049 A 
ATOM     59  H   UNL A   1      39.981  30.998  31.670  1.00  0.00     0.167 HD
ATOM     60  C   UNL A   1      43.593  25.488  28.601  1.00  0.00     0.037 A 
ATOM     61  C   UNL A   1      41.481  30.007  33.981  1.00  0.00     0.037 A 
ATOM     62  C   UNL A   1      44.337  25.952  29.772  1.00  0.00     0.049 A 
ATOM     63  C   UNL A   1      42.281  28.775  34.340  1.00  0.00     0.074 A 
ATOM     64  C   UNL A   1      45.171  27.040  29.977  1.00  0.00     0.029 A 
ATOM     65  N   UNL A   1      43.953  25.501  31.027  1.00  0.00    -0.354 N 
ATOM     66  N   UNL A   1      42.764  27.938  33.461  1.00  0.00    -0.248 NA
ATOM     67  C   UNL A   1      42.661  28.428  35.707  1.00  0.00     0.031 C 
ATOM     68  C   UNL A   1      45.237  27.275  31.376  1.00  0.00     0.029 A 
ATOM     69  C   UNL A   1      44.462  26.319  32.013  1.00  0.00     0.049 A 
ATOM     70  H   UNL A   1      43.395  24.706  31.190  1.00  0.00     0.167 HD
ATOM     71  C   UNL A   1      43.530  26.993  34.097  1.00  0.00     0.074 A 
ATOM     72  C   UNL A   1      43.424  27.338  35.503  1.00  0.00     0.031 C 
ATOM     73  C   UNL A   1      44.211  26.022  33.415  1.00  0.00     0.037 A 
BRANCH  60  74
ATOM     74  C   UNL A   1      44.263  24.845  27.410  1.00  0.00     0.057 A 
ATOM     75  C   UNL A   1      44.961  23.628  27.576  1.00  0.00     0.134 A 
ATOM     76  C   UNL A   1      44.314  25.357  26.102  1.00  0.00     0.134 A 
ATOM     77  F   UNL A   1      44.977  22.977  28.747  1.00  0.00    -0.206 F 
ATOM     78  C   UNL A   1      45.687  23.010  26.551  1.00  0.00     0.040 A 
ATOM     79  C   UNL A   1      45.051  24.756  25.069  1.00  0.00     0.040 A 
ATOM     80  F   UNL A   1      43.634  26.441  25.728  1.00  0.00    -0.206 F 
ATOM     81  C   UNL A   1      45.746  23.580  25.292  1.00  0.00     0.006 A 
ENDBRANCH  60  74
BRANCH  61  82
ATOM     82  C   UNL A   1      40.061  30.294  34.344  1.00  0.00     0.057 A 
ATOM     83  C   UNL A   1      39.784  31.583  34.844  1.00  0.00     0.134 A 
ATOM     84  C   UNL A   1      39.003  29.612  33.732  1.00  0.00     0.134 A 
ATOM     85  F   UNL A   1      40.746  32.281  35.469  1.00  0.00    -0.206 F 
ATOM     86  C   UNL A   1      38.582  32.240  34.564  1.00  0.00     0.040 A 
ATOM     87  C   UNL A   1      37.785  30.255  33.472  1.00  0.00     0.040 A 
ATOM     88  F   UNL A   1      39.179  28.377  33.241  1.00  0.00    -0.206 F 
ATOM     89  C   UNL A   1      37.598  31.591  33.827  1.00  0.00     0.006 A 
ENDBRANCH  61  82
BRANCH  73  90
ATOM     90  C   UNL A   1      44.790  24.741  33.984  1.00  0.00     0.057 A 
ATOM     91  C   UNL A   1      44.027  23.638  34.388  1.00  0.00     0.134 A 
ATOM     92  C   UNL A   1      46.191  24.516  33.976  1.00  0.00     0.134 A 
ATOM     93  F   UNL A   1      42.690  23.646  34.340  1.00  0.00    -0.206 F 
ATOM     94  C   UNL A   1      44.608  22.432  34.807  1.00  0.00     0.040 A 
ATOM     95  C   UNL A   1      46.775  23.294  34.320  1.00  0.00     0.040 A 
ATOM     96  F   UNL A   1      47.068  25.461  33.605  1.00  0.00    -0.206 F 
ATOM     97  C   UNL A   1      45.984  22.251  34.758  1.00  0.00     0.006 A 
ENDBRANCH  73  90
ENDBRANCH  47  48
ENDBRANCH  39  42
ENDBRANCH  37  38
ENDBRANCH  36  37
ENDBRANCH  35  36
ENDBRANCH   1  35
TORSDOF 16
ENDMDL
MODEL 2
REMARK VINA RESULT:     -12.7      1.957      3.302
REMARK SMILES Cc1cccc(-c2ncc(C[NH+]3CCC4(CC3)NC(=O)C[C@H]4C(=O)NCCCCCCNC(=O)c3ccc(-c4c5nc(c(-c6c(F)cccc6F)c6ccc([nH]6)c(-c6c(F)cccc6F)c6nc(c(-c7c(F)cccc7F)c7ccc4[nH]7)C=C6)C=C5)cc3)cn2)c1
REMARK SMILES IDX 28 1 27 2 26 3 25 4 23 5 24 6 22 8 12 9 13 10 17 11 14 13
REMARK SMILES IDX 16 14 15 15 18 16 19 17 21 19 20 20 11 21 10 22 7 23 8 24
REMARK SMILES IDX 90 25 9 26 89 27 6 28 1 29 2 30 3 31 91 32 4 33 5 34 29 35
REMARK SMILES IDX 30 36 31 37 32 38 33 39 34 41 35 42 36 43 88 44 37 45 87 46
REMARK SMILES IDX 38 47 39 48 40 49 81 50 41 51 86 52 80 53 82 54 42 55 85 56
REMARK SMILES IDX 79 57 78 58 43 60 69 61 52 62 68 63 53 64 56 65 67 66 83 67
REMARK SMILES IDX 54 68 55 69 66 71 84 72 57 73 44 74 45 75 50 76 46 77 47 78
REMARK SMILES IDX 49 79 51 80 48 81 70 82 71 83 76 84 72 85 73 86 75 87 77 88
REMARK SMILES IDX 74 89 58 90 59 91 64 92 60 93 61 94 63 95 65 96 62 97
REMARK H PARENT 25 7 12 12 18 18 32 40 82 59 56 70
REMARK Flexibility Score: inf
ROOT
ATOM      1  C   UNL A   1      32.412  27.497  26.512  1.00  0.00     0.002 C 
ENDROOT
BRANCH   1   2
ATOM      2  C   UNL A   1      33.118  26.768  25.372  1.00  0.00     0.021 C 
BRANCH   2   3
ATOM      3  C   UNL A   1      32.229  25.856  24.503  1.00  0.00     0.116 C 
BRANCH   3   4
ATOM      4  N   UNL A   1      32.926  25.161  23.421  1.00  0.00    -0.356 N 
ATOM      5  C   UNL A   1      33.489  23.922  23.300  1.00  0.00     0.226 C 
ATOM      6  O   UNL A   1      34.056  23.685  22.225  1.00  0.00    -0.275 OA
ATOM      7  H   UNL A   1      33.007  25.704  22.604  1.00  0.00     0.163 HD
BRANCH   5   8
ATOM      8  C   UNL A   1      33.487  22.822  24.387  1.00  0.00     0.114 C 
ATOM      9  N   UNL A   1      37.475  22.193  25.369  1.00  0.00    -0.331 N 
ATOM     10  C   UNL A   1      36.509  21.136  25.638  1.00  0.00     0.264 C 
ATOM     11  C   UNL A   1      36.899  23.193  24.497  1.00  0.00     0.264 C 
ATOM     12  H   UNL A   1      38.220  21.701  24.875  1.00  0.00     0.348 HD
ATOM     13  C   UNL A   1      35.104  21.569  26.082  1.00  0.00     0.091 C 
ATOM     14  C   UNL A   1      35.684  23.848  25.120  1.00  0.00     0.091 C 
ATOM     15  C   UNL A   1      34.546  22.907  25.515  1.00  0.00     0.063 C 
ATOM     16  N   UNL A   1      33.741  23.437  26.611  1.00  0.00    -0.349 N 
ATOM     17  C   UNL A   1      32.377  23.335  26.436  1.00  0.00     0.221 C 
ATOM     18  H   UNL A   1      34.142  23.836  27.416  1.00  0.00     0.164 HD
ATOM     19  C   UNL A   1      32.115  22.780  25.068  1.00  0.00     0.116 C 
ATOM     20  O   UNL A   1      31.543  23.657  27.254  1.00  0.00    -0.275 OA
BRANCH   9  21
ATOM     21  C   UNL A   1      38.351  22.699  26.444  1.00  0.00     0.302 C 
BRANCH  21  22
ATOM     22  C   UNL A   1      39.770  22.196  26.480  1.00  0.00     0.043 A 
ATOM     23  C   UNL A   1      42.337  21.458  25.952  1.00  0.00     0.159 A 
ATOM     24  N   UNL A   1      42.111  22.728  26.345  1.00  0.00    -0.236 NA
ATOM     25  N   UNL A   1      41.395  20.498  25.895  1.00  0.00    -0.236 NA
ATOM     26  C   UNL A   1      40.836  23.050  26.646  1.00  0.00     0.124 A 
ATOM     27  C   UNL A   1      40.127  20.891  26.171  1.00  0.00     0.124 A 
BRANCH  23  28
ATOM     28  C   UNL A   1      43.679  21.151  25.437  1.00  0.00     0.019 A 
ATOM     29  C   UNL A   1      46.812  23.023  24.244  1.00  0.00     0.044 C 
ATOM     30  C   UNL A   1      45.876  21.909  24.618  1.00  0.00    -0.050 A 
ATOM     31  C   UNL A   1      46.309  20.583  24.579  1.00  0.00     0.003 A 
ATOM     32  C   UNL A   1      44.568  22.177  25.051  1.00  0.00     0.015 A 
ATOM     33  C   UNL A   1      45.443  19.549  24.938  1.00  0.00     0.001 A 
ATOM     34  C   UNL A   1      44.137  19.829  25.351  1.00  0.00     0.012 A 
ENDBRANCH  23  28
ENDBRANCH  21  22
ENDBRANCH   9  21
ENDBRANCH   5   8
ENDBRANCH   3   4
ENDBRANCH   2   3
ENDBRANCH   1   2
BRANCH   1  35
ATOM     35  C   UNL A   1      33.253  28.558  27.222  1.00  0.00     0.002 C 
BRANCH  35  36
ATOM     36  C   UNL A   1      34.715  28.631  26.786  1.00  0.00     0.021 C 
BRANCH  36  37
ATOM     37  C   UNL A   1      35.442  29.872  27.264  1.00  0.00     0.116 C 
BRANCH  37  38
ATOM     38  N   UNL A   1      34.598  31.056  27.248  1.00  0.00    -0.352 N 
ATOM     39  C   UNL A   1      34.478  32.099  28.140  1.00  0.00     0.251 C 
ATOM     40  H   UNL A   1      34.007  31.122  26.464  1.00  0.00     0.163 HD
ATOM     41  O   UNL A   1      33.570  32.911  27.973  1.00  0.00    -0.269 OA
BRANCH  39  42
ATOM     42  C   UNL A   1      35.540  32.387  29.140  1.00  0.00     0.039 A 
ATOM     43  C   UNL A   1      36.626  33.150  28.674  1.00  0.00     0.014 A 
ATOM     44  C   UNL A   1      35.693  31.588  30.261  1.00  0.00     0.014 A 
ATOM     45  C   UNL A   1      37.906  32.835  29.099  1.00  0.00     0.010 A 
ATOM     46  C   UNL A   1      36.948  31.134  30.543  1.00  0.00     0.010 A 
ATOM     47  C   UNL A   1      38.044  31.725  29.915  1.00  0.00    -0.014 A 
BRANCH  47  48
ATOM     48  C   UNL A   1      39.293  31.138  30.321  1.00  0.00     0.031 A 
ATOM     49  C   UNL A   1      39.743  29.979  29.541  1.00  0.00     0.074 A 
ATOM     50  C   UNL A   1      40.075  31.851  31.160  1.00  0.00     0.049 A 
ATOM     51  N   UNL A   1      40.721  29.224  29.872  1.00  0.00    -0.248 NA
ATOM     52  C   UNL A   1      39.084  29.549  28.307  1.00  0.00     0.031 C 
ATOM     53  C   UNL A   1      41.510  31.736  31.375  1.00  0.00     0.029 A 
ATOM     54  N   UNL A   1      39.652  32.748  32.150  1.00  0.00    -0.354 N 
ATOM     55  C   UNL A   1      41.025  28.435  28.784  1.00  0.00     0.074 A 
ATOM     56  C   UNL A   1      39.914  28.593  27.884  1.00  0.00     0.031 C 
ATOM     57  C   UNL A   1      41.812  32.260  32.577  1.00  0.00     0.029 A 
ATOM     58  C   UNL A   1      40.553  32.585  33.225  1.00  0.00     0.049 A 
ATOM     59  H   UNL A   1      38.885  33.363  32.104  1.00  0.00     0.167 HD
ATOM     60  C   UNL A   1      42.264  27.872  28.751  1.00  0.00     0.037 A 
ATOM     61  C   UNL A   1      40.121  32.032  34.400  1.00  0.00     0.037 A 
ATOM     62  C   UNL A   1      42.952  28.157  30.010  1.00  0.00     0.049 A 
ATOM     63  C   UNL A   1      40.790  30.706  34.688  1.00  0.00     0.074 A 
ATOM     64  C   UNL A   1      43.853  29.143  30.379  1.00  0.00     0.029 A 
ATOM     65  N   UNL A   1      42.439  27.625  31.185  1.00  0.00    -0.354 N 
ATOM     66  N   UNL A   1      41.269  29.917  33.764  1.00  0.00    -0.248 NA
ATOM     67  C   UNL A   1      41.035  30.201  36.035  1.00  0.00     0.031 C 
ATOM     68  C   UNL A   1      43.831  29.238  31.796  1.00  0.00     0.029 A 
ATOM     69  C   UNL A   1      42.936  28.299  32.280  1.00  0.00     0.049 A 
ATOM     70  H   UNL A   1      41.807  26.870  31.229  1.00  0.00     0.167 HD
ATOM     71  C   UNL A   1      41.905  28.853  34.353  1.00  0.00     0.074 A 
ATOM     72  C   UNL A   1      41.721  29.072  35.776  1.00  0.00     0.031 C 
ATOM     73  C   UNL A   1      42.555  27.894  33.625  1.00  0.00     0.037 A 
BRANCH  60  74
ATOM     74  C   UNL A   1      42.969  27.287  27.550  1.00  0.00     0.057 A 
ATOM     75  C   UNL A   1      43.412  25.946  27.585  1.00  0.00     0.134 A 
ATOM     76  C   UNL A   1      43.290  27.961  26.358  1.00  0.00     0.134 A 
ATOM     77  F   UNL A   1      43.150  25.144  28.626  1.00  0.00    -0.206 F 
ATOM     78  C   UNL A   1      44.152  25.351  26.557  1.00  0.00     0.040 A 
ATOM     79  C   UNL A   1      44.044  27.382  25.326  1.00  0.00     0.040 A 
ATOM     80  F   UNL A   1      42.869  29.200  26.098  1.00  0.00    -0.206 F 
ATOM     81  C   UNL A   1      44.484  26.073  25.424  1.00  0.00     0.006 A 
ENDBRANCH  60  74
BRANCH  61  82
ATOM     82  C   UNL A   1      38.705  32.407  34.693  1.00  0.00     0.057 A 
ATOM     83  C   UNL A   1      38.475  33.736  35.106  1.00  0.00     0.134 A 
ATOM     84  C   UNL A   1      37.637  31.740  34.084  1.00  0.00     0.134 A 
ATOM     85  F   UNL A   1      39.448  34.424  35.724  1.00  0.00    -0.206 F 
ATOM     86  C   UNL A   1      37.317  34.431  34.744  1.00  0.00     0.040 A 
ATOM     87  C   UNL A   1      36.461  32.423  33.741  1.00  0.00     0.040 A 
ATOM     88  F   UNL A   1      37.768  30.471  33.673  1.00  0.00    -0.206 F 
ATOM     89  C   UNL A   1      36.328  33.786  34.010  1.00  0.00     0.006 A 
ENDBRANCH  61  82
BRANCH  73  90
ATOM     90  C   UNL A   1      42.984  26.520  34.100  1.00  0.00     0.057 A 
ATOM     91  C   UNL A   1      42.151  25.620  34.777  1.00  0.00     0.134 A 
ATOM     92  C   UNL A   1      44.243  25.984  33.720  1.00  0.00     0.134 A 
ATOM     93  F   UNL A   1      40.891  25.929  35.102  1.00  0.00    -0.206 F 
ATOM     94  C   UNL A   1      42.556  24.317  35.104  1.00  0.00     0.040 A 
ATOM     95  C   UNL A   1      44.625  24.665  33.974  1.00  0.00     0.040 A 
ATOM     96  F   UNL A   1      45.157  26.704  33.054  1.00  0.00    -0.206 F 
ATOM     97  C   UNL A   1      43.788  23.830  34.688  1.00  0.00     0.006 A 
ENDBRANCH  73  90
ENDBRANCH  47  48
ENDBRANCH  39  42
ENDBRANCH  37  38
ENDBRANCH  36  37
ENDBRANCH  35  36
ENDBRANCH   1  35
TORSDOF 16
ENDMDL
MODEL 3
REMARK VINA RESULT:     -12.6      2.884      4.608
REMARK SMILES Cc1cccc(-c2ncc(C[NH+]3CCC4(CC3)NC(=O)C[C@H]4C(=O)NCCCCCCNC(=O)c3ccc(-c4c5nc(c(-c6c(F)cccc6F)c6ccc([nH]6)c(-c6c(F)cccc6F)c6nc(c(-c7c(F)cccc7F)c7ccc4[nH]7)C=C6)C=C5)cc3)cn2)c1
REMARK SMILES IDX 28 1 27 2 26 3 25 4 23 5 24 6 22 8 12 9 13 10 17 11 14 13
REMARK SMILES IDX 16 14 15 15 18 16 19 17 21 19 20 20 11 21 10 22 7 23 8 24
REMARK SMILES IDX 90 25 9 26 89 27 6 28 1 29 2 30 3 31 91 32 4 33 5 34 29 35
REMARK SMILES IDX 30 36 31 37 32 38 33 39 34 41 35 42 36 43 88 44 37 45 87 46
REMARK SMILES IDX 38 47 39 48 40 49 81 50 41 51 86 52 80 53 82 54 42 55 85 56
REMARK SMILES IDX 79 57 78 58 43 60 69 61 52 62 68 63 53 64 56 65 67 66 83 67
REMARK SMILES IDX 54 68 55 69 66 71 84 72 57 73 44 74 45 75 50 76 46 77 47 78
REMARK SMILES IDX 49 79 51 80 48 81 70 82 71 83 76 84 72 85 73 86 75 87 77 88
REMARK SMILES IDX 74 89 58 90 59 91 64 92 60 93 61 94 63 95 65 96 62 97
REMARK H PARENT 25 7 12 12 18 18 32 40 82 59 56 70
REMARK Flexibility Score: inf
ROOT
ATOM      1  C   UNL A   1      34.509  31.128  27.640  1.00  0.00     0.002 C 
ENDROOT
BRANCH   1   2
ATOM      2  C   UNL A   1      34.769  29.659  27.963  1.00  0.00     0.021 C 
BRANCH   2   3
ATOM      3  C   UNL A   1      34.311  28.644  26.897  1.00  0.00     0.116 C 
BRANCH   3   4
ATOM      4  N   UNL A   1      32.952  28.133  27.071  1.00  0.00    -0.356 N 
ATOM      5  C   UNL A   1      31.910  27.907  26.217  1.00  0.00     0.226 C 
ATOM      6  O   UNL A   1      30.859  27.508  26.736  1.00  0.00    -0.275 OA
ATOM      7  H   UNL A   1      32.743  27.905  28.005  1.00  0.00     0.163 HD
BRANCH   5   8
ATOM      8  C   UNL A   1      31.937  28.122  24.686  1.00  0.00     0.114 C 
ATOM      9  N   UNL A   1      33.663  24.695  23.091  1.00  0.00    -0.331 N 
ATOM     10  C   UNL A   1      33.695  25.927  22.313  1.00  0.00     0.264 C 
ATOM     11  C   UNL A   1      33.287  24.973  24.460  1.00  0.00     0.264 C 
ATOM     12  H   UNL A   1      34.633  24.381  23.063  1.00  0.00     0.348 HD
ATOM     13  C   UNL A   1      32.473  26.851  22.415  1.00  0.00     0.091 C 
ATOM     14  C   UNL A   1      31.909  25.593  24.549  1.00  0.00     0.091 C 
ATOM     15  C   UNL A   1      31.708  26.893  23.771  1.00  0.00     0.063 C 
ATOM     16  N   UNL A   1      30.319  27.098  23.376  1.00  0.00    -0.349 N 
ATOM     17  C   UNL A   1      29.829  28.367  23.595  1.00  0.00     0.221 C 
ATOM     18  H   UNL A   1      29.771  26.381  22.981  1.00  0.00     0.164 HD
ATOM     19  C   UNL A   1      30.885  29.167  24.299  1.00  0.00     0.116 C 
ATOM     20  O   UNL A   1      28.725  28.754  23.279  1.00  0.00    -0.275 OA
BRANCH   9  21
ATOM     21  C   UNL A   1      33.113  23.456  22.508  1.00  0.00     0.302 C 
BRANCH  21  22
ATOM     22  C   UNL A   1      33.141  22.215  23.360  1.00  0.00     0.043 A 
ATOM     23  C   UNL A   1      33.469  19.723  24.410  1.00  0.00     0.159 A 
ATOM     24  N   UNL A   1      34.471  20.612  24.562  1.00  0.00    -0.236 NA
ATOM     25  N   UNL A   1      32.273  20.008  23.859  1.00  0.00    -0.236 NA
ATOM     26  C   UNL A   1      34.260  21.851  24.075  1.00  0.00     0.124 A 
ATOM     27  C   UNL A   1      32.134  21.259  23.353  1.00  0.00     0.124 A 
BRANCH  23  28
ATOM     28  C   UNL A   1      33.760  18.326  24.759  1.00  0.00     0.019 A 
ATOM     29  C   UNL A   1      31.905  15.231  26.072  1.00  0.00     0.044 C 
ATOM     30  C   UNL A   1      32.999  16.121  25.554  1.00  0.00    -0.050 A 
ATOM     31  C   UNL A   1      34.269  15.601  25.303  1.00  0.00     0.003 A 
ATOM     32  C   UNL A   1      32.758  17.475  25.275  1.00  0.00     0.015 A 
ATOM     33  C   UNL A   1      35.282  16.426  24.811  1.00  0.00     0.001 A 
ATOM     34  C   UNL A   1      35.034  17.778  24.553  1.00  0.00     0.012 A 
ENDBRANCH  23  28
ENDBRANCH  21  22
ENDBRANCH   9  21
ENDBRANCH   5   8
ENDBRANCH   3   4
ENDBRANCH   2   3
ENDBRANCH   1   2
BRANCH   1  35
ATOM     35  C   UNL A   1      35.658  32.078  27.978  1.00  0.00     0.002 C 
BRANCH  35  36
ATOM     36  C   UNL A   1      35.342  33.136  29.033  1.00  0.00     0.021 C 
BRANCH  36  37
ATOM     37  C   UNL A   1      34.842  32.570  30.347  1.00  0.00     0.116 C 
BRANCH  37  38
ATOM     38  N   UNL A   1      34.161  33.564  31.161  1.00  0.00    -0.352 N 
ATOM     39  C   UNL A   1      34.446  34.064  32.413  1.00  0.00     0.251 C 
ATOM     40  H   UNL A   1      33.355  33.946  30.746  1.00  0.00     0.163 HD
ATOM     41  O   UNL A   1      33.619  34.794  32.954  1.00  0.00    -0.269 OA
BRANCH  39  42
ATOM     42  C   UNL A   1      35.801  33.927  33.010  1.00  0.00     0.039 A 
ATOM     43  C   UNL A   1      36.839  34.580  32.322  1.00  0.00     0.014 A 
ATOM     44  C   UNL A   1      36.098  32.877  33.863  1.00  0.00     0.014 A 
ATOM     45  C   UNL A   1      38.074  33.962  32.214  1.00  0.00     0.010 A 
ATOM     46  C   UNL A   1      37.232  32.163  33.610  1.00  0.00     0.010 A 
ATOM     47  C   UNL A   1      38.188  32.687  32.741  1.00  0.00    -0.014 A 
BRANCH  47  48
ATOM     48  C   UNL A   1      39.324  31.818  32.585  1.00  0.00     0.031 A 
ATOM     49  C   UNL A   1      39.126  30.651  31.717  1.00  0.00     0.074 A 
ATOM     50  C   UNL A   1      40.527  32.283  32.985  1.00  0.00     0.049 A 
ATOM     51  N   UNL A   1      39.954  29.682  31.614  1.00  0.00    -0.248 NA
ATOM     52  C   UNL A   1      37.926  30.464  30.900  1.00  0.00     0.031 C 
ATOM     53  C   UNL A   1      41.850  31.848  32.563  1.00  0.00     0.029 A 
ATOM     54  N   UNL A   1      40.779  33.174  34.036  1.00  0.00    -0.354 N 
ATOM     55  C   UNL A   1      39.580  28.928  30.522  1.00  0.00     0.074 A 
ATOM     56  C   UNL A   1      38.259  29.387  30.185  1.00  0.00     0.031 C 
ATOM     57  C   UNL A   1      42.745  32.205  33.503  1.00  0.00     0.029 A 
ATOM     58  C   UNL A   1      41.990  32.743  34.622  1.00  0.00     0.049 A 
ATOM     59  H   UNL A   1      40.226  33.941  34.309  1.00  0.00     0.167 HD
ATOM     60  C   UNL A   1      40.526  28.117  29.973  1.00  0.00     0.037 A 
ATOM     61  C   UNL A   1      41.988  32.210  35.882  1.00  0.00     0.037 A 
ATOM     62  C   UNL A   1      41.729  28.154  30.804  1.00  0.00     0.049 A 
ATOM     63  C   UNL A   1      42.398  30.755  35.888  1.00  0.00     0.074 A 
ATOM     64  C   UNL A   1      42.897  28.894  30.722  1.00  0.00     0.029 A 
ATOM     65  N   UNL A   1      41.659  27.659  32.099  1.00  0.00    -0.354 N 
ATOM     66  N   UNL A   1      42.247  29.951  34.869  1.00  0.00    -0.248 NA
ATOM     67  C   UNL A   1      43.073  30.111  37.011  1.00  0.00     0.031 C 
ATOM     68  C   UNL A   1      43.502  28.888  32.007  1.00  0.00     0.029 A 
ATOM     69  C   UNL A   1      42.713  28.128  32.855  1.00  0.00     0.049 A 
ATOM     70  H   UNL A   1      40.955  27.056  32.431  1.00  0.00     0.167 HD
ATOM     71  C   UNL A   1      42.816  28.735  35.154  1.00  0.00     0.074 A 
ATOM     72  C   UNL A   1      43.310  28.884  36.511  1.00  0.00     0.031 C 
ATOM     73  C   UNL A   1      42.861  27.717  34.243  1.00  0.00     0.037 A 
BRANCH  60  74
ATOM     74  C   UNL A   1      40.500  27.485  28.601  1.00  0.00     0.057 A 
ATOM     75  C   UNL A   1      39.778  26.288  28.398  1.00  0.00     0.134 A 
ATOM     76  C   UNL A   1      41.175  27.944  27.456  1.00  0.00     0.134 A 
ATOM     77  F   UNL A   1      39.040  25.736  29.369  1.00  0.00    -0.206 F 
ATOM     78  C   UNL A   1      39.775  25.586  27.187  1.00  0.00     0.040 A 
ATOM     79  C   UNL A   1      41.193  27.243  26.241  1.00  0.00     0.040 A 
ATOM     80  F   UNL A   1      41.826  29.108  27.425  1.00  0.00    -0.206 F 
ATOM     81  C   UNL A   1      40.496  26.055  26.103  1.00  0.00     0.006 A 
ENDBRANCH  60  74
BRANCH  61  82
ATOM     82  C   UNL A   1      40.955  32.857  36.748  1.00  0.00     0.057 A 
ATOM     83  C   UNL A   1      41.247  34.154  37.218  1.00  0.00     0.134 A 
ATOM     84  C   UNL A   1      39.604  32.509  36.648  1.00  0.00     0.134 A 
ATOM     85  F   UNL A   1      42.524  34.543  37.365  1.00  0.00    -0.206 F 
ATOM     86  C   UNL A   1      40.250  35.121  37.380  1.00  0.00     0.040 A 
ATOM     87  C   UNL A   1      38.597  33.467  36.835  1.00  0.00     0.040 A 
ATOM     88  F   UNL A   1      39.241  31.291  36.221  1.00  0.00    -0.206 F 
ATOM     89  C   UNL A   1      38.923  34.790  37.135  1.00  0.00     0.006 A 
ENDBRANCH  61  82
BRANCH  73  90
ATOM     90  C   UNL A   1      43.130  26.251  34.522  1.00  0.00     0.057 A 
ATOM     91  C   UNL A   1      42.206  25.373  35.104  1.00  0.00     0.134 A 
ATOM     92  C   UNL A   1      44.309  25.627  34.037  1.00  0.00     0.134 A 
ATOM     93  F   UNL A   1      40.997  25.781  35.506  1.00  0.00    -0.206 F 
ATOM     94  C   UNL A   1      42.458  24.000  35.246  1.00  0.00     0.040 A 
ATOM     95  C   UNL A   1      44.534  24.250  34.106  1.00  0.00     0.040 A 
ATOM     96  F   UNL A   1      45.292  26.317  33.440  1.00  0.00    -0.206 F 
ATOM     97  C   UNL A   1      43.616  23.431  34.732  1.00  0.00     0.006 A 
ENDBRANCH  73  90
ENDBRANCH  47  48
ENDBRANCH  39  42
ENDBRANCH  37  38
ENDBRANCH  36  37
ENDBRANCH  35  36
ENDBRANCH   1  35
TORSDOF 16
ENDMDL
