MODEL 1
REMARK VINA RESULT:     -11.7      0.000      0.000
REMARK SMILES O=C(C[C@@H]1CN(c2nc3ccccc3s2)CCO1)NCCCCCCNC(=O)c1ccc(-c2c3nc(c(-c4c(F)cccc4F)c4ccc([nH]4)c(-c4c(F)cccc4F)c4nc(c(-c5c(F)cccc5F)c5ccc2[nH]5)C=C4)C=C3)cc1
REMARK SMILES IDX 22 1 21 2 20 3 19 4 1 5 2 6 3 8 4 9 5 10 18 11 6 12 17 13
REMARK SMILES IDX 16 14 7 15 8 16 15 17 9 18 14 19 10 20 13 21 11 22 12 23
REMARK SMILES IDX 23 24 24 25 25 26 26 27 27 28 28 30 29 31 30 32 82 33 31 34
REMARK SMILES IDX 81 35 32 36 33 37 34 38 75 39 35 40 80 41 74 42 76 43 36 44
REMARK SMILES IDX 79 45 73 46 72 47 37 49 63 50 46 51 62 52 47 53 50 54 61 55
REMARK SMILES IDX 77 56 48 57 49 58 60 60 78 61 51 62 38 63 39 64 44 65 40 66
REMARK SMILES IDX 41 67 43 68 45 69 42 70 64 71 65 72 70 73 66 74 67 75 69 76
REMARK SMILES IDX 71 77 68 78 52 79 53 80 58 81 54 82 55 83 57 84 59 85 56 86
REMARK H PARENT 19 7 26 29 76 48 50 59
REMARK Flexibility Score: inf
ROOT
ATOM      1  C   UNL A   1      36.560  22.374  24.724  1.00  0.00     0.002 C 
ENDROOT
BRANCH   1   2
ATOM      2  C   UNL A   1      36.070  23.471  25.679  1.00  0.00     0.021 C 
BRANCH   2   3
ATOM      3  C   UNL A   1      34.943  23.034  26.613  1.00  0.00     0.116 C 
BRANCH   3   4
ATOM      4  N   UNL A   1      33.672  23.563  26.170  1.00  0.00    -0.356 N 
ATOM      5  O   UNL A   1      32.921  21.651  25.138  1.00  0.00    -0.275 OA
ATOM      6  C   UNL A   1      32.772  22.831  25.436  1.00  0.00     0.222 C 
ATOM      7  H   UNL A   1      33.441  24.491  26.406  1.00  0.00     0.163 HD
BRANCH   6   8
ATOM      8  C   UNL A   1      31.567  23.623  24.992  1.00  0.00     0.133 C 
BRANCH   8   9
ATOM      9  C   UNL A   1      32.000  24.927  24.325  1.00  0.00     0.147 C 
ATOM     10  C   UNL A   1      30.872  25.469  23.432  1.00  0.00     0.151 C 
ATOM     11  O   UNL A   1      33.194  24.662  23.543  1.00  0.00    -0.374 OA
ATOM     12  N   UNL A   1      31.358  26.643  22.728  1.00  0.00    -0.343 N 
ATOM     13  C   UNL A   1      33.648  25.849  22.856  1.00  0.00     0.182 C 
ATOM     14  C   UNL A   1      32.564  26.450  21.938  1.00  0.00     0.147 C 
BRANCH  12  15
ATOM     15  C   UNL A   1      30.739  27.840  22.811  1.00  0.00     0.186 A 
ATOM     16  N   UNL A   1      29.941  28.318  21.888  1.00  0.00    -0.220 NA
ATOM     17  S   UNL A   1      30.979  28.878  24.171  1.00  0.00    -0.097 S 
ATOM     18  C   UNL A   1      29.359  29.499  22.322  1.00  0.00     0.084 A 
ATOM     19  C   UNL A   1      29.835  29.987  23.537  1.00  0.00     0.056 A 
ATOM     20  C   UNL A   1      28.348  30.221  21.656  1.00  0.00     0.030 A 
ATOM     21  C   UNL A   1      29.377  31.193  24.091  1.00  0.00     0.021 A 
ATOM     22  C   UNL A   1      27.856  31.405  22.214  1.00  0.00     0.002 A 
ATOM     23  C   UNL A   1      28.374  31.891  23.411  1.00  0.00     0.002 A 
ENDBRANCH  12  15
ENDBRANCH   8   9
ENDBRANCH   6   8
ENDBRANCH   3   4
ENDBRANCH   2   3
ENDBRANCH   1   2
BRANCH   1  24
ATOM     24  C   UNL A   1      36.527  20.952  25.293  1.00  0.00     0.002 C 
BRANCH  24  25
ATOM     25  C   UNL A   1      37.751  20.095  24.962  1.00  0.00     0.021 C 
BRANCH  25  26
ATOM     26  C   UNL A   1      39.014  20.456  25.737  1.00  0.00     0.116 C 
BRANCH  26  27
ATOM     27  N   UNL A   1      39.948  19.344  25.826  1.00  0.00    -0.352 N 
ATOM     28  C   UNL A   1      41.295  19.353  26.095  1.00  0.00     0.251 C 
ATOM     29  H   UNL A   1      39.558  18.454  25.672  1.00  0.00     0.163 HD
ATOM     30  O   UNL A   1      41.960  18.330  25.959  1.00  0.00    -0.269 OA
BRANCH  28  31
ATOM     31  C   UNL A   1      41.954  20.606  26.519  1.00  0.00     0.039 A 
ATOM     32  C   UNL A   1      42.536  21.424  25.548  1.00  0.00     0.014 A 
ATOM     33  C   UNL A   1      41.986  20.981  27.865  1.00  0.00     0.014 A 
ATOM     34  C   UNL A   1      43.076  22.658  25.916  1.00  0.00     0.010 A 
ATOM     35  C   UNL A   1      42.457  22.242  28.221  1.00  0.00     0.010 A 
ATOM     36  C   UNL A   1      42.995  23.099  27.248  1.00  0.00    -0.014 A 
BRANCH  36  37
ATOM     37  C   UNL A   1      43.425  24.467  27.632  1.00  0.00     0.031 A 
ATOM     38  C   UNL A   1      42.412  25.521  27.975  1.00  0.00     0.074 A 
ATOM     39  C   UNL A   1      44.735  24.781  27.594  1.00  0.00     0.049 A 
ATOM     40  N   UNL A   1      42.597  26.786  28.258  1.00  0.00    -0.248 NA
ATOM     41  C   UNL A   1      41.002  25.105  27.974  1.00  0.00     0.031 C 
ATOM     42  C   UNL A   1      45.813  23.863  27.225  1.00  0.00     0.029 A 
ATOM     43  N   UNL A   1      45.380  25.966  27.849  1.00  0.00    -0.354 N 
ATOM     44  C   UNL A   1      41.332  27.316  28.465  1.00  0.00     0.074 A 
ATOM     45  C   UNL A   1      40.383  26.251  28.215  1.00  0.00     0.031 C 
ATOM     46  C   UNL A   1      46.985  24.513  27.287  1.00  0.00     0.029 A 
ATOM     47  C   UNL A   1      46.739  25.904  27.657  1.00  0.00     0.049 A 
ATOM     48  H   UNL A   1      44.913  26.782  28.142  1.00  0.00     0.167 HD
ATOM     49  C   UNL A   1      40.991  28.570  28.850  1.00  0.00     0.037 A 
ATOM     50  C   UNL A   1      47.681  26.861  27.747  1.00  0.00     0.037 A 
ATOM     51  C   UNL A   1      41.938  29.628  29.093  1.00  0.00     0.049 A 
ATOM     52  C   UNL A   1      47.280  28.253  28.144  1.00  0.00     0.074 A 
ATOM     53  C   UNL A   1      41.697  30.917  29.537  1.00  0.00     0.029 A 
ATOM     54  N   UNL A   1      43.307  29.524  28.897  1.00  0.00    -0.354 N 
ATOM     55  N   UNL A   1      46.086  28.722  28.414  1.00  0.00    -0.248 NA
ATOM     56  C   UNL A   1      48.356  29.247  28.255  1.00  0.00     0.031 C 
ATOM     57  C   UNL A   1      42.912  31.609  29.554  1.00  0.00     0.029 A 
ATOM     58  C   UNL A   1      43.920  30.736  29.177  1.00  0.00     0.049 A 
ATOM     59  H   UNL A   1      43.776  28.710  28.603  1.00  0.00     0.167 HD
ATOM     60  C   UNL A   1      46.267  30.060  28.740  1.00  0.00     0.074 A 
ATOM     61  C   UNL A   1      47.689  30.321  28.656  1.00  0.00     0.031 C 
ATOM     62  C   UNL A   1      45.337  30.988  29.079  1.00  0.00     0.037 A 
BRANCH  49  63
ATOM     63  C   UNL A   1      39.526  28.862  29.022  1.00  0.00     0.057 A 
ATOM     64  C   UNL A   1      38.882  28.714  30.259  1.00  0.00     0.134 A 
ATOM     65  C   UNL A   1      38.751  29.306  27.943  1.00  0.00     0.134 A 
ATOM     66  F   UNL A   1      39.563  28.284  31.333  1.00  0.00    -0.206 F 
ATOM     67  C   UNL A   1      37.516  28.957  30.406  1.00  0.00     0.040 A 
ATOM     68  C   UNL A   1      37.390  29.584  28.086  1.00  0.00     0.040 A 
ATOM     69  F   UNL A   1      39.302  29.480  26.733  1.00  0.00    -0.206 F 
ATOM     70  C   UNL A   1      36.766  29.398  29.319  1.00  0.00     0.006 A 
ENDBRANCH  49  63
BRANCH  50  71
ATOM     71  C   UNL A   1      49.098  26.526  27.452  1.00  0.00     0.057 A 
ATOM     72  C   UNL A   1      49.934  25.980  28.431  1.00  0.00     0.134 A 
ATOM     73  C   UNL A   1      49.640  26.722  26.175  1.00  0.00     0.134 A 
ATOM     74  F   UNL A   1      49.477  25.785  29.677  1.00  0.00    -0.206 F 
ATOM     75  C   UNL A   1      51.263  25.651  28.156  1.00  0.00     0.040 A 
ATOM     76  C   UNL A   1      50.958  26.373  25.879  1.00  0.00     0.040 A 
ATOM     77  F   UNL A   1      48.886  27.232  25.190  1.00  0.00    -0.206 F 
ATOM     78  C   UNL A   1      51.775  25.840  26.874  1.00  0.00     0.006 A 
ENDBRANCH  50  71
BRANCH  62  79
ATOM     79  C   UNL A   1      45.830  32.371  29.394  1.00  0.00     0.057 A 
ATOM     80  C   UNL A   1      46.239  32.735  30.684  1.00  0.00     0.134 A 
ATOM     81  C   UNL A   1      45.937  33.338  28.387  1.00  0.00     0.134 A 
ATOM     82  F   UNL A   1      46.148  31.859  31.697  1.00  0.00    -0.206 F 
ATOM     83  C   UNL A   1      46.717  34.016  30.965  1.00  0.00     0.040 A 
ATOM     84  C   UNL A   1      46.440  34.614  28.649  1.00  0.00     0.040 A 
ATOM     85  F   UNL A   1      45.570  33.056  27.128  1.00  0.00    -0.206 F 
ATOM     86  C   UNL A   1      46.828  34.957  29.943  1.00  0.00     0.006 A 
ENDBRANCH  62  79
ENDBRANCH  36  37
ENDBRANCH  28  31
ENDBRANCH  26  27
ENDBRANCH  25  26
ENDBRANCH  24  25
ENDBRANCH   1  24
TORSDOF 15
ENDMDL
MODEL 2
REMARK VINA RESULT:     -11.5      1.469      6.338
REMARK SMILES O=C(C[C@@H]1CN(c2nc3ccccc3s2)CCO1)NCCCCCCNC(=O)c1ccc(-c2c3nc(c(-c4c(F)cccc4F)c4ccc([nH]4)c(-c4c(F)cccc4F)c4nc(c(-c5c(F)cccc5F)c5ccc2[nH]5)C=C4)C=C3)cc1
REMARK SMILES IDX 22 1 21 2 20 3 19 4 1 5 2 6 3 8 4 9 5 10 18 11 6 12 17 13
REMARK SMILES IDX 16 14 7 15 8 16 15 17 9 18 14 19 10 20 13 21 11 22 12 23
REMARK SMILES IDX 23 24 24 25 25 26 26 27 27 28 28 30 29 31 30 32 82 33 31 34
REMARK SMILES IDX 81 35 32 36 33 37 34 38 75 39 35 40 80 41 74 42 76 43 36 44
REMARK SMILES IDX 79 45 73 46 72 47 37 49 63 50 46 51 62 52 47 53 50 54 61 55
REMARK SMILES IDX 77 56 48 57 49 58 60 60 78 61 51 62 38 63 39 64 44 65 40 66
REMARK SMILES IDX 41 67 43 68 45 69 42 70 64 71 65 72 70 73 66 74 67 75 69 76
REMARK SMILES IDX 71 77 68 78 52 79 53 80 58 81 54 82 55 83 57 84 59 85 56 86
REMARK H PARENT 19 7 26 29 76 48 50 59
REMARK Flexibility Score: inf
ROOT
ATOM      1  C   UNL A   1      35.510  21.610  24.642  1.00  0.00     0.002 C 
ENDROOT
BRANCH   1   2
ATOM      2  C   UNL A   1      35.187  21.824  26.127  1.00  0.00     0.021 C 
BRANCH   2   3
ATOM      3  C   UNL A   1      33.935  21.095  26.610  1.00  0.00     0.116 C 
BRANCH   3   4
ATOM      4  N   UNL A   1      32.869  22.032  26.890  1.00  0.00    -0.356 N 
ATOM      5  O   UNL A   1      31.818  21.873  24.851  1.00  0.00    -0.275 OA
ATOM      6  C   UNL A   1      31.909  22.370  25.968  1.00  0.00     0.222 C 
ATOM      7  H   UNL A   1      32.830  22.446  27.782  1.00  0.00     0.163 HD
BRANCH   6   8
ATOM      8  C   UNL A   1      30.967  23.448  26.444  1.00  0.00     0.133 C 
BRANCH   8   9
ATOM      9  C   UNL A   1      31.508  24.830  26.083  1.00  0.00     0.147 C 
ATOM     10  C   UNL A   1      31.003  25.252  24.693  1.00  0.00     0.151 C 
ATOM     11  O   UNL A   1      32.958  24.769  26.108  1.00  0.00    -0.374 OA
ATOM     12  N   UNL A   1      31.627  26.515  24.335  1.00  0.00    -0.343 N 
ATOM     13  C   UNL A   1      33.544  26.039  25.745  1.00  0.00     0.182 C 
ATOM     14  C   UNL A   1      33.081  26.529  24.358  1.00  0.00     0.147 C 
BRANCH  12  15
ATOM     15  C   UNL A   1      30.905  27.609  24.015  1.00  0.00     0.186 A 
ATOM     16  N   UNL A   1      29.885  27.599  23.190  1.00  0.00    -0.220 NA
ATOM     17  S   UNL A   1      31.295  29.161  24.666  1.00  0.00    -0.097 S 
ATOM     18  C   UNL A   1      29.272  28.841  23.170  1.00  0.00     0.084 A 
ATOM     19  C   UNL A   1      29.926  29.841  23.889  1.00  0.00     0.056 A 
ATOM     20  C   UNL A   1      28.071  29.164  22.508  1.00  0.00     0.030 A 
ATOM     21  C   UNL A   1      29.454  31.163  23.932  1.00  0.00     0.021 A 
ATOM     22  C   UNL A   1      27.569  30.469  22.573  1.00  0.00     0.002 A 
ATOM     23  C   UNL A   1      28.261  31.458  23.267  1.00  0.00     0.002 A 
ENDBRANCH  12  15
ENDBRANCH   8   9
ENDBRANCH   6   8
ENDBRANCH   3   4
ENDBRANCH   2   3
ENDBRANCH   1   2
BRANCH   1  24
ATOM     24  C   UNL A   1      37.003  21.557  24.300  1.00  0.00     0.002 C 
BRANCH  24  25
ATOM     25  C   UNL A   1      37.729  20.297  24.773  1.00  0.00     0.021 C 
BRANCH  25  26
ATOM     26  C   UNL A   1      38.762  20.528  25.872  1.00  0.00     0.116 C 
BRANCH  26  27
ATOM     27  N   UNL A   1      39.798  19.505  25.885  1.00  0.00    -0.352 N 
ATOM     28  C   UNL A   1      41.139  19.623  26.156  1.00  0.00     0.251 C 
ATOM     29  H   UNL A   1      39.491  18.595  25.669  1.00  0.00     0.163 HD
ATOM     30  O   UNL A   1      41.896  18.678  25.950  1.00  0.00    -0.269 OA
BRANCH  28  31
ATOM     31  C   UNL A   1      41.679  20.900  26.666  1.00  0.00     0.039 A 
ATOM     32  C   UNL A   1      42.223  21.812  25.759  1.00  0.00     0.014 A 
ATOM     33  C   UNL A   1      41.637  21.205  28.030  1.00  0.00     0.014 A 
ATOM     34  C   UNL A   1      42.649  23.064  26.208  1.00  0.00     0.010 A 
ATOM     35  C   UNL A   1      41.992  22.479  28.465  1.00  0.00     0.010 A 
ATOM     36  C   UNL A   1      42.490  23.426  27.556  1.00  0.00    -0.014 A 
BRANCH  36  37
ATOM     37  C   UNL A   1      42.793  24.802  28.024  1.00  0.00     0.031 A 
ATOM     38  C   UNL A   1      44.190  25.188  28.417  1.00  0.00     0.074 A 
ATOM     39  C   UNL A   1      41.787  25.686  28.169  1.00  0.00     0.049 A 
ATOM     40  N   UNL A   1      44.627  26.315  28.919  1.00  0.00    -0.248 NA
ATOM     41  C   UNL A   1      45.229  24.161  28.250  1.00  0.00     0.031 C 
ATOM     42  C   UNL A   1      40.379  25.418  27.872  1.00  0.00     0.029 A 
ATOM     43  N   UNL A   1      41.790  26.982  28.621  1.00  0.00    -0.354 N 
ATOM     44  C   UNL A   1      45.987  26.133  29.129  1.00  0.00     0.074 A 
ATOM     45  C   UNL A   1      46.291  24.767  28.759  1.00  0.00     0.031 C 
ATOM     46  C   UNL A   1      39.656  26.516  28.140  1.00  0.00     0.029 A 
ATOM     47  C   UNL A   1      40.540  27.551  28.668  1.00  0.00     0.049 A 
ATOM     48  H   UNL A   1      42.610  27.459  28.887  1.00  0.00     0.167 HD
ATOM     49  C   UNL A   1      46.903  27.029  29.570  1.00  0.00     0.037 A 
ATOM     50  C   UNL A   1      40.144  28.760  29.105  1.00  0.00     0.037 A 
ATOM     51  C   UNL A   1      46.595  28.386  29.942  1.00  0.00     0.049 A 
ATOM     52  C   UNL A   1      41.171  29.729  29.620  1.00  0.00     0.074 A 
ATOM     53  C   UNL A   1      47.460  29.387  30.350  1.00  0.00     0.029 A 
ATOM     54  N   UNL A   1      45.319  28.930  29.967  1.00  0.00    -0.354 N 
ATOM     55  N   UNL A   1      42.466  29.571  29.740  1.00  0.00    -0.248 NA
ATOM     56  C   UNL A   1      40.682  31.044  30.055  1.00  0.00     0.031 C 
ATOM     57  C   UNL A   1      46.701  30.516  30.677  1.00  0.00     0.029 A 
ATOM     58  C   UNL A   1      45.369  30.240  30.416  1.00  0.00     0.049 A 
ATOM     59  H   UNL A   1      44.497  28.455  29.703  1.00  0.00     0.167 HD
ATOM     60  C   UNL A   1      42.951  30.769  30.250  1.00  0.00     0.074 A 
ATOM     61  C   UNL A   1      41.811  31.651  30.395  1.00  0.00     0.031 C 
ATOM     62  C   UNL A   1      44.225  31.106  30.568  1.00  0.00     0.037 A 
BRANCH  49  63
ATOM     63  C   UNL A   1      48.327  26.559  29.679  1.00  0.00     0.057 A 
ATOM     64  C   UNL A   1      49.243  26.721  28.630  1.00  0.00     0.134 A 
ATOM     65  C   UNL A   1      48.793  25.946  30.850  1.00  0.00     0.134 A 
ATOM     66  F   UNL A   1      48.862  27.292  27.477  1.00  0.00    -0.206 F 
ATOM     67  C   UNL A   1      50.555  26.255  28.726  1.00  0.00     0.040 A 
ATOM     68  C   UNL A   1      50.112  25.505  30.970  1.00  0.00     0.040 A 
ATOM     69  F   UNL A   1      47.975  25.767  31.898  1.00  0.00    -0.206 F 
ATOM     70  C   UNL A   1      50.994  25.649  29.900  1.00  0.00     0.006 A 
ENDBRANCH  49  63
BRANCH  50  71
ATOM     71  C   UNL A   1      38.702  29.116  29.072  1.00  0.00     0.057 A 
ATOM     72  C   UNL A   1      37.899  28.997  30.210  1.00  0.00     0.134 A 
ATOM     73  C   UNL A   1      38.102  29.607  27.906  1.00  0.00     0.134 A 
ATOM     74  F   UNL A   1      38.412  28.517  31.352  1.00  0.00    -0.206 F 
ATOM     75  C   UNL A   1      36.546  29.342  30.190  1.00  0.00     0.040 A 
ATOM     76  C   UNL A   1      36.758  29.982  27.877  1.00  0.00     0.040 A 
ATOM     77  F   UNL A   1      38.821  29.754  26.784  1.00  0.00    -0.206 F 
ATOM     78  C   UNL A   1      35.975  29.845  29.021  1.00  0.00     0.006 A 
ENDBRANCH  50  71
BRANCH  62  79
ATOM     79  C   UNL A   1      44.458  32.493  31.096  1.00  0.00     0.057 A 
ATOM     80  C   UNL A   1      44.694  33.579  30.244  1.00  0.00     0.134 A 
ATOM     81  C   UNL A   1      44.401  32.752  32.472  1.00  0.00     0.134 A 
ATOM     82  F   UNL A   1      44.775  33.396  28.917  1.00  0.00    -0.206 F 
ATOM     83  C   UNL A   1      44.887  34.869  30.742  1.00  0.00     0.040 A 
ATOM     84  C   UNL A   1      44.564  34.043  32.979  1.00  0.00     0.040 A 
ATOM     85  F   UNL A   1      44.171  31.760  33.345  1.00  0.00    -0.206 F 
ATOM     86  C   UNL A   1      44.812  35.105  32.113  1.00  0.00     0.006 A 
ENDBRANCH  62  79
ENDBRANCH  36  37
ENDBRANCH  28  31
ENDBRANCH  26  27
ENDBRANCH  25  26
ENDBRANCH  24  25
ENDBRANCH   1  24
TORSDOF 15
ENDMDL
MODEL 3
REMARK VINA RESULT:     -11.4      0.635      6.225
REMARK SMILES O=C(C[C@@H]1CN(c2nc3ccccc3s2)CCO1)NCCCCCCNC(=O)c1ccc(-c2c3nc(c(-c4c(F)cccc4F)c4ccc([nH]4)c(-c4c(F)cccc4F)c4nc(c(-c5c(F)cccc5F)c5ccc2[nH]5)C=C4)C=C3)cc1
REMARK SMILES IDX 22 1 21 2 20 3 19 4 1 5 2 6 3 8 4 9 5 10 18 11 6 12 17 13
REMARK SMILES IDX 16 14 7 15 8 16 15 17 9 18 14 19 10 20 13 21 11 22 12 23
REMARK SMILES IDX 23 24 24 25 25 26 26 27 27 28 28 30 29 31 30 32 82 33 31 34
REMARK SMILES IDX 81 35 32 36 33 37 34 38 75 39 35 40 80 41 74 42 76 43 36 44
REMARK SMILES IDX 79 45 73 46 72 47 37 49 63 50 46 51 62 52 47 53 50 54 61 55
REMARK SMILES IDX 77 56 48 57 49 58 60 60 78 61 51 62 38 63 39 64 44 65 40 66
REMARK SMILES IDX 41 67 43 68 45 69 42 70 64 71 65 72 70 73 66 74 67 75 69 76
REMARK SMILES IDX 71 77 68 78 52 79 53 80 58 81 54 82 55 83 57 84 59 85 56 86
REMARK H PARENT 19 7 26 29 76 48 50 59
REMARK Flexibility Score: inf
ROOT
ATOM      1  C   UNL A   1      35.699  21.118  25.050  1.00  0.00     0.002 C 
ENDROOT
BRANCH   1   2
ATOM      2  C   UNL A   1      35.305  22.072  26.186  1.00  0.00     0.021 C 
BRANCH   2   3
ATOM      3  C   UNL A   1      34.147  21.576  27.050  1.00  0.00     0.116 C 
BRANCH   3   4
ATOM      4  N   UNL A   1      33.060  22.531  27.051  1.00  0.00    -0.356 N 
ATOM      5  O   UNL A   1      31.799  21.517  25.418  1.00  0.00    -0.275 OA
ATOM      6  C   UNL A   1      31.982  22.439  26.206  1.00  0.00     0.222 C 
ATOM      7  H   UNL A   1      33.094  23.281  27.688  1.00  0.00     0.163 HD
BRANCH   6   8
ATOM      8  C   UNL A   1      31.031  23.605  26.309  1.00  0.00     0.133 C 
BRANCH   8   9
ATOM      9  C   UNL A   1      31.581  24.813  25.553  1.00  0.00     0.147 C 
ATOM     10  C   UNL A   1      30.581  25.267  24.477  1.00  0.00     0.151 C 
ATOM     11  O   UNL A   1      32.847  24.434  24.953  1.00  0.00    -0.374 OA
ATOM     12  N   UNL A   1      31.184  26.342  23.705  1.00  0.00    -0.343 N 
ATOM     13  C   UNL A   1      33.416  25.522  24.193  1.00  0.00     0.182 C 
ATOM     14  C   UNL A   1      32.465  26.033  23.091  1.00  0.00     0.147 C 
BRANCH  12  15
ATOM     15  C   UNL A   1      30.600  27.551  23.578  1.00  0.00     0.186 A 
ATOM     16  N   UNL A   1      29.623  27.809  22.742  1.00  0.00    -0.220 NA
ATOM     17  S   UNL A   1      31.128  28.903  24.515  1.00  0.00    -0.097 S 
ATOM     18  C   UNL A   1      29.150  29.097  22.940  1.00  0.00     0.084 A 
ATOM     19  C   UNL A   1      29.877  29.866  23.846  1.00  0.00     0.056 A 
ATOM     20  C   UNL A   1      28.021  29.671  22.322  1.00  0.00     0.030 A 
ATOM     21  C   UNL A   1      29.550  31.203  24.124  1.00  0.00     0.021 A 
ATOM     22  C   UNL A   1      27.662  30.991  22.617  1.00  0.00     0.002 A 
ATOM     23  C   UNL A   1      28.426  31.750  23.498  1.00  0.00     0.002 A 
ENDBRANCH  12  15
ENDBRANCH   8   9
ENDBRANCH   6   8
ENDBRANCH   3   4
ENDBRANCH   2   3
ENDBRANCH   1   2
BRANCH   1  24
ATOM     24  C   UNL A   1      37.170  21.182  24.626  1.00  0.00     0.002 C 
BRANCH  24  25
ATOM     25  C   UNL A   1      38.004  19.956  25.003  1.00  0.00     0.021 C 
BRANCH  25  26
ATOM     26  C   UNL A   1      39.119  20.225  26.010  1.00  0.00     0.116 C 
BRANCH  26  27
ATOM     27  N   UNL A   1      40.140  19.188  25.998  1.00  0.00    -0.352 N 
ATOM     28  C   UNL A   1      41.505  19.305  26.097  1.00  0.00     0.251 C 
ATOM     29  H   UNL A   1      39.803  18.268  25.907  1.00  0.00     0.163 HD
ATOM     30  O   UNL A   1      42.225  18.331  25.894  1.00  0.00    -0.269 OA
BRANCH  28  31
ATOM     31  C   UNL A   1      42.112  20.613  26.417  1.00  0.00     0.039 A 
ATOM     32  C   UNL A   1      42.536  21.434  25.369  1.00  0.00     0.014 A 
ATOM     33  C   UNL A   1      42.251  21.036  27.741  1.00  0.00     0.014 A 
ATOM     34  C   UNL A   1      43.021  22.714  25.646  1.00  0.00     0.010 A 
ATOM     35  C   UNL A   1      42.665  22.338  28.012  1.00  0.00     0.010 A 
ATOM     36  C   UNL A   1      43.042  23.195  26.966  1.00  0.00    -0.014 A 
BRANCH  36  37
ATOM     37  C   UNL A   1      43.409  24.602  27.266  1.00  0.00     0.031 A 
ATOM     38  C   UNL A   1      44.845  25.041  27.241  1.00  0.00     0.074 A 
ATOM     39  C   UNL A   1      42.448  25.468  27.640  1.00  0.00     0.049 A 
ATOM     40  N   UNL A   1      45.359  26.205  27.549  1.00  0.00    -0.248 NA
ATOM     41  C   UNL A   1      45.837  24.031  26.843  1.00  0.00     0.031 C 
ATOM     42  C   UNL A   1      41.023  25.151  27.755  1.00  0.00     0.029 A 
ATOM     43  N   UNL A   1      42.525  26.788  28.012  1.00  0.00    -0.354 N 
ATOM     44  C   UNL A   1      46.730  26.068  27.386  1.00  0.00     0.074 A 
ATOM     45  C   UNL A   1      46.974  24.690  27.011  1.00  0.00     0.031 C 
ATOM     46  C   UNL A   1      40.360  26.245  28.159  1.00  0.00     0.029 A 
ATOM     47  C   UNL A   1      41.316  27.328  28.373  1.00  0.00     0.049 A 
ATOM     48  H   UNL A   1      43.368  27.297  28.018  1.00  0.00     0.167 HD
ATOM     49  C   UNL A   1      47.697  27.008  27.514  1.00  0.00     0.037 A 
ATOM     50  C   UNL A   1      41.008  28.551  28.844  1.00  0.00     0.037 A 
ATOM     51  C   UNL A   1      47.451  28.376  27.892  1.00  0.00     0.049 A 
ATOM     52  C   UNL A   1      42.099  29.571  29.011  1.00  0.00     0.074 A 
ATOM     53  C   UNL A   1      48.357  29.418  27.998  1.00  0.00     0.029 A 
ATOM     54  N   UNL A   1      46.211  28.890  28.241  1.00  0.00    -0.354 N 
ATOM     55  N   UNL A   1      43.383  29.451  28.777  1.00  0.00    -0.248 NA
ATOM     56  C   UNL A   1      41.698  30.897  29.500  1.00  0.00     0.031 C 
ATOM     57  C   UNL A   1      47.674  30.546  28.467  1.00  0.00     0.029 A 
ATOM     58  C   UNL A   1      46.332  30.224  28.596  1.00  0.00     0.049 A 
ATOM     59  H   UNL A   1      45.367  28.382  28.236  1.00  0.00     0.167 HD
ATOM     60  C   UNL A   1      43.943  30.687  29.076  1.00  0.00     0.074 A 
ATOM     61  C   UNL A   1      42.853  31.548  29.487  1.00  0.00     0.031 C 
ATOM     62  C   UNL A   1      45.242  31.070  29.016  1.00  0.00     0.037 A 
BRANCH  49  63
ATOM     63  C   UNL A   1      49.114  26.578  27.250  1.00  0.00     0.057 A 
ATOM     64  C   UNL A   1      49.956  26.131  28.278  1.00  0.00     0.134 A 
ATOM     65  C   UNL A   1      49.641  26.601  25.952  1.00  0.00     0.134 A 
ATOM     66  F   UNL A   1      49.518  26.091  29.546  1.00  0.00    -0.206 F 
ATOM     67  C   UNL A   1      51.279  25.762  28.032  1.00  0.00     0.040 A 
ATOM     68  C   UNL A   1      50.953  26.203  25.688  1.00  0.00     0.040 A 
ATOM     69  F   UNL A   1      48.890  27.007  24.918  1.00  0.00    -0.206 F 
ATOM     70  C   UNL A   1      51.780  25.793  26.733  1.00  0.00     0.006 A 
ENDBRANCH  49  63
BRANCH  50  71
ATOM     71  C   UNL A   1      39.600  28.871  29.192  1.00  0.00     0.057 A 
ATOM     72  C   UNL A   1      38.698  29.326  28.225  1.00  0.00     0.134 A 
ATOM     73  C   UNL A   1      39.118  28.705  30.497  1.00  0.00     0.134 A 
ATOM     74  F   UNL A   1      39.105  29.521  26.962  1.00  0.00    -0.206 F 
ATOM     75  C   UNL A   1      37.370  29.616  28.543  1.00  0.00     0.040 A 
ATOM     76  C   UNL A   1      37.787  28.964  30.824  1.00  0.00     0.040 A 
ATOM     77  F   UNL A   1      39.931  28.262  31.468  1.00  0.00    -0.206 F 
ATOM     78  C   UNL A   1      36.910  29.427  29.845  1.00  0.00     0.006 A 
ENDBRANCH  50  71
BRANCH  62  79
ATOM     79  C   UNL A   1      45.557  32.489  29.393  1.00  0.00     0.057 A 
ATOM     80  C   UNL A   1      45.439  33.543  28.476  1.00  0.00     0.134 A 
ATOM     81  C   UNL A   1      45.941  32.813  30.701  1.00  0.00     0.134 A 
ATOM     82  F   UNL A   1      45.090  33.299  27.204  1.00  0.00    -0.206 F 
ATOM     83  C   UNL A   1      45.712  34.862  28.841  1.00  0.00     0.040 A 
ATOM     84  C   UNL A   1      46.189  34.132  31.085  1.00  0.00     0.040 A 
ATOM     85  F   UNL A   1      46.066  31.855  31.631  1.00  0.00    -0.206 F 
ATOM     86  C   UNL A   1      46.079  35.161  30.152  1.00  0.00     0.006 A 
ENDBRANCH  62  79
ENDBRANCH  36  37
ENDBRANCH  28  31
ENDBRANCH  26  27
ENDBRANCH  25  26
ENDBRANCH  24  25
ENDBRANCH   1  24
TORSDOF 15
ENDMDL
