MODEL 1
REMARK VINA RESULT:     -11.5      0.000      0.000
REMARK SMILES COc1ncccc1NS(=O)(=O)c1ccc(Br)c(C(=O)NCCCCCCNC(=O)c2ccc(-c3c4nc(c(-c5c(F)cccc5F)c5ccc([nH]5)c(-c5c(F)cccc5F)c5nc(c(-c6c(F)cccc6F)c6ccc3[nH]6)C=C5)C=C4)cc2)c1
REMARK SMILES IDX 23 1 22 2 21 3 19 4 20 5 18 7 13 8 14 9 85 10 15 11 16 12
REMARK SMILES IDX 17 13 10 14 11 15 12 16 9 17 8 19 3 20 4 21 5 22 7 23 6 24
REMARK SMILES IDX 2 25 1 26 24 27 25 28 26 29 27 30 28 31 29 32 30 34 31 35
REMARK SMILES IDX 32 36 84 37 33 38 83 39 34 40 35 41 36 42 77 43 37 44 82 45
REMARK SMILES IDX 76 46 78 47 38 48 81 49 75 50 74 51 39 53 65 54 48 55 64 56
REMARK SMILES IDX 49 57 52 58 63 59 79 60 50 61 51 62 62 64 80 65 53 66 40 67
REMARK SMILES IDX 41 68 46 69 42 70 43 71 45 72 47 73 44 74 66 75 67 76 72 77
REMARK SMILES IDX 68 78 69 79 71 80 73 81 70 82 54 83 55 84 60 85 56 86 57 87
REMARK SMILES IDX 59 88 61 89 58 90
REMARK H PARENT 21 6 9 18 28 33 78 52 52 63
REMARK Flexibility Score: inf
ROOT
ATOM      1  C   UNL A   1      30.306  29.329  24.163  1.00  0.00     0.021 C 
ENDROOT
BRANCH   1   2
ATOM      2  C   UNL A   1      30.518  29.112  22.656  1.00  0.00     0.116 C 
BRANCH   2   3
ATOM      3  N   UNL A   1      31.935  29.154  22.387  1.00  0.00    -0.352 N 
ATOM      4  C   UNL A   1      33.022  28.688  23.071  1.00  0.00     0.252 C 
ATOM      5  O   UNL A   1      34.090  29.260  22.835  1.00  0.00    -0.269 OA
ATOM      6  H   UNL A   1      32.164  29.608  21.544  1.00  0.00     0.163 HD
BRANCH   4   7
ATOM      7  C   UNL A   1      33.067  27.461  23.922  1.00  0.00     0.055 A 
ATOM      8  C   UNL A   1      33.030  24.996  23.673  1.00  0.00     0.088 A 
ATOM      9  C   UNL A   1      33.354  24.872  25.024  1.00  0.00     0.023 A 
ATOM     10  C   UNL A   1      32.836  26.282  23.165  1.00  0.00     0.037 A 
ATOM     11  C   UNL A   1      33.577  26.015  25.799  1.00  0.00     0.018 A 
ATOM     12  C   UNL A   1      33.502  27.305  25.240  1.00  0.00     0.030 A 
ATOM     13  Br  UNL A   1      34.281  28.661  26.309  1.00  0.00    -0.050 Br
BRANCH   8  14
ATOM     14  S   UNL A   1      33.349  23.573  22.625  1.00  0.00     0.262 S 
ATOM     15  O   UNL A   1      34.486  22.889  23.213  1.00  0.00    -0.201 OA
ATOM     16  O   UNL A   1      33.467  24.073  21.271  1.00  0.00    -0.201 OA
BRANCH  14  17
ATOM     17  N   UNL A   1      32.124  22.399  22.624  1.00  0.00    -0.274 N 
ATOM     18  H   UNL A   1      31.296  22.585  22.124  1.00  0.00     0.180 HD
BRANCH  17  19
ATOM     19  C   UNL A   1      32.239  21.150  23.316  1.00  0.00     0.111 A 
ATOM     20  C   UNL A   1      32.162  20.972  24.698  1.00  0.00     0.238 A 
ATOM     21  N   UNL A   1      32.347  19.779  25.305  1.00  0.00    -0.220 NA
ATOM     22  C   UNL A   1      32.500  18.705  24.501  1.00  0.00     0.115 A 
ATOM     23  C   UNL A   1      32.242  20.004  22.525  1.00  0.00     0.034 A 
ATOM     24  C   UNL A   1      32.391  18.757  23.122  1.00  0.00     0.023 A 
BRANCH  20  25
ATOM     25  O   UNL A   1      31.933  22.100  25.452  1.00  0.00    -0.480 OA
ATOM     26  C   UNL A   1      30.619  22.289  25.955  1.00  0.00     0.280 C 
ENDBRANCH  20  25
ENDBRANCH  17  19
ENDBRANCH  14  17
ENDBRANCH   8  14
ENDBRANCH   4   7
ENDBRANCH   2   3
ENDBRANCH   1   2
BRANCH   1  27
ATOM     27  C   UNL A   1      30.534  30.771  24.631  1.00  0.00     0.002 C 
BRANCH  27  28
ATOM     28  C   UNL A   1      31.419  30.904  25.875  1.00  0.00     0.002 C 
BRANCH  28  29
ATOM     29  C   UNL A   1      31.279  32.235  26.619  1.00  0.00     0.021 C 
BRANCH  29  30
ATOM     30  C   UNL A   1      32.573  32.725  27.259  1.00  0.00     0.116 C 
BRANCH  30  31
ATOM     31  N   UNL A   1      32.453  34.105  27.701  1.00  0.00    -0.352 N 
ATOM     32  C   UNL A   1      33.133  34.751  28.701  1.00  0.00     0.251 C 
ATOM     33  H   UNL A   1      31.793  34.651  27.215  1.00  0.00     0.163 HD
ATOM     34  O   UNL A   1      32.724  35.815  29.147  1.00  0.00    -0.269 OA
BRANCH  32  35
ATOM     35  C   UNL A   1      34.367  34.145  29.241  1.00  0.00     0.039 A 
ATOM     36  C   UNL A   1      34.299  33.388  30.411  1.00  0.00     0.014 A 
ATOM     37  C   UNL A   1      35.589  34.335  28.589  1.00  0.00     0.014 A 
ATOM     38  C   UNL A   1      35.454  32.778  30.902  1.00  0.00     0.010 A 
ATOM     39  C   UNL A   1      36.721  33.662  29.033  1.00  0.00     0.010 A 
ATOM     40  C   UNL A   1      36.667  32.886  30.200  1.00  0.00    -0.014 A 
BRANCH  40  41
ATOM     41  C   UNL A   1      37.893  32.200  30.676  1.00  0.00     0.031 A 
ATOM     42  C   UNL A   1      38.689  32.782  31.810  1.00  0.00     0.074 A 
ATOM     43  C   UNL A   1      38.318  31.089  30.046  1.00  0.00     0.049 A 
ATOM     44  N   UNL A   1      39.816  32.366  32.327  1.00  0.00    -0.248 NA
ATOM     45  C   UNL A   1      38.162  34.011  32.427  1.00  0.00     0.031 C 
ATOM     46  C   UNL A   1      37.655  30.456  28.904  1.00  0.00     0.029 A 
ATOM     47  N   UNL A   1      39.418  30.300  30.271  1.00  0.00    -0.354 N 
ATOM     48  C   UNL A   1      40.137  33.284  33.319  1.00  0.00     0.074 A 
ATOM     49  C   UNL A   1      39.119  34.311  33.292  1.00  0.00     0.031 C 
ATOM     50  C   UNL A   1      38.346  29.363  28.546  1.00  0.00     0.029 A 
ATOM     51  C   UNL A   1      39.522  29.241  29.402  1.00  0.00     0.049 A 
ATOM     52  H   UNL A   1      40.069  30.474  30.988  1.00  0.00     0.167 HD
ATOM     53  C   UNL A   1      41.174  33.259  34.190  1.00  0.00     0.037 A 
ATOM     54  C   UNL A   1      40.466  28.286  29.300  1.00  0.00     0.037 A 
ATOM     55  C   UNL A   1      42.176  32.226  34.221  1.00  0.00     0.049 A 
ATOM     56  C   UNL A   1      41.621  28.296  30.264  1.00  0.00     0.074 A 
ATOM     57  C   UNL A   1      43.234  32.077  35.100  1.00  0.00     0.029 A 
ATOM     58  N   UNL A   1      42.247  31.168  33.326  1.00  0.00    -0.354 N 
ATOM     59  N   UNL A   1      41.873  29.128  31.246  1.00  0.00    -0.248 NA
ATOM     60  C   UNL A   1      42.621  27.231  30.107  1.00  0.00     0.031 C 
ATOM     61  C   UNL A   1      43.978  30.962  34.703  1.00  0.00     0.029 A 
ATOM     62  C   UNL A   1      43.349  30.380  33.612  1.00  0.00     0.049 A 
ATOM     63  H   UNL A   1      41.608  31.002  32.595  1.00  0.00     0.167 HD
ATOM     64  C   UNL A   1      43.043  28.673  31.839  1.00  0.00     0.074 A 
ATOM     65  C   UNL A   1      43.439  27.481  31.119  1.00  0.00     0.031 C 
ATOM     66  C   UNL A   1      43.730  29.195  32.885  1.00  0.00     0.037 A 
BRANCH  53  67
ATOM     67  C   UNL A   1      41.275  34.386  35.179  1.00  0.00     0.057 A 
ATOM     68  C   UNL A   1      40.585  34.366  36.398  1.00  0.00     0.134 A 
ATOM     69  C   UNL A   1      42.097  35.491  34.922  1.00  0.00     0.134 A 
ATOM     70  F   UNL A   1      39.770  33.345  36.702  1.00  0.00    -0.206 F 
ATOM     71  C   UNL A   1      40.683  35.418  37.311  1.00  0.00     0.040 A 
ATOM     72  C   UNL A   1      42.229  36.533  35.841  1.00  0.00     0.040 A 
ATOM     73  F   UNL A   1      42.793  35.572  33.778  1.00  0.00    -0.206 F 
ATOM     74  C   UNL A   1      41.515  36.502  37.036  1.00  0.00     0.006 A 
ENDBRANCH  53  67
BRANCH  54  75
ATOM     75  C   UNL A   1      40.354  27.236  28.257  1.00  0.00     0.057 A 
ATOM     76  C   UNL A   1      39.614  26.070  28.483  1.00  0.00     0.134 A 
ATOM     77  C   UNL A   1      40.990  27.365  27.016  1.00  0.00     0.134 A 
ATOM     78  F   UNL A   1      38.996  25.880  29.657  1.00  0.00    -0.206 F 
ATOM     79  C   UNL A   1      39.529  25.059  27.523  1.00  0.00     0.040 A 
ATOM     80  C   UNL A   1      40.890  26.376  26.037  1.00  0.00     0.040 A 
ATOM     81  F   UNL A   1      41.707  28.462  26.733  1.00  0.00    -0.206 F 
ATOM     82  C   UNL A   1      40.164  25.214  26.293  1.00  0.00     0.006 A 
ENDBRANCH  54  75
BRANCH  66  83
ATOM     83  C   UNL A   1      44.963  28.464  33.331  1.00  0.00     0.057 A 
ATOM     84  C   UNL A   1      46.231  28.766  32.815  1.00  0.00     0.134 A 
ATOM     85  C   UNL A   1      44.887  27.471  34.316  1.00  0.00     0.134 A 
ATOM     86  F   UNL A   1      46.372  29.697  31.859  1.00  0.00    -0.206 F 
ATOM     87  C   UNL A   1      47.373  28.088  33.244  1.00  0.00     0.040 A 
ATOM     88  C   UNL A   1      46.025  26.809  34.777  1.00  0.00     0.040 A 
ATOM     89  F   UNL A   1      43.706  27.141  34.860  1.00  0.00    -0.206 F 
ATOM     90  C   UNL A   1      47.272  27.113  34.234  1.00  0.00     0.006 A 
ENDBRANCH  66  83
ENDBRANCH  40  41
ENDBRANCH  32  35
ENDBRANCH  30  31
ENDBRANCH  29  30
ENDBRANCH  28  29
ENDBRANCH  27  28
ENDBRANCH   1  27
TORSDOF 17
ENDMDL
MODEL 2
REMARK VINA RESULT:     -11.5      1.226      6.064
REMARK SMILES COc1ncccc1NS(=O)(=O)c1ccc(Br)c(C(=O)NCCCCCCNC(=O)c2ccc(-c3c4nc(c(-c5c(F)cccc5F)c5ccc([nH]5)c(-c5c(F)cccc5F)c5nc(c(-c6c(F)cccc6F)c6ccc3[nH]6)C=C5)C=C4)cc2)c1
REMARK SMILES IDX 23 1 22 2 21 3 19 4 20 5 18 7 13 8 14 9 85 10 15 11 16 12
REMARK SMILES IDX 17 13 10 14 11 15 12 16 9 17 8 19 3 20 4 21 5 22 7 23 6 24
REMARK SMILES IDX 2 25 1 26 24 27 25 28 26 29 27 30 28 31 29 32 30 34 31 35
REMARK SMILES IDX 32 36 84 37 33 38 83 39 34 40 35 41 36 42 77 43 37 44 82 45
REMARK SMILES IDX 76 46 78 47 38 48 81 49 75 50 74 51 39 53 65 54 48 55 64 56
REMARK SMILES IDX 49 57 52 58 63 59 79 60 50 61 51 62 62 64 80 65 53 66 40 67
REMARK SMILES IDX 41 68 46 69 42 70 43 71 45 72 47 73 44 74 66 75 67 76 72 77
REMARK SMILES IDX 68 78 69 79 71 80 73 81 70 82 54 83 55 84 60 85 56 86 57 87
REMARK SMILES IDX 59 88 61 89 58 90
REMARK H PARENT 21 6 9 18 28 33 78 52 52 63
REMARK Flexibility Score: inf
ROOT
ATOM      1  C   UNL A   1      30.537  28.862  24.167  1.00  0.00     0.021 C 
ENDROOT
BRANCH   1   2
ATOM      2  C   UNL A   1      30.563  28.647  22.645  1.00  0.00     0.116 C 
BRANCH   2   3
ATOM      3  N   UNL A   1      31.940  28.568  22.222  1.00  0.00    -0.352 N 
ATOM      4  C   UNL A   1      33.072  28.109  22.833  1.00  0.00     0.252 C 
ATOM      5  O   UNL A   1      34.135  28.582  22.420  1.00  0.00    -0.269 OA
ATOM      6  H   UNL A   1      32.094  28.913  21.313  1.00  0.00     0.163 HD
BRANCH   4   7
ATOM      7  C   UNL A   1      33.150  26.980  23.809  1.00  0.00     0.055 A 
ATOM      8  C   UNL A   1      33.146  24.503  23.823  1.00  0.00     0.088 A 
ATOM      9  C   UNL A   1      33.495  24.527  25.174  1.00  0.00     0.023 A 
ATOM     10  C   UNL A   1      32.925  25.725  23.185  1.00  0.00     0.037 A 
ATOM     11  C   UNL A   1      33.713  25.749  25.819  1.00  0.00     0.018 A 
ATOM     12  C   UNL A   1      33.609  26.971  25.127  1.00  0.00     0.030 A 
ATOM     13  Br  UNL A   1      34.385  28.443  26.033  1.00  0.00    -0.050 Br
BRANCH   8  14
ATOM     14  S   UNL A   1      33.470  22.981  22.926  1.00  0.00     0.262 S 
ATOM     15  O   UNL A   1      34.570  22.333  23.618  1.00  0.00    -0.201 OA
ATOM     16  O   UNL A   1      33.647  23.347  21.537  1.00  0.00    -0.201 OA
BRANCH  14  17
ATOM     17  N   UNL A   1      32.219  21.835  22.990  1.00  0.00    -0.274 N 
ATOM     18  H   UNL A   1      31.336  22.084  22.632  1.00  0.00     0.180 HD
BRANCH  17  19
ATOM     19  C   UNL A   1      32.389  20.523  23.540  1.00  0.00     0.111 A 
ATOM     20  C   UNL A   1      32.424  20.207  24.900  1.00  0.00     0.238 A 
ATOM     21  N   UNL A   1      32.657  18.960  25.366  1.00  0.00    -0.220 NA
ATOM     22  C   UNL A   1      32.744  17.973  24.448  1.00  0.00     0.115 A 
ATOM     23  C   UNL A   1      32.329  19.463  22.640  1.00  0.00     0.034 A 
ATOM     24  C   UNL A   1      32.524  18.163  23.094  1.00  0.00     0.023 A 
BRANCH  20  25
ATOM     25  O   UNL A   1      32.257  21.251  25.780  1.00  0.00    -0.480 OA
ATOM     26  C   UNL A   1      33.272  21.449  26.752  1.00  0.00     0.280 C 
ENDBRANCH  20  25
ENDBRANCH  17  19
ENDBRANCH  14  17
ENDBRANCH   8  14
ENDBRANCH   4   7
ENDBRANCH   2   3
ENDBRANCH   1   2
BRANCH   1  27
ATOM     27  C   UNL A   1      30.656  30.328  24.599  1.00  0.00     0.002 C 
BRANCH  27  28
ATOM     28  C   UNL A   1      31.544  30.561  25.825  1.00  0.00     0.002 C 
BRANCH  28  29
ATOM     29  C   UNL A   1      31.359  31.924  26.499  1.00  0.00     0.021 C 
BRANCH  29  30
ATOM     30  C   UNL A   1      32.605  32.434  27.214  1.00  0.00     0.116 C 
BRANCH  30  31
ATOM     31  N   UNL A   1      32.509  33.859  27.488  1.00  0.00    -0.352 N 
ATOM     32  C   UNL A   1      33.122  34.590  28.474  1.00  0.00     0.251 C 
ATOM     33  H   UNL A   1      31.924  34.370  26.882  1.00  0.00     0.163 HD
ATOM     34  O   UNL A   1      32.723  35.712  28.758  1.00  0.00    -0.269 OA
BRANCH  32  35
ATOM     35  C   UNL A   1      34.269  34.005  29.196  1.00  0.00     0.039 A 
ATOM     36  C   UNL A   1      34.034  33.090  30.223  1.00  0.00     0.014 A 
ATOM     37  C   UNL A   1      35.575  34.371  28.858  1.00  0.00     0.014 A 
ATOM     38  C   UNL A   1      35.115  32.502  30.880  1.00  0.00     0.010 A 
ATOM     39  C   UNL A   1      36.650  33.725  29.457  1.00  0.00     0.010 A 
ATOM     40  C   UNL A   1      36.431  32.793  30.482  1.00  0.00    -0.014 A 
BRANCH  40  41
ATOM     41  C   UNL A   1      37.592  32.137  31.131  1.00  0.00     0.031 A 
ATOM     42  C   UNL A   1      38.328  31.036  30.422  1.00  0.00     0.074 A 
ATOM     43  C   UNL A   1      37.942  32.494  32.381  1.00  0.00     0.049 A 
ATOM     44  N   UNL A   1      39.325  30.301  30.845  1.00  0.00    -0.248 NA
ATOM     45  C   UNL A   1      37.866  30.696  29.065  1.00  0.00     0.031 C 
ATOM     46  C   UNL A   1      37.274  33.517  33.189  1.00  0.00     0.029 A 
ATOM     47  N   UNL A   1      38.941  32.026  33.197  1.00  0.00    -0.354 N 
ATOM     48  C   UNL A   1      39.600  29.410  29.816  1.00  0.00     0.074 A 
ATOM     49  C   UNL A   1      38.628  29.654  28.773  1.00  0.00     0.031 C 
ATOM     50  C   UNL A   1      37.898  33.618  34.372  1.00  0.00     0.029 A 
ATOM     51  C   UNL A   1      38.979  32.639  34.426  1.00  0.00     0.049 A 
ATOM     52  H   UNL A   1      39.571  31.320  32.928  1.00  0.00     0.167 HD
ATOM     53  C   UNL A   1      40.589  28.488  29.738  1.00  0.00     0.037 A 
ATOM     54  C   UNL A   1      39.789  32.428  35.481  1.00  0.00     0.037 A 
ATOM     55  C   UNL A   1      41.560  28.260  30.775  1.00  0.00     0.049 A 
ATOM     56  C   UNL A   1      40.863  31.380  35.378  1.00  0.00     0.074 A 
ATOM     57  C   UNL A   1      42.637  27.390  30.771  1.00  0.00     0.029 A 
ATOM     58  N   UNL A   1      41.569  28.902  32.005  1.00  0.00    -0.354 N 
ATOM     59  N   UNL A   1      41.160  30.594  34.370  1.00  0.00    -0.248 NA
ATOM     60  C   UNL A   1      41.718  31.192  36.558  1.00  0.00     0.031 C 
ATOM     61  C   UNL A   1      43.263  27.465  32.020  1.00  0.00     0.029 A 
ATOM     62  C   UNL A   1      42.613  28.425  32.780  1.00  0.00     0.049 A 
ATOM     63  H   UNL A   1      40.928  29.595  32.285  1.00  0.00     0.167 HD
ATOM     64  C   UNL A   1      42.249  29.839  34.785  1.00  0.00     0.074 A 
ATOM     65  C   UNL A   1      42.572  30.276  36.128  1.00  0.00     0.031 C 
ATOM     66  C   UNL A   1      42.921  28.871  34.116  1.00  0.00     0.037 A 
BRANCH  53  67
ATOM     67  C   UNL A   1      40.663  27.656  28.490  1.00  0.00     0.057 A 
ATOM     68  C   UNL A   1      39.971  26.444  28.364  1.00  0.00     0.134 A 
ATOM     69  C   UNL A   1      41.413  28.086  27.387  1.00  0.00     0.134 A 
ATOM     70  F   UNL A   1      39.245  25.966  29.386  1.00  0.00    -0.206 F 
ATOM     71  C   UNL A   1      40.046  25.675  27.201  1.00  0.00     0.040 A 
ATOM     72  C   UNL A   1      41.470  27.343  26.207  1.00  0.00     0.040 A 
ATOM     73  F   UNL A   1      42.094  29.241  27.435  1.00  0.00    -0.206 F 
ATOM     74  C   UNL A   1      40.792  26.130  26.114  1.00  0.00     0.006 A 
ENDBRANCH  53  67
BRANCH  54  75
ATOM     75  C   UNL A   1      39.625  33.230  36.719  1.00  0.00     0.057 A 
ATOM     76  C   UNL A   1      38.716  32.846  37.713  1.00  0.00     0.134 A 
ATOM     77  C   UNL A   1      40.360  34.402  36.936  1.00  0.00     0.134 A 
ATOM     78  F   UNL A   1      37.970  31.744  37.555  1.00  0.00    -0.206 F 
ATOM     79  C   UNL A   1      38.527  33.610  38.866  1.00  0.00     0.040 A 
ATOM     80  C   UNL A   1      40.201  35.160  38.097  1.00  0.00     0.040 A 
ATOM     81  F   UNL A   1      41.253  34.820  36.027  1.00  0.00    -0.206 F 
ATOM     82  C   UNL A   1      39.275  34.769  39.063  1.00  0.00     0.006 A 
ENDBRANCH  54  75
BRANCH  66  83
ATOM     83  C   UNL A   1      44.090  28.238  34.814  1.00  0.00     0.057 A 
ATOM     84  C   UNL A   1      43.945  27.100  35.619  1.00  0.00     0.134 A 
ATOM     85  C   UNL A   1      45.383  28.751  34.649  1.00  0.00     0.134 A 
ATOM     86  F   UNL A   1      42.732  26.566  35.830  1.00  0.00    -0.206 F 
ATOM     87  C   UNL A   1      45.039  26.512  36.256  1.00  0.00     0.040 A 
ATOM     88  C   UNL A   1      46.489  28.153  35.254  1.00  0.00     0.040 A 
ATOM     89  F   UNL A   1      45.595  29.831  33.883  1.00  0.00    -0.206 F 
ATOM     90  C   UNL A   1      46.317  27.035  36.066  1.00  0.00     0.006 A 
ENDBRANCH  66  83
ENDBRANCH  40  41
ENDBRANCH  32  35
ENDBRANCH  30  31
ENDBRANCH  29  30
ENDBRANCH  28  29
ENDBRANCH  27  28
ENDBRANCH   1  27
TORSDOF 17
ENDMDL
MODEL 3
REMARK VINA RESULT:     -11.4      1.600      2.336
REMARK SMILES COc1ncccc1NS(=O)(=O)c1ccc(Br)c(C(=O)NCCCCCCNC(=O)c2ccc(-c3c4nc(c(-c5c(F)cccc5F)c5ccc([nH]5)c(-c5c(F)cccc5F)c5nc(c(-c6c(F)cccc6F)c6ccc3[nH]6)C=C5)C=C4)cc2)c1
REMARK SMILES IDX 23 1 22 2 21 3 19 4 20 5 18 7 13 8 14 9 85 10 15 11 16 12
REMARK SMILES IDX 17 13 10 14 11 15 12 16 9 17 8 19 3 20 4 21 5 22 7 23 6 24
REMARK SMILES IDX 2 25 1 26 24 27 25 28 26 29 27 30 28 31 29 32 30 34 31 35
REMARK SMILES IDX 32 36 84 37 33 38 83 39 34 40 35 41 36 42 77 43 37 44 82 45
REMARK SMILES IDX 76 46 78 47 38 48 81 49 75 50 74 51 39 53 65 54 48 55 64 56
REMARK SMILES IDX 49 57 52 58 63 59 79 60 50 61 51 62 62 64 80 65 53 66 40 67
REMARK SMILES IDX 41 68 46 69 42 70 43 71 45 72 47 73 44 74 66 75 67 76 72 77
REMARK SMILES IDX 68 78 69 79 71 80 73 81 70 82 54 83 55 84 60 85 56 86 57 87
REMARK SMILES IDX 59 88 61 89 58 90
REMARK H PARENT 21 6 9 18 28 33 78 52 52 63
REMARK Flexibility Score: inf
ROOT
ATOM      1  C   UNL A   1      31.645  28.958  24.616  1.00  0.00     0.021 C 
ENDROOT
BRANCH   1   2
ATOM      2  C   UNL A   1      31.207  28.539  23.203  1.00  0.00     0.116 C 
BRANCH   2   3
ATOM      3  N   UNL A   1      32.366  28.558  22.345  1.00  0.00    -0.352 N 
ATOM      4  C   UNL A   1      33.427  27.710  22.203  1.00  0.00     0.252 C 
ATOM      5  O   UNL A   1      34.456  28.210  21.738  1.00  0.00    -0.269 OA
ATOM      6  H   UNL A   1      32.398  29.335  21.743  1.00  0.00     0.163 HD
BRANCH   4   7
ATOM      7  C   UNL A   1      33.401  26.227  22.386  1.00  0.00     0.055 A 
ATOM      8  C   UNL A   1      33.337  24.559  24.218  1.00  0.00     0.088 A 
ATOM      9  C   UNL A   1      33.105  23.558  23.275  1.00  0.00     0.023 A 
ATOM     10  C   UNL A   1      33.538  25.860  23.751  1.00  0.00     0.037 A 
ATOM     11  C   UNL A   1      32.976  23.887  21.921  1.00  0.00     0.018 A 
ATOM     12  C   UNL A   1      33.055  25.222  21.481  1.00  0.00     0.030 A 
ATOM     13  Br  UNL A   1      32.400  25.501  19.726  1.00  0.00    -0.050 Br
BRANCH   8  14
ATOM     14  S   UNL A   1      32.898  24.193  25.920  1.00  0.00     0.262 S 
ATOM     15  O   UNL A   1      31.822  23.219  25.855  1.00  0.00    -0.201 OA
ATOM     16  O   UNL A   1      32.642  25.463  26.566  1.00  0.00    -0.201 OA
BRANCH  14  17
ATOM     17  N   UNL A   1      34.105  23.405  26.815  1.00  0.00    -0.274 N 
ATOM     18  H   UNL A   1      34.018  23.374  27.795  1.00  0.00     0.180 HD
BRANCH  17  19
ATOM     19  C   UNL A   1      35.245  22.783  26.210  1.00  0.00     0.111 A 
ATOM     20  C   UNL A   1      35.293  21.482  25.705  1.00  0.00     0.238 A 
ATOM     21  N   UNL A   1      36.416  20.920  25.207  1.00  0.00    -0.220 NA
ATOM     22  C   UNL A   1      37.501  21.717  25.102  1.00  0.00     0.115 A 
ATOM     23  C   UNL A   1      36.332  23.611  25.941  1.00  0.00     0.034 A 
ATOM     24  C   UNL A   1      37.489  23.070  25.391  1.00  0.00     0.023 A 
BRANCH  20  25
ATOM     25  O   UNL A   1      34.130  20.750  25.780  1.00  0.00    -0.480 OA
ATOM     26  C   UNL A   1      33.968  19.692  24.847  1.00  0.00     0.280 C 
ENDBRANCH  20  25
ENDBRANCH  17  19
ENDBRANCH  14  17
ENDBRANCH   8  14
ENDBRANCH   4   7
ENDBRANCH   2   3
ENDBRANCH   1   2
BRANCH   1  27
ATOM     27  C   UNL A   1      31.051  30.289  25.092  1.00  0.00     0.002 C 
BRANCH  27  28
ATOM     28  C   UNL A   1      31.475  30.707  26.503  1.00  0.00     0.002 C 
BRANCH  28  29
ATOM     29  C   UNL A   1      31.389  32.211  26.776  1.00  0.00     0.021 C 
BRANCH  29  30
ATOM     30  C   UNL A   1      32.721  32.846  27.163  1.00  0.00     0.116 C 
BRANCH  30  31
ATOM     31  N   UNL A   1      32.529  34.178  27.714  1.00  0.00    -0.352 N 
ATOM     32  C   UNL A   1      33.148  34.761  28.791  1.00  0.00     0.251 C 
ATOM     33  H   UNL A   1      31.865  34.738  27.252  1.00  0.00     0.163 HD
ATOM     34  O   UNL A   1      32.681  35.767  29.309  1.00  0.00    -0.269 OA
BRANCH  32  35
ATOM     35  C   UNL A   1      34.386  34.158  29.324  1.00  0.00     0.039 A 
ATOM     36  C   UNL A   1      34.309  33.302  30.423  1.00  0.00     0.014 A 
ATOM     37  C   UNL A   1      35.621  34.450  28.737  1.00  0.00     0.014 A 
ATOM     38  C   UNL A   1      35.470  32.696  30.904  1.00  0.00     0.010 A 
ATOM     39  C   UNL A   1      36.763  33.784  29.166  1.00  0.00     0.010 A 
ATOM     40  C   UNL A   1      36.701  32.910  30.260  1.00  0.00    -0.014 A 
BRANCH  40  41
ATOM     41  C   UNL A   1      37.936  32.232  30.723  1.00  0.00     0.031 A 
ATOM     42  C   UNL A   1      38.731  32.809  31.861  1.00  0.00     0.074 A 
ATOM     43  C   UNL A   1      38.372  31.134  30.078  1.00  0.00     0.049 A 
ATOM     44  N   UNL A   1      39.864  32.400  32.369  1.00  0.00    -0.248 NA
ATOM     45  C   UNL A   1      38.191  34.024  32.496  1.00  0.00     0.031 C 
ATOM     46  C   UNL A   1      37.712  30.507  28.930  1.00  0.00     0.029 A 
ATOM     47  N   UNL A   1      39.482  30.355  30.289  1.00  0.00    -0.354 N 
ATOM     48  C   UNL A   1      40.179  33.309  33.371  1.00  0.00     0.074 A 
ATOM     49  C   UNL A   1      39.148  34.324  33.361  1.00  0.00     0.031 C 
ATOM     50  C   UNL A   1      38.415  29.427  28.556  1.00  0.00     0.029 A 
ATOM     51  C   UNL A   1      39.595  29.309  29.406  1.00  0.00     0.049 A 
ATOM     52  H   UNL A   1      40.134  30.528  31.005  1.00  0.00     0.167 HD
ATOM     53  C   UNL A   1      41.219  33.286  34.238  1.00  0.00     0.037 A 
ATOM     54  C   UNL A   1      40.550  28.366  29.289  1.00  0.00     0.037 A 
ATOM     55  C   UNL A   1      42.233  32.264  34.252  1.00  0.00     0.049 A 
ATOM     56  C   UNL A   1      41.708  28.377  30.248  1.00  0.00     0.074 A 
ATOM     57  C   UNL A   1      43.296  32.117  35.125  1.00  0.00     0.029 A 
ATOM     58  N   UNL A   1      42.313  31.218  33.343  1.00  0.00    -0.354 N 
ATOM     59  N   UNL A   1      41.955  29.200  31.239  1.00  0.00    -0.248 NA
ATOM     60  C   UNL A   1      42.720  27.326  30.074  1.00  0.00     0.031 C 
ATOM     61  C   UNL A   1      44.051  31.015  34.711  1.00  0.00     0.029 A 
ATOM     62  C   UNL A   1      43.426  30.440  33.616  1.00  0.00     0.049 A 
ATOM     63  H   UNL A   1      41.673  31.054  32.613  1.00  0.00     0.167 HD
ATOM     64  C   UNL A   1      43.132  28.752  31.822  1.00  0.00     0.074 A 
ATOM     65  C   UNL A   1      43.540  27.573  31.086  1.00  0.00     0.031 C 
ATOM     66  C   UNL A   1      43.817  29.269  32.872  1.00  0.00     0.037 A 
BRANCH  53  67
ATOM     67  C   UNL A   1      41.311  34.401  35.240  1.00  0.00     0.057 A 
ATOM     68  C   UNL A   1      42.043  35.568  34.984  1.00  0.00     0.134 A 
ATOM     69  C   UNL A   1      40.634  34.321  36.464  1.00  0.00     0.134 A 
ATOM     70  F   UNL A   1      42.726  35.706  33.838  1.00  0.00    -0.206 F 
ATOM     71  C   UNL A   1      42.125  36.600  35.921  1.00  0.00     0.040 A 
ATOM     72  C   UNL A   1      40.682  35.359  37.395  1.00  0.00     0.040 A 
ATOM     73  F   UNL A   1      39.908  33.235  36.771  1.00  0.00    -0.206 F 
ATOM     74  C   UNL A   1      41.435  36.500  37.128  1.00  0.00     0.006 A 
ENDBRANCH  53  67
BRANCH  54  75
ATOM     75  C   UNL A   1      40.446  27.328  28.233  1.00  0.00     0.057 A 
ATOM     76  C   UNL A   1      39.721  26.150  28.447  1.00  0.00     0.134 A 
ATOM     77  C   UNL A   1      41.075  27.480  26.991  1.00  0.00     0.134 A 
ATOM     78  F   UNL A   1      39.111  25.938  29.622  1.00  0.00    -0.206 F 
ATOM     79  C   UNL A   1      39.644  25.151  27.475  1.00  0.00     0.040 A 
ATOM     80  C   UNL A   1      40.983  26.502  26.000  1.00  0.00     0.040 A 
ATOM     81  F   UNL A   1      41.778  28.589  26.719  1.00  0.00    -0.206 F 
ATOM     82  C   UNL A   1      40.272  25.329  26.244  1.00  0.00     0.006 A 
ENDBRANCH  54  75
BRANCH  66  83
ATOM     83  C   UNL A   1      45.061  28.547  33.304  1.00  0.00     0.057 A 
ATOM     84  C   UNL A   1      46.331  28.918  32.844  1.00  0.00     0.134 A 
ATOM     85  C   UNL A   1      44.990  27.489  34.221  1.00  0.00     0.134 A 
ATOM     86  F   UNL A   1      46.468  29.914  31.955  1.00  0.00    -0.206 F 
ATOM     87  C   UNL A   1      47.482  28.248  33.260  1.00  0.00     0.040 A 
ATOM     88  C   UNL A   1      46.136  26.833  34.669  1.00  0.00     0.040 A 
ATOM     89  F   UNL A   1      43.806  27.090  34.709  1.00  0.00    -0.206 F 
ATOM     90  C   UNL A   1      47.386  27.207  34.182  1.00  0.00     0.006 A 
ENDBRANCH  66  83
ENDBRANCH  40  41
ENDBRANCH  32  35
ENDBRANCH  30  31
ENDBRANCH  29  30
ENDBRANCH  28  29
ENDBRANCH  27  28
ENDBRANCH   1  27
TORSDOF 17
ENDMDL
