MODEL 1
REMARK VINA RESULT:     -11.8      0.000      0.000
REMARK SMILES Cc1ccc(F)c(C(=O)N[C@@H]2C=C[C@@H](C(=O)NCCCCCCNC(=O)c3ccc(-c4c5nc(c(-c6c(F)cccc6F)c6ccc([nH]6)c(-c6c(F)cccc6F)c6nc(c(-c7c(F)cccc7F)c7ccc4[nH]7)C=C6)C=C5)cc3)C2)c1
REMARK SMILES IDX 20 1 19 2 18 3 17 4 15 5 16 6 14 8 11 9 12 10 81 11 13 12
REMARK SMILES IDX 10 13 8 14 9 15 7 17 1 18 2 19 3 20 82 21 4 22 5 23 6 24
REMARK SMILES IDX 21 25 22 26 23 27 24 28 25 29 26 31 27 32 28 33 80 34 29 35
REMARK SMILES IDX 79 36 30 37 31 38 32 39 73 40 33 41 78 42 72 43 74 44 34 45
REMARK SMILES IDX 77 46 71 47 70 48 35 50 61 51 44 52 60 53 45 54 48 55 59 56
REMARK SMILES IDX 75 57 46 58 47 59 58 61 76 62 49 63 36 64 37 65 42 66 38 67
REMARK SMILES IDX 39 68 41 69 43 70 40 71 62 72 63 73 68 74 64 75 65 76 67 77
REMARK SMILES IDX 69 78 66 79 50 80 51 81 56 82 52 83 53 84 55 85 57 86 54 87
REMARK H PARENT 17 7 10 16 24 30 74 49 48 60
REMARK Flexibility Score: inf
ROOT
ATOM      1  C   UNL A   1      33.026  24.830  26.239  1.00  0.00     0.002 C 
ENDROOT
BRANCH   1   2
ATOM      2  C   UNL A   1      31.923  23.932  26.810  1.00  0.00     0.021 C 
BRANCH   2   3
ATOM      3  C   UNL A   1      31.098  23.184  25.763  1.00  0.00     0.116 C 
BRANCH   3   4
ATOM      4  N   UNL A   1      31.326  21.754  25.790  1.00  0.00    -0.356 N 
ATOM      5  C   UNL A   1      32.131  20.946  25.051  1.00  0.00     0.227 C 
ATOM      6  O   UNL A   1      32.217  19.768  25.420  1.00  0.00    -0.274 OA
ATOM      7  H   UNL A   1      30.801  21.278  26.473  1.00  0.00     0.163 HD
BRANCH   5   8
ATOM      8  C   UNL A   1      32.841  21.393  23.763  1.00  0.00     0.103 C 
ATOM      9  C   UNL A   1      32.718  23.658  22.798  1.00  0.00     0.106 C 
ATOM     10  C   UNL A   1      34.093  23.326  23.290  1.00  0.00    -0.006 C 
ATOM     11  C   UNL A   1      31.974  22.324  22.920  1.00  0.00     0.047 C 
ATOM     12  C   UNL A   1      34.139  22.122  23.876  1.00  0.00    -0.016 C 
BRANCH   9  13
ATOM     13  N   UNL A   1      32.772  24.228  21.471  1.00  0.00    -0.346 N 
ATOM     14  C   UNL A   1      32.713  25.544  21.054  1.00  0.00     0.254 C 
ATOM     15  O   UNL A   1      33.002  25.797  19.887  1.00  0.00    -0.269 OA
ATOM     16  H   UNL A   1      32.868  23.572  20.744  1.00  0.00     0.164 HD
BRANCH  14  17
ATOM     17  C   UNL A   1      32.237  26.630  21.950  1.00  0.00     0.075 A 
ATOM     18  C   UNL A   1      28.977  28.252  23.031  1.00  0.00     0.044 C 
ATOM     19  C   UNL A   1      30.448  27.976  22.905  1.00  0.00    -0.050 A 
ATOM     20  C   UNL A   1      31.381  28.943  23.287  1.00  0.00     0.006 A 
ATOM     21  C   UNL A   1      30.899  26.773  22.336  1.00  0.00     0.020 A 
ATOM     22  C   UNL A   1      32.736  28.741  23.037  1.00  0.00     0.040 A 
ATOM     23  C   UNL A   1      33.154  27.605  22.346  1.00  0.00     0.135 A 
ATOM     24  F   UNL A   1      34.453  27.513  22.027  1.00  0.00    -0.206 F 
ENDBRANCH  14  17
ENDBRANCH   9  13
ENDBRANCH   5   8
ENDBRANCH   3   4
ENDBRANCH   2   3
ENDBRANCH   1   2
BRANCH   1  25
ATOM     25  C   UNL A   1      32.552  26.211  25.778  1.00  0.00     0.002 C 
BRANCH  25  26
ATOM     26  C   UNL A   1      32.804  27.344  26.776  1.00  0.00     0.021 C 
BRANCH  26  27
ATOM     27  C   UNL A   1      34.018  28.213  26.456  1.00  0.00     0.116 C 
BRANCH  27  28
ATOM     28  N   UNL A   1      33.731  29.629  26.618  1.00  0.00    -0.352 N 
ATOM     29  C   UNL A   1      34.362  30.558  27.409  1.00  0.00     0.251 C 
ATOM     30  H   UNL A   1      32.977  29.971  26.085  1.00  0.00     0.163 HD
ATOM     31  O   UNL A   1      33.860  31.659  27.594  1.00  0.00    -0.269 OA
BRANCH  29  32
ATOM     32  C   UNL A   1      35.646  30.212  28.058  1.00  0.00     0.039 A 
ATOM     33  C   UNL A   1      35.628  29.657  29.338  1.00  0.00     0.014 A 
ATOM     34  C   UNL A   1      36.861  30.428  27.398  1.00  0.00     0.014 A 
ATOM     35  C   UNL A   1      36.825  29.250  29.930  1.00  0.00     0.010 A 
ATOM     36  C   UNL A   1      38.045  29.957  27.960  1.00  0.00     0.010 A 
ATOM     37  C   UNL A   1      38.037  29.355  29.227  1.00  0.00    -0.014 A 
BRANCH  37  38
ATOM     38  C   UNL A   1      39.298  28.804  29.788  1.00  0.00     0.031 A 
ATOM     39  C   UNL A   1      39.935  29.429  30.996  1.00  0.00     0.074 A 
ATOM     40  C   UNL A   1      39.905  27.777  29.158  1.00  0.00     0.049 A 
ATOM     41  N   UNL A   1      41.064  29.123  31.586  1.00  0.00    -0.248 NA
ATOM     42  C   UNL A   1      39.226  30.562  31.611  1.00  0.00     0.031 C 
ATOM     43  C   UNL A   1      39.413  27.118  27.947  1.00  0.00     0.029 A 
ATOM     44  N   UNL A   1      41.075  27.118  29.442  1.00  0.00    -0.354 N 
ATOM     45  C   UNL A   1      41.204  30.029  32.629  1.00  0.00     0.074 A 
ATOM     46  C   UNL A   1      40.070  30.927  32.564  1.00  0.00     0.031 C 
ATOM     47  C   UNL A   1      40.264  26.139  27.602  1.00  0.00     0.029 A 
ATOM     48  C   UNL A   1      41.382  26.129  28.538  1.00  0.00     0.049 A 
ATOM     49  H   UNL A   1      41.640  27.333  30.219  1.00  0.00     0.167 HD
ATOM     50  C   UNL A   1      42.180  30.094  33.565  1.00  0.00     0.037 A 
ATOM     51  C   UNL A   1      42.453  25.316  28.462  1.00  0.00     0.037 A 
ATOM     52  C   UNL A   1      43.296  29.187  33.636  1.00  0.00     0.049 A 
ATOM     53  C   UNL A   1      43.531  25.422  29.504  1.00  0.00     0.074 A 
ATOM     54  C   UNL A   1      44.294  29.123  34.593  1.00  0.00     0.029 A 
ATOM     55  N   UNL A   1      43.570  28.194  32.707  1.00  0.00    -0.354 N 
ATOM     56  N   UNL A   1      43.605  26.225  30.537  1.00  0.00    -0.248 NA
ATOM     57  C   UNL A   1      44.675  24.508  29.371  1.00  0.00     0.031 C 
ATOM     58  C   UNL A   1      45.205  28.133  34.210  1.00  0.00     0.029 A 
ATOM     59  C   UNL A   1      44.743  27.540  33.047  1.00  0.00     0.049 A 
ATOM     60  H   UNL A   1      43.013  27.984  31.924  1.00  0.00     0.167 HD
ATOM     61  C   UNL A   1      44.789  25.902  31.187  1.00  0.00     0.074 A 
ATOM     62  C   UNL A   1      45.388  24.813  30.446  1.00  0.00     0.031 C 
ATOM     63  C   UNL A   1      45.333  26.460  32.297  1.00  0.00     0.037 A 
BRANCH  50  64
ATOM     64  C   UNL A   1      42.091  31.185  34.593  1.00  0.00     0.057 A 
ATOM     65  C   UNL A   1      41.374  31.026  35.785  1.00  0.00     0.134 A 
ATOM     66  C   UNL A   1      42.778  32.393  34.410  1.00  0.00     0.134 A 
ATOM     67  F   UNL A   1      40.687  29.899  36.020  1.00  0.00    -0.206 F 
ATOM     68  C   UNL A   1      41.326  32.035  36.750  1.00  0.00     0.040 A 
ATOM     69  C   UNL A   1      42.761  33.398  35.380  1.00  0.00     0.040 A 
ATOM     70  F   UNL A   1      43.492  32.610  33.295  1.00  0.00    -0.206 F 
ATOM     71  C   UNL A   1      42.029  33.222  36.551  1.00  0.00     0.006 A 
ENDBRANCH  50  64
BRANCH  51  72
ATOM     72  C   UNL A   1      42.562  24.332  27.353  1.00  0.00     0.057 A 
ATOM     73  C   UNL A   1      43.144  24.680  26.128  1.00  0.00     0.134 A 
ATOM     74  C   UNL A   1      42.072  23.026  27.485  1.00  0.00     0.134 A 
ATOM     75  F   UNL A   1      43.614  25.920  25.933  1.00  0.00    -0.206 F 
ATOM     76  C   UNL A   1      43.213  23.774  25.068  1.00  0.00     0.040 A 
ATOM     77  C   UNL A   1      42.162  22.102  26.444  1.00  0.00     0.040 A 
ATOM     78  F   UNL A   1      41.511  22.626  28.636  1.00  0.00    -0.206 F 
ATOM     79  C   UNL A   1      42.727  22.479  25.227  1.00  0.00     0.006 A 
ENDBRANCH  51  72
BRANCH  63  80
ATOM     80  C   UNL A   1      46.633  25.890  32.785  1.00  0.00     0.057 A 
ATOM     81  C   UNL A   1      47.867  26.357  32.313  1.00  0.00     0.134 A 
ATOM     82  C   UNL A   1      46.653  24.893  33.770  1.00  0.00     0.134 A 
ATOM     83  F   UNL A   1      47.918  27.300  31.361  1.00  0.00    -0.206 F 
ATOM     84  C   UNL A   1      49.073  25.836  32.786  1.00  0.00     0.040 A 
ATOM     85  C   UNL A   1      47.852  24.386  34.272  1.00  0.00     0.040 A 
ATOM     86  F   UNL A   1      45.508  24.408  34.272  1.00  0.00    -0.206 F 
ATOM     87  C   UNL A   1      49.067  24.853  33.775  1.00  0.00     0.006 A 
ENDBRANCH  63  80
ENDBRANCH  37  38
ENDBRANCH  29  32
ENDBRANCH  27  28
ENDBRANCH  26  27
ENDBRANCH  25  26
ENDBRANCH   1  25
TORSDOF 15
ENDMDL
MODEL 2
REMARK VINA RESULT:     -11.8      2.061      3.570
REMARK SMILES Cc1ccc(F)c(C(=O)N[C@@H]2C=C[C@@H](C(=O)NCCCCCCNC(=O)c3ccc(-c4c5nc(c(-c6c(F)cccc6F)c6ccc([nH]6)c(-c6c(F)cccc6F)c6nc(c(-c7c(F)cccc7F)c7ccc4[nH]7)C=C6)C=C5)cc3)C2)c1
REMARK SMILES IDX 20 1 19 2 18 3 17 4 15 5 16 6 14 8 11 9 12 10 81 11 13 12
REMARK SMILES IDX 10 13 8 14 9 15 7 17 1 18 2 19 3 20 82 21 4 22 5 23 6 24
REMARK SMILES IDX 21 25 22 26 23 27 24 28 25 29 26 31 27 32 28 33 80 34 29 35
REMARK SMILES IDX 79 36 30 37 31 38 32 39 73 40 33 41 78 42 72 43 74 44 34 45
REMARK SMILES IDX 77 46 71 47 70 48 35 50 61 51 44 52 60 53 45 54 48 55 59 56
REMARK SMILES IDX 75 57 46 58 47 59 58 61 76 62 49 63 36 64 37 65 42 66 38 67
REMARK SMILES IDX 39 68 41 69 43 70 40 71 62 72 63 73 68 74 64 75 65 76 67 77
REMARK SMILES IDX 69 78 66 79 50 80 51 81 56 82 52 83 53 84 55 85 57 86 54 87
REMARK H PARENT 17 7 10 16 24 30 74 49 48 60
REMARK Flexibility Score: inf
ROOT
ATOM      1  C   UNL A   1      31.767  28.363  24.633  1.00  0.00     0.002 C 
ENDROOT
BRANCH   1   2
ATOM      2  C   UNL A   1      31.161  28.671  23.259  1.00  0.00     0.021 C 
BRANCH   2   3
ATOM      3  C   UNL A   1      30.692  27.444  22.476  1.00  0.00     0.116 C 
BRANCH   3   4
ATOM      4  N   UNL A   1      31.664  27.002  21.498  1.00  0.00    -0.356 N 
ATOM      5  C   UNL A   1      32.490  25.923  21.459  1.00  0.00     0.227 C 
ATOM      6  O   UNL A   1      33.105  25.739  20.401  1.00  0.00    -0.274 OA
ATOM      7  H   UNL A   1      31.741  27.592  20.714  1.00  0.00     0.163 HD
BRANCH   5   8
ATOM      8  C   UNL A   1      32.755  25.004  22.662  1.00  0.00     0.103 C 
ATOM      9  C   UNL A   1      33.010  22.555  22.538  1.00  0.00     0.106 C 
ATOM     10  C   UNL A   1      34.281  23.237  22.939  1.00  0.00    -0.006 C 
ATOM     11  C   UNL A   1      31.982  23.692  22.567  1.00  0.00     0.047 C 
ATOM     12  C   UNL A   1      34.157  24.572  22.938  1.00  0.00    -0.016 C 
BRANCH   9  13
ATOM     13  N   UNL A   1      32.732  21.435  23.407  1.00  0.00    -0.346 N 
ATOM     14  C   UNL A   1      32.158  21.390  24.663  1.00  0.00     0.254 C 
ATOM     15  O   UNL A   1      31.823  20.297  25.111  1.00  0.00    -0.269 OA
ATOM     16  H   UNL A   1      32.995  20.557  23.045  1.00  0.00     0.164 HD
BRANCH  14  17
ATOM     17  C   UNL A   1      32.013  22.608  25.502  1.00  0.00     0.075 A 
ATOM     18  C   UNL A   1      29.684  25.585  25.882  1.00  0.00     0.044 C 
ATOM     19  C   UNL A   1      30.848  24.661  26.098  1.00  0.00    -0.050 A 
ATOM     20  C   UNL A   1      31.985  25.108  26.776  1.00  0.00     0.006 A 
ATOM     21  C   UNL A   1      30.836  23.363  25.559  1.00  0.00     0.020 A 
ATOM     22  C   UNL A   1      33.116  24.298  26.850  1.00  0.00     0.040 A 
ATOM     23  C   UNL A   1      33.136  23.070  26.190  1.00  0.00     0.135 A 
ATOM     24  F   UNL A   1      34.286  22.380  26.193  1.00  0.00    -0.206 F 
ENDBRANCH  14  17
ENDBRANCH   9  13
ENDBRANCH   5   8
ENDBRANCH   3   4
ENDBRANCH   2   3
ENDBRANCH   1   2
BRANCH   1  25
ATOM     25  C   UNL A   1      33.170  28.935  24.856  1.00  0.00     0.002 C 
BRANCH  25  26
ATOM     26  C   UNL A   1      34.003  28.202  25.911  1.00  0.00     0.021 C 
BRANCH  26  27
ATOM     27  C   UNL A   1      33.615  28.512  27.354  1.00  0.00     0.116 C 
BRANCH  27  28
ATOM     28  N   UNL A   1      33.634  29.940  27.627  1.00  0.00    -0.352 N 
ATOM     29  C   UNL A   1      34.623  30.702  28.200  1.00  0.00     0.251 C 
ATOM     30  H   UNL A   1      32.823  30.432  27.362  1.00  0.00     0.163 HD
ATOM     31  O   UNL A   1      34.394  31.851  28.555  1.00  0.00    -0.269 OA
BRANCH  29  32
ATOM     32  C   UNL A   1      35.966  30.117  28.409  1.00  0.00     0.039 A 
ATOM     33  C   UNL A   1      36.889  30.155  27.364  1.00  0.00     0.014 A 
ATOM     34  C   UNL A   1      36.311  29.542  29.637  1.00  0.00     0.014 A 
ATOM     35  C   UNL A   1      38.186  29.681  27.572  1.00  0.00     0.010 A 
ATOM     36  C   UNL A   1      37.624  29.136  29.864  1.00  0.00     0.010 A 
ATOM     37  C   UNL A   1      38.576  29.210  28.838  1.00  0.00    -0.014 A 
BRANCH  37  38
ATOM     38  C   UNL A   1      39.986  28.829  29.111  1.00  0.00     0.031 A 
ATOM     39  C   UNL A   1      40.933  29.808  29.746  1.00  0.00     0.074 A 
ATOM     40  C   UNL A   1      40.429  27.617  28.718  1.00  0.00     0.049 A 
ATOM     41  N   UNL A   1      42.210  29.674  30.001  1.00  0.00    -0.248 NA
ATOM     42  C   UNL A   1      40.381  31.119  30.121  1.00  0.00     0.031 C 
ATOM     43  C   UNL A   1      39.620  26.599  28.046  1.00  0.00     0.029 A 
ATOM     44  N   UNL A   1      41.671  27.042  28.816  1.00  0.00    -0.354 N 
ATOM     45  C   UNL A   1      42.615  30.880  30.555  1.00  0.00     0.074 A 
ATOM     46  C   UNL A   1      41.461  31.754  30.554  1.00  0.00     0.031 C 
ATOM     47  C   UNL A   1      40.381  25.519  27.808  1.00  0.00     0.029 A 
ATOM     48  C   UNL A   1      41.740  25.784  28.267  1.00  0.00     0.049 A 
ATOM     49  H   UNL A   1      42.440  27.489  29.238  1.00  0.00     0.167 HD
ATOM     50  C   UNL A   1      43.834  31.223  31.035  1.00  0.00     0.037 A 
ATOM     51  C   UNL A   1      42.784  24.943  28.134  1.00  0.00     0.037 A 
ATOM     52  C   UNL A   1      44.975  30.344  31.050  1.00  0.00     0.049 A 
ATOM     53  C   UNL A   1      44.130  25.356  28.660  1.00  0.00     0.074 A 
ATOM     54  C   UNL A   1      46.230  30.572  31.587  1.00  0.00     0.029 A 
ATOM     55  N   UNL A   1      45.004  29.075  30.492  1.00  0.00    -0.354 N 
ATOM     56  N   UNL A   1      44.476  26.468  29.263  1.00  0.00    -0.248 NA
ATOM     57  C   UNL A   1      45.231  24.398  28.489  1.00  0.00     0.031 C 
ATOM     58  C   UNL A   1      47.037  29.467  31.298  1.00  0.00     0.029 A 
ATOM     59  C   UNL A   1      46.267  28.525  30.635  1.00  0.00     0.049 A 
ATOM     60  H   UNL A   1      44.240  28.630  30.059  1.00  0.00     0.167 HD
ATOM     61  C   UNL A   1      45.826  26.335  29.560  1.00  0.00     0.074 A 
ATOM     62  C   UNL A   1      46.230  25.026  29.093  1.00  0.00     0.031 C 
ATOM     63  C   UNL A   1      46.658  27.221  30.161  1.00  0.00     0.037 A 
BRANCH  50  64
ATOM     64  C   UNL A   1      44.005  32.610  31.585  1.00  0.00     0.057 A 
ATOM     65  C   UNL A   1      44.391  33.687  30.777  1.00  0.00     0.134 A 
ATOM     66  C   UNL A   1      43.726  32.881  32.931  1.00  0.00     0.134 A 
ATOM     67  F   UNL A   1      44.681  33.495  29.482  1.00  0.00    -0.206 F 
ATOM     68  C   UNL A   1      44.514  34.980  31.291  1.00  0.00     0.040 A 
ATOM     69  C   UNL A   1      43.818  34.175  33.450  1.00  0.00     0.040 A 
ATOM     70  F   UNL A   1      43.344  31.899  33.760  1.00  0.00    -0.206 F 
ATOM     71  C   UNL A   1      44.218  35.227  32.630  1.00  0.00     0.006 A 
ENDBRANCH  50  64
BRANCH  51  72
ATOM     72  C   UNL A   1      42.599  23.627  27.470  1.00  0.00     0.057 A 
ATOM     73  C   UNL A   1      42.722  23.491  26.082  1.00  0.00     0.134 A 
ATOM     74  C   UNL A   1      42.276  22.478  28.202  1.00  0.00     0.134 A 
ATOM     75  F   UNL A   1      43.010  24.559  25.323  1.00  0.00    -0.206 F 
ATOM     76  C   UNL A   1      42.510  22.268  25.445  1.00  0.00     0.040 A 
ATOM     77  C   UNL A   1      42.091  21.242  27.581  1.00  0.00     0.040 A 
ATOM     78  F   UNL A   1      42.152  22.537  29.536  1.00  0.00    -0.206 F 
ATOM     79  C   UNL A   1      42.199  21.137  26.197  1.00  0.00     0.006 A 
ENDBRANCH  51  72
BRANCH  63  80
ATOM     80  C   UNL A   1      48.084  26.796  30.364  1.00  0.00     0.057 A 
ATOM     81  C   UNL A   1      49.092  27.134  29.452  1.00  0.00     0.134 A 
ATOM     82  C   UNL A   1      48.461  26.076  31.506  1.00  0.00     0.134 A 
ATOM     83  F   UNL A   1      48.797  27.810  28.331  1.00  0.00    -0.206 F 
ATOM     84  C   UNL A   1      50.419  26.752  29.656  1.00  0.00     0.040 A 
ATOM     85  C   UNL A   1      49.788  25.715  31.736  1.00  0.00     0.040 A 
ATOM     86  F   UNL A   1      47.547  25.728  32.424  1.00  0.00    -0.206 F 
ATOM     87  C   UNL A   1      50.771  26.047  30.807  1.00  0.00     0.006 A 
ENDBRANCH  63  80
ENDBRANCH  37  38
ENDBRANCH  29  32
ENDBRANCH  27  28
ENDBRANCH  26  27
ENDBRANCH  25  26
ENDBRANCH   1  25
TORSDOF 15
ENDMDL
MODEL 3
REMARK VINA RESULT:     -11.6      2.401      4.070
REMARK SMILES Cc1ccc(F)c(C(=O)N[C@@H]2C=C[C@@H](C(=O)NCCCCCCNC(=O)c3ccc(-c4c5nc(c(-c6c(F)cccc6F)c6ccc([nH]6)c(-c6c(F)cccc6F)c6nc(c(-c7c(F)cccc7F)c7ccc4[nH]7)C=C6)C=C5)cc3)C2)c1
REMARK SMILES IDX 20 1 19 2 18 3 17 4 15 5 16 6 14 8 11 9 12 10 81 11 13 12
REMARK SMILES IDX 10 13 8 14 9 15 7 17 1 18 2 19 3 20 82 21 4 22 5 23 6 24
REMARK SMILES IDX 21 25 22 26 23 27 24 28 25 29 26 31 27 32 28 33 80 34 29 35
REMARK SMILES IDX 79 36 30 37 31 38 32 39 73 40 33 41 78 42 72 43 74 44 34 45
REMARK SMILES IDX 77 46 71 47 70 48 35 50 61 51 44 52 60 53 45 54 48 55 59 56
REMARK SMILES IDX 75 57 46 58 47 59 58 61 76 62 49 63 36 64 37 65 42 66 38 67
REMARK SMILES IDX 39 68 41 69 43 70 40 71 62 72 63 73 68 74 64 75 65 76 67 77
REMARK SMILES IDX 69 78 66 79 50 80 51 81 56 82 52 83 53 84 55 85 57 86 54 87
REMARK H PARENT 17 7 10 16 24 30 74 49 48 60
REMARK Flexibility Score: inf
ROOT
ATOM      1  C   UNL A   1      33.090  28.116  23.533  1.00  0.00     0.002 C 
ENDROOT
BRANCH   1   2
ATOM      2  C   UNL A   1      31.616  27.931  23.157  1.00  0.00     0.021 C 
BRANCH   2   3
ATOM      3  C   UNL A   1      30.969  26.658  23.704  1.00  0.00     0.116 C 
BRANCH   3   4
ATOM      4  N   UNL A   1      30.847  26.671  25.147  1.00  0.00    -0.356 N 
ATOM      5  C   UNL A   1      31.334  25.845  26.110  1.00  0.00     0.227 C 
ATOM      6  O   UNL A   1      31.178  26.213  27.281  1.00  0.00    -0.274 OA
ATOM      7  H   UNL A   1      30.311  27.419  25.497  1.00  0.00     0.163 HD
BRANCH   5   8
ATOM      8  C   UNL A   1      31.966  24.475  25.821  1.00  0.00     0.103 C 
ATOM      9  C   UNL A   1      33.715  23.410  27.196  1.00  0.00     0.106 C 
ATOM     10  C   UNL A   1      32.419  22.660  27.246  1.00  0.00    -0.006 C 
ATOM     11  C   UNL A   1      33.466  24.460  26.107  1.00  0.00     0.047 C 
ATOM     12  C   UNL A   1      31.453  23.279  26.554  1.00  0.00    -0.016 C 
BRANCH   9  13
ATOM     13  N   UNL A   1      34.820  22.510  26.960  1.00  0.00    -0.346 N 
ATOM     14  C   UNL A   1      35.216  21.853  25.811  1.00  0.00     0.254 C 
ATOM     15  O   UNL A   1      36.319  21.313  25.800  1.00  0.00    -0.269 OA
ATOM     16  H   UNL A   1      35.386  22.336  27.747  1.00  0.00     0.164 HD
BRANCH  14  17
ATOM     17  C   UNL A   1      34.316  21.718  24.636  1.00  0.00     0.075 A 
ATOM     18  C   UNL A   1      32.979  23.825  21.772  1.00  0.00     0.044 C 
ATOM     19  C   UNL A   1      33.198  22.654  22.686  1.00  0.00    -0.050 A 
ATOM     20  C   UNL A   1      32.295  21.589  22.694  1.00  0.00     0.006 A 
ATOM     21  C   UNL A   1      34.271  22.651  23.593  1.00  0.00     0.020 A 
ATOM     22  C   UNL A   1      32.420  20.574  23.640  1.00  0.00     0.040 A 
ATOM     23  C   UNL A   1      33.406  20.658  24.622  1.00  0.00     0.135 A 
ATOM     24  F   UNL A   1      33.414  19.719  25.579  1.00  0.00    -0.206 F 
ENDBRANCH  14  17
ENDBRANCH   9  13
ENDBRANCH   5   8
ENDBRANCH   3   4
ENDBRANCH   2   3
ENDBRANCH   1   2
BRANCH   1  25
ATOM     25  C   UNL A   1      33.330  28.975  24.779  1.00  0.00     0.002 C 
BRANCH  25  26
ATOM     26  C   UNL A   1      34.127  28.287  25.891  1.00  0.00     0.021 C 
BRANCH  26  27
ATOM     27  C   UNL A   1      33.624  28.577  27.303  1.00  0.00     0.116 C 
BRANCH  27  28
ATOM     28  N   UNL A   1      33.645  29.999  27.606  1.00  0.00    -0.352 N 
ATOM     29  C   UNL A   1      34.632  30.745  28.204  1.00  0.00     0.251 C 
ATOM     30  H   UNL A   1      32.839  30.499  27.343  1.00  0.00     0.163 HD
ATOM     31  O   UNL A   1      34.403  31.887  28.581  1.00  0.00    -0.269 OA
BRANCH  29  32
ATOM     32  C   UNL A   1      35.970  30.151  28.414  1.00  0.00     0.039 A 
ATOM     33  C   UNL A   1      36.900  30.199  27.374  1.00  0.00     0.014 A 
ATOM     34  C   UNL A   1      36.305  29.558  29.635  1.00  0.00     0.014 A 
ATOM     35  C   UNL A   1      38.194  29.717  27.584  1.00  0.00     0.010 A 
ATOM     36  C   UNL A   1      37.615  29.143  29.865  1.00  0.00     0.010 A 
ATOM     37  C   UNL A   1      38.574  29.226  28.846  1.00  0.00    -0.014 A 
BRANCH  37  38
ATOM     38  C   UNL A   1      39.980  28.835  29.123  1.00  0.00     0.031 A 
ATOM     39  C   UNL A   1      40.929  29.802  29.772  1.00  0.00     0.074 A 
ATOM     40  C   UNL A   1      40.419  27.625  28.720  1.00  0.00     0.049 A 
ATOM     41  N   UNL A   1      42.204  29.659  30.033  1.00  0.00    -0.248 NA
ATOM     42  C   UNL A   1      40.382  31.113  30.158  1.00  0.00     0.031 C 
ATOM     43  C   UNL A   1      39.608  26.618  28.033  1.00  0.00     0.029 A 
ATOM     44  N   UNL A   1      41.658  27.043  28.818  1.00  0.00    -0.354 N 
ATOM     45  C   UNL A   1      42.612  30.858  30.601  1.00  0.00     0.074 A 
ATOM     46  C   UNL A   1      41.462  31.737  30.604  1.00  0.00     0.031 C 
ATOM     47  C   UNL A   1      40.365  25.537  27.788  1.00  0.00     0.029 A 
ATOM     48  C   UNL A   1      41.723  25.790  28.257  1.00  0.00     0.049 A 
ATOM     49  H   UNL A   1      42.427  27.482  29.249  1.00  0.00     0.167 HD
ATOM     50  C   UNL A   1      43.830  31.189  31.092  1.00  0.00     0.037 A 
ATOM     51  C   UNL A   1      42.763  24.945  28.121  1.00  0.00     0.037 A 
ATOM     52  C   UNL A   1      44.966  30.304  31.103  1.00  0.00     0.049 A 
ATOM     53  C   UNL A   1      44.108  25.346  28.659  1.00  0.00     0.074 A 
ATOM     54  C   UNL A   1      46.220  30.520  31.649  1.00  0.00     0.029 A 
ATOM     55  N   UNL A   1      44.992  29.040  30.533  1.00  0.00    -0.354 N 
ATOM     56  N   UNL A   1      44.457  26.449  29.274  1.00  0.00    -0.248 NA
ATOM     57  C   UNL A   1      45.206  24.383  28.483  1.00  0.00     0.031 C 
ATOM     58  C   UNL A   1      47.022  29.413  31.353  1.00  0.00     0.029 A 
ATOM     59  C   UNL A   1      46.251  28.482  30.677  1.00  0.00     0.049 A 
ATOM     60  H   UNL A   1      44.228  28.604  30.091  1.00  0.00     0.167 HD
ATOM     61  C   UNL A   1      45.805  26.306  29.577  1.00  0.00     0.074 A 
ATOM     62  C   UNL A   1      46.205  25.000  29.099  1.00  0.00     0.031 C 
ATOM     63  C   UNL A   1      46.638  27.182  30.192  1.00  0.00     0.037 A 
BRANCH  50  64
ATOM     64  C   UNL A   1      44.005  32.570  31.656  1.00  0.00     0.057 A 
ATOM     65  C   UNL A   1      44.376  33.658  30.857  1.00  0.00     0.134 A 
ATOM     66  C   UNL A   1      43.746  32.823  33.010  1.00  0.00     0.134 A 
ATOM     67  F   UNL A   1      44.648  33.484  29.555  1.00  0.00    -0.206 F 
ATOM     68  C   UNL A   1      44.504  34.944  31.385  1.00  0.00     0.040 A 
ATOM     69  C   UNL A   1      43.841  34.110  33.544  1.00  0.00     0.040 A 
ATOM     70  F   UNL A   1      43.378  31.829  33.832  1.00  0.00    -0.206 F 
ATOM     71  C   UNL A   1      44.227  35.174  32.732  1.00  0.00     0.006 A 
ENDBRANCH  50  64
BRANCH  51  72
ATOM     72  C   UNL A   1      42.574  23.637  27.442  1.00  0.00     0.057 A 
ATOM     73  C   UNL A   1      42.266  22.480  28.168  1.00  0.00     0.134 A 
ATOM     74  C   UNL A   1      42.715  23.507  26.054  1.00  0.00     0.134 A 
ATOM     75  F   UNL A   1      42.138  22.535  29.502  1.00  0.00    -0.206 F 
ATOM     76  C   UNL A   1      42.128  21.240  27.543  1.00  0.00     0.040 A 
ATOM     77  C   UNL A   1      42.549  22.279  25.414  1.00  0.00     0.040 A 
ATOM     78  F   UNL A   1      43.001  24.578  25.299  1.00  0.00    -0.206 F 
ATOM     79  C   UNL A   1      42.263  21.138  26.161  1.00  0.00     0.006 A 
ENDBRANCH  51  72
BRANCH  63  80
ATOM     80  C   UNL A   1      48.061  26.747  30.398  1.00  0.00     0.057 A 
ATOM     81  C   UNL A   1      48.445  25.980  31.505  1.00  0.00     0.134 A 
ATOM     82  C   UNL A   1      49.049  27.062  29.456  1.00  0.00     0.134 A 
ATOM     83  F   UNL A   1      47.551  25.655  32.451  1.00  0.00    -0.206 F 
ATOM     84  C   UNL A   1      49.765  25.562  31.681  1.00  0.00     0.040 A 
ATOM     85  C   UNL A   1      50.366  26.625  29.604  1.00  0.00     0.040 A 
ATOM     86  F   UNL A   1      48.747  27.786  28.367  1.00  0.00    -0.206 F 
ATOM     87  C   UNL A   1      50.729  25.878  30.723  1.00  0.00     0.006 A 
ENDBRANCH  63  80
ENDBRANCH  37  38
ENDBRANCH  29  32
ENDBRANCH  27  28
ENDBRANCH  26  27
ENDBRANCH  25  26
ENDBRANCH   1  25
TORSDOF 15
ENDMDL
