MODEL 1
REMARK VINA RESULT:     -11.1      0.000      0.000
REMARK SMILES COc1ccc(-c2sc(N)nc2C(=O)NCCCCCCNC(=O)c2ccc(-c3c4nc(c(-c5c(F)cccc5F)c5ccc([nH]5)c(-c5c(F)cccc5F)c5nc(c(-c6c(F)cccc6F)c6ccc3[nH]6)C=C5)C=C4)cc2)cc1OC
REMARK SMILES IDX 18 1 17 2 16 3 15 4 13 5 14 6 12 8 7 9 8 10 9 11 11 12 6 13
REMARK SMILES IDX 3 14 4 15 80 16 5 17 79 18 2 19 1 20 81 21 82 22 10 23 19 26
REMARK SMILES IDX 20 27 21 28 22 29 23 30 24 32 25 33 26 34 78 35 27 36 77 37
REMARK SMILES IDX 28 38 29 39 30 40 71 41 31 42 76 43 70 44 72 45 32 46 75 47
REMARK SMILES IDX 69 48 68 49 33 51 59 52 42 53 58 54 43 55 46 56 57 57 73 58
REMARK SMILES IDX 44 59 45 60 56 62 74 63 47 64 34 65 35 66 40 67 36 68 37 69
REMARK SMILES IDX 39 70 41 71 38 72 60 73 61 74 66 75 62 76 63 77 65 78 67 79
REMARK SMILES IDX 64 80 48 81 49 82 54 83 50 84 51 85 53 86 55 87 52 88
REMARK H PARENT 15 7 10 24 10 25 22 31 72 50 46 61
REMARK Flexibility Score: inf
ROOT
ATOM      1  C   UNL A   1      32.360  29.757  26.755  1.00  0.00     0.002 C 
ENDROOT
BRANCH   1   2
ATOM      2  C   UNL A   1      31.666  28.655  27.563  1.00  0.00     0.021 C 
BRANCH   2   3
ATOM      3  C   UNL A   1      32.061  27.225  27.196  1.00  0.00     0.116 C 
BRANCH   3   4
ATOM      4  N   UNL A   1      30.976  26.511  26.552  1.00  0.00    -0.351 N 
ATOM      5  C   UNL A   1      30.586  26.428  25.240  1.00  0.00     0.271 C 
ATOM      6  O   UNL A   1      29.593  25.726  25.014  1.00  0.00    -0.267 OA
ATOM      7  H   UNL A   1      30.415  25.990  27.171  1.00  0.00     0.163 HD
BRANCH   5   8
ATOM      8  C   UNL A   1      31.313  27.130  24.168  1.00  0.00     0.149 A 
ATOM      9  C   UNL A   1      32.546  26.718  23.667  1.00  0.00     0.069 A 
ATOM     10  S   UNL A   1      33.089  27.813  22.462  1.00  0.00    -0.096 S 
ATOM     11  C   UNL A   1      31.658  28.728  22.653  1.00  0.00     0.181 A 
ATOM     12  N   UNL A   1      30.840  28.304  23.577  1.00  0.00    -0.215 NA
BRANCH   9  13
ATOM     13  C   UNL A   1      33.338  25.528  23.975  1.00  0.00    -0.002 A 
ATOM     14  C   UNL A   1      34.663  23.151  24.676  1.00  0.00     0.160 A 
ATOM     15  C   UNL A   1      35.017  24.368  25.279  1.00  0.00     0.051 A 
ATOM     16  C   UNL A   1      33.653  23.116  23.707  1.00  0.00     0.161 A 
ATOM     17  C   UNL A   1      34.363  25.553  24.925  1.00  0.00     0.014 A 
ATOM     18  C   UNL A   1      33.007  24.310  23.364  1.00  0.00     0.060 A 
BRANCH  14  19
ATOM     19  O   UNL A   1      35.228  21.999  25.150  1.00  0.00    -0.493 OA
ATOM     20  C   UNL A   1      36.513  21.751  24.586  1.00  0.00     0.278 C 
ENDBRANCH  14  19
BRANCH  16  21
ATOM     21  O   UNL A   1      33.151  22.037  23.033  1.00  0.00    -0.493 OA
ATOM     22  C   UNL A   1      32.312  21.134  23.733  1.00  0.00     0.278 C 
ENDBRANCH  16  21
ENDBRANCH   9  13
BRANCH  11  23
ATOM     23  N   UNL A   1      31.399  29.801  21.899  1.00  0.00    -0.375 N 
ATOM     24  H   UNL A   1      31.704  29.830  20.964  1.00  0.00     0.159 HD
ATOM     25  H   UNL A   1      30.901  30.560  22.278  1.00  0.00     0.159 HD
ENDBRANCH  11  23
ENDBRANCH   5   8
ENDBRANCH   3   4
ENDBRANCH   2   3
ENDBRANCH   1   2
BRANCH   1  26
ATOM     26  C   UNL A   1      31.434  30.692  25.971  1.00  0.00     0.002 C 
BRANCH  26  27
ATOM     27  C   UNL A   1      31.338  32.126  26.498  1.00  0.00     0.021 C 
BRANCH  27  28
ATOM     28  C   UNL A   1      32.631  32.701  27.067  1.00  0.00     0.116 C 
BRANCH  28  29
ATOM     29  N   UNL A   1      32.447  34.018  27.652  1.00  0.00    -0.352 N 
ATOM     30  C   UNL A   1      33.142  34.634  28.662  1.00  0.00     0.251 C 
ATOM     31  H   UNL A   1      31.713  34.549  27.265  1.00  0.00     0.163 HD
ATOM     32  O   UNL A   1      32.735  35.698  29.120  1.00  0.00    -0.269 OA
BRANCH  30  33
ATOM     33  C   UNL A   1      34.366  34.018  29.223  1.00  0.00     0.039 A 
ATOM     34  C   UNL A   1      34.224  33.024  30.196  1.00  0.00     0.014 A 
ATOM     35  C   UNL A   1      35.644  34.429  28.831  1.00  0.00     0.014 A 
ATOM     36  C   UNL A   1      35.357  32.415  30.741  1.00  0.00     0.010 A 
ATOM     37  C   UNL A   1      36.772  33.772  29.323  1.00  0.00     0.010 A 
ATOM     38  C   UNL A   1      36.641  32.765  30.291  1.00  0.00    -0.014 A 
BRANCH  38  39
ATOM     39  C   UNL A   1      37.842  32.076  30.833  1.00  0.00     0.031 A 
ATOM     40  C   UNL A   1      38.375  32.423  32.195  1.00  0.00     0.074 A 
ATOM     41  C   UNL A   1      38.463  31.145  30.084  1.00  0.00     0.049 A 
ATOM     42  N   UNL A   1      39.389  31.901  32.842  1.00  0.00    -0.248 NA
ATOM     43  C   UNL A   1      37.700  33.510  32.919  1.00  0.00     0.031 C 
ATOM     44  C   UNL A   1      38.081  30.758  28.725  1.00  0.00     0.029 A 
ATOM     45  N   UNL A   1      39.544  30.346  30.364  1.00  0.00    -0.354 N 
ATOM     46  C   UNL A   1      39.471  32.596  34.042  1.00  0.00     0.074 A 
ATOM     47  C   UNL A   1      38.445  33.616  34.010  1.00  0.00     0.031 C 
ATOM     48  C   UNL A   1      38.887  29.770  28.304  1.00  0.00     0.029 A 
ATOM     49  C   UNL A   1      39.857  29.470  29.352  1.00  0.00     0.049 A 
ATOM     50  H   UNL A   1      40.046  30.395  31.209  1.00  0.00     0.167 HD
ATOM     51  C   UNL A   1      40.305  32.387  35.090  1.00  0.00     0.037 A 
ATOM     52  C   UNL A   1      40.811  28.523  29.283  1.00  0.00     0.037 A 
ATOM     53  C   UNL A   1      41.316  31.362  35.131  1.00  0.00     0.049 A 
ATOM     54  C   UNL A   1      41.713  28.301  30.465  1.00  0.00     0.074 A 
ATOM     55  C   UNL A   1      42.184  31.045  36.161  1.00  0.00     0.029 A 
ATOM     56  N   UNL A   1      41.592  30.485  34.093  1.00  0.00    -0.354 N 
ATOM     57  N   UNL A   1      41.732  28.921  31.620  1.00  0.00    -0.248 NA
ATOM     58  C   UNL A   1      42.716  27.234  30.338  1.00  0.00     0.031 C 
ATOM     59  C   UNL A   1      43.008  29.997  35.734  1.00  0.00     0.029 A 
ATOM     60  C   UNL A   1      42.623  29.632  34.454  1.00  0.00     0.049 A 
ATOM     61  H   UNL A   1      41.124  30.469  33.227  1.00  0.00     0.167 HD
ATOM     62  C   UNL A   1      42.726  28.301  32.367  1.00  0.00     0.074 A 
ATOM     63  C   UNL A   1      43.271  27.243  31.540  1.00  0.00     0.031 C 
ATOM     64  C   UNL A   1      43.152  28.582  33.623  1.00  0.00     0.037 A 
BRANCH  51  65
ATOM     65  C   UNL A   1      40.148  33.279  36.288  1.00  0.00     0.057 A 
ATOM     66  C   UNL A   1      40.910  34.446  36.440  1.00  0.00     0.134 A 
ATOM     67  C   UNL A   1      39.204  32.993  37.281  1.00  0.00     0.134 A 
ATOM     68  F   UNL A   1      41.842  34.772  35.529  1.00  0.00    -0.206 F 
ATOM     69  C   UNL A   1      40.755  35.282  37.545  1.00  0.00     0.040 A 
ATOM     70  C   UNL A   1      39.020  33.836  38.379  1.00  0.00     0.040 A 
ATOM     71  F   UNL A   1      38.437  31.895  37.196  1.00  0.00    -0.206 F 
ATOM     72  C   UNL A   1      39.802  34.981  38.516  1.00  0.00     0.006 A 
ENDBRANCH  51  65
BRANCH  52  73
ATOM     73  C   UNL A   1      40.938  27.677  28.070  1.00  0.00     0.057 A 
ATOM     74  C   UNL A   1      41.713  28.091  26.980  1.00  0.00     0.134 A 
ATOM     75  C   UNL A   1      40.272  26.451  27.959  1.00  0.00     0.134 A 
ATOM     76  F   UNL A   1      42.358  29.267  27.019  1.00  0.00    -0.206 F 
ATOM     77  C   UNL A   1      41.800  27.331  25.813  1.00  0.00     0.040 A 
ATOM     78  C   UNL A   1      40.372  25.667  26.809  1.00  0.00     0.040 A 
ATOM     79  F   UNL A   1      39.521  25.994  28.972  1.00  0.00    -0.206 F 
ATOM     80  C   UNL A   1      41.130  26.112  25.727  1.00  0.00     0.006 A 
ENDBRANCH  52  73
BRANCH  64  81
ATOM     81  C   UNL A   1      44.233  27.706  34.185  1.00  0.00     0.057 A 
ATOM     82  C   UNL A   1      45.588  28.048  34.090  1.00  0.00     0.134 A 
ATOM     83  C   UNL A   1      43.912  26.506  34.832  1.00  0.00     0.134 A 
ATOM     84  F   UNL A   1      45.962  29.178  33.471  1.00  0.00    -0.206 F 
ATOM     85  C   UNL A   1      46.588  27.208  34.582  1.00  0.00     0.040 A 
ATOM     86  C   UNL A   1      44.903  25.672  35.354  1.00  0.00     0.040 A 
ATOM     87  F   UNL A   1      42.634  26.124  34.967  1.00  0.00    -0.206 F 
ATOM     88  C   UNL A   1      46.245  26.018  35.221  1.00  0.00     0.006 A 
ENDBRANCH  64  81
ENDBRANCH  38  39
ENDBRANCH  30  33
ENDBRANCH  28  29
ENDBRANCH  27  28
ENDBRANCH  26  27
ENDBRANCH   1  26
TORSDOF 17
ENDMDL
MODEL 2
REMARK VINA RESULT:     -11.1      1.646      3.181
REMARK SMILES COc1ccc(-c2sc(N)nc2C(=O)NCCCCCCNC(=O)c2ccc(-c3c4nc(c(-c5c(F)cccc5F)c5ccc([nH]5)c(-c5c(F)cccc5F)c5nc(c(-c6c(F)cccc6F)c6ccc3[nH]6)C=C5)C=C4)cc2)cc1OC
REMARK SMILES IDX 18 1 17 2 16 3 15 4 13 5 14 6 12 8 7 9 8 10 9 11 11 12 6 13
REMARK SMILES IDX 3 14 4 15 80 16 5 17 79 18 2 19 1 20 81 21 82 22 10 23 19 26
REMARK SMILES IDX 20 27 21 28 22 29 23 30 24 32 25 33 26 34 78 35 27 36 77 37
REMARK SMILES IDX 28 38 29 39 30 40 71 41 31 42 76 43 70 44 72 45 32 46 75 47
REMARK SMILES IDX 69 48 68 49 33 51 59 52 42 53 58 54 43 55 46 56 57 57 73 58
REMARK SMILES IDX 44 59 45 60 56 62 74 63 47 64 34 65 35 66 40 67 36 68 37 69
REMARK SMILES IDX 39 70 41 71 38 72 60 73 61 74 66 75 62 76 63 77 65 78 67 79
REMARK SMILES IDX 64 80 48 81 49 82 54 83 50 84 51 85 53 86 55 87 52 88
REMARK H PARENT 15 7 10 24 10 25 22 31 72 50 46 61
REMARK Flexibility Score: inf
ROOT
ATOM      1  C   UNL A   1      32.512  29.955  26.080  1.00  0.00     0.002 C 
ENDROOT
BRANCH   1   2
ATOM      2  C   UNL A   1      32.332  28.911  27.189  1.00  0.00     0.021 C 
BRANCH   2   3
ATOM      3  C   UNL A   1      32.379  27.454  26.730  1.00  0.00     0.116 C 
BRANCH   3   4
ATOM      4  N   UNL A   1      31.080  26.815  26.821  1.00  0.00    -0.351 N 
ATOM      5  C   UNL A   1      30.440  25.923  25.998  1.00  0.00     0.271 C 
ATOM      6  O   UNL A   1      29.313  25.568  26.360  1.00  0.00    -0.267 OA
ATOM      7  H   UNL A   1      30.563  27.068  27.619  1.00  0.00     0.163 HD
BRANCH   5   8
ATOM      8  C   UNL A   1      31.065  25.420  24.763  1.00  0.00     0.149 A 
ATOM      9  C   UNL A   1      31.043  26.101  23.548  1.00  0.00     0.069 A 
ATOM     10  S   UNL A   1      31.837  25.177  22.338  1.00  0.00    -0.096 S 
ATOM     11  C   UNL A   1      32.185  23.968  23.495  1.00  0.00     0.181 A 
ATOM     12  N   UNL A   1      31.712  24.184  24.692  1.00  0.00    -0.215 NA
BRANCH   9  13
ATOM     13  C   UNL A   1      30.524  27.429  23.221  1.00  0.00    -0.002 A 
ATOM     14  C   UNL A   1      29.419  29.878  22.398  1.00  0.00     0.160 A 
ATOM     15  C   UNL A   1      30.803  29.662  22.327  1.00  0.00     0.051 A 
ATOM     16  C   UNL A   1      28.577  28.874  22.895  1.00  0.00     0.161 A 
ATOM     17  C   UNL A   1      31.355  28.446  22.743  1.00  0.00     0.014 A 
ATOM     18  C   UNL A   1      29.144  27.663  23.308  1.00  0.00     0.060 A 
BRANCH  14  19
ATOM     19  O   UNL A   1      28.907  31.023  21.853  1.00  0.00    -0.493 OA
ATOM     20  C   UNL A   1      28.718  32.050  22.823  1.00  0.00     0.278 C 
ENDBRANCH  14  19
BRANCH  16  21
ATOM     21  O   UNL A   1      27.215  28.883  23.017  1.00  0.00    -0.493 OA
ATOM     22  C   UNL A   1      26.597  27.845  23.760  1.00  0.00     0.278 C 
ENDBRANCH  16  21
ENDBRANCH   9  13
BRANCH  11  23
ATOM     23  N   UNL A   1      32.900  22.881  23.189  1.00  0.00    -0.375 N 
ATOM     24  H   UNL A   1      33.008  22.612  22.249  1.00  0.00     0.159 HD
ATOM     25  H   UNL A   1      33.320  22.351  23.904  1.00  0.00     0.159 HD
ENDBRANCH  11  23
ENDBRANCH   5   8
ENDBRANCH   3   4
ENDBRANCH   2   3
ENDBRANCH   1   2
BRANCH   1  26
ATOM     26  C   UNL A   1      31.277  30.800  25.755  1.00  0.00     0.002 C 
BRANCH  26  27
ATOM     27  C   UNL A   1      31.164  32.127  26.510  1.00  0.00     0.021 C 
BRANCH  27  28
ATOM     28  C   UNL A   1      32.472  32.672  27.074  1.00  0.00     0.116 C 
BRANCH  28  29
ATOM     29  N   UNL A   1      32.342  34.029  27.575  1.00  0.00    -0.352 N 
ATOM     30  C   UNL A   1      33.074  34.684  28.533  1.00  0.00     0.251 C 
ATOM     31  H   UNL A   1      31.619  34.559  27.166  1.00  0.00     0.163 HD
ATOM     32  O   UNL A   1      32.710  35.789  28.928  1.00  0.00    -0.269 OA
BRANCH  30  33
ATOM     33  C   UNL A   1      34.287  34.064  29.113  1.00  0.00     0.039 A 
ATOM     34  C   UNL A   1      34.126  33.096  30.110  1.00  0.00     0.014 A 
ATOM     35  C   UNL A   1      35.572  34.446  28.717  1.00  0.00     0.014 A 
ATOM     36  C   UNL A   1      35.248  32.484  30.674  1.00  0.00     0.010 A 
ATOM     37  C   UNL A   1      36.688  33.785  29.230  1.00  0.00     0.010 A 
ATOM     38  C   UNL A   1      36.538  32.804  30.220  1.00  0.00    -0.014 A 
BRANCH  38  39
ATOM     39  C   UNL A   1      37.727  32.111  30.784  1.00  0.00     0.031 A 
ATOM     40  C   UNL A   1      38.238  32.456  32.155  1.00  0.00     0.074 A 
ATOM     41  C   UNL A   1      38.358  31.177  30.047  1.00  0.00     0.049 A 
ATOM     42  N   UNL A   1      39.238  31.931  32.820  1.00  0.00    -0.248 NA
ATOM     43  C   UNL A   1      37.554  33.546  32.867  1.00  0.00     0.031 C 
ATOM     44  C   UNL A   1      37.999  30.791  28.681  1.00  0.00     0.029 A 
ATOM     45  N   UNL A   1      39.431  30.374  30.345  1.00  0.00    -0.354 N 
ATOM     46  C   UNL A   1      39.301  32.626  34.022  1.00  0.00     0.074 A 
ATOM     47  C   UNL A   1      38.279  33.649  33.971  1.00  0.00     0.031 C 
ATOM     48  C   UNL A   1      38.809  29.800  28.275  1.00  0.00     0.029 A 
ATOM     49  C   UNL A   1      39.758  29.497  29.340  1.00  0.00     0.049 A 
ATOM     50  H   UNL A   1      39.918  30.422  31.200  1.00  0.00     0.167 HD
ATOM     51  C   UNL A   1      40.116  32.414  35.084  1.00  0.00     0.037 A 
ATOM     52  C   UNL A   1      40.710  28.546  29.288  1.00  0.00     0.037 A 
ATOM     53  C   UNL A   1      41.122  31.385  35.143  1.00  0.00     0.049 A 
ATOM     54  C   UNL A   1      41.590  28.321  30.486  1.00  0.00     0.074 A 
ATOM     55  C   UNL A   1      41.970  31.065  36.189  1.00  0.00     0.029 A 
ATOM     56  N   UNL A   1      41.413  30.506  34.111  1.00  0.00    -0.354 N 
ATOM     57  N   UNL A   1      41.591  28.941  31.641  1.00  0.00    -0.248 NA
ATOM     58  C   UNL A   1      42.591  27.251  30.377  1.00  0.00     0.031 C 
ATOM     59  C   UNL A   1      42.798  30.014  35.777  1.00  0.00     0.029 A 
ATOM     60  C   UNL A   1      42.435  29.650  34.490  1.00  0.00     0.049 A 
ATOM     61  H   UNL A   1      40.960  30.492  33.236  1.00  0.00     0.167 HD
ATOM     62  C   UNL A   1      42.570  28.318  32.405  1.00  0.00     0.074 A 
ATOM     63  C   UNL A   1      43.125  27.258  31.589  1.00  0.00     0.031 C 
ATOM     64  C   UNL A   1      42.974  28.598  33.669  1.00  0.00     0.037 A 
BRANCH  51  65
ATOM     65  C   UNL A   1      39.941  33.307  36.278  1.00  0.00     0.057 A 
ATOM     66  C   UNL A   1      40.653  34.507  36.409  1.00  0.00     0.134 A 
ATOM     67  C   UNL A   1      39.029  32.986  37.291  1.00  0.00     0.134 A 
ATOM     68  F   UNL A   1      41.552  34.868  35.479  1.00  0.00    -0.206 F 
ATOM     69  C   UNL A   1      40.480  35.344  37.512  1.00  0.00     0.040 A 
ATOM     70  C   UNL A   1      38.828  33.828  38.386  1.00  0.00     0.040 A 
ATOM     71  F   UNL A   1      38.310  31.854  37.228  1.00  0.00    -0.206 F 
ATOM     72  C   UNL A   1      39.559  35.008  38.502  1.00  0.00     0.006 A 
ENDBRANCH  51  65
BRANCH  52  73
ATOM     73  C   UNL A   1      40.855  27.699  28.077  1.00  0.00     0.057 A 
ATOM     74  C   UNL A   1      41.636  28.118  26.994  1.00  0.00     0.134 A 
ATOM     75  C   UNL A   1      40.202  26.467  27.963  1.00  0.00     0.134 A 
ATOM     76  F   UNL A   1      42.272  29.300  27.037  1.00  0.00    -0.206 F 
ATOM     77  C   UNL A   1      41.741  27.358  25.829  1.00  0.00     0.040 A 
ATOM     78  C   UNL A   1      40.319  25.683  26.814  1.00  0.00     0.040 A 
ATOM     79  F   UNL A   1      39.445  26.005  28.970  1.00  0.00    -0.206 F 
ATOM     80  C   UNL A   1      41.082  26.132  25.739  1.00  0.00     0.006 A 
ENDBRANCH  52  73
BRANCH  64  81
ATOM     81  C   UNL A   1      44.042  27.718  34.250  1.00  0.00     0.057 A 
ATOM     82  C   UNL A   1      45.399  28.057  34.182  1.00  0.00     0.134 A 
ATOM     83  C   UNL A   1      43.705  26.517  34.888  1.00  0.00     0.134 A 
ATOM     84  F   UNL A   1      45.788  29.187  33.572  1.00  0.00    -0.206 F 
ATOM     85  C   UNL A   1      46.387  27.213  34.692  1.00  0.00     0.040 A 
ATOM     86  C   UNL A   1      44.683  25.680  35.428  1.00  0.00     0.040 A 
ATOM     87  F   UNL A   1      42.423  26.139  34.998  1.00  0.00    -0.206 F 
ATOM     88  C   UNL A   1      46.028  26.023  35.322  1.00  0.00     0.006 A 
ENDBRANCH  64  81
ENDBRANCH  38  39
ENDBRANCH  30  33
ENDBRANCH  28  29
ENDBRANCH  27  28
ENDBRANCH  26  27
ENDBRANCH   1  26
TORSDOF 17
ENDMDL
MODEL 3
REMARK VINA RESULT:     -10.9      4.250      9.221
REMARK SMILES COc1ccc(-c2sc(N)nc2C(=O)NCCCCCCNC(=O)c2ccc(-c3c4nc(c(-c5c(F)cccc5F)c5ccc([nH]5)c(-c5c(F)cccc5F)c5nc(c(-c6c(F)cccc6F)c6ccc3[nH]6)C=C5)C=C4)cc2)cc1OC
REMARK SMILES IDX 18 1 17 2 16 3 15 4 13 5 14 6 12 8 7 9 8 10 9 11 11 12 6 13
REMARK SMILES IDX 3 14 4 15 80 16 5 17 79 18 2 19 1 20 81 21 82 22 10 23 19 26
REMARK SMILES IDX 20 27 21 28 22 29 23 30 24 32 25 33 26 34 78 35 27 36 77 37
REMARK SMILES IDX 28 38 29 39 30 40 71 41 31 42 76 43 70 44 72 45 32 46 75 47
REMARK SMILES IDX 69 48 68 49 33 51 59 52 42 53 58 54 43 55 46 56 57 57 73 58
REMARK SMILES IDX 44 59 45 60 56 62 74 63 47 64 34 65 35 66 40 67 36 68 37 69
REMARK SMILES IDX 39 70 41 71 38 72 60 73 61 74 66 75 62 76 63 77 65 78 67 79
REMARK SMILES IDX 64 80 48 81 49 82 54 83 50 84 51 85 53 86 55 87 52 88
REMARK H PARENT 15 7 10 24 10 25 22 31 72 50 46 61
REMARK Flexibility Score: inf
ROOT
ATOM      1  C   UNL A   1      36.577  21.984  25.272  1.00  0.00     0.002 C 
ENDROOT
BRANCH   1   2
ATOM      2  C   UNL A   1      35.468  22.640  26.102  1.00  0.00     0.021 C 
BRANCH   2   3
ATOM      3  C   UNL A   1      34.450  21.678  26.713  1.00  0.00     0.116 C 
BRANCH   3   4
ATOM      4  N   UNL A   1      33.297  22.375  27.246  1.00  0.00    -0.351 N 
ATOM      5  C   UNL A   1      32.277  23.059  26.634  1.00  0.00     0.271 C 
ATOM      6  O   UNL A   1      31.432  23.557  27.387  1.00  0.00    -0.267 OA
ATOM      7  H   UNL A   1      33.234  22.355  28.228  1.00  0.00     0.163 HD
BRANCH   5   8
ATOM      8  C   UNL A   1      32.197  23.185  25.169  1.00  0.00     0.149 A 
ATOM      9  C   UNL A   1      32.263  24.399  24.489  1.00  0.00     0.069 A 
ATOM     10  S   UNL A   1      32.090  24.141  22.800  1.00  0.00    -0.096 S 
ATOM     11  C   UNL A   1      31.977  22.457  23.073  1.00  0.00     0.181 A 
ATOM     12  N   UNL A   1      32.009  22.088  24.325  1.00  0.00    -0.215 NA
BRANCH   9  13
ATOM     13  C   UNL A   1      32.507  25.750  24.994  1.00  0.00    -0.002 A 
ATOM     14  C   UNL A   1      33.027  28.410  25.734  1.00  0.00     0.160 A 
ATOM     15  C   UNL A   1      33.892  27.379  26.131  1.00  0.00     0.051 A 
ATOM     16  C   UNL A   1      31.888  28.117  24.974  1.00  0.00     0.161 A 
ATOM     17  C   UNL A   1      33.629  26.053  25.769  1.00  0.00     0.014 A 
ATOM     18  C   UNL A   1      31.639  26.786  24.620  1.00  0.00     0.060 A 
BRANCH  14  19
ATOM     19  O   UNL A   1      33.393  29.704  25.989  1.00  0.00    -0.493 OA
ATOM     20  C   UNL A   1      32.723  30.245  27.124  1.00  0.00     0.278 C 
ENDBRANCH  14  19
BRANCH  16  21
ATOM     21  O   UNL A   1      30.949  28.976  24.473  1.00  0.00    -0.493 OA
ATOM     22  C   UNL A   1      30.060  28.498  23.477  1.00  0.00     0.278 C 
ENDBRANCH  16  21
ENDBRANCH   9  13
BRANCH  11  23
ATOM     23  N   UNL A   1      31.869  21.583  22.068  1.00  0.00    -0.375 N 
ATOM     24  H   UNL A   1      31.456  20.704  22.222  1.00  0.00     0.159 HD
ATOM     25  H   UNL A   1      32.203  21.820  21.172  1.00  0.00     0.159 HD
ENDBRANCH  11  23
ENDBRANCH   5   8
ENDBRANCH   3   4
ENDBRANCH   2   3
ENDBRANCH   1   2
BRANCH   1  26
ATOM     26  C   UNL A   1      36.387  20.496  24.964  1.00  0.00     0.002 C 
BRANCH  26  27
ATOM     27  C   UNL A   1      37.665  19.655  24.936  1.00  0.00     0.021 C 
BRANCH  27  28
ATOM     28  C   UNL A   1      38.811  20.178  25.797  1.00  0.00     0.116 C 
BRANCH  28  29
ATOM     29  N   UNL A   1      39.992  19.335  25.727  1.00  0.00    -0.352 N 
ATOM     30  C   UNL A   1      41.301  19.636  26.005  1.00  0.00     0.251 C 
ATOM     31  H   UNL A   1      39.828  18.408  25.438  1.00  0.00     0.163 HD
ATOM     32  O   UNL A   1      42.183  18.823  25.739  1.00  0.00    -0.269 OA
BRANCH  30  33
ATOM     33  C   UNL A   1      41.668  20.941  26.601  1.00  0.00     0.039 A 
ATOM     34  C   UNL A   1      42.038  21.982  25.746  1.00  0.00     0.014 A 
ATOM     35  C   UNL A   1      41.685  21.140  27.986  1.00  0.00     0.014 A 
ATOM     36  C   UNL A   1      42.381  23.229  26.273  1.00  0.00     0.010 A 
ATOM     37  C   UNL A   1      41.959  22.404  28.507  1.00  0.00     0.010 A 
ATOM     38  C   UNL A   1      42.320  23.459  27.657  1.00  0.00    -0.014 A 
BRANCH  38  39
ATOM     39  C   UNL A   1      42.633  24.803  28.211  1.00  0.00     0.031 A 
ATOM     40  C   UNL A   1      44.047  25.182  28.554  1.00  0.00     0.074 A 
ATOM     41  C   UNL A   1      41.632  25.680  28.421  1.00  0.00     0.049 A 
ATOM     42  N   UNL A   1      44.510  26.319  29.012  1.00  0.00    -0.248 NA
ATOM     43  C   UNL A   1      45.075  24.145  28.382  1.00  0.00     0.031 C 
ATOM     44  C   UNL A   1      40.212  25.417  28.185  1.00  0.00     0.029 A 
ATOM     45  N   UNL A   1      41.658  26.976  28.873  1.00  0.00    -0.354 N 
ATOM     46  C   UNL A   1      45.876  26.132  29.183  1.00  0.00     0.074 A 
ATOM     47  C   UNL A   1      46.159  24.756  28.837  1.00  0.00     0.031 C 
ATOM     48  C   UNL A   1      39.506  26.527  28.455  1.00  0.00     0.029 A 
ATOM     49  C   UNL A   1      40.420  27.572  28.905  1.00  0.00     0.049 A 
ATOM     50  H   UNL A   1      42.484  27.436  29.146  1.00  0.00     0.167 HD
ATOM     51  C   UNL A   1      46.815  27.032  29.564  1.00  0.00     0.037 A 
ATOM     52  C   UNL A   1      40.063  28.824  29.248  1.00  0.00     0.037 A 
ATOM     53  C   UNL A   1      46.538  28.406  29.893  1.00  0.00     0.049 A 
ATOM     54  C   UNL A   1      41.127  29.806  29.652  1.00  0.00     0.074 A 
ATOM     55  C   UNL A   1      47.425  29.405  30.253  1.00  0.00     0.029 A 
ATOM     56  N   UNL A   1      45.273  28.975  29.899  1.00  0.00    -0.354 N 
ATOM     57  N   UNL A   1      42.423  29.633  29.742  1.00  0.00    -0.248 NA
ATOM     58  C   UNL A   1      40.677  31.164  29.988  1.00  0.00     0.031 C 
ATOM     59  C   UNL A   1      46.695  30.570  30.509  1.00  0.00     0.029 A 
ATOM     60  C   UNL A   1      45.356  30.309  30.265  1.00  0.00     0.049 A 
ATOM     61  H   UNL A   1      44.439  28.502  29.675  1.00  0.00     0.167 HD
ATOM     62  C   UNL A   1      42.946  30.865  30.114  1.00  0.00     0.074 A 
ATOM     63  C   UNL A   1      41.827  31.781  30.212  1.00  0.00     0.031 C 
ATOM     64  C   UNL A   1      44.236  31.209  30.355  1.00  0.00     0.037 A 
BRANCH  51  65
ATOM     65  C   UNL A   1      48.239  26.557  29.633  1.00  0.00     0.057 A 
ATOM     66  C   UNL A   1      48.734  25.882  30.757  1.00  0.00     0.134 A 
ATOM     67  C   UNL A   1      49.113  26.744  28.556  1.00  0.00     0.134 A 
ATOM     68  F   UNL A   1      47.952  25.681  31.829  1.00  0.00    -0.206 F 
ATOM     69  C   UNL A   1      50.053  25.429  30.815  1.00  0.00     0.040 A 
ATOM     70  C   UNL A   1      50.427  26.272  28.592  1.00  0.00     0.040 A 
ATOM     71  F   UNL A   1      48.703  27.378  27.446  1.00  0.00    -0.206 F 
ATOM     72  C   UNL A   1      50.902  25.618  29.727  1.00  0.00     0.006 A 
ENDBRANCH  51  65
BRANCH  52  73
ATOM     73  C   UNL A   1      38.640  29.241  29.180  1.00  0.00     0.057 A 
ATOM     74  C   UNL A   1      38.080  29.703  27.983  1.00  0.00     0.134 A 
ATOM     75  C   UNL A   1      37.813  29.209  30.308  1.00  0.00     0.134 A 
ATOM     76  F   UNL A   1      38.829  29.775  26.872  1.00  0.00    -0.206 F 
ATOM     77  C   UNL A   1      36.759  30.146  27.915  1.00  0.00     0.040 A 
ATOM     78  C   UNL A   1      36.481  29.623  30.249  1.00  0.00     0.040 A 
ATOM     79  F   UNL A   1      38.286  28.767  31.483  1.00  0.00    -0.206 F 
ATOM     80  C   UNL A   1      35.954  30.103  29.052  1.00  0.00     0.006 A 
ENDBRANCH  52  73
BRANCH  64  81
ATOM     81  C   UNL A   1      44.500  32.642  30.710  1.00  0.00     0.057 A 
ATOM     82  C   UNL A   1      44.520  33.085  32.039  1.00  0.00     0.134 A 
ATOM     83  C   UNL A   1      44.741  33.591  29.708  1.00  0.00     0.134 A 
ATOM     84  F   UNL A   1      44.283  32.229  33.044  1.00  0.00    -0.206 F 
ATOM     85  C   UNL A   1      44.729  34.428  32.357  1.00  0.00     0.040 A 
ATOM     86  C   UNL A   1      44.982  34.932  30.016  1.00  0.00     0.040 A 
ATOM     87  F   UNL A   1      44.748  33.232  28.416  1.00  0.00    -0.206 F 
ATOM     88  C   UNL A   1      44.966  35.354  31.342  1.00  0.00     0.006 A 
ENDBRANCH  64  81
ENDBRANCH  38  39
ENDBRANCH  30  33
ENDBRANCH  28  29
ENDBRANCH  27  28
ENDBRANCH  26  27
ENDBRANCH   1  26
TORSDOF 17
ENDMDL
