MODEL 1
REMARK VINA RESULT:     -12.0      0.000      0.000
REMARK SMILES Cc1nc(CC(=O)N2Cc3nc[nH]c3C[C@H]2C(=O)NCCCCCCNC(=O)c2ccc(-c3c4nc(c(-c5c(F)cccc5F)c5ccc([nH]5)c(-c5c(F)cccc5F)c5nc(c(-c6c(F)cccc6F)c6ccc3[nH]6)C=C5)C=C4)cc2)cs1
REMARK SMILES IDX 22 1 21 2 20 3 19 4 17 5 18 6 16 8 8 9 9 10 10 11 15 12
REMARK SMILES IDX 11 13 14 14 12 15 13 16 6 18 7 19 5 20 4 21 1 22 2 23 3 24
REMARK SMILES IDX 84 25 83 26 23 27 24 28 25 29 26 30 27 31 28 33 29 34 30 35
REMARK SMILES IDX 82 36 31 37 81 38 32 39 33 40 34 41 75 42 35 43 80 44 74 45
REMARK SMILES IDX 76 46 36 47 79 48 73 49 72 50 37 52 63 53 46 54 62 55 47 56
REMARK SMILES IDX 50 57 61 58 77 59 48 60 49 61 60 63 78 64 51 65 38 66 39 67
REMARK SMILES IDX 44 68 40 69 41 70 43 71 45 72 42 73 64 74 65 75 70 76 66 77
REMARK SMILES IDX 67 78 69 79 71 80 68 81 52 82 53 83 58 84 54 85 55 86 57 87
REMARK SMILES IDX 59 88 56 89
REMARK H PARENT 19 7 13 17 26 32 76 51 50 62
REMARK Flexibility Score: inf
ROOT
ATOM      1  C   UNL A   1      39.080  21.739  26.032  1.00  0.00     0.002 C 
ENDROOT
BRANCH   1   2
ATOM      2  C   UNL A   1      38.673  23.206  26.191  1.00  0.00     0.021 C 
BRANCH   2   3
ATOM      3  C   UNL A   1      37.262  23.508  25.692  1.00  0.00     0.116 C 
BRANCH   3   4
ATOM      4  N   UNL A   1      36.247  23.168  26.658  1.00  0.00    -0.354 N 
ATOM      5  C   UNL A   1      34.894  23.244  26.639  1.00  0.00     0.243 C 
ATOM      6  O   UNL A   1      34.338  22.771  27.640  1.00  0.00    -0.273 OA
ATOM      7  H   UNL A   1      36.608  22.808  27.500  1.00  0.00     0.163 HD
BRANCH   5   8
ATOM      8  C   UNL A   1      34.040  23.892  25.517  1.00  0.00     0.180 C 
ATOM      9  N   UNL A   1      32.606  23.455  25.421  1.00  0.00    -0.324 N 
ATOM     10  C   UNL A   1      31.594  24.196  26.209  1.00  0.00     0.178 C 
ATOM     11  C   UNL A   1      31.937  25.644  26.281  1.00  0.00     0.081 A 
ATOM     12  C   UNL A   1      34.254  25.415  25.282  1.00  0.00     0.091 C 
ATOM     13  N   UNL A   1      31.208  26.587  26.958  1.00  0.00    -0.240 NA
ATOM     14  C   UNL A   1      33.128  26.183  25.856  1.00  0.00     0.042 A 
ATOM     15  C   UNL A   1      31.921  27.691  26.888  1.00  0.00     0.197 A 
ATOM     16  N   UNL A   1      33.088  27.503  26.195  1.00  0.00    -0.348 N 
ATOM     17  H   UNL A   1      33.766  28.186  25.985  1.00  0.00     0.167 HD
BRANCH   9  18
ATOM     18  C   UNL A   1      32.129  22.403  24.643  1.00  0.00     0.229 C 
ATOM     19  O   UNL A   1      31.898  22.565  23.437  1.00  0.00    -0.274 OA
BRANCH  18  20
ATOM     20  C   UNL A   1      31.750  21.066  25.259  1.00  0.00     0.157 C 
BRANCH  20  21
ATOM     21  C   UNL A   1      32.669  19.927  24.991  1.00  0.00     0.061 A 
ATOM     22  C   UNL A   1      32.809  16.288  25.208  1.00  0.00     0.079 C 
ATOM     23  C   UNL A   1      33.057  17.739  24.998  1.00  0.00     0.090 A 
ATOM     24  N   UNL A   1      32.131  18.658  25.125  1.00  0.00    -0.246 NA
ATOM     25  S   UNL A   1      34.621  18.335  24.616  1.00  0.00    -0.127 S 
ATOM     26  C   UNL A   1      34.011  19.943  24.661  1.00  0.00     0.091 A 
ENDBRANCH  20  21
ENDBRANCH  18  20
ENDBRANCH   9  18
ENDBRANCH   5   8
ENDBRANCH   3   4
ENDBRANCH   2   3
ENDBRANCH   1   2
BRANCH   1  27
ATOM     27  C   UNL A   1      40.401  21.329  26.703  1.00  0.00     0.002 C 
BRANCH  27  28
ATOM     28  C   UNL A   1      40.989  19.971  26.296  1.00  0.00     0.021 C 
BRANCH  28  29
ATOM     29  C   UNL A   1      42.366  19.683  26.882  1.00  0.00     0.116 C 
BRANCH  29  30
ATOM     30  N   UNL A   1      43.371  19.488  25.839  1.00  0.00    -0.352 N 
ATOM     31  C   UNL A   1      44.067  20.421  25.107  1.00  0.00     0.251 C 
ATOM     32  H   UNL A   1      43.581  18.550  25.630  1.00  0.00     0.163 HD
ATOM     33  O   UNL A   1      44.666  20.092  24.091  1.00  0.00    -0.269 OA
BRANCH  31  34
ATOM     34  C   UNL A   1      44.059  21.830  25.535  1.00  0.00     0.039 A 
ATOM     35  C   UNL A   1      43.156  22.723  24.953  1.00  0.00     0.014 A 
ATOM     36  C   UNL A   1      44.927  22.253  26.540  1.00  0.00     0.014 A 
ATOM     37  C   UNL A   1      43.064  24.019  25.458  1.00  0.00     0.010 A 
ATOM     38  C   UNL A   1      44.758  23.499  27.110  1.00  0.00     0.010 A 
ATOM     39  C   UNL A   1      43.844  24.399  26.562  1.00  0.00    -0.014 A 
BRANCH  39  40
ATOM     40  C   UNL A   1      43.601  25.698  27.200  1.00  0.00     0.031 A 
ATOM     41  C   UNL A   1      44.572  26.778  26.858  1.00  0.00     0.074 A 
ATOM     42  C   UNL A   1      42.481  26.021  27.883  1.00  0.00     0.049 A 
ATOM     43  N   UNL A   1      45.355  27.427  27.656  1.00  0.00    -0.248 NA
ATOM     44  C   UNL A   1      44.731  27.143  25.441  1.00  0.00     0.031 C 
ATOM     45  C   UNL A   1      41.263  25.217  28.025  1.00  0.00     0.029 A 
ATOM     46  N   UNL A   1      42.149  27.195  28.504  1.00  0.00    -0.354 N 
ATOM     47  C   UNL A   1      45.968  28.412  26.881  1.00  0.00     0.074 A 
ATOM     48  C   UNL A   1      45.658  28.101  25.511  1.00  0.00     0.031 C 
ATOM     49  C   UNL A   1      40.257  26.000  28.468  1.00  0.00     0.029 A 
ATOM     50  C   UNL A   1      40.804  27.297  28.823  1.00  0.00     0.049 A 
ATOM     51  H   UNL A   1      42.805  27.901  28.705  1.00  0.00     0.167 HD
ATOM     52  C   UNL A   1      46.470  29.543  27.451  1.00  0.00     0.037 A 
ATOM     53  C   UNL A   1      40.153  28.358  29.351  1.00  0.00     0.037 A 
ATOM     54  C   UNL A   1      46.570  29.410  28.881  1.00  0.00     0.049 A 
ATOM     55  C   UNL A   1      41.130  29.213  30.054  1.00  0.00     0.074 A 
ATOM     56  C   UNL A   1      47.432  28.852  29.795  1.00  0.00     0.029 A 
ATOM     57  N   UNL A   1      45.415  29.718  29.541  1.00  0.00    -0.354 N 
ATOM     58  N   UNL A   1      41.775  28.848  31.128  1.00  0.00    -0.248 NA
ATOM     59  C   UNL A   1      41.615  30.435  29.420  1.00  0.00     0.031 C 
ATOM     60  C   UNL A   1      46.688  28.696  31.005  1.00  0.00     0.029 A 
ATOM     61  C   UNL A   1      45.396  29.168  30.793  1.00  0.00     0.049 A 
ATOM     62  H   UNL A   1      44.689  30.267  29.164  1.00  0.00     0.167 HD
ATOM     63  C   UNL A   1      42.971  29.529  31.051  1.00  0.00     0.074 A 
ATOM     64  C   UNL A   1      42.740  30.618  30.114  1.00  0.00     0.031 C 
ATOM     65  C   UNL A   1      44.134  28.951  31.463  1.00  0.00     0.037 A 
BRANCH  52  66
ATOM     66  C   UNL A   1      46.440  30.928  26.833  1.00  0.00     0.057 A 
ATOM     67  C   UNL A   1      47.618  31.704  26.841  1.00  0.00     0.134 A 
ATOM     68  C   UNL A   1      45.262  31.645  26.548  1.00  0.00     0.134 A 
ATOM     69  F   UNL A   1      48.810  31.147  27.105  1.00  0.00    -0.206 F 
ATOM     70  C   UNL A   1      47.610  33.095  26.663  1.00  0.00     0.040 A 
ATOM     71  C   UNL A   1      45.249  33.026  26.318  1.00  0.00     0.040 A 
ATOM     72  F   UNL A   1      44.052  31.074  26.578  1.00  0.00    -0.206 F 
ATOM     73  C   UNL A   1      46.420  33.762  26.409  1.00  0.00     0.006 A 
ENDBRANCH  52  66
BRANCH  53  74
ATOM     74  C   UNL A   1      38.738  28.745  29.187  1.00  0.00     0.057 A 
ATOM     75  C   UNL A   1      37.852  28.742  30.271  1.00  0.00     0.134 A 
ATOM     76  C   UNL A   1      38.287  29.373  28.014  1.00  0.00     0.134 A 
ATOM     77  F   UNL A   1      38.207  28.191  31.441  1.00  0.00    -0.206 F 
ATOM     78  C   UNL A   1      36.597  29.357  30.204  1.00  0.00     0.040 A 
ATOM     79  C   UNL A   1      37.034  29.985  27.930  1.00  0.00     0.040 A 
ATOM     80  F   UNL A   1      39.083  29.485  26.941  1.00  0.00    -0.206 F 
ATOM     81  C   UNL A   1      36.190  29.992  29.035  1.00  0.00     0.006 A 
ENDBRANCH  53  74
BRANCH  65  82
ATOM     82  C   UNL A   1      44.049  27.882  32.503  1.00  0.00     0.057 A 
ATOM     83  C   UNL A   1      44.048  26.509  32.229  1.00  0.00     0.134 A 
ATOM     84  C   UNL A   1      44.029  28.266  33.849  1.00  0.00     0.134 A 
ATOM     85  F   UNL A   1      44.141  26.052  30.974  1.00  0.00    -0.206 F 
ATOM     86  C   UNL A   1      43.985  25.560  33.253  1.00  0.00     0.040 A 
ATOM     87  C   UNL A   1      43.998  27.328  34.881  1.00  0.00     0.040 A 
ATOM     88  F   UNL A   1      44.069  29.566  34.182  1.00  0.00    -0.206 F 
ATOM     89  C   UNL A   1      43.963  25.969  34.585  1.00  0.00     0.006 A 
ENDBRANCH  65  82
ENDBRANCH  39  40
ENDBRANCH  31  34
ENDBRANCH  29  30
ENDBRANCH  28  29
ENDBRANCH  27  28
ENDBRANCH   1  27
TORSDOF 16
ENDMDL
MODEL 2
REMARK VINA RESULT:     -11.9      1.856      3.387
REMARK SMILES Cc1nc(CC(=O)N2Cc3nc[nH]c3C[C@H]2C(=O)NCCCCCCNC(=O)c2ccc(-c3c4nc(c(-c5c(F)cccc5F)c5ccc([nH]5)c(-c5c(F)cccc5F)c5nc(c(-c6c(F)cccc6F)c6ccc3[nH]6)C=C5)C=C4)cc2)cs1
REMARK SMILES IDX 22 1 21 2 20 3 19 4 17 5 18 6 16 8 8 9 9 10 10 11 15 12
REMARK SMILES IDX 11 13 14 14 12 15 13 16 6 18 7 19 5 20 4 21 1 22 2 23 3 24
REMARK SMILES IDX 84 25 83 26 23 27 24 28 25 29 26 30 27 31 28 33 29 34 30 35
REMARK SMILES IDX 82 36 31 37 81 38 32 39 33 40 34 41 75 42 35 43 80 44 74 45
REMARK SMILES IDX 76 46 36 47 79 48 73 49 72 50 37 52 63 53 46 54 62 55 47 56
REMARK SMILES IDX 50 57 61 58 77 59 48 60 49 61 60 63 78 64 51 65 38 66 39 67
REMARK SMILES IDX 44 68 40 69 41 70 43 71 45 72 42 73 64 74 65 75 70 76 66 77
REMARK SMILES IDX 67 78 69 79 71 80 68 81 52 82 53 83 58 84 54 85 55 86 57 87
REMARK SMILES IDX 59 88 56 89
REMARK H PARENT 19 7 13 17 26 32 76 51 50 62
REMARK Flexibility Score: inf
ROOT
ATOM      1  C   UNL A   1      39.188  21.843  26.361  1.00  0.00     0.002 C 
ENDROOT
BRANCH   1   2
ATOM      2  C   UNL A   1      38.990  23.359  26.281  1.00  0.00     0.021 C 
BRANCH   2   3
ATOM      3  C   UNL A   1      37.590  23.771  25.832  1.00  0.00     0.116 C 
BRANCH   3   4
ATOM      4  N   UNL A   1      37.302  23.371  24.477  1.00  0.00    -0.354 N 
ATOM      5  C   UNL A   1      36.149  23.259  23.774  1.00  0.00     0.243 C 
ATOM      6  O   UNL A   1      36.300  22.963  22.581  1.00  0.00    -0.273 OA
ATOM      7  H   UNL A   1      38.104  23.134  23.957  1.00  0.00     0.163 HD
BRANCH   5   8
ATOM      8  C   UNL A   1      34.718  23.429  24.350  1.00  0.00     0.180 C 
ATOM      9  N   UNL A   1      33.588  23.444  23.361  1.00  0.00    -0.324 N 
ATOM     10  C   UNL A   1      32.964  22.152  22.992  1.00  0.00     0.178 C 
ATOM     11  C   UNL A   1      32.931  21.229  24.160  1.00  0.00     0.081 A 
ATOM     12  C   UNL A   1      34.405  22.644  25.657  1.00  0.00     0.091 C 
ATOM     13  N   UNL A   1      32.437  19.950  24.132  1.00  0.00    -0.240 NA
ATOM     14  C   UNL A   1      33.573  21.461  25.354  1.00  0.00     0.042 A 
ATOM     15  C   UNL A   1      32.722  19.443  25.313  1.00  0.00     0.197 A 
ATOM     16  N   UNL A   1      33.388  20.340  26.107  1.00  0.00    -0.348 N 
ATOM     17  H   UNL A   1      33.676  20.201  27.038  1.00  0.00     0.167 HD
BRANCH   9  18
ATOM     18  C   UNL A   1      33.059  24.578  22.751  1.00  0.00     0.229 C 
ATOM     19  O   UNL A   1      33.790  25.357  22.125  1.00  0.00    -0.274 OA
BRANCH  18  20
ATOM     20  C   UNL A   1      31.603  24.975  22.938  1.00  0.00     0.157 C 
BRANCH  20  21
ATOM     21  C   UNL A   1      31.347  26.376  23.371  1.00  0.00     0.061 A 
ATOM     22  C   UNL A   1      30.175  29.574  22.067  1.00  0.00     0.079 C 
ATOM     23  C   UNL A   1      30.676  28.437  22.883  1.00  0.00     0.090 A 
ATOM     24  N   UNL A   1      30.728  27.202  22.447  1.00  0.00    -0.246 NA
ATOM     25  S   UNL A   1      31.282  28.671  24.471  1.00  0.00    -0.127 S 
ATOM     26  C   UNL A   1      31.674  26.999  24.561  1.00  0.00     0.091 A 
ENDBRANCH  20  21
ENDBRANCH  18  20
ENDBRANCH   9  18
ENDBRANCH   5   8
ENDBRANCH   3   4
ENDBRANCH   2   3
ENDBRANCH   1   2
BRANCH   1  27
ATOM     27  C   UNL A   1      40.537  21.367  26.926  1.00  0.00     0.002 C 
BRANCH  27  28
ATOM     28  C   UNL A   1      41.126  20.086  26.320  1.00  0.00     0.021 C 
BRANCH  28  29
ATOM     29  C   UNL A   1      42.502  19.713  26.857  1.00  0.00     0.116 C 
BRANCH  29  30
ATOM     30  N   UNL A   1      43.477  19.537  25.783  1.00  0.00    -0.352 N 
ATOM     31  C   UNL A   1      44.140  20.483  25.037  1.00  0.00     0.251 C 
ATOM     32  H   UNL A   1      43.690  18.603  25.561  1.00  0.00     0.163 HD
ATOM     33  O   UNL A   1      44.711  20.168  24.001  1.00  0.00    -0.269 OA
BRANCH  31  34
ATOM     34  C   UNL A   1      44.129  21.889  25.476  1.00  0.00     0.039 A 
ATOM     35  C   UNL A   1      43.223  22.785  24.902  1.00  0.00     0.014 A 
ATOM     36  C   UNL A   1      44.996  22.306  26.484  1.00  0.00     0.014 A 
ATOM     37  C   UNL A   1      43.129  24.076  25.417  1.00  0.00     0.010 A 
ATOM     38  C   UNL A   1      44.826  23.547  27.064  1.00  0.00     0.010 A 
ATOM     39  C   UNL A   1      43.909  24.450  26.523  1.00  0.00    -0.014 A 
BRANCH  39  40
ATOM     40  C   UNL A   1      43.664  25.744  27.171  1.00  0.00     0.031 A 
ATOM     41  C   UNL A   1      44.622  26.832  26.824  1.00  0.00     0.074 A 
ATOM     42  C   UNL A   1      42.549  26.054  27.868  1.00  0.00     0.049 A 
ATOM     43  N   UNL A   1      45.410  27.482  27.617  1.00  0.00    -0.248 NA
ATOM     44  C   UNL A   1      44.763  27.206  25.408  1.00  0.00     0.031 C 
ATOM     45  C   UNL A   1      41.338  25.240  28.020  1.00  0.00     0.029 A 
ATOM     46  N   UNL A   1      42.215  27.222  28.499  1.00  0.00    -0.354 N 
ATOM     47  C   UNL A   1      46.006  28.476  26.840  1.00  0.00     0.074 A 
ATOM     48  C   UNL A   1      45.683  28.171  25.472  1.00  0.00     0.031 C 
ATOM     49  C   UNL A   1      40.332  26.013  28.478  1.00  0.00     0.029 A 
ATOM     50  C   UNL A   1      40.873  27.312  28.835  1.00  0.00     0.049 A 
ATOM     51  H   UNL A   1      42.868  27.932  28.697  1.00  0.00     0.167 HD
ATOM     52  C   UNL A   1      46.507  29.608  27.411  1.00  0.00     0.037 A 
ATOM     53  C   UNL A   1      40.221  28.366  29.376  1.00  0.00     0.037 A 
ATOM     54  C   UNL A   1      46.624  29.468  28.838  1.00  0.00     0.049 A 
ATOM     55  C   UNL A   1      41.200  29.224  30.073  1.00  0.00     0.074 A 
ATOM     56  C   UNL A   1      47.501  28.911  29.740  1.00  0.00     0.029 A 
ATOM     57  N   UNL A   1      45.474  29.764  29.514  1.00  0.00    -0.354 N 
ATOM     58  N   UNL A   1      41.860  28.857  31.137  1.00  0.00    -0.248 NA
ATOM     59  C   UNL A   1      41.668  30.453  29.440  1.00  0.00     0.031 C 
ATOM     60  C   UNL A   1      46.771  28.743  30.957  1.00  0.00     0.029 A 
ATOM     61  C   UNL A   1      45.474  29.206  30.762  1.00  0.00     0.049 A 
ATOM     62  H   UNL A   1      44.740  30.309  29.148  1.00  0.00     0.167 HD
ATOM     63  C   UNL A   1      43.050  29.548  31.050  1.00  0.00     0.074 A 
ATOM     64  C   UNL A   1      42.800  30.641  30.123  1.00  0.00     0.031 C 
ATOM     65  C   UNL A   1      44.222  28.977  31.446  1.00  0.00     0.037 A 
BRANCH  52  66
ATOM     66  C   UNL A   1      46.459  30.996  26.801  1.00  0.00     0.057 A 
ATOM     67  C   UNL A   1      47.629  31.785  26.809  1.00  0.00     0.134 A 
ATOM     68  C   UNL A   1      45.272  31.701  26.524  1.00  0.00     0.134 A 
ATOM     69  F   UNL A   1      48.828  31.240  27.066  1.00  0.00    -0.206 F 
ATOM     70  C   UNL A   1      47.605  33.176  26.639  1.00  0.00     0.040 A 
ATOM     71  C   UNL A   1      45.244  33.084  26.303  1.00  0.00     0.040 A 
ATOM     72  F   UNL A   1      44.069  31.117  26.555  1.00  0.00    -0.206 F 
ATOM     73  C   UNL A   1      46.407  33.832  26.394  1.00  0.00     0.006 A 
ENDBRANCH  52  66
BRANCH  53  74
ATOM     74  C   UNL A   1      38.801  28.743  29.231  1.00  0.00     0.057 A 
ATOM     75  C   UNL A   1      37.924  28.711  30.322  1.00  0.00     0.134 A 
ATOM     76  C   UNL A   1      38.335  29.388  28.073  1.00  0.00     0.134 A 
ATOM     77  F   UNL A   1      38.293  28.142  31.478  1.00  0.00    -0.206 F 
ATOM     78  C   UNL A   1      36.663  29.317  30.275  1.00  0.00     0.040 A 
ATOM     79  C   UNL A   1      37.076  29.990  28.010  1.00  0.00     0.040 A 
ATOM     80  F   UNL A   1      39.122  29.527  26.996  1.00  0.00    -0.206 F 
ATOM     81  C   UNL A   1      36.241  29.970  29.121  1.00  0.00     0.006 A 
ENDBRANCH  53  74
BRANCH  65  82
ATOM     82  C   UNL A   1      44.157  27.901  32.481  1.00  0.00     0.057 A 
ATOM     83  C   UNL A   1      44.079  26.532  32.197  1.00  0.00     0.134 A 
ATOM     84  C   UNL A   1      44.238  28.272  33.828  1.00  0.00     0.134 A 
ATOM     85  F   UNL A   1      44.072  26.085  30.935  1.00  0.00    -0.206 F 
ATOM     86  C   UNL A   1      44.040  25.576  33.215  1.00  0.00     0.040 A 
ATOM     87  C   UNL A   1      44.232  27.324  34.853  1.00  0.00     0.040 A 
ATOM     88  F   UNL A   1      44.356  29.565  34.168  1.00  0.00    -0.206 F 
ATOM     89  C   UNL A   1      44.120  25.972  34.549  1.00  0.00     0.006 A 
ENDBRANCH  65  82
ENDBRANCH  39  40
ENDBRANCH  31  34
ENDBRANCH  29  30
ENDBRANCH  28  29
ENDBRANCH  27  28
ENDBRANCH   1  27
TORSDOF 16
ENDMDL
MODEL 3
REMARK VINA RESULT:     -11.8      2.415      7.147
REMARK SMILES Cc1nc(CC(=O)N2Cc3nc[nH]c3C[C@H]2C(=O)NCCCCCCNC(=O)c2ccc(-c3c4nc(c(-c5c(F)cccc5F)c5ccc([nH]5)c(-c5c(F)cccc5F)c5nc(c(-c6c(F)cccc6F)c6ccc3[nH]6)C=C5)C=C4)cc2)cs1
REMARK SMILES IDX 22 1 21 2 20 3 19 4 17 5 18 6 16 8 8 9 9 10 10 11 15 12
REMARK SMILES IDX 11 13 14 14 12 15 13 16 6 18 7 19 5 20 4 21 1 22 2 23 3 24
REMARK SMILES IDX 84 25 83 26 23 27 24 28 25 29 26 30 27 31 28 33 29 34 30 35
REMARK SMILES IDX 82 36 31 37 81 38 32 39 33 40 34 41 75 42 35 43 80 44 74 45
REMARK SMILES IDX 76 46 36 47 79 48 73 49 72 50 37 52 63 53 46 54 62 55 47 56
REMARK SMILES IDX 50 57 61 58 77 59 48 60 49 61 60 63 78 64 51 65 38 66 39 67
REMARK SMILES IDX 44 68 40 69 41 70 43 71 45 72 42 73 64 74 65 75 70 76 66 77
REMARK SMILES IDX 67 78 69 79 71 80 68 81 52 82 53 83 58 84 54 85 55 86 57 87
REMARK SMILES IDX 59 88 56 89
REMARK H PARENT 19 7 13 17 26 32 76 51 50 62
REMARK Flexibility Score: inf
ROOT
ATOM      1  C   UNL A   1      33.643  27.060  25.148  1.00  0.00     0.002 C 
ENDROOT
BRANCH   1   2
ATOM      2  C   UNL A   1      33.220  26.745  23.711  1.00  0.00     0.021 C 
BRANCH   2   3
ATOM      3  C   UNL A   1      32.845  25.282  23.490  1.00  0.00     0.116 C 
BRANCH   3   4
ATOM      4  N   UNL A   1      33.912  24.519  22.890  1.00  0.00    -0.354 N 
ATOM      5  C   UNL A   1      34.735  23.554  23.366  1.00  0.00     0.243 C 
ATOM      6  O   UNL A   1      35.490  23.058  22.519  1.00  0.00    -0.273 OA
ATOM      7  H   UNL A   1      34.075  24.744  21.946  1.00  0.00     0.163 HD
BRANCH   5   8
ATOM      8  C   UNL A   1      34.817  23.081  24.842  1.00  0.00     0.180 C 
ATOM      9  N   UNL A   1      34.893  21.599  25.074  1.00  0.00    -0.324 N 
ATOM     10  C   UNL A   1      36.230  20.963  25.109  1.00  0.00     0.178 C 
ATOM     11  C   UNL A   1      37.232  21.875  25.727  1.00  0.00     0.081 A 
ATOM     12  C   UNL A   1      35.733  23.916  25.782  1.00  0.00     0.091 C 
ATOM     13  N   UNL A   1      38.563  21.584  25.880  1.00  0.00    -0.240 NA
ATOM     14  C   UNL A   1      36.999  23.195  26.033  1.00  0.00     0.042 A 
ATOM     15  C   UNL A   1      39.110  22.694  26.331  1.00  0.00     0.197 A 
ATOM     16  N   UNL A   1      38.187  23.697  26.472  1.00  0.00    -0.348 N 
ATOM     17  H   UNL A   1      38.351  24.604  26.821  1.00  0.00     0.167 HD
BRANCH   9  18
ATOM     18  C   UNL A   1      33.805  20.752  25.269  1.00  0.00     0.229 C 
ATOM     19  O   UNL A   1      33.220  20.718  26.360  1.00  0.00    -0.274 OA
BRANCH  18  20
ATOM     20  C   UNL A   1      33.378  19.748  24.209  1.00  0.00     0.157 C 
BRANCH  20  21
ATOM     21  C   UNL A   1      33.701  18.321  24.478  1.00  0.00     0.061 A 
ATOM     22  C   UNL A   1      32.217  15.296  25.875  1.00  0.00     0.079 C 
ATOM     23  C   UNL A   1      33.082  16.332  25.254  1.00  0.00     0.090 A 
ATOM     24  N   UNL A   1      32.656  17.527  24.922  1.00  0.00    -0.246 NA
ATOM     25  S   UNL A   1      34.751  16.052  24.964  1.00  0.00    -0.127 S 
ATOM     26  C   UNL A   1      34.914  17.665  24.388  1.00  0.00     0.091 A 
ENDBRANCH  20  21
ENDBRANCH  18  20
ENDBRANCH   9  18
ENDBRANCH   5   8
ENDBRANCH   3   4
ENDBRANCH   2   3
ENDBRANCH   1   2
BRANCH   1  27
ATOM     27  C   UNL A   1      32.760  28.064  25.906  1.00  0.00     0.002 C 
BRANCH  27  28
ATOM     28  C   UNL A   1      33.264  28.527  27.281  1.00  0.00     0.021 C 
BRANCH  28  29
ATOM     29  C   UNL A   1      34.712  28.999  27.291  1.00  0.00     0.116 C 
BRANCH  29  30
ATOM     30  N   UNL A   1      34.924  30.086  28.245  1.00  0.00    -0.352 N 
ATOM     31  C   UNL A   1      36.006  30.344  29.054  1.00  0.00     0.251 C 
ATOM     32  H   UNL A   1      34.182  30.728  28.320  1.00  0.00     0.163 HD
ATOM     33  O   UNL A   1      35.910  31.133  29.985  1.00  0.00    -0.269 OA
BRANCH  31  34
ATOM     34  C   UNL A   1      37.275  29.638  28.813  1.00  0.00     0.039 A 
ATOM     35  C   UNL A   1      38.022  29.932  27.669  1.00  0.00     0.014 A 
ATOM     36  C   UNL A   1      37.739  28.710  29.743  1.00  0.00     0.014 A 
ATOM     37  C   UNL A   1      39.283  29.359  27.517  1.00  0.00     0.010 A 
ATOM     38  C   UNL A   1      39.029  28.229  29.646  1.00  0.00     0.010 A 
ATOM     39  C   UNL A   1      39.803  28.530  28.524  1.00  0.00    -0.014 A 
BRANCH  39  40
ATOM     40  C   UNL A   1      41.201  28.089  28.441  1.00  0.00     0.031 A 
ATOM     41  C   UNL A   1      41.434  26.820  27.692  1.00  0.00     0.074 A 
ATOM     42  C   UNL A   1      42.265  28.837  28.804  1.00  0.00     0.049 A 
ATOM     43  N   UNL A   1      41.943  25.717  28.133  1.00  0.00    -0.248 NA
ATOM     44  C   UNL A   1      40.994  26.753  26.289  1.00  0.00     0.031 C 
ATOM     45  C   UNL A   1      42.264  30.241  29.228  1.00  0.00     0.029 A 
ATOM     46  N   UNL A   1      43.599  28.531  28.759  1.00  0.00    -0.354 N 
ATOM     47  C   UNL A   1      42.067  24.878  27.026  1.00  0.00     0.074 A 
ATOM     48  C   UNL A   1      41.341  25.508  25.955  1.00  0.00     0.031 C 
ATOM     49  C   UNL A   1      43.520  30.729  29.168  1.00  0.00     0.029 A 
ATOM     50  C   UNL A   1      44.430  29.632  28.894  1.00  0.00     0.049 A 
ATOM     51  H   UNL A   1      43.936  27.614  28.642  1.00  0.00     0.167 HD
ATOM     52  C   UNL A   1      42.968  23.855  27.017  1.00  0.00     0.037 A 
ATOM     53  C   UNL A   1      45.778  29.673  28.800  1.00  0.00     0.037 A 
ATOM     54  C   UNL A   1      43.476  23.591  28.337  1.00  0.00     0.049 A 
ATOM     55  C   UNL A   1      46.314  28.324  29.073  1.00  0.00     0.074 A 
ATOM     56  C   UNL A   1      43.077  22.913  29.465  1.00  0.00     0.029 A 
ATOM     57  N   UNL A   1      44.535  24.380  28.685  1.00  0.00    -0.354 N 
ATOM     58  N   UNL A   1      46.234  27.732  30.233  1.00  0.00    -0.248 NA
ATOM     59  C   UNL A   1      46.742  27.475  27.966  1.00  0.00     0.031 C 
ATOM     60  C   UNL A   1      43.847  23.446  30.545  1.00  0.00     0.029 A 
ATOM     61  C   UNL A   1      44.694  24.429  30.042  1.00  0.00     0.049 A 
ATOM     62  H   UNL A   1      45.110  24.853  28.040  1.00  0.00     0.167 HD
ATOM     63  C   UNL A   1      46.182  26.390  29.923  1.00  0.00     0.074 A 
ATOM     64  C   UNL A   1      46.693  26.283  28.565  1.00  0.00     0.031 C 
ATOM     65  C   UNL A   1      45.403  25.534  30.643  1.00  0.00     0.037 A 
BRANCH  52  66
ATOM     66  C   UNL A   1      43.761  23.392  25.808  1.00  0.00     0.057 A 
ATOM     67  C   UNL A   1      43.764  22.019  25.481  1.00  0.00     0.134 A 
ATOM     68  C   UNL A   1      44.762  24.153  25.176  1.00  0.00     0.134 A 
ATOM     69  F   UNL A   1      42.867  21.179  26.019  1.00  0.00    -0.206 F 
ATOM     70  C   UNL A   1      44.740  21.441  24.657  1.00  0.00     0.040 A 
ATOM     71  C   UNL A   1      45.711  23.593  24.312  1.00  0.00     0.040 A 
ATOM     72  F   UNL A   1      44.946  25.452  25.438  1.00  0.00    -0.206 F 
ATOM     73  C   UNL A   1      45.723  22.228  24.076  1.00  0.00     0.006 A 
ENDBRANCH  52  66
BRANCH  53  74
ATOM     74  C   UNL A   1      46.638  30.793  28.371  1.00  0.00     0.057 A 
ATOM     75  C   UNL A   1      46.689  31.200  27.033  1.00  0.00     0.134 A 
ATOM     76  C   UNL A   1      47.232  31.655  29.310  1.00  0.00     0.134 A 
ATOM     77  F   UNL A   1      46.124  30.457  26.071  1.00  0.00    -0.206 F 
ATOM     78  C   UNL A   1      47.272  32.414  26.650  1.00  0.00     0.040 A 
ATOM     79  C   UNL A   1      47.824  32.865  28.940  1.00  0.00     0.040 A 
ATOM     80  F   UNL A   1      47.181  31.387  30.623  1.00  0.00    -0.206 F 
ATOM     81  C   UNL A   1      47.830  33.256  27.606  1.00  0.00     0.006 A 
ENDBRANCH  53  74
BRANCH  65  82
ATOM     82  C   UNL A   1      45.098  25.897  32.060  1.00  0.00     0.057 A 
ATOM     83  C   UNL A   1      45.936  25.617  33.147  1.00  0.00     0.134 A 
ATOM     84  C   UNL A   1      43.927  26.617  32.323  1.00  0.00     0.134 A 
ATOM     85  F   UNL A   1      47.110  24.998  32.976  1.00  0.00    -0.206 F 
ATOM     86  C   UNL A   1      45.598  26.002  34.447  1.00  0.00     0.040 A 
ATOM     87  C   UNL A   1      43.595  27.035  33.612  1.00  0.00     0.040 A 
ATOM     88  F   UNL A   1      43.101  26.954  31.320  1.00  0.00    -0.206 F 
ATOM     89  C   UNL A   1      44.425  26.716  34.682  1.00  0.00     0.006 A 
ENDBRANCH  65  82
ENDBRANCH  39  40
ENDBRANCH  31  34
ENDBRANCH  29  30
ENDBRANCH  28  29
ENDBRANCH  27  28
ENDBRANCH   1  27
TORSDOF 16
ENDMDL
