MODEL 1
REMARK VINA RESULT:     -11.4      0.000      0.000
REMARK SMILES O=C(NCCCCCCNC(=O)c1cc(Br)ccc1NC(=O)c1ccc(Br)s1)c1ccc(-c2c3nc(c(-c4c(F)cccc4F)c4ccc([nH]4)c(-c4c(F)cccc4F)c4nc(c(-c5c(F)cccc5F)c5ccc2[nH]5)C=C4)C=C3)cc1
REMARK SMILES IDX 6 1 5 2 4 3 3 4 1 5 2 6 29 8 30 9 82 10 31 11 81 12 32 13
REMARK SMILES IDX 33 14 34 15 75 16 35 17 80 18 74 19 76 20 36 21 79 22 73 23
REMARK SMILES IDX 72 24 37 26 63 27 46 28 62 29 47 30 50 31 61 32 77 33 48 34
REMARK SMILES IDX 49 35 60 37 78 38 51 39 38 40 39 41 44 42 40 43 41 44 43 45
REMARK SMILES IDX 45 46 42 47 64 48 65 49 70 50 66 51 67 52 69 53 71 54 68 55
REMARK SMILES IDX 52 56 53 57 58 58 54 59 55 60 57 61 59 62 56 63 7 64 8 65
REMARK SMILES IDX 9 66 10 67 11 68 12 70 13 71 14 72 19 73 15 74 18 75 16 76
REMARK SMILES IDX 17 77 20 78 21 79 22 81 23 82 24 83 28 84 25 85 26 86 27 87
REMARK H PARENT 3 7 76 25 50 36 10 69 20 80
REMARK Flexibility Score: inf
ROOT
ATOM      1  C   UNL A   1      35.902  20.674  25.168  1.00  0.00     0.002 C 
ENDROOT
BRANCH   1   2
ATOM      2  C   UNL A   1      37.228  20.031  24.760  1.00  0.00     0.021 C 
BRANCH   2   3
ATOM      3  C   UNL A   1      38.447  20.489  25.549  1.00  0.00     0.116 C 
BRANCH   3   4
ATOM      4  N   UNL A   1      39.513  19.502  25.579  1.00  0.00    -0.352 N 
ATOM      5  O   UNL A   1      41.626  18.739  25.820  1.00  0.00    -0.269 OA
ATOM      6  C   UNL A   1      40.822  19.654  25.974  1.00  0.00     0.251 C 
ATOM      7  H   UNL A   1      39.265  18.600  25.274  1.00  0.00     0.163 HD
BRANCH   6   8
ATOM      8  C   UNL A   1      41.271  20.938  26.561  1.00  0.00     0.039 A 
ATOM      9  C   UNL A   1      41.177  21.165  27.935  1.00  0.00     0.014 A 
ATOM     10  C   UNL A   1      41.796  21.928  25.723  1.00  0.00     0.014 A 
ATOM     11  C   UNL A   1      41.469  22.425  28.447  1.00  0.00     0.010 A 
ATOM     12  C   UNL A   1      42.173  23.166  26.255  1.00  0.00     0.010 A 
ATOM     13  C   UNL A   1      41.984  23.435  27.617  1.00  0.00    -0.014 A 
BRANCH  13  14
ATOM     14  C   UNL A   1      42.379  24.728  28.233  1.00  0.00     0.031 A 
ATOM     15  C   UNL A   1      43.813  25.048  28.545  1.00  0.00     0.074 A 
ATOM     16  C   UNL A   1      41.419  25.649  28.447  1.00  0.00     0.049 A 
ATOM     17  N   UNL A   1      44.325  26.166  28.997  1.00  0.00    -0.248 NA
ATOM     18  C   UNL A   1      44.803  23.981  28.332  1.00  0.00     0.031 C 
ATOM     19  C   UNL A   1      39.989  25.442  28.211  1.00  0.00     0.029 A 
ATOM     20  N   UNL A   1      41.500  26.950  28.874  1.00  0.00    -0.354 N 
ATOM     21  C   UNL A   1      45.688  25.937  29.131  1.00  0.00     0.074 A 
ATOM     22  C   UNL A   1      45.923  24.564  28.738  1.00  0.00     0.031 C 
ATOM     23  C   UNL A   1      39.334  26.591  28.433  1.00  0.00     0.029 A 
ATOM     24  C   UNL A   1      40.289  27.599  28.878  1.00  0.00     0.049 A 
ATOM     25  H   UNL A   1      42.343  27.377  29.151  1.00  0.00     0.167 HD
ATOM     26  C   UNL A   1      46.654  26.797  29.536  1.00  0.00     0.037 A 
ATOM     27  C   UNL A   1      39.977  28.867  29.203  1.00  0.00     0.037 A 
ATOM     28  C   UNL A   1      46.418  28.167  29.920  1.00  0.00     0.049 A 
ATOM     29  C   UNL A   1      41.071  29.799  29.630  1.00  0.00     0.074 A 
ATOM     30  C   UNL A   1      47.335  29.117  30.337  1.00  0.00     0.029 A 
ATOM     31  N   UNL A   1      45.176  28.783  29.929  1.00  0.00    -0.354 N 
ATOM     32  N   UNL A   1      42.357  29.571  29.730  1.00  0.00    -0.248 NA
ATOM     33  C   UNL A   1      40.670  31.166  29.991  1.00  0.00     0.031 C 
ATOM     34  C   UNL A   1      46.643  30.300  30.626  1.00  0.00     0.029 A 
ATOM     35  C   UNL A   1      45.301  30.097  30.354  1.00  0.00     0.049 A 
ATOM     36  H   UNL A   1      44.329  28.350  29.673  1.00  0.00     0.167 HD
ATOM     37  C   UNL A   1      42.920  30.760  30.170  1.00  0.00     0.074 A 
ATOM     38  C   UNL A   1      41.839  31.719  30.278  1.00  0.00     0.031 C 
ATOM     39  C   UNL A   1      44.212  31.031  30.469  1.00  0.00     0.037 A 
BRANCH  26  40
ATOM     40  C   UNL A   1      48.064  26.287  29.590  1.00  0.00     0.057 A 
ATOM     41  C   UNL A   1      48.936  26.419  28.503  1.00  0.00     0.134 A 
ATOM     42  C   UNL A   1      48.575  25.714  30.762  1.00  0.00     0.134 A 
ATOM     43  F   UNL A   1      48.506  26.950  27.348  1.00  0.00    -0.206 F 
ATOM     44  C   UNL A   1      50.264  25.993  28.575  1.00  0.00     0.040 A 
ATOM     45  C   UNL A   1      49.906  25.302  30.854  1.00  0.00     0.040 A 
ATOM     46  F   UNL A   1      47.795  25.564  31.842  1.00  0.00    -0.206 F 
ATOM     47  C   UNL A   1      50.754  25.439  29.757  1.00  0.00     0.006 A 
ENDBRANCH  26  40
BRANCH  27  48
ATOM     48  C   UNL A   1      38.567  29.318  29.137  1.00  0.00     0.057 A 
ATOM     49  C   UNL A   1      38.002  29.764  27.937  1.00  0.00     0.134 A 
ATOM     50  C   UNL A   1      37.747  29.300  30.271  1.00  0.00     0.134 A 
ATOM     51  F   UNL A   1      38.743  29.819  26.820  1.00  0.00    -0.206 F 
ATOM     52  C   UNL A   1      36.675  30.191  27.871  1.00  0.00     0.040 A 
ATOM     53  C   UNL A   1      36.411  29.698  30.213  1.00  0.00     0.040 A 
ATOM     54  F   UNL A   1      38.229  28.874  31.448  1.00  0.00    -0.206 F 
ATOM     55  C   UNL A   1      35.874  30.151  29.011  1.00  0.00     0.006 A 
ENDBRANCH  27  48
BRANCH  39  56
ATOM     56  C   UNL A   1      44.514  32.420  30.944  1.00  0.00     0.057 A 
ATOM     57  C   UNL A   1      44.486  32.750  32.305  1.00  0.00     0.134 A 
ATOM     58  C   UNL A   1      44.833  33.436  30.035  1.00  0.00     0.134 A 
ATOM     59  F   UNL A   1      44.171  31.823  33.223  1.00  0.00    -0.206 F 
ATOM     60  C   UNL A   1      44.735  34.050  32.745  1.00  0.00     0.040 A 
ATOM     61  C   UNL A   1      45.107  34.735  30.464  1.00  0.00     0.040 A 
ATOM     62  F   UNL A   1      44.880  33.183  28.719  1.00  0.00    -0.206 F 
ATOM     63  C   UNL A   1      45.050  35.047  31.822  1.00  0.00     0.006 A 
ENDBRANCH  39  56
ENDBRANCH  13  14
ENDBRANCH   6   8
ENDBRANCH   3   4
ENDBRANCH   2   3
ENDBRANCH   1   2
BRANCH   1  64
ATOM     64  C   UNL A   1      35.995  22.074  25.781  1.00  0.00     0.002 C 
BRANCH  64  65
ATOM     65  C   UNL A   1      35.177  22.308  27.054  1.00  0.00     0.021 C 
BRANCH  65  66
ATOM     66  C   UNL A   1      33.936  21.434  27.209  1.00  0.00     0.116 C 
BRANCH  66  67
ATOM     67  N   UNL A   1      32.755  22.198  27.581  1.00  0.00    -0.352 N 
ATOM     68  C   UNL A   1      32.033  23.084  26.819  1.00  0.00     0.253 C 
ATOM     69  H   UNL A   1      32.430  22.062  28.500  1.00  0.00     0.163 HD
ATOM     70  O   UNL A   1      31.159  23.781  27.319  1.00  0.00    -0.269 OA
BRANCH  68  71
ATOM     71  C   UNL A   1      32.376  23.246  25.389  1.00  0.00     0.064 A 
ATOM     72  C   UNL A   1      31.978  22.233  24.501  1.00  0.00     0.031 A 
ATOM     73  C   UNL A   1      33.124  24.356  24.952  1.00  0.00     0.054 A 
ATOM     74  C   UNL A   1      32.436  22.257  23.192  1.00  0.00     0.018 A 
ATOM     75  C   UNL A   1      33.639  24.303  23.653  1.00  0.00     0.028 A 
ATOM     76  Br  UNL A   1      31.949  20.879  21.998  1.00  0.00    -0.051 Br
ATOM     77  C   UNL A   1      33.292  23.269  22.774  1.00  0.00     0.018 A 
BRANCH  73  78
ATOM     78  N   UNL A   1      33.351  25.433  25.843  1.00  0.00    -0.321 N 
ATOM     79  C   UNL A   1      32.872  26.728  25.911  1.00  0.00     0.265 C 
ATOM     80  H   UNL A   1      33.982  25.213  26.566  1.00  0.00     0.170 HD
ATOM     81  O   UNL A   1      33.422  27.493  26.705  1.00  0.00    -0.268 OA
BRANCH  79  82
ATOM     82  C   UNL A   1      31.732  27.127  25.114  1.00  0.00     0.093 A 
ATOM     83  C   UNL A   1      30.546  26.451  24.876  1.00  0.00     0.027 A 
ATOM     84  S   UNL A   1      31.751  28.656  24.341  1.00  0.00    -0.123 S 
ATOM     85  C   UNL A   1      29.708  27.148  23.953  1.00  0.00     0.028 A 
ATOM     86  C   UNL A   1      30.268  28.345  23.583  1.00  0.00     0.071 A 
ATOM     87  Br  UNL A   1      29.481  29.522  22.358  1.00  0.00    -0.039 Br
ENDBRANCH  79  82
ENDBRANCH  73  78
ENDBRANCH  68  71
ENDBRANCH  66  67
ENDBRANCH  65  66
ENDBRANCH  64  65
ENDBRANCH   1  64
TORSDOF 15
ENDMDL
MODEL 2
REMARK VINA RESULT:     -11.4      4.338      9.415
REMARK SMILES O=C(NCCCCCCNC(=O)c1cc(Br)ccc1NC(=O)c1ccc(Br)s1)c1ccc(-c2c3nc(c(-c4c(F)cccc4F)c4ccc([nH]4)c(-c4c(F)cccc4F)c4nc(c(-c5c(F)cccc5F)c5ccc2[nH]5)C=C4)C=C3)cc1
REMARK SMILES IDX 6 1 5 2 4 3 3 4 1 5 2 6 29 8 30 9 82 10 31 11 81 12 32 13
REMARK SMILES IDX 33 14 34 15 75 16 35 17 80 18 74 19 76 20 36 21 79 22 73 23
REMARK SMILES IDX 72 24 37 26 63 27 46 28 62 29 47 30 50 31 61 32 77 33 48 34
REMARK SMILES IDX 49 35 60 37 78 38 51 39 38 40 39 41 44 42 40 43 41 44 43 45
REMARK SMILES IDX 45 46 42 47 64 48 65 49 70 50 66 51 67 52 69 53 71 54 68 55
REMARK SMILES IDX 52 56 53 57 58 58 54 59 55 60 57 61 59 62 56 63 7 64 8 65
REMARK SMILES IDX 9 66 10 67 11 68 12 70 13 71 14 72 19 73 15 74 18 75 16 76
REMARK SMILES IDX 17 77 20 78 21 79 22 81 23 82 24 83 28 84 25 85 26 86 27 87
REMARK H PARENT 3 7 76 25 50 36 10 69 20 80
REMARK Flexibility Score: inf
ROOT
ATOM      1  C   UNL A   1      31.581  30.757  26.214  1.00  0.00     0.002 C 
ENDROOT
BRANCH   1   2
ATOM      2  C   UNL A   1      31.353  32.179  26.728  1.00  0.00     0.021 C 
BRANCH   2   3
ATOM      3  C   UNL A   1      32.605  32.926  27.166  1.00  0.00     0.116 C 
BRANCH   3   4
ATOM      4  N   UNL A   1      32.330  34.266  27.655  1.00  0.00    -0.352 N 
ATOM      5  O   UNL A   1      32.528  36.055  29.019  1.00  0.00    -0.269 OA
ATOM      6  C   UNL A   1      32.969  34.972  28.647  1.00  0.00     0.251 C 
ATOM      7  H   UNL A   1      31.584  34.733  27.216  1.00  0.00     0.163 HD
BRANCH   6   8
ATOM      8  C   UNL A   1      34.179  34.410  29.291  1.00  0.00     0.039 A 
ATOM      9  C   UNL A   1      35.440  34.590  28.720  1.00  0.00     0.014 A 
ATOM     10  C   UNL A   1      34.049  33.695  30.487  1.00  0.00     0.014 A 
ATOM     11  C   UNL A   1      36.542  33.936  29.260  1.00  0.00     0.010 A 
ATOM     12  C   UNL A   1      35.175  33.111  31.078  1.00  0.00     0.010 A 
ATOM     13  C   UNL A   1      36.426  33.201  30.452  1.00  0.00    -0.014 A 
BRANCH  13  14
ATOM     14  C   UNL A   1      37.654  32.609  31.044  1.00  0.00     0.031 A 
ATOM     15  C   UNL A   1      38.210  33.093  32.353  1.00  0.00     0.074 A 
ATOM     16  C   UNL A   1      38.229  31.570  30.409  1.00  0.00     0.049 A 
ATOM     17  N   UNL A   1      39.218  32.618  33.043  1.00  0.00    -0.248 NA
ATOM     18  C   UNL A   1      37.564  34.262  32.969  1.00  0.00     0.031 C 
ATOM     19  C   UNL A   1      37.795  31.032  29.117  1.00  0.00     0.029 A 
ATOM     20  N   UNL A   1      39.272  30.758  30.774  1.00  0.00    -0.354 N 
ATOM     21  C   UNL A   1      39.333  33.430  34.164  1.00  0.00     0.074 A 
ATOM     22  C   UNL A   1      38.309  34.446  34.052  1.00  0.00     0.031 C 
ATOM     23  C   UNL A   1      38.522  29.943  28.827  1.00  0.00     0.029 A 
ATOM     24  C   UNL A   1      39.505  29.737  29.884  1.00  0.00     0.049 A 
ATOM     25  H   UNL A   1      39.802  30.894  31.592  1.00  0.00     0.167 HD
ATOM     26  C   UNL A   1      40.207  33.328  35.194  1.00  0.00     0.037 A 
ATOM     27  C   UNL A   1      40.410  28.742  29.913  1.00  0.00     0.037 A 
ATOM     28  C   UNL A   1      41.222  32.310  35.307  1.00  0.00     0.049 A 
ATOM     29  C   UNL A   1      41.352  28.647  31.076  1.00  0.00     0.074 A 
ATOM     30  C   UNL A   1      42.149  32.122  36.318  1.00  0.00     0.029 A 
ATOM     31  N   UNL A   1      41.440  31.305  34.377  1.00  0.00    -0.354 N 
ATOM     32  N   UNL A   1      41.431  29.412  32.137  1.00  0.00    -0.248 NA
ATOM     33  C   UNL A   1      42.331  27.552  31.044  1.00  0.00     0.031 C 
ATOM     34  C   UNL A   1      42.946  31.021  35.987  1.00  0.00     0.029 A 
ATOM     35  C   UNL A   1      42.492  30.500  34.786  1.00  0.00     0.049 A 
ATOM     36  H   UNL A   1      40.924  31.181  33.548  1.00  0.00     0.167 HD
ATOM     37  C   UNL A   1      42.470  28.895  32.898  1.00  0.00     0.074 A 
ATOM     38  C   UNL A   1      42.963  27.728  32.195  1.00  0.00     0.031 C 
ATOM     39  C   UNL A   1      42.978  29.352  34.067  1.00  0.00     0.037 A 
BRANCH  26  40
ATOM     40  C   UNL A   1      40.112  34.349  36.291  1.00  0.00     0.057 A 
ATOM     41  C   UNL A   1      39.323  34.135  37.427  1.00  0.00     0.134 A 
ATOM     42  C   UNL A   1      40.867  35.528  36.241  1.00  0.00     0.134 A 
ATOM     43  F   UNL A   1      38.568  33.030  37.533  1.00  0.00    -0.206 F 
ATOM     44  C   UNL A   1      39.280  35.061  38.472  1.00  0.00     0.040 A 
ATOM     45  C   UNL A   1      40.847  36.453  37.287  1.00  0.00     0.040 A 
ATOM     46  F   UNL A   1      41.649  35.791  35.184  1.00  0.00    -0.206 F 
ATOM     47  C   UNL A   1      40.050  36.221  38.406  1.00  0.00     0.006 A 
ENDBRANCH  26  40
BRANCH  27  48
ATOM     48  C   UNL A   1      40.464  27.764  28.800  1.00  0.00     0.057 A 
ATOM     49  C   UNL A   1      41.287  27.972  27.688  1.00  0.00     0.134 A 
ATOM     50  C   UNL A   1      39.703  26.589  28.832  1.00  0.00     0.134 A 
ATOM     51  F   UNL A   1      42.027  29.087  27.595  1.00  0.00    -0.206 F 
ATOM     52  C   UNL A   1      41.340  27.054  26.639  1.00  0.00     0.040 A 
ATOM     53  C   UNL A   1      39.768  25.650  27.803  1.00  0.00     0.040 A 
ATOM     54  F   UNL A   1      38.903  26.328  29.876  1.00  0.00    -0.206 F 
ATOM     55  C   UNL A   1      40.584  25.885  26.699  1.00  0.00     0.006 A 
ENDBRANCH  27  48
BRANCH  39  56
ATOM     56  C   UNL A   1      44.127  28.584  34.646  1.00  0.00     0.057 A 
ATOM     57  C   UNL A   1      45.454  28.908  34.335  1.00  0.00     0.134 A 
ATOM     58  C   UNL A   1      43.907  27.511  35.517  1.00  0.00     0.134 A 
ATOM     59  F   UNL A   1      45.728  29.916  33.492  1.00  0.00    -0.206 F 
ATOM     60  C   UNL A   1      46.522  28.173  34.848  1.00  0.00     0.040 A 
ATOM     61  C   UNL A   1      44.968  26.782  36.056  1.00  0.00     0.040 A 
ATOM     62  F   UNL A   1      42.659  27.154  35.858  1.00  0.00    -0.206 F 
ATOM     63  C   UNL A   1      46.280  27.108  35.714  1.00  0.00     0.006 A 
ENDBRANCH  39  56
ENDBRANCH  13  14
ENDBRANCH   6   8
ENDBRANCH   3   4
ENDBRANCH   2   3
ENDBRANCH   1   2
BRANCH   1  64
ATOM     64  C   UNL A   1      32.489  29.871  27.071  1.00  0.00     0.002 C 
BRANCH  64  65
ATOM     65  C   UNL A   1      33.796  29.414  26.418  1.00  0.00     0.021 C 
BRANCH  65  66
ATOM     66  C   UNL A   1      33.674  28.240  25.451  1.00  0.00     0.116 C 
BRANCH  66  67
ATOM     67  N   UNL A   1      34.294  28.508  24.163  1.00  0.00    -0.352 N 
ATOM     68  C   UNL A   1      33.718  28.495  22.915  1.00  0.00     0.253 C 
ATOM     69  H   UNL A   1      35.253  28.727  24.188  1.00  0.00     0.163 HD
ATOM     70  O   UNL A   1      34.403  28.577  21.903  1.00  0.00    -0.269 OA
BRANCH  68  71
ATOM     71  C   UNL A   1      32.256  28.306  22.802  1.00  0.00     0.064 A 
ATOM     72  C   UNL A   1      31.433  29.429  22.985  1.00  0.00     0.031 A 
ATOM     73  C   UNL A   1      31.715  27.026  22.574  1.00  0.00     0.054 A 
ATOM     74  C   UNL A   1      30.058  29.259  23.068  1.00  0.00     0.018 A 
ATOM     75  C   UNL A   1      30.336  26.879  22.751  1.00  0.00     0.028 A 
ATOM     76  Br  UNL A   1      28.941  30.752  23.360  1.00  0.00    -0.051 Br
ATOM     77  C   UNL A   1      29.509  27.986  22.986  1.00  0.00     0.018 A 
BRANCH  73  78
ATOM     78  N   UNL A   1      32.579  25.960  22.223  1.00  0.00    -0.321 N 
ATOM     79  C   UNL A   1      33.089  24.881  22.918  1.00  0.00     0.265 C 
ATOM     80  H   UNL A   1      32.879  25.997  21.286  1.00  0.00     0.170 HD
ATOM     81  O   UNL A   1      33.987  24.233  22.377  1.00  0.00    -0.268 OA
BRANCH  79  82
ATOM     82  C   UNL A   1      32.533  24.511  24.202  1.00  0.00     0.093 A 
ATOM     83  C   UNL A   1      33.030  24.741  25.474  1.00  0.00     0.027 A 
ATOM     84  S   UNL A   1      31.028  23.692  24.252  1.00  0.00    -0.123 S 
ATOM     85  C   UNL A   1      32.224  24.129  26.483  1.00  0.00     0.028 A 
ATOM     86  C   UNL A   1      31.125  23.519  25.935  1.00  0.00     0.071 A 
ATOM     87  Br  UNL A   1      29.854  22.578  26.939  1.00  0.00    -0.039 Br
ENDBRANCH  79  82
ENDBRANCH  73  78
ENDBRANCH  68  71
ENDBRANCH  66  67
ENDBRANCH  65  66
ENDBRANCH  64  65
ENDBRANCH   1  64
TORSDOF 15
ENDMDL
MODEL 3
REMARK VINA RESULT:     -11.2      1.499      6.448
REMARK SMILES O=C(NCCCCCCNC(=O)c1cc(Br)ccc1NC(=O)c1ccc(Br)s1)c1ccc(-c2c3nc(c(-c4c(F)cccc4F)c4ccc([nH]4)c(-c4c(F)cccc4F)c4nc(c(-c5c(F)cccc5F)c5ccc2[nH]5)C=C4)C=C3)cc1
REMARK SMILES IDX 6 1 5 2 4 3 3 4 1 5 2 6 29 8 30 9 82 10 31 11 81 12 32 13
REMARK SMILES IDX 33 14 34 15 75 16 35 17 80 18 74 19 76 20 36 21 79 22 73 23
REMARK SMILES IDX 72 24 37 26 63 27 46 28 62 29 47 30 50 31 61 32 77 33 48 34
REMARK SMILES IDX 49 35 60 37 78 38 51 39 38 40 39 41 44 42 40 43 41 44 43 45
REMARK SMILES IDX 45 46 42 47 64 48 65 49 70 50 66 51 67 52 69 53 71 54 68 55
REMARK SMILES IDX 52 56 53 57 58 58 54 59 55 60 57 61 59 62 56 63 7 64 8 65
REMARK SMILES IDX 9 66 10 67 11 68 12 70 13 71 14 72 19 73 15 74 18 75 16 76
REMARK SMILES IDX 17 77 20 78 21 79 22 81 23 82 24 83 28 84 25 85 26 86 27 87
REMARK H PARENT 3 7 76 25 50 36 10 69 20 80
REMARK Flexibility Score: inf
ROOT
ATOM      1  C   UNL A   1      37.377  21.369  24.685  1.00  0.00     0.002 C 
ENDROOT
BRANCH   1   2
ATOM      2  C   UNL A   1      38.139  20.054  24.852  1.00  0.00     0.021 C 
BRANCH   2   3
ATOM      3  C   UNL A   1      39.034  19.967  26.080  1.00  0.00     0.116 C 
BRANCH   3   4
ATOM      4  N   UNL A   1      40.216  19.148  25.871  1.00  0.00    -0.352 N 
ATOM      5  O   UNL A   1      42.421  18.710  25.652  1.00  0.00    -0.269 OA
ATOM      6  C   UNL A   1      41.542  19.498  25.986  1.00  0.00     0.251 C 
ATOM      7  H   UNL A   1      40.045  18.215  25.610  1.00  0.00     0.163 HD
BRANCH   6   8
ATOM      8  C   UNL A   1      41.909  20.842  26.487  1.00  0.00     0.039 A 
ATOM      9  C   UNL A   1      41.936  21.110  27.857  1.00  0.00     0.014 A 
ATOM     10  C   UNL A   1      42.235  21.849  25.571  1.00  0.00     0.014 A 
ATOM     11  C   UNL A   1      42.143  22.411  28.302  1.00  0.00     0.010 A 
ATOM     12  C   UNL A   1      42.530  23.139  26.027  1.00  0.00     0.010 A 
ATOM     13  C   UNL A   1      42.457  23.438  27.394  1.00  0.00    -0.014 A 
BRANCH  13  14
ATOM     14  C   UNL A   1      42.773  24.787  27.930  1.00  0.00     0.031 A 
ATOM     15  C   UNL A   1      41.699  25.808  28.180  1.00  0.00     0.074 A 
ATOM     16  C   UNL A   1      44.052  25.059  28.255  1.00  0.00     0.049 A 
ATOM     17  N   UNL A   1      41.806  26.994  28.728  1.00  0.00    -0.248 NA
ATOM     18  C   UNL A   1      40.333  25.466  27.758  1.00  0.00     0.031 C 
ATOM     19  C   UNL A   1      45.184  24.157  28.030  1.00  0.00     0.029 A 
ATOM     20  N   UNL A   1      44.611  26.147  28.874  1.00  0.00    -0.354 N 
ATOM     21  C   UNL A   1      40.529  27.540  28.710  1.00  0.00     0.074 A 
ATOM     22  C   UNL A   1      39.666  26.569  28.072  1.00  0.00     0.031 C 
ATOM     23  C   UNL A   1      46.291  24.699  28.560  1.00  0.00     0.029 A 
ATOM     24  C   UNL A   1      45.957  26.006  29.113  1.00  0.00     0.049 A 
ATOM     25  H   UNL A   1      44.100  26.950  29.121  1.00  0.00     0.167 HD
ATOM     26  C   UNL A   1      40.116  28.738  29.190  1.00  0.00     0.037 A 
ATOM     27  C   UNL A   1      46.830  26.836  29.712  1.00  0.00     0.037 A 
ATOM     28  C   UNL A   1      40.977  29.701  29.832  1.00  0.00     0.049 A 
ATOM     29  C   UNL A   1      46.339  28.147  30.249  1.00  0.00     0.074 A 
ATOM     30  C   UNL A   1      40.647  30.939  30.357  1.00  0.00     0.029 A 
ATOM     31  N   UNL A   1      42.337  29.531  30.040  1.00  0.00    -0.354 N 
ATOM     32  N   UNL A   1      45.124  28.637  30.241  1.00  0.00    -0.248 NA
ATOM     33  C   UNL A   1      47.340  29.020  30.876  1.00  0.00     0.031 C 
ATOM     34  C   UNL A   1      41.814  31.530  30.857  1.00  0.00     0.029 A 
ATOM     35  C   UNL A   1      42.863  30.645  30.676  1.00  0.00     0.049 A 
ATOM     36  H   UNL A   1      42.854  28.736  29.773  1.00  0.00     0.167 HD
ATOM     37  C   UNL A   1      45.213  29.877  30.856  1.00  0.00     0.074 A 
ATOM     38  C   UNL A   1      46.594  30.045  31.260  1.00  0.00     0.031 C 
ATOM     39  C   UNL A   1      44.242  30.800  31.057  1.00  0.00     0.037 A 
BRANCH  26  40
ATOM     40  C   UNL A   1      38.664  29.086  29.039  1.00  0.00     0.057 A 
ATOM     41  C   UNL A   1      37.772  28.996  30.114  1.00  0.00     0.134 A 
ATOM     42  C   UNL A   1      38.166  29.577  27.826  1.00  0.00     0.134 A 
ATOM     43  F   UNL A   1      38.183  28.525  31.302  1.00  0.00    -0.206 F 
ATOM     44  C   UNL A   1      36.433  29.373  29.986  1.00  0.00     0.040 A 
ATOM     45  C   UNL A   1      36.834  29.975  27.690  1.00  0.00     0.040 A 
ATOM     46  F   UNL A   1      38.969  29.695  26.758  1.00  0.00    -0.206 F 
ATOM     47  C   UNL A   1      35.963  29.872  28.773  1.00  0.00     0.006 A 
ENDBRANCH  26  40
BRANCH  27  48
ATOM     48  C   UNL A   1      48.255  26.445  29.830  1.00  0.00     0.057 A 
ATOM     49  C   UNL A   1      48.731  25.758  30.952  1.00  0.00     0.134 A 
ATOM     50  C   UNL A   1      49.172  26.739  28.813  1.00  0.00     0.134 A 
ATOM     51  F   UNL A   1      47.902  25.463  31.965  1.00  0.00    -0.206 F 
ATOM     52  C   UNL A   1      50.072  25.389  31.066  1.00  0.00     0.040 A 
ATOM     53  C   UNL A   1      50.510  26.351  28.903  1.00  0.00     0.040 A 
ATOM     54  F   UNL A   1      48.775  27.386  27.708  1.00  0.00    -0.206 F 
ATOM     55  C   UNL A   1      50.964  25.680  30.035  1.00  0.00     0.006 A 
ENDBRANCH  27  48
BRANCH  39  56
ATOM     56  C   UNL A   1      44.653  32.069  31.741  1.00  0.00     0.057 A 
ATOM     57  C   UNL A   1      44.607  32.195  33.136  1.00  0.00     0.134 A 
ATOM     58  C   UNL A   1      45.094  33.172  31.002  1.00  0.00     0.134 A 
ATOM     59  F   UNL A   1      44.177  31.177  33.897  1.00  0.00    -0.206 F 
ATOM     60  C   UNL A   1      44.958  33.387  33.770  1.00  0.00     0.040 A 
ATOM     61  C   UNL A   1      45.470  34.362  31.627  1.00  0.00     0.040 A 
ATOM     62  F   UNL A   1      45.165  33.112  29.664  1.00  0.00    -0.206 F 
ATOM     63  C   UNL A   1      45.394  34.474  33.015  1.00  0.00     0.006 A 
ENDBRANCH  39  56
ENDBRANCH  13  14
ENDBRANCH   6   8
ENDBRANCH   3   4
ENDBRANCH   2   3
ENDBRANCH   1   2
BRANCH   1  64
ATOM     64  C   UNL A   1      38.010  22.600  25.341  1.00  0.00     0.002 C 
BRANCH  64  65
ATOM     65  C   UNL A   1      37.057  23.519  26.110  1.00  0.00     0.021 C 
BRANCH  65  66
ATOM     66  C   UNL A   1      35.569  23.249  25.899  1.00  0.00     0.116 C 
BRANCH  66  67
ATOM     67  N   UNL A   1      34.852  23.056  27.149  1.00  0.00    -0.352 N 
ATOM     68  C   UNL A   1      33.741  22.284  27.389  1.00  0.00     0.253 C 
ATOM     69  H   UNL A   1      35.209  23.544  27.926  1.00  0.00     0.163 HD
ATOM     70  O   UNL A   1      33.145  22.349  28.457  1.00  0.00    -0.269 OA
BRANCH  68  71
ATOM     71  C   UNL A   1      33.222  21.418  26.308  1.00  0.00     0.064 A 
ATOM     72  C   UNL A   1      33.957  20.266  25.981  1.00  0.00     0.031 A 
ATOM     73  C   UNL A   1      32.059  21.776  25.599  1.00  0.00     0.054 A 
ATOM     74  C   UNL A   1      33.604  19.531  24.858  1.00  0.00     0.018 A 
ATOM     75  C   UNL A   1      31.787  21.065  24.427  1.00  0.00     0.028 A 
ATOM     76  Br  UNL A   1      34.609  18.007  24.377  1.00  0.00    -0.051 Br
ATOM     77  C   UNL A   1      32.545  19.944  24.061  1.00  0.00     0.018 A 
BRANCH  73  78
ATOM     78  N   UNL A   1      31.259  22.843  26.074  1.00  0.00    -0.321 N 
ATOM     79  C   UNL A   1      31.217  24.196  25.798  1.00  0.00     0.265 C 
ATOM     80  H   UNL A   1      30.592  22.561  26.742  1.00  0.00     0.170 HD
ATOM     81  O   UNL A   1      30.527  24.902  26.536  1.00  0.00    -0.268 OA
BRANCH  79  82
ATOM     82  C   UNL A   1      31.915  24.729  24.648  1.00  0.00     0.093 A 
ATOM     83  C   UNL A   1      33.116  25.415  24.590  1.00  0.00     0.027 A 
ATOM     84  S   UNL A   1      31.245  24.498  23.087  1.00  0.00    -0.123 S 
ATOM     85  C   UNL A   1      33.419  25.856  23.265  1.00  0.00     0.028 A 
ATOM     86  C   UNL A   1      32.465  25.431  22.373  1.00  0.00     0.071 A 
ATOM     87  Br  UNL A   1      32.498  25.844  20.547  1.00  0.00    -0.039 Br
ENDBRANCH  79  82
ENDBRANCH  73  78
ENDBRANCH  68  71
ENDBRANCH  66  67
ENDBRANCH  65  66
ENDBRANCH  64  65
ENDBRANCH   1  64
TORSDOF 15
ENDMDL
