MODEL 1
REMARK VINA RESULT:     -12.1      0.000      0.000
REMARK SMILES O=C(CCc1nc(-c2ccccc2)c(-c2ccccc2)o1)NCCCCCCNC(=O)c1ccc(-c2c3nc(c(-c4c(F)cccc4F)c4ccc([nH]4)c(-c4c(F)cccc4F)c4nc(c(-c5c(F)cccc5F)c5ccc2[nH]5)C=C4)C=C3)cc1
REMARK SMILES IDX 25 1 24 2 23 3 22 4 1 5 2 6 3 8 4 9 5 10 6 11 21 12 7 13
REMARK SMILES IDX 14 14 8 15 9 16 13 17 10 18 12 19 11 20 15 21 16 22 20 23
REMARK SMILES IDX 17 24 19 25 18 26 26 27 27 28 28 29 29 30 30 31 31 33 32 34
REMARK SMILES IDX 33 35 85 36 34 37 84 38 35 39 36 40 37 41 78 42 38 43 83 44
REMARK SMILES IDX 77 45 79 46 39 47 82 48 76 49 75 50 40 52 66 53 49 54 65 55
REMARK SMILES IDX 50 56 53 57 64 58 80 59 51 60 52 61 63 63 81 64 54 65 41 66
REMARK SMILES IDX 42 67 47 68 43 69 44 70 46 71 48 72 45 73 67 74 68 75 73 76
REMARK SMILES IDX 69 77 70 78 72 79 74 80 71 81 55 82 56 83 61 84 57 85 58 86
REMARK SMILES IDX 60 87 62 88 59 89
REMARK H PARENT 22 7 29 32 79 51 53 62
REMARK Flexibility Score: inf
ROOT
ATOM      1  C   UNL A   1      37.498  22.432  25.624  1.00  0.00     0.002 C 
ENDROOT
BRANCH   1   2
ATOM      2  C   UNL A   1      36.212  23.112  26.102  1.00  0.00     0.021 C 
BRANCH   2   3
ATOM      3  C   UNL A   1      35.771  24.308  25.254  1.00  0.00     0.116 C 
BRANCH   3   4
ATOM      4  N   UNL A   1      34.573  24.010  24.495  1.00  0.00    -0.356 N 
ATOM      5  O   UNL A   1      35.620  23.280  22.590  1.00  0.00    -0.275 OA
ATOM      6  C   UNL A   1      34.592  23.540  23.208  1.00  0.00     0.220 C 
ATOM      7  H   UNL A   1      33.700  24.153  24.926  1.00  0.00     0.163 HD
BRANCH   6   8
ATOM      8  C   UNL A   1      33.221  23.379  22.585  1.00  0.00     0.110 C 
BRANCH   8   9
ATOM      9  C   UNL A   1      32.888  24.517  21.630  1.00  0.00     0.107 C 
BRANCH   9  10
ATOM     10  C   UNL A   1      32.278  25.733  22.248  1.00  0.00     0.196 A 
ATOM     11  N   UNL A   1      31.249  26.421  21.786  1.00  0.00    -0.213 NA
ATOM     12  O   UNL A   1      32.790  26.204  23.438  1.00  0.00    -0.440 OA
ATOM     13  C   UNL A   1      31.081  27.421  22.707  1.00  0.00     0.117 A 
ATOM     14  C   UNL A   1      31.991  27.277  23.735  1.00  0.00     0.162 A 
BRANCH  13  15
ATOM     15  C   UNL A   1      30.035  28.425  22.701  1.00  0.00     0.004 A 
ATOM     16  C   UNL A   1      28.755  28.111  23.188  1.00  0.00     0.010 A 
ATOM     17  C   UNL A   1      30.236  29.629  22.022  1.00  0.00     0.010 A 
ATOM     18  C   UNL A   1      27.674  28.950  22.922  1.00  0.00     0.001 A 
ATOM     19  C   UNL A   1      29.152  30.472  21.765  1.00  0.00     0.001 A 
ATOM     20  C   UNL A   1      27.872  30.122  22.197  1.00  0.00     0.000 A 
ENDBRANCH  13  15
BRANCH  14  21
ATOM     21  C   UNL A   1      32.180  27.972  24.998  1.00  0.00     0.020 A 
ATOM     22  C   UNL A   1      31.403  27.678  26.122  1.00  0.00     0.012 A 
ATOM     23  C   UNL A   1      33.250  28.878  25.130  1.00  0.00     0.012 A 
ATOM     24  C   UNL A   1      31.716  28.251  27.359  1.00  0.00     0.001 A 
ATOM     25  C   UNL A   1      33.565  29.444  26.364  1.00  0.00     0.001 A 
ATOM     26  C   UNL A   1      32.805  29.117  27.482  1.00  0.00     0.000 A 
ENDBRANCH  14  21
ENDBRANCH   9  10
ENDBRANCH   8   9
ENDBRANCH   6   8
ENDBRANCH   3   4
ENDBRANCH   2   3
ENDBRANCH   1   2
BRANCH   1  27
ATOM     27  C   UNL A   1      37.279  21.239  24.697  1.00  0.00     0.002 C 
BRANCH  27  28
ATOM     28  C   UNL A   1      38.132  20.011  24.987  1.00  0.00     0.021 C 
BRANCH  28  29
ATOM     29  C   UNL A   1      39.343  20.285  25.875  1.00  0.00     0.116 C 
BRANCH  29  30
ATOM     30  N   UNL A   1      40.269  19.159  25.957  1.00  0.00    -0.352 N 
ATOM     31  C   UNL A   1      41.630  19.151  26.161  1.00  0.00     0.251 C 
ATOM     32  H   UNL A   1      39.858  18.271  25.850  1.00  0.00     0.163 HD
ATOM     33  O   UNL A   1      42.279  18.117  26.083  1.00  0.00    -0.269 OA
BRANCH  31  34
ATOM     34  C   UNL A   1      42.312  20.426  26.442  1.00  0.00     0.039 A 
ATOM     35  C   UNL A   1      42.958  21.096  25.400  1.00  0.00     0.014 A 
ATOM     36  C   UNL A   1      42.242  20.986  27.718  1.00  0.00     0.014 A 
ATOM     37  C   UNL A   1      43.441  22.386  25.614  1.00  0.00     0.010 A 
ATOM     38  C   UNL A   1      42.642  22.300  27.905  1.00  0.00     0.010 A 
ATOM     39  C   UNL A   1      43.229  23.017  26.850  1.00  0.00    -0.014 A 
BRANCH  39  40
ATOM     40  C   UNL A   1      43.563  24.442  27.068  1.00  0.00     0.031 A 
ATOM     41  C   UNL A   1      44.993  24.890  27.003  1.00  0.00     0.074 A 
ATOM     42  C   UNL A   1      42.596  25.293  27.459  1.00  0.00     0.049 A 
ATOM     43  N   UNL A   1      45.516  26.042  27.334  1.00  0.00    -0.248 NA
ATOM     44  C   UNL A   1      45.972  23.890  26.548  1.00  0.00     0.031 C 
ATOM     45  C   UNL A   1      41.181  24.949  27.626  1.00  0.00     0.029 A 
ATOM     46  N   UNL A   1      42.660  26.614  27.820  1.00  0.00    -0.354 N 
ATOM     47  C   UNL A   1      46.883  25.897  27.151  1.00  0.00     0.074 A 
ATOM     48  C   UNL A   1      47.115  24.531  26.735  1.00  0.00     0.031 C 
ATOM     49  C   UNL A   1      40.512  26.033  28.050  1.00  0.00     0.029 A 
ATOM     50  C   UNL A   1      41.454  27.132  28.225  1.00  0.00     0.049 A 
ATOM     51  H   UNL A   1      43.492  27.141  27.791  1.00  0.00     0.167 HD
ATOM     52  C   UNL A   1      47.856  26.828  27.299  1.00  0.00     0.037 A 
ATOM     53  C   UNL A   1      41.148  28.352  28.703  1.00  0.00     0.037 A 
ATOM     54  C   UNL A   1      47.609  28.190  27.691  1.00  0.00     0.049 A 
ATOM     55  C   UNL A   1      42.236  29.376  28.837  1.00  0.00     0.074 A 
ATOM     56  C   UNL A   1      48.510  29.234  27.800  1.00  0.00     0.029 A 
ATOM     57  N   UNL A   1      46.366  28.695  28.041  1.00  0.00    -0.354 N 
ATOM     58  N   UNL A   1      43.520  29.250  28.595  1.00  0.00    -0.248 NA
ATOM     59  C   UNL A   1      41.839  30.710  29.306  1.00  0.00     0.031 C 
ATOM     60  C   UNL A   1      47.814  30.363  28.250  1.00  0.00     0.029 A 
ATOM     61  C   UNL A   1      46.476  30.031  28.384  1.00  0.00     0.049 A 
ATOM     62  H   UNL A   1      45.527  28.178  28.044  1.00  0.00     0.167 HD
ATOM     63  C   UNL A   1      44.082  30.488  28.872  1.00  0.00     0.074 A 
ATOM     64  C   UNL A   1      42.996  31.358  29.281  1.00  0.00     0.031 C 
ATOM     65  C   UNL A   1      45.380  30.872  28.797  1.00  0.00     0.037 A 
BRANCH  52  66
ATOM     66  C   UNL A   1      49.266  26.391  27.029  1.00  0.00     0.057 A 
ATOM     67  C   UNL A   1      50.120  25.973  28.061  1.00  0.00     0.134 A 
ATOM     68  C   UNL A   1      49.782  26.394  25.728  1.00  0.00     0.134 A 
ATOM     69  F   UNL A   1      49.694  25.960  29.333  1.00  0.00    -0.206 F 
ATOM     70  C   UNL A   1      51.446  25.611  27.811  1.00  0.00     0.040 A 
ATOM     71  C   UNL A   1      51.098  26.007  25.463  1.00  0.00     0.040 A 
ATOM     72  F   UNL A   1      49.020  26.778  24.693  1.00  0.00    -0.206 F 
ATOM     73  C   UNL A   1      51.936  25.625  26.508  1.00  0.00     0.006 A 
ENDBRANCH  52  66
BRANCH  53  74
ATOM     74  C   UNL A   1      39.745  28.665  29.070  1.00  0.00     0.057 A 
ATOM     75  C   UNL A   1      38.857  29.204  28.133  1.00  0.00     0.134 A 
ATOM     76  C   UNL A   1      39.247  28.399  30.352  1.00  0.00     0.134 A 
ATOM     77  F   UNL A   1      39.281  29.491  26.893  1.00  0.00    -0.206 F 
ATOM     78  C   UNL A   1      37.528  29.474  28.456  1.00  0.00     0.040 A 
ATOM     79  C   UNL A   1      37.914  28.646  30.685  1.00  0.00     0.040 A 
ATOM     80  F   UNL A   1      40.046  27.872  31.293  1.00  0.00    -0.206 F 
ATOM     81  C   UNL A   1      37.051  29.189  29.735  1.00  0.00     0.006 A 
ENDBRANCH  53  74
BRANCH  65  82
ATOM     82  C   UNL A   1      45.690  32.292  29.160  1.00  0.00     0.057 A 
ATOM     83  C   UNL A   1      45.632  33.321  28.213  1.00  0.00     0.134 A 
ATOM     84  C   UNL A   1      46.010  32.639  30.480  1.00  0.00     0.134 A 
ATOM     85  F   UNL A   1      45.346  33.051  26.931  1.00  0.00    -0.206 F 
ATOM     86  C   UNL A   1      45.897  34.647  28.563  1.00  0.00     0.040 A 
ATOM     87  C   UNL A   1      46.253  33.962  30.845  1.00  0.00     0.040 A 
ATOM     88  F   UNL A   1      46.075  31.698  31.434  1.00  0.00    -0.206 F 
ATOM     89  C   UNL A   1      46.201  34.971  29.884  1.00  0.00     0.006 A 
ENDBRANCH  65  82
ENDBRANCH  39  40
ENDBRANCH  31  34
ENDBRANCH  29  30
ENDBRANCH  28  29
ENDBRANCH  27  28
ENDBRANCH   1  27
TORSDOF 17
ENDMDL
MODEL 2
REMARK VINA RESULT:     -12.0      4.695      9.407
REMARK SMILES O=C(CCc1nc(-c2ccccc2)c(-c2ccccc2)o1)NCCCCCCNC(=O)c1ccc(-c2c3nc(c(-c4c(F)cccc4F)c4ccc([nH]4)c(-c4c(F)cccc4F)c4nc(c(-c5c(F)cccc5F)c5ccc2[nH]5)C=C4)C=C3)cc1
REMARK SMILES IDX 25 1 24 2 23 3 22 4 1 5 2 6 3 8 4 9 5 10 6 11 21 12 7 13
REMARK SMILES IDX 14 14 8 15 9 16 13 17 10 18 12 19 11 20 15 21 16 22 20 23
REMARK SMILES IDX 17 24 19 25 18 26 26 27 27 28 28 29 29 30 30 31 31 33 32 34
REMARK SMILES IDX 33 35 85 36 34 37 84 38 35 39 36 40 37 41 78 42 38 43 83 44
REMARK SMILES IDX 77 45 79 46 39 47 82 48 76 49 75 50 40 52 66 53 49 54 65 55
REMARK SMILES IDX 50 56 53 57 64 58 80 59 51 60 52 61 63 63 81 64 54 65 41 66
REMARK SMILES IDX 42 67 47 68 43 69 44 70 46 71 48 72 45 73 67 74 68 75 73 76
REMARK SMILES IDX 69 77 70 78 72 79 74 80 71 81 55 82 56 83 61 84 57 85 58 86
REMARK SMILES IDX 60 87 62 88 59 89
REMARK H PARENT 22 7 29 32 79 51 53 62
REMARK Flexibility Score: inf
ROOT
ATOM      1  C   UNL A   1      32.916  28.337  26.272  1.00  0.00     0.002 C 
ENDROOT
BRANCH   1   2
ATOM      2  C   UNL A   1      33.489  28.872  24.957  1.00  0.00     0.021 C 
BRANCH   2   3
ATOM      3  C   UNL A   1      32.625  28.590  23.725  1.00  0.00     0.116 C 
BRANCH   3   4
ATOM      4  N   UNL A   1      31.713  27.488  23.956  1.00  0.00    -0.356 N 
ATOM      5  O   UNL A   1      30.246  27.977  22.263  1.00  0.00    -0.275 OA
ATOM      6  C   UNL A   1      30.577  27.281  23.218  1.00  0.00     0.220 C 
ATOM      7  H   UNL A   1      31.920  26.854  24.680  1.00  0.00     0.163 HD
BRANCH   6   8
ATOM      8  C   UNL A   1      29.732  26.116  23.691  1.00  0.00     0.110 C 
BRANCH   8   9
ATOM      9  C   UNL A   1      30.243  25.532  25.000  1.00  0.00     0.107 C 
BRANCH   9  10
ATOM     10  C   UNL A   1      31.241  24.427  24.879  1.00  0.00     0.196 A 
ATOM     11  N   UNL A   1      30.983  23.151  24.653  1.00  0.00    -0.213 NA
ATOM     12  O   UNL A   1      32.583  24.728  24.979  1.00  0.00    -0.440 OA
ATOM     13  C   UNL A   1      32.221  22.564  24.623  1.00  0.00     0.117 A 
ATOM     14  C   UNL A   1      33.203  23.521  24.785  1.00  0.00     0.162 A 
BRANCH  13  15
ATOM     15  C   UNL A   1      32.502  21.171  24.342  1.00  0.00     0.004 A 
ATOM     16  C   UNL A   1      32.207  20.634  23.078  1.00  0.00     0.010 A 
ATOM     17  C   UNL A   1      32.865  20.314  25.385  1.00  0.00     0.010 A 
ATOM     18  C   UNL A   1      32.192  19.253  22.883  1.00  0.00     0.001 A 
ATOM     19  C   UNL A   1      32.857  18.932  25.184  1.00  0.00     0.001 A 
ATOM     20  C   UNL A   1      32.502  18.404  23.942  1.00  0.00     0.000 A 
ENDBRANCH  13  15
BRANCH  14  21
ATOM     21  C   UNL A   1      34.655  23.474  24.722  1.00  0.00     0.020 A 
ATOM     22  C   UNL A   1      35.448  23.744  25.840  1.00  0.00     0.012 A 
ATOM     23  C   UNL A   1      35.277  23.029  23.539  1.00  0.00     0.012 A 
ATOM     24  C   UNL A   1      36.830  23.536  25.785  1.00  0.00     0.001 A 
ATOM     25  C   UNL A   1      36.653  22.816  23.487  1.00  0.00     0.001 A 
ATOM     26  C   UNL A   1      37.427  23.056  24.618  1.00  0.00     0.000 A 
ENDBRANCH  14  21
ENDBRANCH   9  10
ENDBRANCH   8   9
ENDBRANCH   6   8
ENDBRANCH   3   4
ENDBRANCH   2   3
ENDBRANCH   1   2
BRANCH   1  27
ATOM     27  C   UNL A   1      32.081  29.346  27.058  1.00  0.00     0.002 C 
BRANCH  27  28
ATOM     28  C   UNL A   1      32.166  30.789  26.580  1.00  0.00     0.021 C 
BRANCH  28  29
ATOM     29  C   UNL A   1      33.136  31.657  27.377  1.00  0.00     0.116 C 
BRANCH  29  30
ATOM     30  N   UNL A   1      32.663  33.025  27.574  1.00  0.00    -0.352 N 
ATOM     31  C   UNL A   1      33.165  34.022  28.378  1.00  0.00     0.251 C 
ATOM     32  H   UNL A   1      31.865  33.270  27.054  1.00  0.00     0.163 HD
ATOM     33  O   UNL A   1      32.574  35.084  28.518  1.00  0.00    -0.269 OA
BRANCH  31  34
ATOM     34  C   UNL A   1      34.422  33.781  29.106  1.00  0.00     0.039 A 
ATOM     35  C   UNL A   1      34.389  33.047  30.295  1.00  0.00     0.014 A 
ATOM     36  C   UNL A   1      35.634  34.217  28.569  1.00  0.00     0.014 A 
ATOM     37  C   UNL A   1      35.588  32.655  30.889  1.00  0.00     0.010 A 
ATOM     38  C   UNL A   1      36.822  33.752  29.109  1.00  0.00     0.010 A 
ATOM     39  C   UNL A   1      36.809  32.953  30.264  1.00  0.00    -0.014 A 
BRANCH  39  40
ATOM     40  C   UNL A   1      38.094  32.408  30.757  1.00  0.00     0.031 A 
ATOM     41  C   UNL A   1      38.661  31.164  30.141  1.00  0.00     0.074 A 
ATOM     42  C   UNL A   1      38.666  32.957  31.845  1.00  0.00     0.049 A 
ATOM     43  N   UNL A   1      39.668  30.430  30.536  1.00  0.00    -0.248 NA
ATOM     44  C   UNL A   1      37.972  30.654  28.945  1.00  0.00     0.031 C 
ATOM     45  C   UNL A   1      38.162  34.126  32.571  1.00  0.00     0.029 A 
ATOM     46  N   UNL A   1      39.781  32.585  32.552  1.00  0.00    -0.354 N 
ATOM     47  C   UNL A   1      39.718  29.360  29.654  1.00  0.00     0.074 A 
ATOM     48  C   UNL A   1      38.607  29.510  28.739  1.00  0.00     0.031 C 
ATOM     49  C   UNL A   1      38.968  34.377  33.615  1.00  0.00     0.029 A 
ATOM     50  C   UNL A   1      40.017  33.365  33.657  1.00  0.00     0.049 A 
ATOM     51  H   UNL A   1      40.356  31.829  32.292  1.00  0.00     0.167 HD
ATOM     52  C   UNL A   1      40.622  28.353  29.601  1.00  0.00     0.037 A 
ATOM     53  C   UNL A   1      40.963  33.264  34.608  1.00  0.00     0.037 A 
ATOM     54  C   UNL A   1      41.736  28.228  30.503  1.00  0.00     0.049 A 
ATOM     55  C   UNL A   1      41.969  32.154  34.519  1.00  0.00     0.074 A 
ATOM     56  C   UNL A   1      42.754  27.291  30.494  1.00  0.00     0.029 A 
ATOM     57  N   UNL A   1      41.976  29.071  31.578  1.00  0.00    -0.354 N 
ATOM     58  N   UNL A   1      42.049  31.184  33.638  1.00  0.00    -0.248 NA
ATOM     59  C   UNL A   1      43.017  32.124  35.547  1.00  0.00     0.031 C 
ATOM     60  C   UNL A   1      43.590  27.548  31.588  1.00  0.00     0.029 A 
ATOM     61  C   UNL A   1      43.114  28.666  32.253  1.00  0.00     0.049 A 
ATOM     62  H   UNL A   1      41.418  29.845  31.825  1.00  0.00     0.167 HD
ATOM     63  C   UNL A   1      43.160  30.434  34.000  1.00  0.00     0.074 A 
ATOM     64  C   UNL A   1      43.733  31.073  35.168  1.00  0.00     0.031 C 
ATOM     65  C   UNL A   1      43.659  29.315  33.420  1.00  0.00     0.037 A 
BRANCH  52  66
ATOM     66  C   UNL A   1      40.433  27.320  28.529  1.00  0.00     0.057 A 
ATOM     67  C   UNL A   1      41.086  27.413  27.291  1.00  0.00     0.134 A 
ATOM     68  C   UNL A   1      39.584  26.226  28.728  1.00  0.00     0.134 A 
ATOM     69  F   UNL A   1      41.902  28.446  27.029  1.00  0.00    -0.206 F 
ATOM     70  C   UNL A   1      40.872  26.475  26.279  1.00  0.00     0.040 A 
ATOM     71  C   UNL A   1      39.384  25.266  27.733  1.00  0.00     0.040 A 
ATOM     72  F   UNL A   1      38.930  26.073  29.889  1.00  0.00    -0.206 F 
ATOM     73  C   UNL A   1      40.020  25.396  26.501  1.00  0.00     0.006 A 
ENDBRANCH  52  66
BRANCH  53  74
ATOM     74  C   UNL A   1      41.004  34.254  35.712  1.00  0.00     0.057 A 
ATOM     75  C   UNL A   1      41.661  35.479  35.557  1.00  0.00     0.134 A 
ATOM     76  C   UNL A   1      40.356  34.018  36.931  1.00  0.00     0.134 A 
ATOM     77  F   UNL A   1      42.309  35.756  34.416  1.00  0.00    -0.206 F 
ATOM     78  C   UNL A   1      41.681  36.432  36.575  1.00  0.00     0.040 A 
ATOM     79  C   UNL A   1      40.350  34.970  37.952  1.00  0.00     0.040 A 
ATOM     80  F   UNL A   1      39.699  32.867  37.137  1.00  0.00    -0.206 F 
ATOM     81  C   UNL A   1      41.018  36.181  37.776  1.00  0.00     0.006 A 
ENDBRANCH  53  74
BRANCH  65  82
ATOM     82  C   UNL A   1      44.887  28.720  34.039  1.00  0.00     0.057 A 
ATOM     83  C   UNL A   1      44.806  27.726  35.020  1.00  0.00     0.134 A 
ATOM     84  C   UNL A   1      46.163  29.117  33.618  1.00  0.00     0.134 A 
ATOM     85  F   UNL A   1      43.613  27.314  35.475  1.00  0.00    -0.206 F 
ATOM     86  C   UNL A   1      45.954  27.156  35.574  1.00  0.00     0.040 A 
ATOM     87  C   UNL A   1      47.316  28.538  34.148  1.00  0.00     0.040 A 
ATOM     88  F   UNL A   1      46.307  30.061  32.675  1.00  0.00    -0.206 F 
ATOM     89  C   UNL A   1      47.213  27.557  35.133  1.00  0.00     0.006 A 
ENDBRANCH  65  82
ENDBRANCH  39  40
ENDBRANCH  31  34
ENDBRANCH  29  30
ENDBRANCH  28  29
ENDBRANCH  27  28
ENDBRANCH   1  27
TORSDOF 17
ENDMDL
MODEL 3
REMARK VINA RESULT:     -12.0      1.337      6.562
REMARK SMILES O=C(CCc1nc(-c2ccccc2)c(-c2ccccc2)o1)NCCCCCCNC(=O)c1ccc(-c2c3nc(c(-c4c(F)cccc4F)c4ccc([nH]4)c(-c4c(F)cccc4F)c4nc(c(-c5c(F)cccc5F)c5ccc2[nH]5)C=C4)C=C3)cc1
REMARK SMILES IDX 25 1 24 2 23 3 22 4 1 5 2 6 3 8 4 9 5 10 6 11 21 12 7 13
REMARK SMILES IDX 14 14 8 15 9 16 13 17 10 18 12 19 11 20 15 21 16 22 20 23
REMARK SMILES IDX 17 24 19 25 18 26 26 27 27 28 28 29 29 30 30 31 31 33 32 34
REMARK SMILES IDX 33 35 85 36 34 37 84 38 35 39 36 40 37 41 78 42 38 43 83 44
REMARK SMILES IDX 77 45 79 46 39 47 82 48 76 49 75 50 40 52 66 53 49 54 65 55
REMARK SMILES IDX 50 56 53 57 64 58 80 59 51 60 52 61 63 63 81 64 54 65 41 66
REMARK SMILES IDX 42 67 47 68 43 69 44 70 46 71 48 72 45 73 67 74 68 75 73 76
REMARK SMILES IDX 69 77 70 78 72 79 74 80 71 81 55 82 56 83 61 84 57 85 58 86
REMARK SMILES IDX 60 87 62 88 59 89
REMARK H PARENT 22 7 29 32 79 51 53 62
REMARK Flexibility Score: inf
ROOT
ATOM      1  C   UNL A   1      37.101  23.346  25.182  1.00  0.00     0.002 C 
ENDROOT
BRANCH   1   2
ATOM      2  C   UNL A   1      35.844  23.367  26.057  1.00  0.00     0.021 C 
BRANCH   2   3
ATOM      3  C   UNL A   1      34.571  23.809  25.331  1.00  0.00     0.116 C 
BRANCH   3   4
ATOM      4  N   UNL A   1      33.409  23.086  25.805  1.00  0.00    -0.356 N 
ATOM      5  O   UNL A   1      32.440  22.735  23.757  1.00  0.00    -0.275 OA
ATOM      6  C   UNL A   1      32.418  22.624  24.979  1.00  0.00     0.220 C 
ATOM      7  H   UNL A   1      33.326  22.917  26.771  1.00  0.00     0.163 HD
BRANCH   6   8
ATOM      8  C   UNL A   1      31.260  21.969  25.702  1.00  0.00     0.110 C 
BRANCH   8   9
ATOM      9  C   UNL A   1      30.367  22.989  26.396  1.00  0.00     0.107 C 
BRANCH   9  10
ATOM     10  C   UNL A   1      30.713  24.425  26.170  1.00  0.00     0.196 A 
ATOM     11  N   UNL A   1      31.524  25.166  26.904  1.00  0.00    -0.213 NA
ATOM     12  O   UNL A   1      30.178  25.075  25.079  1.00  0.00    -0.440 OA
ATOM     13  C   UNL A   1      31.510  26.386  26.282  1.00  0.00     0.117 A 
ATOM     14  C   UNL A   1      30.721  26.331  25.149  1.00  0.00     0.162 A 
BRANCH  13  15
ATOM     15  C   UNL A   1      32.291  27.548  26.655  1.00  0.00     0.004 A 
ATOM     16  C   UNL A   1      31.652  28.700  27.142  1.00  0.00     0.010 A 
ATOM     17  C   UNL A   1      33.650  27.600  26.334  1.00  0.00     0.010 A 
ATOM     18  C   UNL A   1      32.341  29.909  27.224  1.00  0.00     0.001 A 
ATOM     19  C   UNL A   1      34.341  28.811  26.426  1.00  0.00     0.001 A 
ATOM     20  C   UNL A   1      33.682  29.965  26.851  1.00  0.00     0.000 A 
ENDBRANCH  13  15
BRANCH  14  21
ATOM     21  C   UNL A   1      30.451  27.279  24.081  1.00  0.00     0.020 A 
ATOM     22  C   UNL A   1      29.147  27.614  23.708  1.00  0.00     0.012 A 
ATOM     23  C   UNL A   1      31.527  27.968  23.486  1.00  0.00     0.012 A 
ATOM     24  C   UNL A   1      28.924  28.644  22.788  1.00  0.00     0.001 A 
ATOM     25  C   UNL A   1      31.303  28.998  22.574  1.00  0.00     0.001 A 
ATOM     26  C   UNL A   1      29.999  29.345  22.238  1.00  0.00     0.000 A 
ENDBRANCH  14  21
ENDBRANCH   9  10
ENDBRANCH   8   9
ENDBRANCH   6   8
ENDBRANCH   3   4
ENDBRANCH   2   3
ENDBRANCH   1   2
BRANCH   1  27
ATOM     27  C   UNL A   1      37.254  22.094  24.321  1.00  0.00     0.002 C 
BRANCH  27  28
ATOM     28  C   UNL A   1      37.717  20.841  25.052  1.00  0.00     0.021 C 
BRANCH  28  29
ATOM     29  C   UNL A   1      39.045  21.000  25.788  1.00  0.00     0.116 C 
BRANCH  29  30
ATOM     30  N   UNL A   1      39.870  19.795  25.764  1.00  0.00    -0.352 N 
ATOM     31  C   UNL A   1      41.212  19.641  26.027  1.00  0.00     0.251 C 
ATOM     32  H   UNL A   1      39.394  18.968  25.523  1.00  0.00     0.163 HD
ATOM     33  O   UNL A   1      41.777  18.573  25.844  1.00  0.00    -0.269 OA
BRANCH  31  34
ATOM     34  C   UNL A   1      41.979  20.805  26.503  1.00  0.00     0.039 A 
ATOM     35  C   UNL A   1      42.536  21.681  25.568  1.00  0.00     0.014 A 
ATOM     36  C   UNL A   1      42.077  21.062  27.871  1.00  0.00     0.014 A 
ATOM     37  C   UNL A   1      43.099  22.879  26.006  1.00  0.00     0.010 A 
ATOM     38  C   UNL A   1      42.555  22.291  28.298  1.00  0.00     0.010 A 
ATOM     39  C   UNL A   1      43.054  23.217  27.368  1.00  0.00    -0.014 A 
BRANCH  39  40
ATOM     40  C   UNL A   1      43.476  24.548  27.858  1.00  0.00     0.031 A 
ATOM     41  C   UNL A   1      42.440  25.582  28.187  1.00  0.00     0.074 A 
ATOM     42  C   UNL A   1      44.785  24.861  27.870  1.00  0.00     0.049 A 
ATOM     43  N   UNL A   1      42.596  26.852  28.458  1.00  0.00    -0.248 NA
ATOM     44  C   UNL A   1      41.039  25.136  28.163  1.00  0.00     0.031 C 
ATOM     45  C   UNL A   1      45.877  23.956  27.500  1.00  0.00     0.029 A 
ATOM     46  N   UNL A   1      45.420  26.038  28.174  1.00  0.00    -0.354 N 
ATOM     47  C   UNL A   1      41.314  27.360  28.612  1.00  0.00     0.074 A 
ATOM     48  C   UNL A   1      40.392  26.277  28.348  1.00  0.00     0.031 C 
ATOM     49  C   UNL A   1      47.045  24.610  27.604  1.00  0.00     0.029 A 
ATOM     50  C   UNL A   1      46.782  25.987  28.006  1.00  0.00     0.049 A 
ATOM     51  H   UNL A   1      44.944  26.843  28.482  1.00  0.00     0.167 HD
ATOM     52  C   UNL A   1      40.941  28.615  28.960  1.00  0.00     0.037 A 
ATOM     53  C   UNL A   1      47.713  26.949  28.143  1.00  0.00     0.037 A 
ATOM     54  C   UNL A   1      41.869  29.677  29.242  1.00  0.00     0.049 A 
ATOM     55  C   UNL A   1      47.281  28.326  28.552  1.00  0.00     0.074 A 
ATOM     56  C   UNL A   1      41.603  30.964  29.675  1.00  0.00     0.029 A 
ATOM     57  N   UNL A   1      43.246  29.573  29.116  1.00  0.00    -0.354 N 
ATOM     58  N   UNL A   1      46.068  28.780  28.762  1.00  0.00    -0.248 NA
ATOM     59  C   UNL A   1      48.341  29.324  28.746  1.00  0.00     0.031 C 
ATOM     60  C   UNL A   1      42.820  31.648  29.777  1.00  0.00     0.029 A 
ATOM     61  C   UNL A   1      43.845  30.777  29.444  1.00  0.00     0.049 A 
ATOM     62  H   UNL A   1      43.728  28.761  28.834  1.00  0.00     0.167 HD
ATOM     63  C   UNL A   1      46.218  30.112  29.123  1.00  0.00     0.074 A 
ATOM     64  C   UNL A   1      47.642  30.387  29.123  1.00  0.00     0.031 C 
ATOM     65  C   UNL A   1      45.265  31.027  29.426  1.00  0.00     0.037 A 
BRANCH  52  66
ATOM     66  C   UNL A   1      39.468  28.888  29.055  1.00  0.00     0.057 A 
ATOM     67  C   UNL A   1      38.729  29.341  27.952  1.00  0.00     0.134 A 
ATOM     68  C   UNL A   1      38.781  28.706  30.260  1.00  0.00     0.134 A 
ATOM     69  F   UNL A   1      39.330  29.551  26.770  1.00  0.00    -0.206 F 
ATOM     70  C   UNL A   1      37.369  29.638  28.057  1.00  0.00     0.040 A 
ATOM     71  C   UNL A   1      37.414  28.973  30.369  1.00  0.00     0.040 A 
ATOM     72  F   UNL A   1      39.425  28.272  31.354  1.00  0.00    -0.206 F 
ATOM     73  C   UNL A   1      36.708  29.451  29.268  1.00  0.00     0.006 A 
ENDBRANCH  52  66
BRANCH  53  74
ATOM     74  C   UNL A   1      49.141  26.628  27.904  1.00  0.00     0.057 A 
ATOM     75  C   UNL A   1      49.716  26.796  26.640  1.00  0.00     0.134 A 
ATOM     76  C   UNL A   1      49.975  26.182  28.939  1.00  0.00     0.134 A 
ATOM     77  F   UNL A   1      48.965  27.207  25.608  1.00  0.00    -0.206 F 
ATOM     78  C   UNL A   1      51.066  26.527  26.409  1.00  0.00     0.040 A 
ATOM     79  C   UNL A   1      51.331  25.929  28.727  1.00  0.00     0.040 A 
ATOM     80  F   UNL A   1      49.485  26.012  30.176  1.00  0.00    -0.206 F 
ATOM     81  C   UNL A   1      51.879  26.098  27.457  1.00  0.00     0.006 A 
ENDBRANCH  53  74
BRANCH  65  82
ATOM     82  C   UNL A   1      45.734  32.404  29.785  1.00  0.00     0.057 A 
ATOM     83  C   UNL A   1      46.065  32.747  31.101  1.00  0.00     0.134 A 
ATOM     84  C   UNL A   1      45.897  33.384  28.797  1.00  0.00     0.134 A 
ATOM     85  F   UNL A   1      45.917  31.857  32.094  1.00  0.00    -0.206 F 
ATOM     86  C   UNL A   1      46.527  34.023  31.426  1.00  0.00     0.040 A 
ATOM     87  C   UNL A   1      46.379  34.655  29.106  1.00  0.00     0.040 A 
ATOM     88  F   UNL A   1      45.602  33.114  27.516  1.00  0.00    -0.206 F 
ATOM     89  C   UNL A   1      46.692  34.979  30.425  1.00  0.00     0.006 A 
ENDBRANCH  65  82
ENDBRANCH  39  40
ENDBRANCH  31  34
ENDBRANCH  29  30
ENDBRANCH  28  29
ENDBRANCH  27  28
ENDBRANCH   1  27
TORSDOF 17
ENDMDL
