MODEL 1
REMARK VINA RESULT:     -11.4      0.000      0.000
REMARK SMILES N#CCC[NH+]1CC[NH+]([C@@H](C(=O)NCCCCCCNC(=O)c2ccc(-c3c4nc(c(-c5c(F)cccc5F)c5ccc([nH]5)c(-c5c(F)cccc5F)c5nc(c(-c6c(F)cccc6F)c6ccc3[nH]6)C=C5)C=C4)cc2)c2c[nH]c3cc(Cl)ccc23)CC1
REMARK SMILES IDX 14 1 13 2 12 3 10 4 11 5 9 7 8 8 5 9 6 10 87 11 7 13 86 14
REMARK SMILES IDX 4 16 3 17 2 18 1 19 76 20 77 21 85 22 78 23 79 24 84 25
REMARK SMILES IDX 80 27 83 28 81 29 82 30 15 31 16 32 17 33 18 34 19 35 20 36
REMARK SMILES IDX 21 38 22 39 23 40 75 41 24 42 74 43 25 44 26 45 27 46 68 47
REMARK SMILES IDX 28 48 73 49 67 50 69 51 29 52 72 53 66 54 65 55 30 57 56 58
REMARK SMILES IDX 39 59 55 60 40 61 43 62 54 63 70 64 41 65 42 66 53 68 71 69
REMARK SMILES IDX 44 70 31 71 32 72 37 73 33 74 34 75 36 76 38 77 35 78 57 79
REMARK SMILES IDX 58 80 63 81 59 82 60 83 62 84 64 85 61 86 45 87 46 88 51 89
REMARK SMILES IDX 47 90 48 91 50 92 52 93 49 94
REMARK H PARENT 12 6 5 12 8 15 78 26 19 37 69 56 43 67
REMARK Flexibility Score: inf
ROOT
ATOM      1  C   UNL A   1      37.092  23.036  26.126  1.00  0.00     0.021 C 
ENDROOT
BRANCH   1   2
ATOM      2  C   UNL A   1      36.065  23.927  25.314  1.00  0.00     0.116 C 
BRANCH   2   3
ATOM      3  N   UNL A   1      35.562  23.484  23.998  1.00  0.00    -0.351 N 
ATOM      4  C   UNL A   1      34.340  23.448  23.329  1.00  0.00     0.283 C 
ATOM      5  O   UNL A   1      34.439  23.517  22.094  1.00  0.00    -0.268 OA
ATOM      6  H   UNL A   1      36.287  23.112  23.443  1.00  0.00     0.163 HD
BRANCH   4   7
ATOM      7  C   UNL A   1      32.936  23.258  24.000  1.00  0.00     0.308 C 
BRANCH   7   8
ATOM      8  N   UNL A   1      32.543  24.296  24.974  1.00  0.00    -0.312 N 
ATOM      9  N   UNL A   1      30.785  26.652  24.085  1.00  0.00    -0.325 N 
ATOM     10  C   UNL A   1      31.977  26.163  23.414  1.00  0.00     0.324 C 
ATOM     11  C   UNL A   1      30.283  25.562  24.933  1.00  0.00     0.324 C 
ATOM     12  H   UNL A   1      30.050  26.883  23.418  1.00  0.00     0.348 HD
ATOM     13  C   UNL A   1      32.903  25.602  24.503  1.00  0.00     0.325 C 
ATOM     14  C   UNL A   1      31.206  24.443  25.555  1.00  0.00     0.325 C 
ATOM     15  H   UNL A   1      33.063  23.891  25.753  1.00  0.00     0.349 HD
BRANCH   9  16
ATOM     16  C   UNL A   1      30.986  27.941  24.731  1.00  0.00     0.278 C 
BRANCH  16  17
ATOM     17  C   UNL A   1      31.241  29.160  23.848  1.00  0.00     0.181 C 
BRANCH  17  18
ATOM     18  C   UNL A   1      30.224  29.292  22.726  1.00  0.00     0.068 C 
ATOM     19  N   UNL A   1      29.380  29.402  21.795  1.00  0.00    -0.198 NA
ENDBRANCH  17  18
ENDBRANCH  16  17
ENDBRANCH   9  16
ENDBRANCH   7   8
BRANCH   7  20
ATOM     20  C   UNL A   1      32.645  21.818  24.799  1.00  0.00     0.044 A 
ATOM     21  C   UNL A   1      33.184  21.633  26.083  1.00  0.00     0.094 A 
ATOM     22  C   UNL A   1      32.642  20.386  24.348  1.00  0.00     0.009 A 
ATOM     23  N   UNL A   1      34.250  20.770  25.837  1.00  0.00    -0.361 N 
ATOM     24  C   UNL A   1      33.792  19.817  24.950  1.00  0.00     0.047 A 
ATOM     25  C   UNL A   1      32.014  19.567  23.365  1.00  0.00     0.012 A 
ATOM     26  H   UNL A   1      35.154  20.827  26.221  1.00  0.00     0.166 HD
ATOM     27  C   UNL A   1      34.367  18.581  24.593  1.00  0.00     0.047 A 
ATOM     28  C   UNL A   1      32.509  18.260  23.086  1.00  0.00     0.021 A 
ATOM     29  C   UNL A   1      33.692  17.801  23.662  1.00  0.00     0.043 A 
ATOM     30  Cl  UNL A   1      34.388  16.298  23.167  1.00  0.00    -0.084 Cl
ENDBRANCH   7  20
ENDBRANCH   4   7
ENDBRANCH   2   3
ENDBRANCH   1   2
BRANCH   1  31
ATOM     31  C   UNL A   1      38.114  22.151  25.361  1.00  0.00     0.002 C 
BRANCH  31  32
ATOM     32  C   UNL A   1      37.540  20.872  24.733  1.00  0.00     0.002 C 
BRANCH  32  33
ATOM     33  C   UNL A   1      38.405  19.614  24.882  1.00  0.00     0.021 C 
BRANCH  33  34
ATOM     34  C   UNL A   1      39.260  19.559  26.153  1.00  0.00     0.116 C 
BRANCH  34  35
ATOM     35  N   UNL A   1      40.559  18.941  25.911  1.00  0.00    -0.352 N 
ATOM     36  C   UNL A   1      41.807  19.526  25.878  1.00  0.00     0.251 C 
ATOM     37  H   UNL A   1      40.542  17.970  25.749  1.00  0.00     0.163 HD
ATOM     38  O   UNL A   1      42.763  18.935  25.400  1.00  0.00    -0.269 OA
BRANCH  36  39
ATOM     39  C   UNL A   1      41.984  20.887  26.429  1.00  0.00     0.039 A 
ATOM     40  C   UNL A   1      41.920  21.085  27.811  1.00  0.00     0.014 A 
ATOM     41  C   UNL A   1      42.195  21.969  25.572  1.00  0.00     0.014 A 
ATOM     42  C   UNL A   1      42.131  22.363  28.336  1.00  0.00     0.010 A 
ATOM     43  C   UNL A   1      42.473  23.227  26.099  1.00  0.00     0.010 A 
ATOM     44  C   UNL A   1      42.438  23.440  27.486  1.00  0.00    -0.014 A 
BRANCH  44  45
ATOM     45  C   UNL A   1      42.712  24.797  28.029  1.00  0.00     0.031 A 
ATOM     46  C   UNL A   1      44.108  25.174  28.445  1.00  0.00     0.074 A 
ATOM     47  C   UNL A   1      41.699  25.666  28.202  1.00  0.00     0.049 A 
ATOM     48  N   UNL A   1      44.539  26.286  28.987  1.00  0.00    -0.248 NA
ATOM     49  C   UNL A   1      45.156  24.159  28.251  1.00  0.00     0.031 C 
ATOM     50  C   UNL A   1      40.295  25.407  27.882  1.00  0.00     0.029 A 
ATOM     51  N   UNL A   1      41.693  26.947  28.700  1.00  0.00    -0.354 N 
ATOM     52  C   UNL A   1      45.898  26.096  29.209  1.00  0.00     0.074 A 
ATOM     53  C   UNL A   1      46.210  24.746  28.798  1.00  0.00     0.031 C 
ATOM     54  C   UNL A   1      39.569  26.501  28.162  1.00  0.00     0.029 A 
ATOM     55  C   UNL A   1      40.447  27.526  28.719  1.00  0.00     0.049 A 
ATOM     56  H   UNL A   1      42.505  27.407  29.013  1.00  0.00     0.167 HD
ATOM     57  C   UNL A   1      46.808  26.977  29.691  1.00  0.00     0.037 A 
ATOM     58  C   UNL A   1      40.055  28.743  29.143  1.00  0.00     0.037 A 
ATOM     59  C   UNL A   1      46.499  28.329  30.077  1.00  0.00     0.049 A 
ATOM     60  C   UNL A   1      41.084  29.696  29.688  1.00  0.00     0.074 A 
ATOM     61  C   UNL A   1      47.362  29.319  30.512  1.00  0.00     0.029 A 
ATOM     62  N   UNL A   1      45.226  28.878  30.076  1.00  0.00    -0.354 N 
ATOM     63  N   UNL A   1      42.378  29.530  29.822  1.00  0.00    -0.248 NA
ATOM     64  C   UNL A   1      40.599  31.008  30.138  1.00  0.00     0.031 C 
ATOM     65  C   UNL A   1      46.603  30.450  30.830  1.00  0.00     0.029 A 
ATOM     66  C   UNL A   1      45.276  30.185  30.533  1.00  0.00     0.049 A 
ATOM     67  H   UNL A   1      44.408  28.410  29.792  1.00  0.00     0.167 HD
ATOM     68  C   UNL A   1      42.864  30.725  30.336  1.00  0.00     0.074 A 
ATOM     69  C   UNL A   1      41.729  31.612  30.478  1.00  0.00     0.031 C 
ATOM     70  C   UNL A   1      44.138  31.059  30.661  1.00  0.00     0.037 A 
BRANCH  57  71
ATOM     71  C   UNL A   1      48.228  26.504  29.832  1.00  0.00     0.057 A 
ATOM     72  C   UNL A   1      49.181  26.708  28.825  1.00  0.00     0.134 A 
ATOM     73  C   UNL A   1      48.656  25.871  31.005  1.00  0.00     0.134 A 
ATOM     74  F   UNL A   1      48.835  27.299  27.670  1.00  0.00    -0.206 F 
ATOM     75  C   UNL A   1      50.501  26.277  28.969  1.00  0.00     0.040 A 
ATOM     76  C   UNL A   1      49.980  25.461  31.173  1.00  0.00     0.040 A 
ATOM     77  F   UNL A   1      47.799  25.648  32.012  1.00  0.00    -0.206 F 
ATOM     78  C   UNL A   1      50.906  25.659  30.150  1.00  0.00     0.006 A 
ENDBRANCH  57  71
BRANCH  58  79
ATOM     79  C   UNL A   1      38.627  29.145  29.051  1.00  0.00     0.057 A 
ATOM     80  C   UNL A   1      38.085  29.611  27.847  1.00  0.00     0.134 A 
ATOM     81  C   UNL A   1      37.777  29.096  30.162  1.00  0.00     0.134 A 
ATOM     82  F   UNL A   1      38.854  29.700  26.751  1.00  0.00    -0.206 F 
ATOM     83  C   UNL A   1      36.759  30.038  27.756  1.00  0.00     0.040 A 
ATOM     84  C   UNL A   1      36.441  29.493  30.079  1.00  0.00     0.040 A 
ATOM     85  F   UNL A   1      38.230  28.652  31.343  1.00  0.00    -0.206 F 
ATOM     86  C   UNL A   1      35.932  29.974  28.875  1.00  0.00     0.006 A 
ENDBRANCH  58  79
BRANCH  70  87
ATOM     87  C   UNL A   1      44.378  32.455  31.161  1.00  0.00     0.057 A 
ATOM     88  C   UNL A   1      44.370  32.766  32.526  1.00  0.00     0.134 A 
ATOM     89  C   UNL A   1      44.661  33.493  30.262  1.00  0.00     0.134 A 
ATOM     90  F   UNL A   1      44.094  31.822  33.438  1.00  0.00    -0.206 F 
ATOM     91  C   UNL A   1      44.610  34.066  32.978  1.00  0.00     0.040 A 
ATOM     92  C   UNL A   1      44.932  34.788  30.705  1.00  0.00     0.040 A 
ATOM     93  F   UNL A   1      44.694  33.261  28.941  1.00  0.00    -0.206 F 
ATOM     94  C   UNL A   1      44.900  35.078  32.066  1.00  0.00     0.006 A 
ENDBRANCH  70  87
ENDBRANCH  44  45
ENDBRANCH  36  39
ENDBRANCH  34  35
ENDBRANCH  33  34
ENDBRANCH  32  33
ENDBRANCH  31  32
ENDBRANCH   1  31
TORSDOF 18
ENDMDL
MODEL 2
REMARK VINA RESULT:     -11.2      4.601      9.565
REMARK SMILES N#CCC[NH+]1CC[NH+]([C@@H](C(=O)NCCCCCCNC(=O)c2ccc(-c3c4nc(c(-c5c(F)cccc5F)c5ccc([nH]5)c(-c5c(F)cccc5F)c5nc(c(-c6c(F)cccc6F)c6ccc3[nH]6)C=C5)C=C4)cc2)c2c[nH]c3cc(Cl)ccc23)CC1
REMARK SMILES IDX 14 1 13 2 12 3 10 4 11 5 9 7 8 8 5 9 6 10 87 11 7 13 86 14
REMARK SMILES IDX 4 16 3 17 2 18 1 19 76 20 77 21 85 22 78 23 79 24 84 25
REMARK SMILES IDX 80 27 83 28 81 29 82 30 15 31 16 32 17 33 18 34 19 35 20 36
REMARK SMILES IDX 21 38 22 39 23 40 75 41 24 42 74 43 25 44 26 45 27 46 68 47
REMARK SMILES IDX 28 48 73 49 67 50 69 51 29 52 72 53 66 54 65 55 30 57 56 58
REMARK SMILES IDX 39 59 55 60 40 61 43 62 54 63 70 64 41 65 42 66 53 68 71 69
REMARK SMILES IDX 44 70 31 71 32 72 37 73 33 74 34 75 36 76 38 77 35 78 57 79
REMARK SMILES IDX 58 80 63 81 59 82 60 83 62 84 64 85 61 86 45 87 46 88 51 89
REMARK SMILES IDX 47 90 48 91 50 92 52 93 49 94
REMARK H PARENT 12 6 5 12 8 15 78 26 19 37 69 56 43 67
REMARK Flexibility Score: inf
ROOT
ATOM      1  C   UNL A   1      31.772  28.564  27.398  1.00  0.00     0.021 C 
ENDROOT
BRANCH   1   2
ATOM      2  C   UNL A   1      31.730  27.280  26.471  1.00  0.00     0.116 C 
BRANCH   2   3
ATOM      3  N   UNL A   1      32.946  26.467  26.260  1.00  0.00    -0.351 N 
ATOM      4  C   UNL A   1      33.428  25.580  25.299  1.00  0.00     0.283 C 
ATOM      5  O   UNL A   1      34.666  25.551  25.216  1.00  0.00    -0.268 OA
ATOM      6  H   UNL A   1      33.588  26.582  26.998  1.00  0.00     0.163 HD
BRANCH   4   7
ATOM      7  C   UNL A   1      32.555  24.617  24.423  1.00  0.00     0.308 C 
BRANCH   7   8
ATOM      8  N   UNL A   1      33.266  23.471  23.823  1.00  0.00    -0.312 N 
ATOM      9  N   UNL A   1      32.430  20.602  24.530  1.00  0.00    -0.325 N 
ATOM     10  C   UNL A   1      32.675  21.684  25.466  1.00  0.00     0.324 C 
ATOM     11  C   UNL A   1      32.153  21.210  23.221  1.00  0.00     0.324 C 
ATOM     12  H   UNL A   1      31.608  20.059  24.794  1.00  0.00     0.348 HD
ATOM     13  C   UNL A   1      33.751  22.581  24.838  1.00  0.00     0.325 C 
ATOM     14  C   UNL A   1      32.731  22.606  22.767  1.00  0.00     0.325 C 
ATOM     15  H   UNL A   1      33.935  24.040  23.304  1.00  0.00     0.349 HD
BRANCH   9  16
ATOM     16  C   UNL A   1      33.462  19.575  24.568  1.00  0.00     0.278 C 
BRANCH  16  17
ATOM     17  C   UNL A   1      33.028  18.121  24.738  1.00  0.00     0.181 C 
BRANCH  17  18
ATOM     18  C   UNL A   1      33.583  17.213  23.652  1.00  0.00     0.068 C 
ATOM     19  N   UNL A   1      34.043  16.461  22.751  1.00  0.00    -0.198 NA
ENDBRANCH  17  18
ENDBRANCH  16  17
ENDBRANCH   9  16
ENDBRANCH   7   8
BRANCH   7  20
ATOM     20  C   UNL A   1      31.706  25.284  23.145  1.00  0.00     0.044 A 
ATOM     21  C   UNL A   1      32.405  25.656  21.986  1.00  0.00     0.094 A 
ATOM     22  C   UNL A   1      30.600  26.297  23.076  1.00  0.00     0.009 A 
ATOM     23  N   UNL A   1      32.455  27.044  22.101  1.00  0.00    -0.361 N 
ATOM     24  C   UNL A   1      31.206  27.452  22.521  1.00  0.00     0.047 A 
ATOM     25  C   UNL A   1      29.291  26.501  23.602  1.00  0.00     0.012 A 
ATOM     26  H   UNL A   1      33.230  27.623  21.919  1.00  0.00     0.166 HD
ATOM     27  C   UNL A   1      30.645  28.745  22.529  1.00  0.00     0.047 A 
ATOM     28  C   UNL A   1      28.660  27.774  23.500  1.00  0.00     0.021 A 
ATOM     29  C   UNL A   1      29.348  28.882  23.012  1.00  0.00     0.043 A 
ATOM     30  Cl  UNL A   1      28.642  30.459  23.078  1.00  0.00    -0.084 Cl
ENDBRANCH   7  20
ENDBRANCH   4   7
ENDBRANCH   2   3
ENDBRANCH   1   2
BRANCH   1  31
ATOM     31  C   UNL A   1      32.454  29.861  26.885  1.00  0.00     0.002 C 
BRANCH  31  32
ATOM     32  C   UNL A   1      31.567  30.782  26.034  1.00  0.00     0.002 C 
BRANCH  32  33
ATOM     33  C   UNL A   1      31.390  32.210  26.567  1.00  0.00     0.021 C 
BRANCH  33  34
ATOM     34  C   UNL A   1      32.606  32.787  27.299  1.00  0.00     0.116 C 
BRANCH  34  35
ATOM     35  N   UNL A   1      32.434  34.200  27.615  1.00  0.00    -0.352 N 
ATOM     36  C   UNL A   1      33.000  34.939  28.632  1.00  0.00     0.251 C 
ATOM     37  H   UNL A   1      31.828  34.696  27.019  1.00  0.00     0.163 HD
ATOM     38  O   UNL A   1      32.556  36.036  28.931  1.00  0.00    -0.269 OA
BRANCH  36  39
ATOM     39  C   UNL A   1      34.161  34.390  29.366  1.00  0.00     0.039 A 
ATOM     40  C   UNL A   1      33.959  33.729  30.580  1.00  0.00     0.014 A 
ATOM     41  C   UNL A   1      35.452  34.548  28.856  1.00  0.00     0.014 A 
ATOM     42  C   UNL A   1      35.050  33.171  31.253  1.00  0.00     0.010 A 
ATOM     43  C   UNL A   1      36.528  33.932  29.490  1.00  0.00     0.010 A 
ATOM     44  C   UNL A   1      36.340  33.243  30.699  1.00  0.00    -0.014 A 
BRANCH  44  45
ATOM     45  C   UNL A   1      37.506  32.614  31.375  1.00  0.00     0.031 A 
ATOM     46  C   UNL A   1      38.201  31.440  30.741  1.00  0.00     0.074 A 
ATOM     47  C   UNL A   1      37.900  33.060  32.583  1.00  0.00     0.049 A 
ATOM     48  N   UNL A   1      39.200  30.724  31.196  1.00  0.00    -0.248 NA
ATOM     49  C   UNL A   1      37.693  30.993  29.434  1.00  0.00     0.031 C 
ATOM     50  C   UNL A   1      37.281  34.160  33.324  1.00  0.00     0.029 A 
ATOM     51  N   UNL A   1      38.915  32.637  33.406  1.00  0.00    -0.354 N 
ATOM     52  C   UNL A   1      39.425  29.740  30.242  1.00  0.00     0.074 A 
ATOM     53  C   UNL A   1      38.427  29.913  29.211  1.00  0.00     0.031 C 
ATOM     54  C   UNL A   1      37.946  34.344  34.476  1.00  0.00     0.029 A 
ATOM     55  C   UNL A   1      39.011  33.351  34.576  1.00  0.00     0.049 A 
ATOM     56  H   UNL A   1      39.517  31.891  33.179  1.00  0.00     0.167 HD
ATOM     57  C   UNL A   1      40.392  28.791  30.216  1.00  0.00     0.037 A 
ATOM     58  C   UNL A   1      39.860  33.218  35.614  1.00  0.00     0.037 A 
ATOM     59  C   UNL A   1      41.400  28.637  31.231  1.00  0.00     0.049 A 
ATOM     60  C   UNL A   1      40.915  32.146  35.566  1.00  0.00     0.074 A 
ATOM     61  C   UNL A   1      42.463  27.751  31.262  1.00  0.00     0.029 A 
ATOM     62  N   UNL A   1      41.467  29.384  32.397  1.00  0.00    -0.354 N 
ATOM     63  N   UNL A   1      41.164  31.271  34.621  1.00  0.00    -0.248 NA
ATOM     64  C   UNL A   1      41.810  32.046  36.727  1.00  0.00     0.031 C 
ATOM     65  C   UNL A   1      43.139  27.924  32.475  1.00  0.00     0.029 A 
ATOM     66  C   UNL A   1      42.535  28.959  33.170  1.00  0.00     0.049 A 
ATOM     67  H   UNL A   1      40.848  30.110  32.640  1.00  0.00     0.167 HD
ATOM     68  C   UNL A   1      42.264  30.543  35.058  1.00  0.00     0.074 A 
ATOM     69  C   UNL A   1      42.641  31.087  36.345  1.00  0.00     0.031 C 
ATOM     70  C   UNL A   1      42.904  29.516  34.447  1.00  0.00     0.037 A 
BRANCH  57  71
ATOM     71  C   UNL A   1      40.406  27.843  29.050  1.00  0.00     0.057 A 
ATOM     72  C   UNL A   1      39.644  26.667  29.041  1.00  0.00     0.134 A 
ATOM     73  C   UNL A   1      41.161  28.130  27.906  1.00  0.00     0.134 A 
ATOM     74  F   UNL A   1      38.906  26.326  30.108  1.00  0.00    -0.206 F 
ATOM     75  C   UNL A   1      39.652  25.798  27.947  1.00  0.00     0.040 A 
ATOM     76  C   UNL A   1      41.156  27.284  26.795  1.00  0.00     0.040 A 
ATOM     77  F   UNL A   1      41.910  29.241  27.843  1.00  0.00    -0.206 F 
ATOM     78  C   UNL A   1      40.404  26.110  26.817  1.00  0.00     0.006 A 
ENDBRANCH  57  71
BRANCH  58  79
ATOM     79  C   UNL A   1      39.767  34.134  36.780  1.00  0.00     0.057 A 
ATOM     80  C   UNL A   1      39.034  33.780  37.920  1.00  0.00     0.134 A 
ATOM     81  C   UNL A   1      40.385  35.390  36.779  1.00  0.00     0.134 A 
ATOM     82  F   UNL A   1      38.403  32.598  37.975  1.00  0.00    -0.206 F 
ATOM     83  C   UNL A   1      38.898  34.649  39.004  1.00  0.00     0.040 A 
ATOM     84  C   UNL A   1      40.281  36.258  37.867  1.00  0.00     0.040 A 
ATOM     85  F   UNL A   1      41.109  35.788  35.722  1.00  0.00    -0.206 F 
ATOM     86  C   UNL A   1      39.528  35.892  38.980  1.00  0.00     0.006 A 
ENDBRANCH  58  79
BRANCH  70  87
ATOM     87  C   UNL A   1      44.105  28.941  35.142  1.00  0.00     0.057 A 
ATOM     88  C   UNL A   1      45.395  29.443  34.933  1.00  0.00     0.134 A 
ATOM     89  C   UNL A   1      43.959  27.896  36.064  1.00  0.00     0.134 A 
ATOM     90  F   UNL A   1      45.606  30.434  34.054  1.00  0.00    -0.206 F 
ATOM     91  C   UNL A   1      46.501  28.908  35.597  1.00  0.00     0.040 A 
ATOM     92  C   UNL A   1      45.052  27.376  36.757  1.00  0.00     0.040 A 
ATOM     93  F   UNL A   1      42.749  27.376  36.320  1.00  0.00    -0.206 F 
ATOM     94  C   UNL A   1      46.329  27.878  36.519  1.00  0.00     0.006 A 
ENDBRANCH  70  87
ENDBRANCH  44  45
ENDBRANCH  36  39
ENDBRANCH  34  35
ENDBRANCH  33  34
ENDBRANCH  32  33
ENDBRANCH  31  32
ENDBRANCH   1  31
TORSDOF 18
ENDMDL
MODEL 3
REMARK VINA RESULT:     -11.1      3.686      9.193
REMARK SMILES N#CCC[NH+]1CC[NH+]([C@@H](C(=O)NCCCCCCNC(=O)c2ccc(-c3c4nc(c(-c5c(F)cccc5F)c5ccc([nH]5)c(-c5c(F)cccc5F)c5nc(c(-c6c(F)cccc6F)c6ccc3[nH]6)C=C5)C=C4)cc2)c2c[nH]c3cc(Cl)ccc23)CC1
REMARK SMILES IDX 14 1 13 2 12 3 10 4 11 5 9 7 8 8 5 9 6 10 87 11 7 13 86 14
REMARK SMILES IDX 4 16 3 17 2 18 1 19 76 20 77 21 85 22 78 23 79 24 84 25
REMARK SMILES IDX 80 27 83 28 81 29 82 30 15 31 16 32 17 33 18 34 19 35 20 36
REMARK SMILES IDX 21 38 22 39 23 40 75 41 24 42 74 43 25 44 26 45 27 46 68 47
REMARK SMILES IDX 28 48 73 49 67 50 69 51 29 52 72 53 66 54 65 55 30 57 56 58
REMARK SMILES IDX 39 59 55 60 40 61 43 62 54 63 70 64 41 65 42 66 53 68 71 69
REMARK SMILES IDX 44 70 31 71 32 72 37 73 33 74 34 75 36 76 38 77 35 78 57 79
REMARK SMILES IDX 58 80 63 81 59 82 60 83 62 84 64 85 61 86 45 87 46 88 51 89
REMARK SMILES IDX 47 90 48 91 50 92 52 93 49 94
REMARK H PARENT 12 6 5 12 8 15 78 26 19 37 69 56 43 67
REMARK Flexibility Score: inf
ROOT
ATOM      1  C   UNL A   1      31.609  28.486  27.324  1.00  0.00     0.021 C 
ENDROOT
BRANCH   1   2
ATOM      2  C   UNL A   1      31.537  27.082  26.594  1.00  0.00     0.116 C 
BRANCH   2   3
ATOM      3  N   UNL A   1      32.757  26.269  26.409  1.00  0.00    -0.351 N 
ATOM      4  C   UNL A   1      33.303  25.456  25.417  1.00  0.00     0.283 C 
ATOM      5  O   UNL A   1      34.543  25.413  25.428  1.00  0.00    -0.268 OA
ATOM      6  H   UNL A   1      33.341  26.311  27.201  1.00  0.00     0.163 HD
BRANCH   4   7
ATOM      7  C   UNL A   1      32.490  24.584  24.399  1.00  0.00     0.308 C 
BRANCH   7   8
ATOM      8  N   UNL A   1      33.223  23.455  23.791  1.00  0.00    -0.312 N 
ATOM      9  N   UNL A   1      32.197  20.583  24.153  1.00  0.00    -0.325 N 
ATOM     10  C   UNL A   1      32.370  21.576  25.199  1.00  0.00     0.324 C 
ATOM     11  C   UNL A   1      32.102  21.305  22.877  1.00  0.00     0.324 C 
ATOM     12  H   UNL A   1      31.328  20.062  24.274  1.00  0.00     0.348 HD
ATOM     13  C   UNL A   1      33.548  22.466  24.778  1.00  0.00     0.325 C 
ATOM     14  C   UNL A   1      32.785  22.704  22.612  1.00  0.00     0.325 C 
ATOM     15  H   UNL A   1      33.971  24.030  23.404  1.00  0.00     0.349 HD
BRANCH   9  16
ATOM     16  C   UNL A   1      33.175  19.508  24.224  1.00  0.00     0.278 C 
BRANCH  16  17
ATOM     17  C   UNL A   1      32.889  18.330  25.153  1.00  0.00     0.181 C 
BRANCH  17  18
ATOM     18  C   UNL A   1      33.405  17.011  24.602  1.00  0.00     0.068 C 
ATOM     19  N   UNL A   1      33.833  15.916  24.145  1.00  0.00    -0.198 NA
ENDBRANCH  17  18
ENDBRANCH  16  17
ENDBRANCH   9  16
ENDBRANCH   7   8
BRANCH   7  20
ATOM     20  C   UNL A   1      31.788  25.362  23.096  1.00  0.00     0.044 A 
ATOM     21  C   UNL A   1      32.595  25.722  22.005  1.00  0.00     0.094 A 
ATOM     22  C   UNL A   1      30.769  26.460  22.996  1.00  0.00     0.009 A 
ATOM     23  N   UNL A   1      32.740  27.097  22.183  1.00  0.00    -0.361 N 
ATOM     24  C   UNL A   1      31.498  27.585  22.533  1.00  0.00     0.047 A 
ATOM     25  C   UNL A   1      29.444  26.746  23.438  1.00  0.00     0.012 A 
ATOM     26  H   UNL A   1      33.567  27.620  22.079  1.00  0.00     0.166 HD
ATOM     27  C   UNL A   1      31.036  28.916  22.558  1.00  0.00     0.047 A 
ATOM     28  C   UNL A   1      28.919  28.067  23.348  1.00  0.00     0.021 A 
ATOM     29  C   UNL A   1      29.723  29.136  22.957  1.00  0.00     0.043 A 
ATOM     30  Cl  UNL A   1      29.134  30.759  23.042  1.00  0.00    -0.084 Cl
ENDBRANCH   7  20
ENDBRANCH   4   7
ENDBRANCH   2   3
ENDBRANCH   1   2
BRANCH   1  31
ATOM     31  C   UNL A   1      32.325  29.677  26.630  1.00  0.00     0.002 C 
BRANCH  31  32
ATOM     32  C   UNL A   1      31.406  30.654  25.881  1.00  0.00     0.002 C 
BRANCH  32  33
ATOM     33  C   UNL A   1      31.315  32.066  26.473  1.00  0.00     0.021 C 
BRANCH  33  34
ATOM     34  C   UNL A   1      32.583  32.559  27.178  1.00  0.00     0.116 C 
BRANCH  34  35
ATOM     35  N   UNL A   1      32.437  33.922  27.677  1.00  0.00    -0.352 N 
ATOM     36  C   UNL A   1      33.151  34.568  28.664  1.00  0.00     0.251 C 
ATOM     37  H   UNL A   1      31.727  34.455  27.250  1.00  0.00     0.163 HD
ATOM     38  O   UNL A   1      32.740  35.607  29.156  1.00  0.00    -0.269 OA
BRANCH  36  39
ATOM     39  C   UNL A   1      34.431  33.990  29.127  1.00  0.00     0.039 A 
ATOM     40  C   UNL A   1      34.455  33.206  30.284  1.00  0.00     0.014 A 
ATOM     41  C   UNL A   1      35.610  34.241  28.423  1.00  0.00     0.014 A 
ATOM     42  C   UNL A   1      35.655  32.622  30.698  1.00  0.00     0.010 A 
ATOM     43  C   UNL A   1      36.790  33.604  28.796  1.00  0.00     0.010 A 
ATOM     44  C   UNL A   1      36.828  32.793  29.942  1.00  0.00    -0.014 A 
BRANCH  44  45
ATOM     45  C   UNL A   1      38.104  32.141  30.340  1.00  0.00     0.031 A 
ATOM     46  C   UNL A   1      39.023  32.820  31.318  1.00  0.00     0.074 A 
ATOM     47  C   UNL A   1      38.462  30.971  29.777  1.00  0.00     0.049 A 
ATOM     48  N   UNL A   1      40.200  32.439  31.750  1.00  0.00    -0.248 NA
ATOM     49  C   UNL A   1      38.575  34.110  31.867  1.00  0.00     0.031 C 
ATOM     50  C   UNL A   1      37.681  30.235  28.782  1.00  0.00     0.029 A 
ATOM     51  N   UNL A   1      39.583  30.197  29.957  1.00  0.00    -0.354 N 
ATOM     52  C   UNL A   1      40.634  33.446  32.604  1.00  0.00     0.074 A 
ATOM     53  C   UNL A   1      39.623  34.479  32.587  1.00  0.00     0.031 C 
ATOM     54  C   UNL A   1      38.331  29.103  28.462  1.00  0.00     0.029 A 
ATOM     55  C   UNL A   1      39.591  29.053  29.196  1.00  0.00     0.049 A 
ATOM     56  H   UNL A   1      40.311  30.440  30.573  1.00  0.00     0.167 HD
ATOM     57  C   UNL A   1      41.762  33.495  33.352  1.00  0.00     0.037 A 
ATOM     58  C   UNL A   1      40.513  28.076  29.098  1.00  0.00     0.037 A 
ATOM     59  C   UNL A   1      42.755  32.453  33.386  1.00  0.00     0.049 A 
ATOM     60  C   UNL A   1      41.764  28.161  29.929  1.00  0.00     0.074 A 
ATOM     61  C   UNL A   1      43.897  32.377  34.162  1.00  0.00     0.029 A 
ATOM     62  N   UNL A   1      42.723  31.307  32.605  1.00  0.00    -0.354 N 
ATOM     63  N   UNL A   1      42.125  29.083  30.790  1.00  0.00    -0.248 NA
ATOM     64  C   UNL A   1      42.735  27.069  29.780  1.00  0.00     0.031 C 
ATOM     65  C   UNL A   1      44.588  31.213  33.809  1.00  0.00     0.029 A 
ATOM     66  C   UNL A   1      43.843  30.533  32.859  1.00  0.00     0.049 A 
ATOM     67  H   UNL A   1      42.010  31.078  31.966  1.00  0.00     0.167 HD
ATOM     68  C   UNL A   1      43.343  28.663  31.308  1.00  0.00     0.074 A 
ATOM     69  C   UNL A   1      43.655  27.399  30.675  1.00  0.00     0.031 C 
ATOM     70  C   UNL A   1      44.135  29.271  32.227  1.00  0.00     0.037 A 
BRANCH  57  71
ATOM     71  C   UNL A   1      41.985  34.717  34.198  1.00  0.00     0.057 A 
ATOM     72  C   UNL A   1      41.550  34.789  35.528  1.00  0.00     0.134 A 
ATOM     73  C   UNL A   1      42.679  35.821  33.686  1.00  0.00     0.134 A 
ATOM     74  F   UNL A   1      40.869  33.771  36.077  1.00  0.00    -0.206 F 
ATOM     75  C   UNL A   1      41.773  35.924  36.310  1.00  0.00     0.040 A 
ATOM     76  C   UNL A   1      42.934  36.950  34.467  1.00  0.00     0.040 A 
ATOM     77  F   UNL A   1      43.130  35.818  32.423  1.00  0.00    -0.206 F 
ATOM     78  C   UNL A   1      42.475  37.006  35.781  1.00  0.00     0.006 A 
ENDBRANCH  57  71
BRANCH  58  79
ATOM     79  C   UNL A   1      40.284  26.917  28.196  1.00  0.00     0.057 A 
ATOM     80  C   UNL A   1      40.840  26.880  26.912  1.00  0.00     0.134 A 
ATOM     81  C   UNL A   1      39.489  25.831  28.583  1.00  0.00     0.134 A 
ATOM     82  F   UNL A   1      41.595  27.900  26.475  1.00  0.00    -0.206 F 
ATOM     83  C   UNL A   1      40.595  25.822  26.036  1.00  0.00     0.040 A 
ATOM     84  C   UNL A   1      39.259  24.752  27.728  1.00  0.00     0.040 A 
ATOM     85  F   UNL A   1      38.934  25.799  29.803  1.00  0.00    -0.206 F 
ATOM     86  C   UNL A   1      39.805  24.750  26.447  1.00  0.00     0.006 A 
ENDBRANCH  58  79
BRANCH  70  87
ATOM     87  C   UNL A   1      45.391  28.556  32.635  1.00  0.00     0.057 A 
ATOM     88  C   UNL A   1      46.618  28.791  32.002  1.00  0.00     0.134 A 
ATOM     89  C   UNL A   1      45.378  27.650  33.704  1.00  0.00     0.134 A 
ATOM     90  F   UNL A   1      46.698  29.637  30.963  1.00  0.00    -0.206 F 
ATOM     91  C   UNL A   1      47.782  28.130  32.400  1.00  0.00     0.040 A 
ATOM     92  C   UNL A   1      46.541  27.008  34.131  1.00  0.00     0.040 A 
ATOM     93  F   UNL A   1      44.239  27.387  34.361  1.00  0.00    -0.206 F 
ATOM     94  C   UNL A   1      47.746  27.243  33.474  1.00  0.00     0.006 A 
ENDBRANCH  70  87
ENDBRANCH  44  45
ENDBRANCH  36  39
ENDBRANCH  34  35
ENDBRANCH  33  34
ENDBRANCH  32  33
ENDBRANCH  31  32
ENDBRANCH   1  31
TORSDOF 18
ENDMDL
