MODEL 1
REMARK VINA RESULT:     -11.1      0.000      0.000
REMARK SMILES C[C@@H]1SCCC[C@@]1(CC(=O)NCCCCCCNC(=O)c1ccc(-c2c3nc(c(-c4c(F)cccc4F)c4ccc([nH]4)c(-c4c(F)cccc4F)c4nc(c(-c5c(F)cccc5F)c5ccc2[nH]5)C=C4)C=C3)cc1)[NH+]1CCCC1
REMARK SMILES IDX 14 1 13 2 12 3 11 4 9 5 10 6 8 8 7 9 1 10 2 11 3 12 4 13
REMARK SMILES IDX 6 14 5 15 75 16 76 17 79 18 77 20 78 21 15 22 16 23 17 24
REMARK SMILES IDX 18 25 19 26 20 28 21 29 22 30 74 31 23 32 73 33 24 34 25 35
REMARK SMILES IDX 26 36 67 37 27 38 72 39 66 40 68 41 28 42 71 43 65 44 64 45
REMARK SMILES IDX 29 47 55 48 38 49 54 50 39 51 42 52 53 53 69 54 40 55 41 56
REMARK SMILES IDX 52 58 70 59 43 60 30 61 31 62 36 63 32 64 33 65 35 66 37 67
REMARK SMILES IDX 34 68 56 69 57 70 62 71 58 72 59 73 61 74 63 75 60 76 44 77
REMARK SMILES IDX 45 78 50 79 46 80 47 81 49 82 51 83 48 84
REMARK H PARENT 11 7 75 19 18 27 68 46 42 57
REMARK Flexibility Score: inf
ROOT
ATOM      1  C   UNL A   1      32.431  29.469  26.544  1.00  0.00     0.002 C 
ENDROOT
BRANCH   1   2
ATOM      2  C   UNL A   1      31.801  28.200  27.104  1.00  0.00     0.021 C 
BRANCH   2   3
ATOM      3  C   UNL A   1      31.338  27.128  26.102  1.00  0.00     0.116 C 
BRANCH   3   4
ATOM      4  N   UNL A   1      31.123  25.862  26.800  1.00  0.00    -0.356 N 
ATOM      5  C   UNL A   1      31.779  24.659  26.714  1.00  0.00     0.226 C 
ATOM      6  O   UNL A   1      31.195  23.664  27.151  1.00  0.00    -0.275 OA
ATOM      7  H   UNL A   1      30.378  25.873  27.443  1.00  0.00     0.163 HD
BRANCH   5   8
ATOM      8  C   UNL A   1      33.237  24.581  26.254  1.00  0.00     0.169 C 
BRANCH   8   9
ATOM      9  C   UNL A   1      33.820  23.533  25.166  1.00  0.00     0.118 C 
ATOM     10  C   UNL A   1      34.136  21.883  27.259  1.00  0.00     0.026 C 
ATOM     11  C   UNL A   1      33.657  22.063  25.798  1.00  0.00     0.105 C 
ATOM     12  S   UNL A   1      34.543  20.699  24.917  1.00  0.00    -0.152 SA
ATOM     13  C   UNL A   1      36.200  21.425  24.798  1.00  0.00     0.070 C 
ATOM     14  C   UNL A   1      35.351  23.847  25.077  1.00  0.00     0.071 C 
ATOM     15  C   UNL A   1      36.239  22.868  24.312  1.00  0.00     0.017 C 
BRANCH   9  16
ATOM     16  N   UNL A   1      33.138  23.667  23.837  1.00  0.00    -0.329 N 
ATOM     17  C   UNL A   1      32.803  24.940  23.194  1.00  0.00     0.262 C 
ATOM     18  C   UNL A   1      31.976  22.830  23.605  1.00  0.00     0.262 C 
ATOM     19  H   UNL A   1      34.009  23.361  23.402  1.00  0.00     0.348 HD
ATOM     20  C   UNL A   1      31.279  25.025  23.052  1.00  0.00     0.067 C 
ATOM     21  C   UNL A   1      30.756  23.717  23.582  1.00  0.00     0.067 C 
ENDBRANCH   9  16
ENDBRANCH   8   9
ENDBRANCH   5   8
ENDBRANCH   3   4
ENDBRANCH   2   3
ENDBRANCH   1   2
BRANCH   1  22
ATOM     22  C   UNL A   1      31.485  30.445  25.850  1.00  0.00     0.002 C 
BRANCH  22  23
ATOM     23  C   UNL A   1      31.312  31.822  26.502  1.00  0.00     0.021 C 
BRANCH  23  24
ATOM     24  C   UNL A   1      32.569  32.479  27.073  1.00  0.00     0.116 C 
BRANCH  24  25
ATOM     25  N   UNL A   1      32.358  33.850  27.500  1.00  0.00    -0.352 N 
ATOM     26  C   UNL A   1      33.031  34.608  28.419  1.00  0.00     0.251 C 
ATOM     27  H   UNL A   1      31.608  34.309  27.057  1.00  0.00     0.163 HD
ATOM     28  O   UNL A   1      32.586  35.712  28.746  1.00  0.00    -0.269 OA
BRANCH  26  29
ATOM     29  C   UNL A   1      34.270  34.114  29.052  1.00  0.00     0.039 A 
ATOM     30  C   UNL A   1      34.164  33.336  30.208  1.00  0.00     0.014 A 
ATOM     31  C   UNL A   1      35.529  34.444  28.544  1.00  0.00     0.014 A 
ATOM     32  C   UNL A   1      35.318  32.835  30.818  1.00  0.00     0.010 A 
ATOM     33  C   UNL A   1      36.675  33.893  29.115  1.00  0.00     0.010 A 
ATOM     34  C   UNL A   1      36.580  33.081  30.257  1.00  0.00    -0.014 A 
BRANCH  34  35
ATOM     35  C   UNL A   1      37.808  32.488  30.847  1.00  0.00     0.031 A 
ATOM     36  C   UNL A   1      38.443  31.275  30.226  1.00  0.00     0.074 A 
ATOM     37  C   UNL A   1      38.313  33.005  31.982  1.00  0.00     0.049 A 
ATOM     38  N   UNL A   1      39.473  30.580  30.640  1.00  0.00    -0.248 NA
ATOM     39  C   UNL A   1      37.826  30.763  28.994  1.00  0.00     0.031 C 
ATOM     40  C   UNL A   1      37.764  34.154  32.707  1.00  0.00     0.029 A 
ATOM     41  N   UNL A   1      39.395  32.623  32.737  1.00  0.00    -0.354 N 
ATOM     42  C   UNL A   1      39.617  29.541  29.729  1.00  0.00     0.074 A 
ATOM     43  C   UNL A   1      38.544  29.671  28.766  1.00  0.00     0.031 C 
ATOM     44  C   UNL A   1      38.519  34.389  33.792  1.00  0.00     0.029 A 
ATOM     45  C   UNL A   1      39.582  33.392  33.860  1.00  0.00     0.049 A 
ATOM     46  H   UNL A   1      39.982  31.871  32.495  1.00  0.00     0.167 HD
ATOM     47  C   UNL A   1      40.567  28.576  29.688  1.00  0.00     0.037 A 
ATOM     48  C   UNL A   1      40.500  33.298  34.840  1.00  0.00     0.037 A 
ATOM     49  C   UNL A   1      41.649  28.462  30.631  1.00  0.00     0.049 A 
ATOM     50  C   UNL A   1      41.543  32.219  34.774  1.00  0.00     0.074 A 
ATOM     51  C   UNL A   1      42.702  27.563  30.632  1.00  0.00     0.029 A 
ATOM     52  N   UNL A   1      41.815  29.271  31.746  1.00  0.00    -0.354 N 
ATOM     53  N   UNL A   1      41.709  31.286  33.868  1.00  0.00    -0.248 NA
ATOM     54  C   UNL A   1      42.530  32.182  35.863  1.00  0.00     0.031 C 
ATOM     55  C   UNL A   1      43.480  27.800  31.770  1.00  0.00     0.029 A 
ATOM     56  C   UNL A   1      42.937  28.875  32.455  1.00  0.00     0.049 A 
ATOM     57  H   UNL A   1      41.222  30.016  31.996  1.00  0.00     0.167 HD
ATOM     58  C   UNL A   1      42.828  30.566  34.264  1.00  0.00     0.074 A 
ATOM     59  C   UNL A   1      43.310  31.179  35.485  1.00  0.00     0.031 C 
ATOM     60  C   UNL A   1      43.405  29.494  33.669  1.00  0.00     0.037 A 
BRANCH  47  61
ATOM     61  C   UNL A   1      40.476  27.560  28.586  1.00  0.00     0.057 A 
ATOM     62  C   UNL A   1      39.679  26.414  28.700  1.00  0.00     0.134 A 
ATOM     63  C   UNL A   1      41.169  27.748  27.383  1.00  0.00     0.134 A 
ATOM     64  F   UNL A   1      38.998  26.170  29.829  1.00  0.00    -0.206 F 
ATOM     65  C   UNL A   1      39.596  25.478  27.668  1.00  0.00     0.040 A 
ATOM     66  C   UNL A   1      41.073  26.832  26.335  1.00  0.00     0.040 A 
ATOM     67  F   UNL A   1      41.945  28.828  27.205  1.00  0.00    -0.206 F 
ATOM     68  C   UNL A   1      40.289  25.688  26.479  1.00  0.00     0.006 A 
ENDBRANCH  47  61
BRANCH  48  69
ATOM     69  C   UNL A   1      40.480  34.267  35.964  1.00  0.00     0.057 A 
ATOM     70  C   UNL A   1      39.748  34.008  37.128  1.00  0.00     0.134 A 
ATOM     71  C   UNL A   1      41.197  35.469  35.906  1.00  0.00     0.134 A 
ATOM     72  F   UNL A   1      39.027  32.881  37.234  1.00  0.00    -0.206 F 
ATOM     73  C   UNL A   1      39.716  34.914  38.189  1.00  0.00     0.040 A 
ATOM     74  C   UNL A   1      41.193  36.373  36.968  1.00  0.00     0.040 A 
ATOM     75  F   UNL A   1      41.925  35.771  34.821  1.00  0.00    -0.206 F 
ATOM     76  C   UNL A   1      40.445  36.099  38.111  1.00  0.00     0.006 A 
ENDBRANCH  48  69
BRANCH  60  77
ATOM     77  C   UNL A   1      44.635  28.928  34.315  1.00  0.00     0.057 A 
ATOM     78  C   UNL A   1      44.564  27.888  35.250  1.00  0.00     0.134 A 
ATOM     79  C   UNL A   1      45.907  29.402  33.968  1.00  0.00     0.134 A 
ATOM     80  F   UNL A   1      43.376  27.399  35.636  1.00  0.00    -0.206 F 
ATOM     81  C   UNL A   1      45.715  27.350  35.829  1.00  0.00     0.040 A 
ATOM     82  C   UNL A   1      47.065  28.856  34.522  1.00  0.00     0.040 A 
ATOM     83  F   UNL A   1      46.043  30.393  33.073  1.00  0.00    -0.206 F 
ATOM     84  C   UNL A   1      46.971  27.830  35.460  1.00  0.00     0.006 A 
ENDBRANCH  60  77
ENDBRANCH  34  35
ENDBRANCH  26  29
ENDBRANCH  24  25
ENDBRANCH  23  24
ENDBRANCH  22  23
ENDBRANCH   1  22
TORSDOF 15
ENDMDL
MODEL 2
REMARK VINA RESULT:     -11.0      0.337      6.313
REMARK SMILES C[C@@H]1SCCC[C@@]1(CC(=O)NCCCCCCNC(=O)c1ccc(-c2c3nc(c(-c4c(F)cccc4F)c4ccc([nH]4)c(-c4c(F)cccc4F)c4nc(c(-c5c(F)cccc5F)c5ccc2[nH]5)C=C4)C=C3)cc1)[NH+]1CCCC1
REMARK SMILES IDX 14 1 13 2 12 3 11 4 9 5 10 6 8 8 7 9 1 10 2 11 3 12 4 13
REMARK SMILES IDX 6 14 5 15 75 16 76 17 79 18 77 20 78 21 15 22 16 23 17 24
REMARK SMILES IDX 18 25 19 26 20 28 21 29 22 30 74 31 23 32 73 33 24 34 25 35
REMARK SMILES IDX 26 36 67 37 27 38 72 39 66 40 68 41 28 42 71 43 65 44 64 45
REMARK SMILES IDX 29 47 55 48 38 49 54 50 39 51 42 52 53 53 69 54 40 55 41 56
REMARK SMILES IDX 52 58 70 59 43 60 30 61 31 62 36 63 32 64 33 65 35 66 37 67
REMARK SMILES IDX 34 68 56 69 57 70 62 71 58 72 59 73 61 74 63 75 60 76 44 77
REMARK SMILES IDX 45 78 50 79 46 80 47 81 49 82 51 83 48 84
REMARK H PARENT 11 7 75 19 18 27 68 46 42 57
REMARK Flexibility Score: inf
ROOT
ATOM      1  C   UNL A   1      32.320  29.874  26.888  1.00  0.00     0.002 C 
ENDROOT
BRANCH   1   2
ATOM      2  C   UNL A   1      31.738  28.524  27.287  1.00  0.00     0.021 C 
BRANCH   2   3
ATOM      3  C   UNL A   1      31.640  27.438  26.201  1.00  0.00     0.116 C 
BRANCH   3   4
ATOM      4  N   UNL A   1      31.310  26.154  26.817  1.00  0.00    -0.356 N 
ATOM      5  C   UNL A   1      31.837  24.900  26.632  1.00  0.00     0.226 C 
ATOM      6  O   UNL A   1      31.163  23.941  27.017  1.00  0.00    -0.275 OA
ATOM      7  H   UNL A   1      30.583  26.196  27.480  1.00  0.00     0.163 HD
BRANCH   5   8
ATOM      8  C   UNL A   1      33.269  24.708  26.128  1.00  0.00     0.169 C 
BRANCH   8   9
ATOM      9  C   UNL A   1      33.748  23.566  25.085  1.00  0.00     0.118 C 
ATOM     10  C   UNL A   1      34.031  22.018  27.258  1.00  0.00     0.026 C 
ATOM     11  C   UNL A   1      33.515  22.147  25.804  1.00  0.00     0.105 C 
ATOM     12  S   UNL A   1      34.283  20.682  24.976  1.00  0.00    -0.152 SA
ATOM     13  C   UNL A   1      35.977  21.292  24.767  1.00  0.00     0.070 C 
ATOM     14  C   UNL A   1      35.293  23.775  24.932  1.00  0.00     0.071 C 
ATOM     15  C   UNL A   1      36.091  22.700  24.198  1.00  0.00     0.017 C 
BRANCH   9  16
ATOM     16  N   UNL A   1      33.033  23.670  23.771  1.00  0.00    -0.329 N 
ATOM     17  C   UNL A   1      32.783  24.922  23.051  1.00  0.00     0.262 C 
ATOM     18  C   UNL A   1      31.794  22.926  23.634  1.00  0.00     0.262 C 
ATOM     19  H   UNL A   1      33.857  23.260  23.332  1.00  0.00     0.348 HD
ATOM     20  C   UNL A   1      31.269  25.131  22.951  1.00  0.00     0.067 C 
ATOM     21  C   UNL A   1      30.655  23.913  23.587  1.00  0.00     0.067 C 
ENDBRANCH   9  16
ENDBRANCH   8   9
ENDBRANCH   5   8
ENDBRANCH   3   4
ENDBRANCH   2   3
ENDBRANCH   1   2
BRANCH   1  22
ATOM     22  C   UNL A   1      31.404  30.796  26.087  1.00  0.00     0.002 C 
BRANCH  22  23
ATOM     23  C   UNL A   1      31.281  32.244  26.575  1.00  0.00     0.021 C 
BRANCH  23  24
ATOM     24  C   UNL A   1      32.574  32.938  27.008  1.00  0.00     0.116 C 
BRANCH  24  25
ATOM     25  N   UNL A   1      32.351  34.234  27.625  1.00  0.00    -0.352 N 
ATOM     26  C   UNL A   1      32.980  34.835  28.681  1.00  0.00     0.251 C 
ATOM     27  H   UNL A   1      31.630  34.767  27.217  1.00  0.00     0.163 HD
ATOM     28  O   UNL A   1      32.528  35.885  29.146  1.00  0.00    -0.269 OA
BRANCH  26  29
ATOM     29  C   UNL A   1      34.179  34.231  29.295  1.00  0.00     0.039 A 
ATOM     30  C   UNL A   1      34.030  33.512  30.485  1.00  0.00     0.014 A 
ATOM     31  C   UNL A   1      35.449  34.403  28.737  1.00  0.00     0.014 A 
ATOM     32  C   UNL A   1      35.142  32.910  31.079  1.00  0.00     0.010 A 
ATOM     33  C   UNL A   1      36.547  33.750  29.296  1.00  0.00     0.010 A 
ATOM     34  C   UNL A   1      36.404  32.996  30.471  1.00  0.00    -0.014 A 
BRANCH  34  35
ATOM     35  C   UNL A   1      37.580  32.295  31.048  1.00  0.00     0.031 A 
ATOM     36  C   UNL A   1      38.247  32.818  32.289  1.00  0.00     0.074 A 
ATOM     37  C   UNL A   1      38.087  31.221  30.413  1.00  0.00     0.049 A 
ATOM     38  N   UNL A   1      39.322  32.380  32.895  1.00  0.00    -0.248 NA
ATOM     39  C   UNL A   1      37.640  34.000  32.917  1.00  0.00     0.031 C 
ATOM     40  C   UNL A   1      37.558  30.641  29.177  1.00  0.00     0.029 A 
ATOM     41  N   UNL A   1      39.171  30.433  30.712  1.00  0.00    -0.354 N 
ATOM     42  C   UNL A   1      39.529  33.242  33.965  1.00  0.00     0.074 A 
ATOM     43  C   UNL A   1      38.495  34.252  33.899  1.00  0.00     0.031 C 
ATOM     44  C   UNL A   1      38.311  29.584  28.831  1.00  0.00     0.029 A 
ATOM     45  C   UNL A   1      39.393  29.432  29.798  1.00  0.00     0.049 A 
ATOM     46  H   UNL A   1      39.735  30.573  31.507  1.00  0.00     0.167 HD
ATOM     47  C   UNL A   1      40.485  33.188  34.924  1.00  0.00     0.037 A 
ATOM     48  C   UNL A   1      40.365  28.502  29.739  1.00  0.00     0.037 A 
ATOM     49  C   UNL A   1      41.497  32.167  35.003  1.00  0.00     0.049 A 
ATOM     50  C   UNL A   1      41.414  28.461  30.815  1.00  0.00     0.074 A 
ATOM     51  C   UNL A   1      42.463  31.985  35.978  1.00  0.00     0.029 A 
ATOM     52  N   UNL A   1      41.678  31.159  34.068  1.00  0.00    -0.354 N 
ATOM     53  N   UNL A   1      41.555  29.240  31.859  1.00  0.00    -0.248 NA
ATOM     54  C   UNL A   1      42.434  27.409  30.706  1.00  0.00     0.031 C 
ATOM     55  C   UNL A   1      43.257  30.893  35.609  1.00  0.00     0.029 A 
ATOM     56  C   UNL A   1      42.757  30.367  34.429  1.00  0.00     0.049 A 
ATOM     57  H   UNL A   1      41.123  31.026  33.266  1.00  0.00     0.167 HD
ATOM     58  C   UNL A   1      42.665  28.762  32.543  1.00  0.00     0.074 A 
ATOM     59  C   UNL A   1      43.151  27.616  31.802  1.00  0.00     0.031 C 
ATOM     60  C   UNL A   1      43.230  29.230  33.682  1.00  0.00     0.037 A 
BRANCH  47  61
ATOM     61  C   UNL A   1      40.481  34.267  35.968  1.00  0.00     0.057 A 
ATOM     62  C   UNL A   1      41.224  35.445  35.815  1.00  0.00     0.134 A 
ATOM     63  C   UNL A   1      39.700  34.141  37.123  1.00  0.00     0.134 A 
ATOM     64  F   UNL A   1      42.000  35.624  34.737  1.00  0.00    -0.206 F 
ATOM     65  C   UNL A   1      41.211  36.447  36.788  1.00  0.00     0.040 A 
ATOM     66  C   UNL A   1      39.659  35.147  38.090  1.00  0.00     0.040 A 
ATOM     67  F   UNL A   1      38.959  33.041  37.328  1.00  0.00    -0.206 F 
ATOM     68  C   UNL A   1      40.422  36.301  37.926  1.00  0.00     0.006 A 
ENDBRANCH  47  61
BRANCH  48  69
ATOM     69  C   UNL A   1      40.380  27.521  28.626  1.00  0.00     0.057 A 
ATOM     70  C   UNL A   1      41.133  27.754  27.470  1.00  0.00     0.134 A 
ATOM     71  C   UNL A   1      39.651  26.327  28.693  1.00  0.00     0.134 A 
ATOM     72  F   UNL A   1      41.837  28.889  27.341  1.00  0.00    -0.206 F 
ATOM     73  C   UNL A   1      41.150  26.843  26.413  1.00  0.00     0.040 A 
ATOM     74  C   UNL A   1      39.678  25.396  27.654  1.00  0.00     0.040 A 
ATOM     75  F   UNL A   1      38.917  26.042  29.778  1.00  0.00    -0.206 F 
ATOM     76  C   UNL A   1      40.425  25.656  26.507  1.00  0.00     0.006 A 
ENDBRANCH  48  69
BRANCH  60  77
ATOM     77  C   UNL A   1      44.422  28.490  34.212  1.00  0.00     0.057 A 
ATOM     78  C   UNL A   1      44.286  27.391  35.070  1.00  0.00     0.134 A 
ATOM     79  C   UNL A   1      45.718  28.856  33.827  1.00  0.00     0.134 A 
ATOM     80  F   UNL A   1      43.074  26.999  35.487  1.00  0.00    -0.206 F 
ATOM     81  C   UNL A   1      45.400  26.694  35.540  1.00  0.00     0.040 A 
ATOM     82  C   UNL A   1      46.838  28.151  34.271  1.00  0.00     0.040 A 
ATOM     83  F   UNL A   1      45.916  29.895  33.002  1.00  0.00    -0.206 F 
ATOM     84  C   UNL A   1      46.680  27.068  35.134  1.00  0.00     0.006 A 
ENDBRANCH  60  77
ENDBRANCH  34  35
ENDBRANCH  26  29
ENDBRANCH  24  25
ENDBRANCH  23  24
ENDBRANCH  22  23
ENDBRANCH   1  22
TORSDOF 15
ENDMDL
MODEL 3
REMARK VINA RESULT:     -10.9      2.031      7.040
REMARK SMILES C[C@@H]1SCCC[C@@]1(CC(=O)NCCCCCCNC(=O)c1ccc(-c2c3nc(c(-c4c(F)cccc4F)c4ccc([nH]4)c(-c4c(F)cccc4F)c4nc(c(-c5c(F)cccc5F)c5ccc2[nH]5)C=C4)C=C3)cc1)[NH+]1CCCC1
REMARK SMILES IDX 14 1 13 2 12 3 11 4 9 5 10 6 8 8 7 9 1 10 2 11 3 12 4 13
REMARK SMILES IDX 6 14 5 15 75 16 76 17 79 18 77 20 78 21 15 22 16 23 17 24
REMARK SMILES IDX 18 25 19 26 20 28 21 29 22 30 74 31 23 32 73 33 24 34 25 35
REMARK SMILES IDX 26 36 67 37 27 38 72 39 66 40 68 41 28 42 71 43 65 44 64 45
REMARK SMILES IDX 29 47 55 48 38 49 54 50 39 51 42 52 53 53 69 54 40 55 41 56
REMARK SMILES IDX 52 58 70 59 43 60 30 61 31 62 36 63 32 64 33 65 35 66 37 67
REMARK SMILES IDX 34 68 56 69 57 70 62 71 58 72 59 73 61 74 63 75 60 76 44 77
REMARK SMILES IDX 45 78 50 79 46 80 47 81 49 82 51 83 48 84
REMARK H PARENT 11 7 75 19 18 27 68 46 42 57
REMARK Flexibility Score: inf
ROOT
ATOM      1  C   UNL A   1      34.819  32.408  28.177  1.00  0.00     0.002 C 
ENDROOT
BRANCH   1   2
ATOM      2  C   UNL A   1      33.525  31.795  27.656  1.00  0.00     0.021 C 
BRANCH   2   3
ATOM      3  C   UNL A   1      33.606  30.410  26.992  1.00  0.00     0.116 C 
BRANCH   3   4
ATOM      4  N   UNL A   1      32.780  29.459  27.735  1.00  0.00    -0.356 N 
ATOM      5  C   UNL A   1      32.319  28.210  27.403  1.00  0.00     0.226 C 
ATOM      6  O   UNL A   1      31.372  27.764  28.056  1.00  0.00    -0.275 OA
ATOM      7  H   UNL A   1      32.507  29.769  28.628  1.00  0.00     0.163 HD
BRANCH   5   8
ATOM      8  C   UNL A   1      33.055  27.338  26.383  1.00  0.00     0.169 C 
BRANCH   8   9
ATOM      9  C   UNL A   1      32.386  26.670  25.068  1.00  0.00     0.118 C 
ATOM     10  C   UNL A   1      33.824  28.474  23.696  1.00  0.00     0.026 C 
ATOM     11  C   UNL A   1      33.355  27.004  23.828  1.00  0.00     0.105 C 
ATOM     12  S   UNL A   1      32.671  26.651  22.146  1.00  0.00    -0.152 SA
ATOM     13  C   UNL A   1      31.077  27.505  22.269  1.00  0.00     0.070 C 
ATOM     14  C   UNL A   1      31.046  27.451  24.849  1.00  0.00     0.071 C 
ATOM     15  C   UNL A   1      30.290  27.224  23.543  1.00  0.00     0.017 C 
BRANCH   9  16
ATOM     16  N   UNL A   1      32.158  25.198  25.240  1.00  0.00    -0.329 N 
ATOM     17  C   UNL A   1      31.578  24.575  26.432  1.00  0.00     0.262 C 
ATOM     18  C   UNL A   1      33.249  24.315  24.869  1.00  0.00     0.262 C 
ATOM     19  H   UNL A   1      31.393  25.276  24.570  1.00  0.00     0.348 HD
ATOM     20  C   UNL A   1      32.626  23.646  27.053  1.00  0.00     0.067 C 
ATOM     21  C   UNL A   1      33.812  23.709  26.131  1.00  0.00     0.067 C 
ENDBRANCH   9  16
ENDBRANCH   8   9
ENDBRANCH   5   8
ENDBRANCH   3   4
ENDBRANCH   2   3
ENDBRANCH   1   2
BRANCH   1  22
ATOM     22  C   UNL A   1      34.679  33.685  29.002  1.00  0.00     0.002 C 
BRANCH  22  23
ATOM     23  C   UNL A   1      33.350  34.440  28.886  1.00  0.00     0.021 C 
BRANCH  23  24
ATOM     24  C   UNL A   1      33.344  35.900  29.343  1.00  0.00     0.116 C 
BRANCH  24  25
ATOM     25  N   UNL A   1      32.502  36.135  30.502  1.00  0.00    -0.352 N 
ATOM     26  C   UNL A   1      32.632  35.709  31.796  1.00  0.00     0.251 C 
ATOM     27  H   UNL A   1      31.708  36.692  30.329  1.00  0.00     0.163 HD
ATOM     28  O   UNL A   1      31.713  35.897  32.598  1.00  0.00    -0.269 OA
BRANCH  26  29
ATOM     29  C   UNL A   1      33.847  35.000  32.244  1.00  0.00     0.039 A 
ATOM     30  C   UNL A   1      33.715  33.703  32.750  1.00  0.00     0.014 A 
ATOM     31  C   UNL A   1      35.103  35.613  32.212  1.00  0.00     0.014 A 
ATOM     32  C   UNL A   1      34.848  32.997  33.162  1.00  0.00     0.010 A 
ATOM     33  C   UNL A   1      36.239  34.886  32.563  1.00  0.00     0.010 A 
ATOM     34  C   UNL A   1      36.123  33.571  33.040  1.00  0.00    -0.014 A 
BRANCH  34  35
ATOM     35  C   UNL A   1      37.344  32.803  33.398  1.00  0.00     0.031 A 
ATOM     36  C   UNL A   1      38.093  33.108  34.665  1.00  0.00     0.074 A 
ATOM     37  C   UNL A   1      37.815  31.874  32.545  1.00  0.00     0.049 A 
ATOM     38  N   UNL A   1      39.212  32.593  35.106  1.00  0.00    -0.248 NA
ATOM     39  C   UNL A   1      37.521  34.144  35.538  1.00  0.00     0.031 C 
ATOM     40  C   UNL A   1      37.206  31.515  31.263  1.00  0.00     0.029 A 
ATOM     41  N   UNL A   1      38.926  31.070  32.621  1.00  0.00    -0.354 N 
ATOM     42  C   UNL A   1      39.487  33.252  36.298  1.00  0.00     0.074 A 
ATOM     43  C   UNL A   1      38.440  34.234  36.489  1.00  0.00     0.031 C 
ATOM     44  C   UNL A   1      37.942  30.555  30.680  1.00  0.00     0.029 A 
ATOM     45  C   UNL A   1      39.092  30.255  31.528  1.00  0.00     0.049 A 
ATOM     46  H   UNL A   1      39.544  31.076  33.387  1.00  0.00     0.167 HD
ATOM     47  C   UNL A   1      40.509  33.047  37.164  1.00  0.00     0.037 A 
ATOM     48  C   UNL A   1      40.066  29.374  31.234  1.00  0.00     0.037 A 
ATOM     49  C   UNL A   1      41.534  32.052  36.987  1.00  0.00     0.049 A 
ATOM     50  C   UNL A   1      41.190  29.163  32.210  1.00  0.00     0.074 A 
ATOM     51  C   UNL A   1      42.569  31.719  37.844  1.00  0.00     0.029 A 
ATOM     52  N   UNL A   1      41.658  31.234  35.874  1.00  0.00    -0.354 N 
ATOM     53  N   UNL A   1      41.397  29.744  33.366  1.00  0.00    -0.248 NA
ATOM     54  C   UNL A   1      42.210  28.172  31.842  1.00  0.00     0.031 C 
ATOM     55  C   UNL A   1      43.346  30.729  37.230  1.00  0.00     0.029 A 
ATOM     56  C   UNL A   1      42.768  30.415  36.010  1.00  0.00     0.049 A 
ATOM     57  H   UNL A   1      41.049  31.235  35.101  1.00  0.00     0.167 HD
ATOM     58  C   UNL A   1      42.557  29.175  33.874  1.00  0.00     0.074 A 
ATOM     59  C   UNL A   1      43.001  28.193  32.906  1.00  0.00     0.031 C 
ATOM     60  C   UNL A   1      43.198  29.442  35.039  1.00  0.00     0.037 A 
BRANCH  47  61
ATOM     61  C   UNL A   1      40.568  33.919  38.385  1.00  0.00     0.057 A 
ATOM     62  C   UNL A   1      41.323  35.100  38.413  1.00  0.00     0.134 A 
ATOM     63  C   UNL A   1      39.838  33.592  39.533  1.00  0.00     0.134 A 
ATOM     64  F   UNL A   1      42.053  35.465  37.349  1.00  0.00    -0.206 F 
ATOM     65  C   UNL A   1      41.369  35.909  39.550  1.00  0.00     0.040 A 
ATOM     66  C   UNL A   1      39.856  34.407  40.666  1.00  0.00     0.040 A 
ATOM     67  F   UNL A   1      39.089  32.479  39.571  1.00  0.00    -0.206 F 
ATOM     68  C   UNL A   1      40.629  35.566  40.679  1.00  0.00     0.006 A 
ENDBRANCH  47  61
BRANCH  48  69
ATOM     69  C   UNL A   1      40.012  28.611  29.963  1.00  0.00     0.057 A 
ATOM     70  C   UNL A   1      39.294  27.413  29.870  1.00  0.00     0.134 A 
ATOM     71  C   UNL A   1      40.666  29.062  28.810  1.00  0.00     0.134 A 
ATOM     72  F   UNL A   1      38.662  26.921  30.947  1.00  0.00    -0.206 F 
ATOM     73  C   UNL A   1      39.240  26.683  28.682  1.00  0.00     0.040 A 
ATOM     74  C   UNL A   1      40.602  28.355  27.610  1.00  0.00     0.040 A 
ATOM     75  F   UNL A   1      41.364  30.208  28.833  1.00  0.00    -0.206 F 
ATOM     76  C   UNL A   1      39.892  27.157  27.545  1.00  0.00     0.006 A 
ENDBRANCH  48  69
BRANCH  60  77
ATOM     77  C   UNL A   1      44.432  28.646  35.343  1.00  0.00     0.057 A 
ATOM     78  C   UNL A   1      45.707  29.093  34.972  1.00  0.00     0.134 A 
ATOM     79  C   UNL A   1      44.348  27.439  36.049  1.00  0.00     0.134 A 
ATOM     80  F   UNL A   1      45.854  30.233  34.282  1.00  0.00    -0.206 F 
ATOM     81  C   UNL A   1      46.853  28.358  35.280  1.00  0.00     0.040 A 
ATOM     82  C   UNL A   1      45.488  26.709  36.384  1.00  0.00     0.040 A 
ATOM     83  F   UNL A   1      43.157  26.960  36.439  1.00  0.00    -0.206 F 
ATOM     84  C   UNL A   1      46.746  27.165  35.995  1.00  0.00     0.006 A 
ENDBRANCH  60  77
ENDBRANCH  34  35
ENDBRANCH  26  29
ENDBRANCH  24  25
ENDBRANCH  23  24
ENDBRANCH  22  23
ENDBRANCH   1  22
TORSDOF 15
ENDMDL
