MODEL 1
REMARK VINA RESULT:     -12.0      0.000      0.000
REMARK SMILES CS(=O)(=O)c1ccc(N2N=C(C(=O)NCCCCCCNC(=O)c3ccc(-c4c5nc(c(-c6c(F)cccc6F)c6ccc([nH]6)c(-c6c(F)cccc6F)c6nc(c(-c7c(F)cccc7F)c7ccc4[nH]7)C=C6)C=C5)cc3)C[C@H]2c2cccs2)cc1
REMARK SMILES IDX 17 1 16 2 15 3 14 4 12 5 13 6 11 8 9 9 10 10 79 11 78 12
REMARK SMILES IDX 8 13 5 14 6 15 86 16 7 17 85 18 2 19 1 20 3 21 4 22 80 23
REMARK SMILES IDX 81 24 84 25 82 26 83 27 18 28 19 29 20 30 21 31 22 32 23 34
REMARK SMILES IDX 24 35 25 36 77 37 26 38 76 39 27 40 28 41 29 42 70 43 30 44
REMARK SMILES IDX 75 45 69 46 71 47 31 48 74 49 68 50 67 51 32 53 58 54 41 55
REMARK SMILES IDX 57 56 42 57 45 58 56 59 72 60 43 61 44 62 55 64 73 65 46 66
REMARK SMILES IDX 33 67 34 68 39 69 35 70 36 71 38 72 40 73 37 74 59 75 60 76
REMARK SMILES IDX 65 77 61 78 62 79 64 80 66 81 63 82 47 83 48 84 53 85 49 86
REMARK SMILES IDX 50 87 52 88 54 89 51 90
REMARK H PARENT 14 7 21 33 71 52 45 63
REMARK Flexibility Score: inf
ROOT
ATOM      1  C   UNL A   1      32.358  29.758  27.167  1.00  0.00     0.002 C 
ENDROOT
BRANCH   1   2
ATOM      2  C   UNL A   1      32.315  28.258  26.870  1.00  0.00     0.021 C 
BRANCH   2   3
ATOM      3  C   UNL A   1      33.600  27.683  26.281  1.00  0.00     0.116 C 
BRANCH   3   4
ATOM      4  N   UNL A   1      33.449  27.390  24.870  1.00  0.00    -0.351 N 
ATOM      5  C   UNL A   1      33.711  26.295  24.087  1.00  0.00     0.267 C 
ATOM      6  O   UNL A   1      33.541  26.415  22.875  1.00  0.00    -0.268 OA
ATOM      7  H   UNL A   1      33.074  28.144  24.361  1.00  0.00     0.163 HD
BRANCH   5   8
ATOM      8  C   UNL A   1      34.156  24.943  24.627  1.00  0.00     0.128 C 
ATOM      9  N   UNL A   1      35.409  23.224  24.874  1.00  0.00    -0.256 N 
ATOM     10  N   UNL A   1      35.351  24.494  24.385  1.00  0.00    -0.171 NA
ATOM     11  C   UNL A   1      34.205  22.828  25.614  1.00  0.00     0.154 C 
ATOM     12  C   UNL A   1      33.301  24.057  25.467  1.00  0.00     0.097 C 
BRANCH   9  13
ATOM     13  C   UNL A   1      36.646  22.681  25.225  1.00  0.00     0.060 A 
ATOM     14  C   UNL A   1      39.090  21.527  25.977  1.00  0.00     0.067 A 
ATOM     15  C   UNL A   1      38.797  22.836  26.364  1.00  0.00     0.022 A 
ATOM     16  C   UNL A   1      38.184  20.788  25.218  1.00  0.00     0.022 A 
ATOM     17  C   UNL A   1      37.584  23.410  25.973  1.00  0.00     0.029 A 
ATOM     18  C   UNL A   1      36.972  21.371  24.846  1.00  0.00     0.029 A 
BRANCH  14  19
ATOM     19  S   UNL A   1      40.626  20.792  26.479  1.00  0.00     0.175 S 
ATOM     20  C   UNL A   1      41.852  21.912  25.859  1.00  0.00     0.163 C 
ATOM     21  O   UNL A   1      40.771  19.538  25.761  1.00  0.00    -0.224 OA
ATOM     22  O   UNL A   1      40.661  20.825  27.927  1.00  0.00    -0.224 OA
ENDBRANCH  14  19
ENDBRANCH   9  13
BRANCH  11  23
ATOM     23  C   UNL A   1      33.555  21.515  25.212  1.00  0.00     0.030 A 
ATOM     24  C   UNL A   1      33.519  20.347  25.958  1.00  0.00     0.017 A 
ATOM     25  S   UNL A   1      32.771  21.282  23.699  1.00  0.00    -0.147 S 
ATOM     26  C   UNL A   1      32.820  19.292  25.307  1.00  0.00     0.012 A 
ATOM     27  C   UNL A   1      32.316  19.685  24.089  1.00  0.00     0.065 A 
ENDBRANCH  11  23
ENDBRANCH   5   8
ENDBRANCH   3   4
ENDBRANCH   2   3
ENDBRANCH   1   2
BRANCH   1  28
ATOM     28  C   UNL A   1      31.617  30.649  26.165  1.00  0.00     0.002 C 
BRANCH  28  29
ATOM     29  C   UNL A   1      31.430  32.108  26.589  1.00  0.00     0.021 C 
BRANCH  29  30
ATOM     30  C   UNL A   1      32.634  32.743  27.277  1.00  0.00     0.116 C 
BRANCH  30  31
ATOM     31  N   UNL A   1      32.401  34.131  27.631  1.00  0.00    -0.352 N 
ATOM     32  C   UNL A   1      33.007  34.900  28.592  1.00  0.00     0.251 C 
ATOM     33  H   UNL A   1      31.705  34.588  27.105  1.00  0.00     0.163 HD
ATOM     34  O   UNL A   1      32.560  36.009  28.865  1.00  0.00    -0.269 OA
BRANCH  32  35
ATOM     35  C   UNL A   1      34.190  34.387  29.316  1.00  0.00     0.039 A 
ATOM     36  C   UNL A   1      33.998  33.737  30.539  1.00  0.00     0.014 A 
ATOM     37  C   UNL A   1      35.481  34.557  28.807  1.00  0.00     0.014 A 
ATOM     38  C   UNL A   1      35.096  33.215  31.226  1.00  0.00     0.010 A 
ATOM     39  C   UNL A   1      36.566  33.975  29.458  1.00  0.00     0.010 A 
ATOM     40  C   UNL A   1      36.385  33.303  30.676  1.00  0.00    -0.014 A 
BRANCH  40  41
ATOM     41  C   UNL A   1      37.553  32.698  31.366  1.00  0.00     0.031 A 
ATOM     42  C   UNL A   1      38.250  31.505  30.771  1.00  0.00     0.074 A 
ATOM     43  C   UNL A   1      37.950  33.186  32.557  1.00  0.00     0.049 A 
ATOM     44  N   UNL A   1      39.245  30.804  31.252  1.00  0.00    -0.248 NA
ATOM     45  C   UNL A   1      37.745  31.019  29.477  1.00  0.00     0.031 C 
ATOM     46  C   UNL A   1      37.326  34.307  33.261  1.00  0.00     0.029 A 
ATOM     47  N   UNL A   1      38.966  32.793  33.391  1.00  0.00    -0.354 N 
ATOM     48  C   UNL A   1      39.475  29.790  30.331  1.00  0.00     0.074 A 
ATOM     49  C   UNL A   1      38.484  29.936  29.287  1.00  0.00     0.031 C 
ATOM     50  C   UNL A   1      37.983  34.524  34.412  1.00  0.00     0.029 A 
ATOM     51  C   UNL A   1      39.051  33.538  34.543  1.00  0.00     0.049 A 
ATOM     52  H   UNL A   1      39.576  32.049  33.185  1.00  0.00     0.167 HD
ATOM     53  C   UNL A   1      40.437  28.837  30.343  1.00  0.00     0.037 A 
ATOM     54  C   UNL A   1      39.891  33.432  35.591  1.00  0.00     0.037 A 
ATOM     55  C   UNL A   1      41.440  28.712  31.369  1.00  0.00     0.049 A 
ATOM     56  C   UNL A   1      40.953  32.369  35.576  1.00  0.00     0.074 A 
ATOM     57  C   UNL A   1      42.498  27.822  31.434  1.00  0.00     0.029 A 
ATOM     58  N   UNL A   1      41.508  29.500  32.507  1.00  0.00    -0.354 N 
ATOM     59  N   UNL A   1      41.203  31.461  34.664  1.00  0.00    -0.248 NA
ATOM     60  C   UNL A   1      41.856  32.319  36.735  1.00  0.00     0.031 C 
ATOM     61  C   UNL A   1      43.180  28.042  32.636  1.00  0.00     0.029 A 
ATOM     62  C   UNL A   1      42.576  29.102  33.294  1.00  0.00     0.049 A 
ATOM     63  H   UNL A   1      40.888  30.234  32.724  1.00  0.00     0.167 HD
ATOM     64  C   UNL A   1      42.305  30.752  35.124  1.00  0.00     0.074 A 
ATOM     65  C   UNL A   1      42.685  31.344  36.389  1.00  0.00     0.031 C 
ATOM     66  C   UNL A   1      42.946  29.705  34.548  1.00  0.00     0.037 A 
BRANCH  53  67
ATOM     67  C   UNL A   1      40.455  27.853  29.209  1.00  0.00     0.057 A 
ATOM     68  C   UNL A   1      41.318  28.001  28.115  1.00  0.00     0.134 A 
ATOM     69  C   UNL A   1      39.630  26.722  29.231  1.00  0.00     0.134 A 
ATOM     70  F   UNL A   1      42.127  29.068  28.027  1.00  0.00    -0.206 F 
ATOM     71  C   UNL A   1      41.342  27.072  27.073  1.00  0.00     0.040 A 
ATOM     72  C   UNL A   1      39.665  25.773  28.208  1.00  0.00     0.040 A 
ATOM     73  F   UNL A   1      38.783  26.515  30.252  1.00  0.00    -0.206 F 
ATOM     74  C   UNL A   1      40.519  25.950  27.122  1.00  0.00     0.006 A 
ENDBRANCH  53  67
BRANCH  54  75
ATOM     75  C   UNL A   1      39.774  34.372  36.734  1.00  0.00     0.057 A 
ATOM     76  C   UNL A   1      40.354  35.645  36.684  1.00  0.00     0.134 A 
ATOM     77  C   UNL A   1      39.093  34.019  37.904  1.00  0.00     0.134 A 
ATOM     78  F   UNL A   1      41.036  36.034  35.596  1.00  0.00    -0.206 F 
ATOM     79  C   UNL A   1      40.280  36.525  37.764  1.00  0.00     0.040 A 
ATOM     80  C   UNL A   1      38.989  34.898  38.983  1.00  0.00     0.040 A 
ATOM     81  F   UNL A   1      38.508  32.817  38.011  1.00  0.00    -0.206 F 
ATOM     82  C   UNL A   1      39.591  36.153  38.917  1.00  0.00     0.006 A 
ENDBRANCH  54  75
BRANCH  66  83
ATOM     83  C   UNL A   1      44.143  29.154  35.267  1.00  0.00     0.057 A 
ATOM     84  C   UNL A   1      45.436  29.637  35.030  1.00  0.00     0.134 A 
ATOM     85  C   UNL A   1      43.992  28.152  36.235  1.00  0.00     0.134 A 
ATOM     86  F   UNL A   1      45.649  30.585  34.105  1.00  0.00    -0.206 F 
ATOM     87  C   UNL A   1      46.540  29.127  35.714  1.00  0.00     0.040 A 
ATOM     88  C   UNL A   1      45.084  27.654  36.945  1.00  0.00     0.040 A 
ATOM     89  F   UNL A   1      42.779  27.653  36.516  1.00  0.00    -0.206 F 
ATOM     90  C   UNL A   1      46.364  28.137  36.681  1.00  0.00     0.006 A 
ENDBRANCH  66  83
ENDBRANCH  40  41
ENDBRANCH  32  35
ENDBRANCH  30  31
ENDBRANCH  29  30
ENDBRANCH  28  29
ENDBRANCH   1  28
TORSDOF 16
ENDMDL
MODEL 2
REMARK VINA RESULT:     -12.0      4.924     10.901
REMARK SMILES CS(=O)(=O)c1ccc(N2N=C(C(=O)NCCCCCCNC(=O)c3ccc(-c4c5nc(c(-c6c(F)cccc6F)c6ccc([nH]6)c(-c6c(F)cccc6F)c6nc(c(-c7c(F)cccc7F)c7ccc4[nH]7)C=C6)C=C5)cc3)C[C@H]2c2cccs2)cc1
REMARK SMILES IDX 17 1 16 2 15 3 14 4 12 5 13 6 11 8 9 9 10 10 79 11 78 12
REMARK SMILES IDX 8 13 5 14 6 15 86 16 7 17 85 18 2 19 1 20 3 21 4 22 80 23
REMARK SMILES IDX 81 24 84 25 82 26 83 27 18 28 19 29 20 30 21 31 22 32 23 34
REMARK SMILES IDX 24 35 25 36 77 37 26 38 76 39 27 40 28 41 29 42 70 43 30 44
REMARK SMILES IDX 75 45 69 46 71 47 31 48 74 49 68 50 67 51 32 53 58 54 41 55
REMARK SMILES IDX 57 56 42 57 45 58 56 59 72 60 43 61 44 62 55 64 73 65 46 66
REMARK SMILES IDX 33 67 34 68 39 69 35 70 36 71 38 72 40 73 37 74 59 75 60 76
REMARK SMILES IDX 65 77 61 78 62 79 64 80 66 81 63 82 47 83 48 84 53 85 49 86
REMARK SMILES IDX 50 87 52 88 54 89 51 90
REMARK H PARENT 14 7 21 33 71 52 45 63
REMARK Flexibility Score: inf
ROOT
ATOM      1  C   UNL A   1      36.020  21.601  25.280  1.00  0.00     0.002 C 
ENDROOT
BRANCH   1   2
ATOM      2  C   UNL A   1      34.872  21.774  26.276  1.00  0.00     0.021 C 
BRANCH   2   3
ATOM      3  C   UNL A   1      34.255  23.169  26.309  1.00  0.00     0.116 C 
BRANCH   3   4
ATOM      4  N   UNL A   1      32.867  23.123  26.720  1.00  0.00    -0.351 N 
ATOM      5  C   UNL A   1      31.845  24.037  26.744  1.00  0.00     0.267 C 
ATOM      6  O   UNL A   1      30.782  23.681  27.250  1.00  0.00    -0.268 OA
ATOM      7  H   UNL A   1      32.597  22.238  27.056  1.00  0.00     0.163 HD
BRANCH   5   8
ATOM      8  C   UNL A   1      31.933  25.435  26.151  1.00  0.00     0.128 C 
ATOM      9  N   UNL A   1      31.951  27.577  26.123  1.00  0.00    -0.256 N 
ATOM     10  N   UNL A   1      32.024  26.477  26.923  1.00  0.00    -0.171 NA
ATOM     11  C   UNL A   1      31.936  27.256  24.691  1.00  0.00     0.154 C 
ATOM     12  C   UNL A   1      31.945  25.724  24.689  1.00  0.00     0.097 C 
BRANCH   9  13
ATOM     13  C   UNL A   1      32.515  28.779  26.557  1.00  0.00     0.060 A 
ATOM     14  C   UNL A   1      33.660  31.155  27.510  1.00  0.00     0.067 A 
ATOM     15  C   UNL A   1      32.338  31.158  27.061  1.00  0.00     0.022 A 
ATOM     16  C   UNL A   1      34.418  29.986  27.487  1.00  0.00     0.022 A 
ATOM     17  C   UNL A   1      31.779  29.973  26.572  1.00  0.00     0.029 A 
ATOM     18  C   UNL A   1      33.842  28.809  27.008  1.00  0.00     0.029 A 
BRANCH  14  19
ATOM     19  S   UNL A   1      34.371  32.656  28.138  1.00  0.00     0.175 S 
ATOM     20  C   UNL A   1      34.592  32.328  29.865  1.00  0.00     0.163 C 
ATOM     21  O   UNL A   1      33.373  33.704  28.012  1.00  0.00    -0.224 OA
ATOM     22  O   UNL A   1      35.676  32.798  27.524  1.00  0.00    -0.224 OA
ENDBRANCH  14  19
ENDBRANCH   9  13
BRANCH  11  23
ATOM     23  C   UNL A   1      30.828  27.882  23.860  1.00  0.00     0.030 A 
ATOM     24  C   UNL A   1      29.497  27.495  23.831  1.00  0.00     0.017 A 
ATOM     25  S   UNL A   1      31.095  29.187  22.773  1.00  0.00    -0.147 S 
ATOM     26  C   UNL A   1      28.705  28.293  22.959  1.00  0.00     0.012 A 
ATOM     27  C   UNL A   1      29.444  29.286  22.358  1.00  0.00     0.065 A 
ENDBRANCH  11  23
ENDBRANCH   5   8
ENDBRANCH   3   4
ENDBRANCH   2   3
ENDBRANCH   1   2
BRANCH   1  28
ATOM     28  C   UNL A   1      36.432  20.153  24.996  1.00  0.00     0.002 C 
BRANCH  28  29
ATOM     29  C   UNL A   1      37.907  19.942  24.645  1.00  0.00     0.021 C 
BRANCH  29  30
ATOM     30  C   UNL A   1      38.889  20.213  25.781  1.00  0.00     0.116 C 
BRANCH  30  31
ATOM     31  N   UNL A   1      39.898  19.176  25.900  1.00  0.00    -0.352 N 
ATOM     32  C   UNL A   1      41.249  19.293  26.106  1.00  0.00     0.251 C 
ATOM     33  H   UNL A   1      39.563  18.254  25.820  1.00  0.00     0.163 HD
ATOM     34  O   UNL A   1      41.974  18.308  26.008  1.00  0.00    -0.269 OA
BRANCH  32  35
ATOM     35  C   UNL A   1      41.840  20.610  26.426  1.00  0.00     0.039 A 
ATOM     36  C   UNL A   1      42.178  21.467  25.376  1.00  0.00     0.014 A 
ATOM     37  C   UNL A   1      42.076  20.995  27.750  1.00  0.00     0.014 A 
ATOM     38  C   UNL A   1      42.707  22.729  25.654  1.00  0.00     0.010 A 
ATOM     39  C   UNL A   1      42.538  22.279  28.027  1.00  0.00     0.010 A 
ATOM     40  C   UNL A   1      42.863  23.157  26.982  1.00  0.00    -0.014 A 
BRANCH  40  41
ATOM     41  C   UNL A   1      43.366  24.520  27.293  1.00  0.00     0.031 A 
ATOM     42  C   UNL A   1      42.428  25.573  27.817  1.00  0.00     0.074 A 
ATOM     43  C   UNL A   1      44.654  24.826  27.047  1.00  0.00     0.049 A 
ATOM     44  N   UNL A   1      42.667  26.831  28.088  1.00  0.00    -0.248 NA
ATOM     45  C   UNL A   1      41.032  25.166  28.039  1.00  0.00     0.031 C 
ATOM     46  C   UNL A   1      45.651  23.907  26.495  1.00  0.00     0.029 A 
ATOM     47  N   UNL A   1      45.344  25.999  27.221  1.00  0.00    -0.354 N 
ATOM     48  C   UNL A   1      41.453  27.367  28.497  1.00  0.00     0.074 A 
ATOM     49  C   UNL A   1      40.468  26.312  28.392  1.00  0.00     0.031 C 
ATOM     50  C   UNL A   1      46.828  24.546  26.392  1.00  0.00     0.029 A 
ATOM     51  C   UNL A   1      46.662  25.925  26.838  1.00  0.00     0.049 A 
ATOM     52  H   UNL A   1      44.934  26.816  27.585  1.00  0.00     0.167 HD
ATOM     53  C   UNL A   1      41.186  28.618  28.941  1.00  0.00     0.037 A 
ATOM     54  C   UNL A   1      47.625  26.867  26.838  1.00  0.00     0.037 A 
ATOM     55  C   UNL A   1      42.174  29.658  29.073  1.00  0.00     0.049 A 
ATOM     56  C   UNL A   1      47.304  28.246  27.341  1.00  0.00     0.074 A 
ATOM     57  C   UNL A   1      42.016  30.937  29.578  1.00  0.00     0.029 A 
ATOM     58  N   UNL A   1      43.503  29.537  28.697  1.00  0.00    -0.354 N 
ATOM     59  N   UNL A   1      46.168  28.718  27.792  1.00  0.00    -0.248 NA
ATOM     60  C   UNL A   1      48.402  29.223  27.341  1.00  0.00     0.031 C 
ATOM     61  C   UNL A   1      43.239  31.606  29.465  1.00  0.00     0.029 A 
ATOM     62  C   UNL A   1      44.171  30.727  28.936  1.00  0.00     0.049 A 
ATOM     63  H   UNL A   1      43.911  28.726  28.316  1.00  0.00     0.167 HD
ATOM     64  C   UNL A   1      46.420  30.035  28.156  1.00  0.00     0.074 A 
ATOM     65  C   UNL A   1      47.820  30.282  27.885  1.00  0.00     0.031 C 
ATOM     66  C   UNL A   1      45.567  30.957  28.668  1.00  0.00     0.037 A 
BRANCH  53  67
ATOM     67  C   UNL A   1      39.769  28.933  29.322  1.00  0.00     0.057 A 
ATOM     68  C   UNL A   1      39.293  28.741  30.627  1.00  0.00     0.134 A 
ATOM     69  C   UNL A   1      38.880  29.475  28.386  1.00  0.00     0.134 A 
ATOM     70  F   UNL A   1      40.089  28.216  31.570  1.00  0.00    -0.206 F 
ATOM     71  C   UNL A   1      37.979  29.053  30.978  1.00  0.00     0.040 A 
ATOM     72  C   UNL A   1      37.572  29.817  28.732  1.00  0.00     0.040 A 
ATOM     73  F   UNL A   1      39.271  29.691  27.120  1.00  0.00    -0.206 F 
ATOM     74  C   UNL A   1      37.116  29.601  30.031  1.00  0.00     0.006 A 
ENDBRANCH  53  67
BRANCH  54  75
ATOM     75  C   UNL A   1      48.991  26.531  26.363  1.00  0.00     0.057 A 
ATOM     76  C   UNL A   1      49.929  25.944  27.220  1.00  0.00     0.134 A 
ATOM     77  C   UNL A   1      49.396  26.799  25.051  1.00  0.00     0.134 A 
ATOM     78  F   UNL A   1      49.607  25.680  28.495  1.00  0.00    -0.206 F 
ATOM     79  C   UNL A   1      51.227  25.654  26.796  1.00  0.00     0.040 A 
ATOM     80  C   UNL A   1      50.682  26.491  24.605  1.00  0.00     0.040 A 
ATOM     81  F   UNL A   1      48.541  27.353  24.178  1.00  0.00    -0.206 F 
ATOM     82  C   UNL A   1      51.605  25.925  25.482  1.00  0.00     0.006 A 
ENDBRANCH  54  75
BRANCH  66  83
ATOM     83  C   UNL A   1      46.133  32.306  28.999  1.00  0.00     0.057 A 
ATOM     84  C   UNL A   1      46.700  32.585  30.250  1.00  0.00     0.134 A 
ATOM     85  C   UNL A   1      46.145  33.328  28.040  1.00  0.00     0.134 A 
ATOM     86  F   UNL A   1      46.707  31.654  31.216  1.00  0.00    -0.206 F 
ATOM     87  C   UNL A   1      47.236  33.839  30.542  1.00  0.00     0.040 A 
ATOM     88  C   UNL A   1      46.703  34.577  28.312  1.00  0.00     0.040 A 
ATOM     89  F   UNL A   1      45.626  33.122  26.820  1.00  0.00    -0.206 F 
ATOM     90  C   UNL A   1      47.245  34.837  29.569  1.00  0.00     0.006 A 
ENDBRANCH  66  83
ENDBRANCH  40  41
ENDBRANCH  32  35
ENDBRANCH  30  31
ENDBRANCH  29  30
ENDBRANCH  28  29
ENDBRANCH   1  28
TORSDOF 16
ENDMDL
MODEL 3
REMARK VINA RESULT:     -11.9      1.177      6.047
REMARK SMILES CS(=O)(=O)c1ccc(N2N=C(C(=O)NCCCCCCNC(=O)c3ccc(-c4c5nc(c(-c6c(F)cccc6F)c6ccc([nH]6)c(-c6c(F)cccc6F)c6nc(c(-c7c(F)cccc7F)c7ccc4[nH]7)C=C6)C=C5)cc3)C[C@H]2c2cccs2)cc1
REMARK SMILES IDX 17 1 16 2 15 3 14 4 12 5 13 6 11 8 9 9 10 10 79 11 78 12
REMARK SMILES IDX 8 13 5 14 6 15 86 16 7 17 85 18 2 19 1 20 3 21 4 22 80 23
REMARK SMILES IDX 81 24 84 25 82 26 83 27 18 28 19 29 20 30 21 31 22 32 23 34
REMARK SMILES IDX 24 35 25 36 77 37 26 38 76 39 27 40 28 41 29 42 70 43 30 44
REMARK SMILES IDX 75 45 69 46 71 47 31 48 74 49 68 50 67 51 32 53 58 54 41 55
REMARK SMILES IDX 57 56 42 57 45 58 56 59 72 60 43 61 44 62 55 64 73 65 46 66
REMARK SMILES IDX 33 67 34 68 39 69 35 70 36 71 38 72 40 73 37 74 59 75 60 76
REMARK SMILES IDX 65 77 61 78 62 79 64 80 66 81 63 82 47 83 48 84 53 85 49 86
REMARK SMILES IDX 50 87 52 88 54 89 51 90
REMARK H PARENT 14 7 21 33 71 52 45 63
REMARK Flexibility Score: inf
ROOT
ATOM      1  C   UNL A   1      31.412  29.669  25.014  1.00  0.00     0.002 C 
ENDROOT
BRANCH   1   2
ATOM      2  C   UNL A   1      32.678  28.997  24.480  1.00  0.00     0.021 C 
BRANCH   2   3
ATOM      3  C   UNL A   1      32.630  27.472  24.448  1.00  0.00     0.116 C 
BRANCH   3   4
ATOM      4  N   UNL A   1      32.905  26.963  23.119  1.00  0.00    -0.351 N 
ATOM      5  C   UNL A   1      33.497  25.826  22.634  1.00  0.00     0.267 C 
ATOM      6  O   UNL A   1      33.650  25.745  21.416  1.00  0.00    -0.268 OA
ATOM      7  H   UNL A   1      32.597  27.569  22.407  1.00  0.00     0.163 HD
BRANCH   5   8
ATOM      8  C   UNL A   1      33.932  24.652  23.499  1.00  0.00     0.128 C 
ATOM      9  N   UNL A   1      35.213  23.098  24.231  1.00  0.00    -0.256 N 
ATOM     10  N   UNL A   1      35.160  24.225  23.466  1.00  0.00    -0.171 NA
ATOM     11  C   UNL A   1      33.958  22.812  24.935  1.00  0.00     0.154 C 
ATOM     12  C   UNL A   1      33.032  23.928  24.440  1.00  0.00     0.097 C 
BRANCH   9  13
ATOM     13  C   UNL A   1      36.429  22.713  24.799  1.00  0.00     0.060 A 
ATOM     14  C   UNL A   1      38.913  22.004  25.892  1.00  0.00     0.067 A 
ATOM     15  C   UNL A   1      38.195  21.068  25.146  1.00  0.00     0.022 A 
ATOM     16  C   UNL A   1      38.408  23.286  26.103  1.00  0.00     0.022 A 
ATOM     17  C   UNL A   1      36.950  21.423  24.617  1.00  0.00     0.029 A 
ATOM     18  C   UNL A   1      37.171  23.630  25.558  1.00  0.00     0.029 A 
BRANCH  14  19
ATOM     19  S   UNL A   1      40.497  21.559  26.559  1.00  0.00     0.175 S 
ATOM     20  C   UNL A   1      40.667  19.846  26.135  1.00  0.00     0.163 C 
ATOM     21  O   UNL A   1      40.409  21.648  28.005  1.00  0.00    -0.224 OA
ATOM     22  O   UNL A   1      41.494  22.315  25.828  1.00  0.00    -0.224 OA
ENDBRANCH  14  19
ENDBRANCH   9  13
BRANCH  11  23
ATOM     23  C   UNL A   1      33.393  21.409  24.784  1.00  0.00     0.030 A 
ATOM     24  C   UNL A   1      33.508  20.368  25.693  1.00  0.00     0.017 A 
ATOM     25  S   UNL A   1      32.527  20.893  23.390  1.00  0.00    -0.147 S 
ATOM     26  C   UNL A   1      32.854  19.180  25.263  1.00  0.00     0.012 A 
ATOM     27  C   UNL A   1      32.235  19.346  24.046  1.00  0.00     0.065 A 
ENDBRANCH  11  23
ENDBRANCH   5   8
ENDBRANCH   3   4
ENDBRANCH   2   3
ENDBRANCH   1   2
BRANCH   1  28
ATOM     28  C   UNL A   1      31.517  30.238  26.432  1.00  0.00     0.002 C 
BRANCH  28  29
ATOM     29  C   UNL A   1      31.405  31.761  26.544  1.00  0.00     0.021 C 
BRANCH  29  30
ATOM     30  C   UNL A   1      32.717  32.490  26.817  1.00  0.00     0.116 C 
BRANCH  30  31
ATOM     31  N   UNL A   1      32.509  33.825  27.347  1.00  0.00    -0.352 N 
ATOM     32  C   UNL A   1      33.118  34.447  28.407  1.00  0.00     0.251 C 
ATOM     33  H   UNL A   1      31.830  34.362  26.878  1.00  0.00     0.163 HD
ATOM     34  O   UNL A   1      32.690  35.522  28.818  1.00  0.00    -0.269 OA
BRANCH  32  35
ATOM     35  C   UNL A   1      34.280  33.817  29.070  1.00  0.00     0.039 A 
ATOM     36  C   UNL A   1      34.049  32.831  30.033  1.00  0.00     0.014 A 
ATOM     37  C   UNL A   1      35.587  34.205  28.762  1.00  0.00     0.014 A 
ATOM     38  C   UNL A   1      35.129  32.197  30.649  1.00  0.00     0.010 A 
ATOM     39  C   UNL A   1      36.664  33.524  29.327  1.00  0.00     0.010 A 
ATOM     40  C   UNL A   1      36.445  32.517  30.280  1.00  0.00    -0.014 A 
BRANCH  40  41
ATOM     41  C   UNL A   1      37.603  31.809  30.882  1.00  0.00     0.031 A 
ATOM     42  C   UNL A   1      38.058  32.147  32.275  1.00  0.00     0.074 A 
ATOM     43  C   UNL A   1      38.282  30.902  30.153  1.00  0.00     0.049 A 
ATOM     44  N   UNL A   1      39.081  31.683  32.946  1.00  0.00    -0.248 NA
ATOM     45  C   UNL A   1      37.277  33.162  32.999  1.00  0.00     0.031 C 
ATOM     46  C   UNL A   1      37.970  30.522  28.774  1.00  0.00     0.029 A 
ATOM     47  N   UNL A   1      39.382  30.145  30.466  1.00  0.00    -0.354 N 
ATOM     48  C   UNL A   1      39.074  32.356  34.161  1.00  0.00     0.074 A 
ATOM     49  C   UNL A   1      37.977  33.297  34.116  1.00  0.00     0.031 C 
ATOM     50  C   UNL A   1      38.846  29.589  28.367  1.00  0.00     0.029 A 
ATOM     51  C   UNL A   1      39.801  29.332  29.440  1.00  0.00     0.049 A 
ATOM     52  H   UNL A   1      39.829  30.180  31.342  1.00  0.00     0.167 HD
ATOM     53  C   UNL A   1      39.895  32.191  35.226  1.00  0.00     0.037 A 
ATOM     54  C   UNL A   1      40.843  28.480  29.370  1.00  0.00     0.037 A 
ATOM     55  C   UNL A   1      40.969  31.232  35.279  1.00  0.00     0.049 A 
ATOM     56  C   UNL A   1      41.735  28.312  30.568  1.00  0.00     0.074 A 
ATOM     57  C   UNL A   1      41.812  30.942  36.337  1.00  0.00     0.029 A 
ATOM     58  N   UNL A   1      41.347  30.411  34.228  1.00  0.00    -0.354 N 
ATOM     59  N   UNL A   1      41.673  28.904  31.736  1.00  0.00    -0.248 NA
ATOM     60  C   UNL A   1      42.839  27.350  30.441  1.00  0.00     0.031 C 
ATOM     61  C   UNL A   1      42.731  29.976  35.912  1.00  0.00     0.029 A 
ATOM     62  C   UNL A   1      42.427  29.630  34.605  1.00  0.00     0.049 A 
ATOM     63  H   UNL A   1      40.912  30.386  33.346  1.00  0.00     0.167 HD
ATOM     64  C   UNL A   1      42.709  28.368  32.490  1.00  0.00     0.074 A 
ATOM     65  C   UNL A   1      43.374  27.393  31.652  1.00  0.00     0.031 C 
ATOM     66  C   UNL A   1      43.075  28.658  33.763  1.00  0.00     0.037 A 
BRANCH  53  67
ATOM     67  C   UNL A   1      39.662  33.063  36.425  1.00  0.00     0.057 A 
ATOM     68  C   UNL A   1      40.328  34.285  36.592  1.00  0.00     0.134 A 
ATOM     69  C   UNL A   1      38.731  32.698  37.405  1.00  0.00     0.134 A 
ATOM     70  F   UNL A   1      41.241  34.690  35.696  1.00  0.00    -0.206 F 
ATOM     71  C   UNL A   1      40.093  35.100  37.701  1.00  0.00     0.040 A 
ATOM     72  C   UNL A   1      38.468  33.517  38.504  1.00  0.00     0.040 A 
ATOM     73  F   UNL A   1      38.054  31.543  37.305  1.00  0.00    -0.206 F 
ATOM     74  C   UNL A   1      39.154  34.720  38.657  1.00  0.00     0.006 A 
ENDBRANCH  53  67
BRANCH  54  75
ATOM     75  C   UNL A   1      41.088  27.707  28.127  1.00  0.00     0.057 A 
ATOM     76  C   UNL A   1      41.849  28.243  27.081  1.00  0.00     0.134 A 
ATOM     77  C   UNL A   1      40.561  26.423  27.949  1.00  0.00     0.134 A 
ATOM     78  F   UNL A   1      42.366  29.476  27.186  1.00  0.00    -0.206 F 
ATOM     79  C   UNL A   1      42.059  27.539  25.895  1.00  0.00     0.040 A 
ATOM     80  C   UNL A   1      40.783  25.697  26.778  1.00  0.00     0.040 A 
ATOM     81  F   UNL A   1      39.830  25.850  28.917  1.00  0.00    -0.206 F 
ATOM     82  C   UNL A   1      41.528  26.259  25.743  1.00  0.00     0.006 A 
ENDBRANCH  54  75
BRANCH  66  83
ATOM     83  C   UNL A   1      44.228  27.888  34.337  1.00  0.00     0.057 A 
ATOM     84  C   UNL A   1      45.537  28.385  34.312  1.00  0.00     0.134 A 
ATOM     85  C   UNL A   1      44.018  26.648  34.956  1.00  0.00     0.134 A 
ATOM     86  F   UNL A   1      45.807  29.559  33.722  1.00  0.00    -0.206 F 
ATOM     87  C   UNL A   1      46.599  27.667  34.862  1.00  0.00     0.040 A 
ATOM     88  C   UNL A   1      45.067  25.934  35.533  1.00  0.00     0.040 A 
ATOM     89  F   UNL A   1      42.786  26.120  35.022  1.00  0.00    -0.206 F 
ATOM     90  C   UNL A   1      46.364  26.440  35.481  1.00  0.00     0.006 A 
ENDBRANCH  66  83
ENDBRANCH  40  41
ENDBRANCH  32  35
ENDBRANCH  30  31
ENDBRANCH  29  30
ENDBRANCH  28  29
ENDBRANCH   1  28
TORSDOF 16
ENDMDL
