MODEL 1
REMARK VINA RESULT:     -10.9      0.000      0.000
REMARK SMILES COC[C@@H](NS(=O)(=O)c1ccc(C(=O)NCCCCCCNC(=O)c2ccc(-c3c4nc(c(-c5c(F)cccc5F)c5ccc([nH]5)c(-c5c(F)cccc5F)c5nc(c(-c6c(F)cccc6F)c6ccc3[nH]6)C=C5)C=C4)cc2)cc1F)C(C)C
REMARK SMILES IDX 17 1 16 2 15 3 13 4 14 5 12 7 9 8 10 9 80 10 11 11 79 12
REMARK SMILES IDX 81 13 6 14 7 15 8 16 5 17 4 19 3 20 2 21 1 22 82 23 83 24
REMARK SMILES IDX 84 25 18 26 19 27 20 28 21 29 22 30 23 31 24 33 25 34 26 35
REMARK SMILES IDX 78 36 27 37 77 38 28 39 29 40 30 41 71 42 31 43 76 44 70 45
REMARK SMILES IDX 72 46 32 47 75 48 69 49 68 50 33 52 59 53 42 54 58 55 43 56
REMARK SMILES IDX 46 57 57 58 73 59 44 60 45 61 56 63 74 64 47 65 34 66 35 67
REMARK SMILES IDX 40 68 36 69 37 70 39 71 41 72 38 73 60 74 61 75 66 76 62 77
REMARK SMILES IDX 63 78 65 79 67 80 64 81 48 82 49 83 54 84 50 85 51 86 53 87
REMARK SMILES IDX 55 88 52 89
REMARK H PARENT 15 6 5 18 22 32 72 51 46 62
REMARK Flexibility Score: inf
ROOT
ATOM      1  C   UNL A   1      33.698  20.613  25.537  1.00  0.00     0.021 C 
ENDROOT
BRANCH   1   2
ATOM      2  C   UNL A   1      34.063  21.444  26.764  1.00  0.00     0.116 C 
BRANCH   2   3
ATOM      3  N   UNL A   1      32.866  21.997  27.360  1.00  0.00    -0.352 N 
ATOM      4  C   UNL A   1      32.041  22.991  26.921  1.00  0.00     0.251 C 
ATOM      5  O   UNL A   1      31.030  23.270  27.562  1.00  0.00    -0.269 OA
ATOM      6  H   UNL A   1      32.604  21.591  28.217  1.00  0.00     0.163 HD
BRANCH   4   7
ATOM      7  C   UNL A   1      32.325  23.735  25.677  1.00  0.00     0.042 A 
ATOM      8  C   UNL A   1      32.475  25.460  23.505  1.00  0.00     0.118 A 
ATOM      9  C   UNL A   1      31.449  24.512  23.553  1.00  0.00     0.026 A 
ATOM     10  C   UNL A   1      33.479  25.472  24.469  1.00  0.00     0.144 A 
ATOM     11  C   UNL A   1      31.371  23.656  24.652  1.00  0.00     0.015 A 
ATOM     12  C   UNL A   1      33.397  24.626  25.572  1.00  0.00     0.054 A 
ATOM     13  F   UNL A   1      34.470  26.372  24.435  1.00  0.00    -0.205 F 
BRANCH   8  14
ATOM     14  S   UNL A   1      32.372  26.822  22.385  1.00  0.00     0.243 S 
ATOM     15  O   UNL A   1      31.089  26.752  21.714  1.00  0.00    -0.207 OA
ATOM     16  O   UNL A   1      33.606  26.875  21.644  1.00  0.00    -0.207 OA
BRANCH  14  17
ATOM     17  N   UNL A   1      32.369  28.143  23.448  1.00  0.00    -0.205 NA
ATOM     18  H   UNL A   1      33.173  28.022  24.064  1.00  0.00     0.141 HD
BRANCH  17  19
ATOM     19  C   UNL A   1      31.194  28.414  24.328  1.00  0.00     0.098 C 
BRANCH  19  20
ATOM     20  C   UNL A   1      30.472  29.690  23.813  1.00  0.00     0.180 C 
BRANCH  20  21
ATOM     21  O   UNL A   1      29.121  29.443  23.434  1.00  0.00    -0.383 OA
ATOM     22  C   UNL A   1      28.848  29.633  22.055  1.00  0.00     0.194 C 
ENDBRANCH  20  21
ENDBRANCH  19  20
BRANCH  19  23
ATOM     23  C   UNL A   1      31.614  28.663  25.810  1.00  0.00     0.003 C 
ATOM     24  C   UNL A   1      31.302  27.430  26.673  1.00  0.00     0.009 C 
ATOM     25  C   UNL A   1      33.081  29.003  26.028  1.00  0.00     0.009 C 
ENDBRANCH  19  23
ENDBRANCH  17  19
ENDBRANCH  14  17
ENDBRANCH   8  14
ENDBRANCH   4   7
ENDBRANCH   2   3
ENDBRANCH   1   2
BRANCH   1  26
ATOM     26  C   UNL A   1      34.891  19.850  24.947  1.00  0.00     0.002 C 
BRANCH  26  27
ATOM     27  C   UNL A   1      36.226  20.603  25.011  1.00  0.00     0.002 C 
BRANCH  27  28
ATOM     28  C   UNL A   1      37.467  19.714  24.900  1.00  0.00     0.021 C 
BRANCH  28  29
ATOM     29  C   UNL A   1      38.724  20.329  25.500  1.00  0.00     0.116 C 
BRANCH  29  30
ATOM     30  N   UNL A   1      39.765  19.331  25.692  1.00  0.00    -0.352 N 
ATOM     31  C   UNL A   1      41.074  19.517  26.057  1.00  0.00     0.251 C 
ATOM     32  H   UNL A   1      39.493  18.398  25.540  1.00  0.00     0.163 HD
ATOM     33  O   UNL A   1      41.888  18.607  25.941  1.00  0.00    -0.269 OA
BRANCH  31  34
ATOM     34  C   UNL A   1      41.497  20.830  26.580  1.00  0.00     0.039 A 
ATOM     35  C   UNL A   1      42.054  21.763  25.704  1.00  0.00     0.014 A 
ATOM     36  C   UNL A   1      41.342  21.133  27.936  1.00  0.00     0.014 A 
ATOM     37  C   UNL A   1      42.412  23.024  26.182  1.00  0.00     0.010 A 
ATOM     38  C   UNL A   1      41.634  22.413  28.395  1.00  0.00     0.010 A 
ATOM     39  C   UNL A   1      42.179  23.367  27.524  1.00  0.00    -0.014 A 
BRANCH  39  40
ATOM     40  C   UNL A   1      42.504  24.719  28.038  1.00  0.00     0.031 A 
ATOM     41  C   UNL A   1      43.914  25.054  28.435  1.00  0.00     0.074 A 
ATOM     42  C   UNL A   1      41.520  25.623  28.200  1.00  0.00     0.049 A 
ATOM     43  N   UNL A   1      44.382  26.155  28.966  1.00  0.00    -0.248 NA
ATOM     44  C   UNL A   1      44.929  24.008  28.233  1.00  0.00     0.031 C 
ATOM     45  C   UNL A   1      40.107  25.398  27.886  1.00  0.00     0.029 A 
ATOM     46  N   UNL A   1      41.555  26.911  28.672  1.00  0.00    -0.354 N 
ATOM     47  C   UNL A   1      45.737  25.928  29.169  1.00  0.00     0.074 A 
ATOM     48  C   UNL A   1      46.008  24.570  28.757  1.00  0.00     0.031 C 
ATOM     49  C   UNL A   1      39.416  26.520  28.147  1.00  0.00     0.029 A 
ATOM     50  C   UNL A   1      40.327  27.527  28.682  1.00  0.00     0.049 A 
ATOM     51  H   UNL A   1      42.382  27.351  28.974  1.00  0.00     0.167 HD
ATOM     52  C   UNL A   1      46.674  26.788  29.633  1.00  0.00     0.037 A 
ATOM     53  C   UNL A   1      39.975  28.764  29.082  1.00  0.00     0.037 A 
ATOM     54  C   UNL A   1      46.402  28.148  30.013  1.00  0.00     0.049 A 
ATOM     55  C   UNL A   1      41.032  29.695  29.605  1.00  0.00     0.074 A 
ATOM     56  C   UNL A   1      47.296  29.114  30.443  1.00  0.00     0.029 A 
ATOM     57  N   UNL A   1      45.146  28.736  30.009  1.00  0.00    -0.354 N 
ATOM     58  N   UNL A   1      42.319  29.485  29.744  1.00  0.00    -0.248 NA
ATOM     59  C   UNL A   1      40.592  31.032  30.027  1.00  0.00     0.031 C 
ATOM     60  C   UNL A   1      46.574  30.273  30.742  1.00  0.00     0.029 A 
ATOM     61  C   UNL A   1      45.238  30.045  30.449  1.00  0.00     0.049 A 
ATOM     62  H   UNL A   1      44.314  28.288  29.733  1.00  0.00     0.167 HD
ATOM     63  C   UNL A   1      42.845  30.668  30.245  1.00  0.00     0.074 A 
ATOM     64  C   UNL A   1      41.741  31.596  30.374  1.00  0.00     0.031 C 
ATOM     65  C   UNL A   1      44.129  30.959  30.567  1.00  0.00     0.037 A 
BRANCH  52  66
ATOM     66  C   UNL A   1      48.086  26.293  29.738  1.00  0.00     0.057 A 
ATOM     67  C   UNL A   1      48.565  25.740  30.933  1.00  0.00     0.134 A 
ATOM     68  C   UNL A   1      48.993  26.426  28.679  1.00  0.00     0.134 A 
ATOM     69  F   UNL A   1      47.750  25.590  31.989  1.00  0.00    -0.206 F 
ATOM     70  C   UNL A   1      49.898  25.351  31.075  1.00  0.00     0.040 A 
ATOM     71  C   UNL A   1      50.322  26.014  28.800  1.00  0.00     0.040 A 
ATOM     72  F   UNL A   1      48.597  26.936  27.504  1.00  0.00    -0.206 F 
ATOM     73  C   UNL A   1      50.779  25.485  30.005  1.00  0.00     0.006 A 
ENDBRANCH  52  66
BRANCH  53  74
ATOM     74  C   UNL A   1      38.560  29.197  28.968  1.00  0.00     0.057 A 
ATOM     75  C   UNL A   1      37.680  29.128  30.055  1.00  0.00     0.134 A 
ATOM     76  C   UNL A   1      38.046  29.662  27.752  1.00  0.00     0.134 A 
ATOM     77  F   UNL A   1      38.108  28.682  31.246  1.00  0.00    -0.206 F 
ATOM     78  C   UNL A   1      36.337  29.490  29.933  1.00  0.00     0.040 A 
ATOM     79  C   UNL A   1      36.711  30.050  27.622  1.00  0.00     0.040 A 
ATOM     80  F   UNL A   1      38.843  29.766  26.679  1.00  0.00    -0.206 F 
ATOM     81  C   UNL A   1      35.851  29.956  28.714  1.00  0.00     0.006 A 
ENDBRANCH  53  74
BRANCH  65  82
ATOM     82  C   UNL A   1      44.425  32.339  31.073  1.00  0.00     0.057 A 
ATOM     83  C   UNL A   1      44.772  33.365  30.184  1.00  0.00     0.134 A 
ATOM     84  C   UNL A   1      44.455  32.630  32.442  1.00  0.00     0.134 A 
ATOM     85  F   UNL A   1      44.774  33.147  28.861  1.00  0.00    -0.206 F 
ATOM     86  C   UNL A   1      45.153  34.627  30.640  1.00  0.00     0.040 A 
ATOM     87  C   UNL A   1      44.810  33.896  32.910  1.00  0.00     0.040 A 
ATOM     88  F   UNL A   1      44.125  31.693  33.344  1.00  0.00    -0.206 F 
ATOM     89  C   UNL A   1      45.172  34.895  32.008  1.00  0.00     0.006 A 
ENDBRANCH  65  82
ENDBRANCH  39  40
ENDBRANCH  31  34
ENDBRANCH  29  30
ENDBRANCH  28  29
ENDBRANCH  27  28
ENDBRANCH  26  27
ENDBRANCH   1  26
TORSDOF 19
ENDMDL
MODEL 2
REMARK VINA RESULT:     -10.5      0.947      6.154
REMARK SMILES COC[C@@H](NS(=O)(=O)c1ccc(C(=O)NCCCCCCNC(=O)c2ccc(-c3c4nc(c(-c5c(F)cccc5F)c5ccc([nH]5)c(-c5c(F)cccc5F)c5nc(c(-c6c(F)cccc6F)c6ccc3[nH]6)C=C5)C=C4)cc2)cc1F)C(C)C
REMARK SMILES IDX 17 1 16 2 15 3 13 4 14 5 12 7 9 8 10 9 80 10 11 11 79 12
REMARK SMILES IDX 81 13 6 14 7 15 8 16 5 17 4 19 3 20 2 21 1 22 82 23 83 24
REMARK SMILES IDX 84 25 18 26 19 27 20 28 21 29 22 30 23 31 24 33 25 34 26 35
REMARK SMILES IDX 78 36 27 37 77 38 28 39 29 40 30 41 71 42 31 43 76 44 70 45
REMARK SMILES IDX 72 46 32 47 75 48 69 49 68 50 33 52 59 53 42 54 58 55 43 56
REMARK SMILES IDX 46 57 57 58 73 59 44 60 45 61 56 63 74 64 47 65 34 66 35 67
REMARK SMILES IDX 40 68 36 69 37 70 39 71 41 72 38 73 60 74 61 75 66 76 62 77
REMARK SMILES IDX 63 78 65 79 67 80 64 81 48 82 49 83 54 84 50 85 51 86 53 87
REMARK SMILES IDX 55 88 52 89
REMARK H PARENT 15 6 5 18 22 32 72 51 46 62
REMARK Flexibility Score: inf
ROOT
ATOM      1  C   UNL A   1      33.630  20.603  25.518  1.00  0.00     0.021 C 
ENDROOT
BRANCH   1   2
ATOM      2  C   UNL A   1      34.008  21.426  26.747  1.00  0.00     0.116 C 
BRANCH   2   3
ATOM      3  N   UNL A   1      32.820  22.001  27.339  1.00  0.00    -0.352 N 
ATOM      4  C   UNL A   1      32.002  22.995  26.887  1.00  0.00     0.251 C 
ATOM      5  O   UNL A   1      30.999  23.296  27.529  1.00  0.00    -0.269 OA
ATOM      6  H   UNL A   1      32.561  21.615  28.206  1.00  0.00     0.163 HD
BRANCH   4   7
ATOM      7  C   UNL A   1      32.284  23.712  25.627  1.00  0.00     0.042 A 
ATOM      8  C   UNL A   1      32.448  25.403  23.429  1.00  0.00     0.118 A 
ATOM      9  C   UNL A   1      31.388  24.494  23.514  1.00  0.00     0.026 A 
ATOM     10  C   UNL A   1      33.473  25.390  24.370  1.00  0.00     0.144 A 
ATOM     11  C   UNL A   1      31.304  23.656  24.625  1.00  0.00     0.015 A 
ATOM     12  C   UNL A   1      33.386  24.561  25.486  1.00  0.00     0.054 A 
ATOM     13  F   UNL A   1      34.495  26.252  24.301  1.00  0.00    -0.205 F 
BRANCH   8  14
ATOM     14  S   UNL A   1      32.369  26.753  22.293  1.00  0.00     0.243 S 
ATOM     15  O   UNL A   1      31.119  26.651  21.564  1.00  0.00    -0.207 OA
ATOM     16  O   UNL A   1      33.634  26.826  21.609  1.00  0.00    -0.207 OA
BRANCH  14  17
ATOM     17  N   UNL A   1      32.290  28.082  23.343  1.00  0.00    -0.205 NA
ATOM     18  H   UNL A   1      33.107  28.022  23.951  1.00  0.00     0.141 HD
BRANCH  17  19
ATOM     19  C   UNL A   1      31.110  28.284  24.235  1.00  0.00     0.098 C 
BRANCH  19  20
ATOM     20  C   UNL A   1      30.276  29.478  23.692  1.00  0.00     0.180 C 
BRANCH  20  21
ATOM     21  O   UNL A   1      29.249  29.068  22.795  1.00  0.00    -0.383 OA
ATOM     22  C   UNL A   1      28.800  30.079  21.906  1.00  0.00     0.194 C 
ENDBRANCH  20  21
ENDBRANCH  19  20
BRANCH  19  23
ATOM     23  C   UNL A   1      31.530  28.617  25.700  1.00  0.00     0.003 C 
ATOM     24  C   UNL A   1      31.353  27.386  26.604  1.00  0.00     0.009 C 
ATOM     25  C   UNL A   1      32.960  29.103  25.879  1.00  0.00     0.009 C 
ENDBRANCH  19  23
ENDBRANCH  17  19
ENDBRANCH  14  17
ENDBRANCH   8  14
ENDBRANCH   4   7
ENDBRANCH   2   3
ENDBRANCH   1   2
BRANCH   1  26
ATOM     26  C   UNL A   1      34.804  19.797  24.946  1.00  0.00     0.002 C 
BRANCH  26  27
ATOM     27  C   UNL A   1      36.147  20.538  24.944  1.00  0.00     0.002 C 
BRANCH  27  28
ATOM     28  C   UNL A   1      37.377  19.628  24.934  1.00  0.00     0.021 C 
BRANCH  28  29
ATOM     29  C   UNL A   1      38.635  20.283  25.491  1.00  0.00     0.116 C 
BRANCH  29  30
ATOM     30  N   UNL A   1      39.684  19.304  25.729  1.00  0.00    -0.352 N 
ATOM     31  C   UNL A   1      40.990  19.517  26.089  1.00  0.00     0.251 C 
ATOM     32  H   UNL A   1      39.420  18.363  25.618  1.00  0.00     0.163 HD
ATOM     33  O   UNL A   1      41.812  18.611  26.016  1.00  0.00    -0.269 OA
BRANCH  31  34
ATOM     34  C   UNL A   1      41.400  20.856  26.555  1.00  0.00     0.039 A 
ATOM     35  C   UNL A   1      41.929  20.996  27.839  1.00  0.00     0.014 A 
ATOM     36  C   UNL A   1      41.257  21.969  25.720  1.00  0.00     0.014 A 
ATOM     37  C   UNL A   1      42.362  22.250  28.270  1.00  0.00     0.010 A 
ATOM     38  C   UNL A   1      41.755  23.203  26.124  1.00  0.00     0.010 A 
ATOM     39  C   UNL A   1      42.305  23.356  27.406  1.00  0.00    -0.014 A 
BRANCH  39  40
ATOM     40  C   UNL A   1      42.809  24.685  27.825  1.00  0.00     0.031 A 
ATOM     41  C   UNL A   1      41.843  25.766  28.223  1.00  0.00     0.074 A 
ATOM     42  C   UNL A   1      44.132  24.935  27.795  1.00  0.00     0.049 A 
ATOM     43  N   UNL A   1      42.085  27.008  28.554  1.00  0.00    -0.248 NA
ATOM     44  C   UNL A   1      40.414  25.413  28.223  1.00  0.00     0.031 C 
ATOM     45  C   UNL A   1      45.162  23.977  27.389  1.00  0.00     0.029 A 
ATOM     46  N   UNL A   1      44.836  26.070  28.106  1.00  0.00    -0.354 N 
ATOM     47  C   UNL A   1      40.844  27.583  28.792  1.00  0.00     0.074 A 
ATOM     48  C   UNL A   1      39.846  26.574  28.514  1.00  0.00     0.031 C 
ATOM     49  C   UNL A   1      46.368  24.556  27.504  1.00  0.00     0.029 A 
ATOM     50  C   UNL A   1      46.195  25.934  27.952  1.00  0.00     0.049 A 
ATOM     51  H   UNL A   1      44.409  26.903  28.410  1.00  0.00     0.167 HD
ATOM     52  C   UNL A   1      40.565  28.833  29.229  1.00  0.00     0.037 A 
ATOM     53  C   UNL A   1      47.188  26.822  28.146  1.00  0.00     0.037 A 
ATOM     54  C   UNL A   1      41.564  29.823  29.532  1.00  0.00     0.049 A 
ATOM     55  C   UNL A   1      46.852  28.208  28.619  1.00  0.00     0.074 A 
ATOM     56  C   UNL A   1      41.382  31.101  30.033  1.00  0.00     0.029 A 
ATOM     57  N   UNL A   1      42.929  29.648  29.365  1.00  0.00    -0.354 N 
ATOM     58  N   UNL A   1      45.677  28.724  28.889  1.00  0.00    -0.248 NA
ATOM     59  C   UNL A   1      47.974  29.136  28.815  1.00  0.00     0.031 C 
ATOM     60  C   UNL A   1      42.635  31.714  30.126  1.00  0.00     0.029 A 
ATOM     61  C   UNL A   1      43.601  30.801  29.732  1.00  0.00     0.049 A 
ATOM     62  H   UNL A   1      43.356  28.824  29.034  1.00  0.00     0.167 HD
ATOM     63  C   UNL A   1      45.919  30.025  29.309  1.00  0.00     0.074 A 
ATOM     64  C   UNL A   1      47.353  30.217  29.270  1.00  0.00     0.031 C 
ATOM     65  C   UNL A   1      45.031  30.974  29.693  1.00  0.00     0.037 A 
BRANCH  52  66
ATOM     66  C   UNL A   1      39.124  29.201  29.425  1.00  0.00     0.057 A 
ATOM     67  C   UNL A   1      38.510  29.055  30.676  1.00  0.00     0.134 A 
ATOM     68  C   UNL A   1      38.324  29.637  28.360  1.00  0.00     0.134 A 
ATOM     69  F   UNL A   1      39.217  28.637  31.737  1.00  0.00    -0.206 F 
ATOM     70  C   UNL A   1      37.150  29.315  30.857  1.00  0.00     0.040 A 
ATOM     71  C   UNL A   1      36.969  29.926  28.535  1.00  0.00     0.040 A 
ATOM     72  F   UNL A   1      38.852  29.809  27.140  1.00  0.00    -0.206 F 
ATOM     73  C   UNL A   1      36.377  29.755  29.785  1.00  0.00     0.006 A 
ENDBRANCH  52  66
BRANCH  53  74
ATOM     74  C   UNL A   1      48.596  26.409  27.924  1.00  0.00     0.057 A 
ATOM     75  C   UNL A   1      49.230  26.593  26.689  1.00  0.00     0.134 A 
ATOM     76  C   UNL A   1      49.332  25.788  28.940  1.00  0.00     0.134 A 
ATOM     77  F   UNL A   1      48.576  27.174  25.671  1.00  0.00    -0.206 F 
ATOM     78  C   UNL A   1      50.538  26.159  26.467  1.00  0.00     0.040 A 
ATOM     79  C   UNL A   1      50.649  25.371  28.739  1.00  0.00     0.040 A 
ATOM     80  F   UNL A   1      48.785  25.598  30.149  1.00  0.00    -0.206 F 
ATOM     81  C   UNL A   1      51.252  25.550  27.496  1.00  0.00     0.006 A 
ENDBRANCH  53  74
BRANCH  65  82
ATOM     82  C   UNL A   1      45.575  32.304  30.123  1.00  0.00     0.057 A 
ATOM     83  C   UNL A   1      45.882  32.547  31.468  1.00  0.00     0.134 A 
ATOM     84  C   UNL A   1      45.712  33.368  29.224  1.00  0.00     0.134 A 
ATOM     85  F   UNL A   1      45.761  31.572  32.381  1.00  0.00    -0.206 F 
ATOM     86  C   UNL A   1      46.289  33.807  31.907  1.00  0.00     0.040 A 
ATOM     87  C   UNL A   1      46.142  34.627  29.647  1.00  0.00     0.040 A 
ATOM     88  F   UNL A   1      45.442  33.198  27.921  1.00  0.00    -0.206 F 
ATOM     89  C   UNL A   1      46.421  34.852  30.994  1.00  0.00     0.006 A 
ENDBRANCH  65  82
ENDBRANCH  39  40
ENDBRANCH  31  34
ENDBRANCH  29  30
ENDBRANCH  28  29
ENDBRANCH  27  28
ENDBRANCH  26  27
ENDBRANCH   1  26
TORSDOF 19
ENDMDL
MODEL 3
REMARK VINA RESULT:     -10.4      4.121      9.544
REMARK SMILES COC[C@@H](NS(=O)(=O)c1ccc(C(=O)NCCCCCCNC(=O)c2ccc(-c3c4nc(c(-c5c(F)cccc5F)c5ccc([nH]5)c(-c5c(F)cccc5F)c5nc(c(-c6c(F)cccc6F)c6ccc3[nH]6)C=C5)C=C4)cc2)cc1F)C(C)C
REMARK SMILES IDX 17 1 16 2 15 3 13 4 14 5 12 7 9 8 10 9 80 10 11 11 79 12
REMARK SMILES IDX 81 13 6 14 7 15 8 16 5 17 4 19 3 20 2 21 1 22 82 23 83 24
REMARK SMILES IDX 84 25 18 26 19 27 20 28 21 29 22 30 23 31 24 33 25 34 26 35
REMARK SMILES IDX 78 36 27 37 77 38 28 39 29 40 30 41 71 42 31 43 76 44 70 45
REMARK SMILES IDX 72 46 32 47 75 48 69 49 68 50 33 52 59 53 42 54 58 55 43 56
REMARK SMILES IDX 46 57 57 58 73 59 44 60 45 61 56 63 74 64 47 65 34 66 35 67
REMARK SMILES IDX 40 68 36 69 37 70 39 71 41 72 38 73 60 74 61 75 66 76 62 77
REMARK SMILES IDX 63 78 65 79 67 80 64 81 48 82 49 83 54 84 50 85 51 86 53 87
REMARK SMILES IDX 55 88 52 89
REMARK H PARENT 15 6 5 18 22 32 72 51 46 62
REMARK Flexibility Score: inf
ROOT
ATOM      1  C   UNL A   1      33.615  29.773  26.757  1.00  0.00     0.021 C 
ENDROOT
BRANCH   1   2
ATOM      2  C   UNL A   1      34.124  28.589  25.940  1.00  0.00     0.116 C 
BRANCH   2   3
ATOM      3  N   UNL A   1      33.099  28.149  25.019  1.00  0.00    -0.352 N 
ATOM      4  C   UNL A   1      32.746  26.890  24.628  1.00  0.00     0.251 C 
ATOM      5  O   UNL A   1      31.793  26.735  23.868  1.00  0.00    -0.269 OA
ATOM      6  H   UNL A   1      32.574  28.872  24.608  1.00  0.00     0.163 HD
BRANCH   4   7
ATOM      7  C   UNL A   1      33.472  25.700  25.115  1.00  0.00     0.042 A 
ATOM      8  C   UNL A   1      34.431  23.191  25.824  1.00  0.00     0.118 A 
ATOM      9  C   UNL A   1      33.424  23.780  26.595  1.00  0.00     0.026 A 
ATOM     10  C   UNL A   1      35.031  23.893  24.783  1.00  0.00     0.144 A 
ATOM     11  C   UNL A   1      32.938  25.034  26.228  1.00  0.00     0.015 A 
ATOM     12  C   UNL A   1      34.540  25.140  24.407  1.00  0.00     0.054 A 
ATOM     13  F   UNL A   1      35.998  23.344  24.037  1.00  0.00    -0.205 F 
BRANCH   8  14
ATOM     14  S   UNL A   1      34.771  21.465  25.979  1.00  0.00     0.243 S 
ATOM     15  O   UNL A   1      33.899  20.928  27.006  1.00  0.00    -0.207 OA
ATOM     16  O   UNL A   1      36.201  21.303  26.047  1.00  0.00    -0.207 OA
BRANCH  14  17
ATOM     17  N   UNL A   1      34.273  20.879  24.468  1.00  0.00    -0.205 NA
ATOM     18  H   UNL A   1      34.723  21.466  23.765  1.00  0.00     0.141 HD
BRANCH  17  19
ATOM     19  C   UNL A   1      32.824  20.820  24.110  1.00  0.00     0.098 C 
BRANCH  19  20
ATOM     20  C   UNL A   1      32.494  19.386  23.610  1.00  0.00     0.180 C 
BRANCH  20  21
ATOM     21  O   UNL A   1      33.182  18.377  24.344  1.00  0.00    -0.383 OA
ATOM     22  C   UNL A   1      32.536  17.970  25.540  1.00  0.00     0.194 C 
ENDBRANCH  20  21
ENDBRANCH  19  20
BRANCH  19  23
ATOM     23  C   UNL A   1      32.459  21.823  22.971  1.00  0.00     0.003 C 
ATOM     24  C   UNL A   1      31.796  21.085  21.797  1.00  0.00     0.009 C 
ATOM     25  C   UNL A   1      31.528  22.958  23.370  1.00  0.00     0.009 C 
ENDBRANCH  19  23
ENDBRANCH  17  19
ENDBRANCH  14  17
ENDBRANCH   8  14
ENDBRANCH   4   7
ENDBRANCH   2   3
ENDBRANCH   1   2
BRANCH   1  26
ATOM     26  C   UNL A   1      32.086  29.822  26.862  1.00  0.00     0.002 C 
BRANCH  26  27
ATOM     27  C   UNL A   1      31.418  30.886  25.982  1.00  0.00     0.002 C 
BRANCH  27  28
ATOM     28  C   UNL A   1      31.232  32.247  26.654  1.00  0.00     0.021 C 
BRANCH  28  29
ATOM     29  C   UNL A   1      32.511  32.823  27.249  1.00  0.00     0.116 C 
BRANCH  29  30
ATOM     30  N   UNL A   1      32.341  34.216  27.628  1.00  0.00    -0.352 N 
ATOM     31  C   UNL A   1      32.969  34.916  28.627  1.00  0.00     0.251 C 
ATOM     32  H   UNL A   1      31.689  34.725  27.096  1.00  0.00     0.163 HD
ATOM     33  O   UNL A   1      32.547  36.011  28.981  1.00  0.00    -0.269 OA
BRANCH  31  34
ATOM     34  C   UNL A   1      34.154  34.330  29.282  1.00  0.00     0.039 A 
ATOM     35  C   UNL A   1      33.998  33.661  30.497  1.00  0.00     0.014 A 
ATOM     36  C   UNL A   1      35.416  34.446  28.692  1.00  0.00     0.014 A 
ATOM     37  C   UNL A   1      35.106  33.063  31.098  1.00  0.00     0.010 A 
ATOM     38  C   UNL A   1      36.505  33.790  29.256  1.00  0.00     0.010 A 
ATOM     39  C   UNL A   1      36.361  33.099  30.469  1.00  0.00    -0.014 A 
BRANCH  39  40
ATOM     40  C   UNL A   1      37.539  32.426  31.065  1.00  0.00     0.031 A 
ATOM     41  C   UNL A   1      38.135  32.944  32.343  1.00  0.00     0.074 A 
ATOM     42  C   UNL A   1      38.103  31.383  30.426  1.00  0.00     0.049 A 
ATOM     43  N   UNL A   1      39.201  32.534  32.983  1.00  0.00    -0.248 NA
ATOM     44  C   UNL A   1      37.462  34.091  32.975  1.00  0.00     0.031 C 
ATOM     45  C   UNL A   1      37.636  30.817  29.159  1.00  0.00     0.029 A 
ATOM     46  N   UNL A   1      39.194  30.618  30.751  1.00  0.00    -0.354 N 
ATOM     47  C   UNL A   1      39.329  33.375  34.080  1.00  0.00     0.074 A 
ATOM     48  C   UNL A   1      38.268  34.353  33.993  1.00  0.00     0.031 C 
ATOM     49  C   UNL A   1      38.418  29.776  28.830  1.00  0.00     0.029 A 
ATOM     50  C   UNL A   1      39.462  29.626  29.839  1.00  0.00     0.049 A 
ATOM     51  H   UNL A   1      39.733  30.765  31.562  1.00  0.00     0.167 HD
ATOM     52  C   UNL A   1      40.235  33.318  35.083  1.00  0.00     0.037 A 
ATOM     53  C   UNL A   1      40.442  28.704  29.816  1.00  0.00     0.037 A 
ATOM     54  C   UNL A   1      41.270  32.323  35.180  1.00  0.00     0.049 A 
ATOM     55  C   UNL A   1      41.444  28.669  30.935  1.00  0.00     0.074 A 
ATOM     56  C   UNL A   1      42.203  32.150  36.187  1.00  0.00     0.029 A 
ATOM     57  N   UNL A   1      41.509  31.335  34.236  1.00  0.00    -0.354 N 
ATOM     58  N   UNL A   1      41.524  29.438  31.993  1.00  0.00    -0.248 NA
ATOM     59  C   UNL A   1      42.492  27.641  30.859  1.00  0.00     0.031 C 
ATOM     60  C   UNL A   1      43.035  31.084  35.832  1.00  0.00     0.029 A 
ATOM     61  C   UNL A   1      42.588  30.562  34.627  1.00  0.00     0.049 A 
ATOM     62  H   UNL A   1      40.988  31.204  33.411  1.00  0.00     0.167 HD
ATOM     63  C   UNL A   1      42.611  28.974  32.721  1.00  0.00     0.074 A 
ATOM     64  C   UNL A   1      43.154  27.849  31.990  1.00  0.00     0.031 C 
ATOM     65  C   UNL A   1      43.113  29.440  33.891  1.00  0.00     0.037 A 
BRANCH  52  66
ATOM     66  C   UNL A   1      40.141  34.346  36.171  1.00  0.00     0.057 A 
ATOM     67  C   UNL A   1      40.893  35.526  36.110  1.00  0.00     0.134 A 
ATOM     68  C   UNL A   1      39.357  34.139  37.314  1.00  0.00     0.134 A 
ATOM     69  F   UNL A   1      41.669  35.785  35.045  1.00  0.00    -0.206 F 
ATOM     70  C   UNL A   1      40.881  36.456  37.151  1.00  0.00     0.040 A 
ATOM     71  C   UNL A   1      39.315  35.074  38.350  1.00  0.00     0.040 A 
ATOM     72  F   UNL A   1      38.604  33.036  37.431  1.00  0.00    -0.206 F 
ATOM     73  C   UNL A   1      40.087  36.232  38.274  1.00  0.00     0.006 A 
ENDBRANCH  52  66
BRANCH  53  74
ATOM     74  C   UNL A   1      40.497  27.718  28.708  1.00  0.00     0.057 A 
ATOM     75  C   UNL A   1      41.270  27.941  27.562  1.00  0.00     0.134 A 
ATOM     76  C   UNL A   1      39.745  26.538  28.758  1.00  0.00     0.134 A 
ATOM     77  F   UNL A   1      42.006  29.057  27.449  1.00  0.00    -0.206 F 
ATOM     78  C   UNL A   1      41.282  27.035  26.500  1.00  0.00     0.040 A 
ATOM     79  C   UNL A   1      39.766  25.612  27.712  1.00  0.00     0.040 A 
ATOM     80  F   UNL A   1      38.996  26.260  29.834  1.00  0.00    -0.206 F 
ATOM     81  C   UNL A   1      40.530  25.865  26.576  1.00  0.00     0.006 A 
ENDBRANCH  53  74
BRANCH  65  82
ATOM     82  C   UNL A   1      44.298  28.728  34.472  1.00  0.00     0.057 A 
ATOM     83  C   UNL A   1      44.121  27.652  35.352  1.00  0.00     0.134 A 
ATOM     84  C   UNL A   1      45.608  29.162  34.234  1.00  0.00     0.134 A 
ATOM     85  F   UNL A   1      42.891  27.195  35.631  1.00  0.00    -0.206 F 
ATOM     86  C   UNL A   1      45.204  27.043  35.987  1.00  0.00     0.040 A 
ATOM     87  C   UNL A   1      46.701  28.544  34.843  1.00  0.00     0.040 A 
ATOM     88  F   UNL A   1      45.844  30.182  33.395  1.00  0.00    -0.206 F 
ATOM     89  C   UNL A   1      46.500  27.489  35.732  1.00  0.00     0.006 A 
ENDBRANCH  65  82
ENDBRANCH  39  40
ENDBRANCH  31  34
ENDBRANCH  29  30
ENDBRANCH  28  29
ENDBRANCH  27  28
ENDBRANCH  26  27
ENDBRANCH   1  26
TORSDOF 19
ENDMDL
