MODEL 1
REMARK VINA RESULT:     -11.0      0.000      0.000
REMARK SMILES COC(=O)[C@@H]1CCN(S(=O)(=O)N2CCC(C(=O)NCCCCCCNC(=O)c3ccc(-c4c5nc(c(-c6c(F)cccc6F)c6ccc([nH]6)c(-c6c(F)cccc6F)c6nc(c(-c7c(F)cccc7F)c7ccc4[nH]7)C=C6)C=C5)cc3)CC2)C1
REMARK SMILES IDX 20 1 19 2 18 3 16 4 17 5 15 7 12 8 13 9 83 10 14 11 82 12
REMARK SMILES IDX 9 13 10 14 11 15 8 16 5 17 6 18 84 19 7 20 3 21 4 22 2 23
REMARK SMILES IDX 1 24 21 25 22 26 23 27 24 28 25 29 26 30 27 32 28 33 29 34
REMARK SMILES IDX 81 35 30 36 80 37 31 38 32 39 33 40 74 41 34 42 79 43 73 44
REMARK SMILES IDX 75 45 35 46 78 47 72 48 71 49 36 51 62 52 45 53 61 54 46 55
REMARK SMILES IDX 49 56 60 57 76 58 47 59 48 60 59 62 77 63 50 64 37 65 38 66
REMARK SMILES IDX 43 67 39 68 40 69 42 70 44 71 41 72 63 73 64 74 69 75 65 76
REMARK SMILES IDX 66 77 68 78 70 79 67 80 51 81 52 82 57 83 53 84 54 85 56 86
REMARK SMILES IDX 58 87 55 88
REMARK H PARENT 18 6 25 31 75 50 49 61
REMARK Flexibility Score: inf
ROOT
ATOM      1  C   UNL A   1      33.823  27.874  24.059  1.00  0.00     0.021 C 
ENDROOT
BRANCH   1   2
ATOM      2  C   UNL A   1      33.275  27.431  22.710  1.00  0.00     0.116 C 
BRANCH   2   3
ATOM      3  N   UNL A   1      32.027  28.110  22.419  1.00  0.00    -0.356 N 
ATOM      4  C   UNL A   1      30.740  27.708  22.584  1.00  0.00     0.223 C 
ATOM      5  O   UNL A   1      29.841  28.440  22.169  1.00  0.00    -0.275 OA
ATOM      6  H   UNL A   1      32.129  29.012  22.037  1.00  0.00     0.163 HD
BRANCH   4   7
ATOM      7  C   UNL A   1      30.412  26.424  23.316  1.00  0.00     0.081 C 
ATOM      8  N   UNL A   1      31.179  24.323  25.112  1.00  0.00    -0.189 NA
ATOM      9  C   UNL A   1      30.980  23.967  23.689  1.00  0.00     0.104 C 
ATOM     10  C   UNL A   1      30.259  25.376  25.572  1.00  0.00     0.104 C 
ATOM     11  C   UNL A   1      31.190  25.201  22.811  1.00  0.00     0.030 C 
ATOM     12  C   UNL A   1      30.507  26.659  24.824  1.00  0.00     0.030 C 
BRANCH   8  13
ATOM     13  S   UNL A   1      31.478  23.045  26.178  1.00  0.00     0.281 S 
ATOM     14  O   UNL A   1      31.254  21.802  25.484  1.00  0.00    -0.195 OA
ATOM     15  O   UNL A   1      30.790  23.337  27.418  1.00  0.00    -0.195 OA
BRANCH  13  16
ATOM     16  N   UNL A   1      33.147  23.180  26.469  1.00  0.00    -0.188 NA
ATOM     17  C   UNL A   1      34.938  22.885  24.828  1.00  0.00     0.116 C 
ATOM     18  C   UNL A   1      34.379  24.293  24.769  1.00  0.00     0.033 C 
ATOM     19  C   UNL A   1      33.978  22.134  25.758  1.00  0.00     0.118 C 
ATOM     20  C   UNL A   1      33.801  24.472  26.153  1.00  0.00     0.104 C 
BRANCH  17  21
ATOM     21  C   UNL A   1      36.365  22.933  25.332  1.00  0.00     0.310 C 
ATOM     22  O   UNL A   1      37.118  23.892  25.268  1.00  0.00    -0.252 OA
BRANCH  21  23
ATOM     23  O   UNL A   1      36.695  21.710  25.840  1.00  0.00    -0.469 OA
ATOM     24  C   UNL A   1      37.405  20.859  24.941  1.00  0.00     0.282 C 
ENDBRANCH  21  23
ENDBRANCH  17  21
ENDBRANCH  13  16
ENDBRANCH   8  13
ENDBRANCH   4   7
ENDBRANCH   2   3
ENDBRANCH   1   2
BRANCH   1  25
ATOM     25  C   UNL A   1      33.378  29.285  24.455  1.00  0.00     0.002 C 
BRANCH  25  26
ATOM     26  C   UNL A   1      32.702  29.373  25.828  1.00  0.00     0.002 C 
BRANCH  26  27
ATOM     27  C   UNL A   1      33.382  28.553  26.927  1.00  0.00     0.021 C 
BRANCH  27  28
ATOM     28  C   UNL A   1      34.798  29.006  27.255  1.00  0.00     0.116 C 
BRANCH  28  29
ATOM     29  N   UNL A   1      34.811  30.020  28.298  1.00  0.00    -0.352 N 
ATOM     30  C   UNL A   1      35.821  30.359  29.160  1.00  0.00     0.251 C 
ATOM     31  H   UNL A   1      33.978  30.533  28.399  1.00  0.00     0.163 HD
ATOM     32  O   UNL A   1      35.598  31.082  30.125  1.00  0.00    -0.269 OA
BRANCH  30  33
ATOM     33  C   UNL A   1      37.179  29.829  28.927  1.00  0.00     0.039 A 
ATOM     34  C   UNL A   1      37.750  29.969  27.662  1.00  0.00     0.014 A 
ATOM     35  C   UNL A   1      37.886  29.203  29.959  1.00  0.00     0.014 A 
ATOM     36  C   UNL A   1      39.055  29.528  27.445  1.00  0.00     0.010 A 
ATOM     37  C   UNL A   1      39.214  28.840  29.763  1.00  0.00     0.010 A 
ATOM     38  C   UNL A   1      39.810  28.992  28.502  1.00  0.00    -0.014 A 
BRANCH  38  39
ATOM     39  C   UNL A   1      41.222  28.583  28.306  1.00  0.00     0.031 A 
ATOM     40  C   UNL A   1      41.558  27.153  27.987  1.00  0.00     0.074 A 
ATOM     41  C   UNL A   1      42.205  29.490  28.464  1.00  0.00     0.049 A 
ATOM     42  N   UNL A   1      42.732  26.595  27.831  1.00  0.00    -0.248 NA
ATOM     43  C   UNL A   1      40.428  26.221  27.850  1.00  0.00     0.031 C 
ATOM     44  C   UNL A   1      42.008  30.899  28.814  1.00  0.00     0.029 A 
ATOM     45  N   UNL A   1      43.566  29.362  28.357  1.00  0.00    -0.354 N 
ATOM     46  C   UNL A   1      42.481  25.251  27.583  1.00  0.00     0.074 A 
ATOM     47  C   UNL A   1      41.050  25.064  27.674  1.00  0.00     0.031 C 
ATOM     48  C   UNL A   1      43.202  31.510  28.861  1.00  0.00     0.029 A 
ATOM     49  C   UNL A   1      44.250  30.530  28.592  1.00  0.00     0.049 A 
ATOM     50  H   UNL A   1      44.012  28.512  28.133  1.00  0.00     0.167 HD
ATOM     51  C   UNL A   1      43.362  24.267  27.281  1.00  0.00     0.037 A 
ATOM     52  C   UNL A   1      45.572  30.782  28.598  1.00  0.00     0.037 A 
ATOM     53  C   UNL A   1      44.785  24.460  27.186  1.00  0.00     0.049 A 
ATOM     54  C   UNL A   1      46.532  29.664  28.295  1.00  0.00     0.074 A 
ATOM     55  C   UNL A   1      45.758  23.537  26.847  1.00  0.00     0.029 A 
ATOM     56  N   UNL A   1      45.439  25.658  27.435  1.00  0.00    -0.354 N 
ATOM     57  N   UNL A   1      46.278  28.411  28.003  1.00  0.00    -0.248 NA
ATOM     58  C   UNL A   1      47.962  29.998  28.317  1.00  0.00     0.031 C 
ATOM     59  C   UNL A   1      47.006  24.161  26.945  1.00  0.00     0.029 A 
ATOM     60  C   UNL A   1      46.806  25.490  27.283  1.00  0.00     0.049 A 
ATOM     61  H   UNL A   1      44.998  26.502  27.684  1.00  0.00     0.167 HD
ATOM     62  C   UNL A   1      47.511  27.815  27.776  1.00  0.00     0.074 A 
ATOM     63  C   UNL A   1      48.512  28.848  27.950  1.00  0.00     0.031 C 
ATOM     64  C   UNL A   1      47.791  26.529  27.451  1.00  0.00     0.037 A 
BRANCH  51  65
ATOM     65  C   UNL A   1      42.806  22.895  27.031  1.00  0.00     0.057 A 
ATOM     66  C   UNL A   1      42.674  22.374  25.737  1.00  0.00     0.134 A 
ATOM     67  C   UNL A   1      42.428  22.069  28.099  1.00  0.00     0.134 A 
ATOM     68  F   UNL A   1      43.006  23.115  24.669  1.00  0.00    -0.206 F 
ATOM     69  C   UNL A   1      42.159  21.096  25.511  1.00  0.00     0.040 A 
ATOM     70  C   UNL A   1      41.943  20.777  27.886  1.00  0.00     0.040 A 
ATOM     71  F   UNL A   1      42.535  22.499  29.364  1.00  0.00    -0.206 F 
ATOM     72  C   UNL A   1      41.800  20.290  26.589  1.00  0.00     0.006 A 
ENDBRANCH  51  65
BRANCH  52  73
ATOM     73  C   UNL A   1      46.067  32.154  28.880  1.00  0.00     0.057 A 
ATOM     74  C   UNL A   1      46.227  33.089  27.851  1.00  0.00     0.134 A 
ATOM     75  C   UNL A   1      46.395  32.562  30.178  1.00  0.00     0.134 A 
ATOM     76  F   UNL A   1      45.946  32.752  26.583  1.00  0.00    -0.206 F 
ATOM     77  C   UNL A   1      46.716  34.373  28.099  1.00  0.00     0.040 A 
ATOM     78  C   UNL A   1      46.858  33.852  30.445  1.00  0.00     0.040 A 
ATOM     79  F   UNL A   1      46.256  31.717  31.210  1.00  0.00    -0.206 F 
ATOM     80  C   UNL A   1      47.028  34.758  29.400  1.00  0.00     0.006 A 
ENDBRANCH  52  73
BRANCH  64  81
ATOM     81  C   UNL A   1      49.232  26.174  27.220  1.00  0.00     0.057 A 
ATOM     82  C   UNL A   1      50.078  25.776  28.262  1.00  0.00     0.134 A 
ATOM     83  C   UNL A   1      49.768  26.194  25.925  1.00  0.00     0.134 A 
ATOM     84  F   UNL A   1      49.631  25.747  29.528  1.00  0.00    -0.206 F 
ATOM     85  C   UNL A   1      51.412  25.436  28.030  1.00  0.00     0.040 A 
ATOM     86  C   UNL A   1      51.091  25.824  25.677  1.00  0.00     0.040 A 
ATOM     87  F   UNL A   1      49.011  26.554  24.879  1.00  0.00    -0.206 F 
ATOM     88  C   UNL A   1      51.919  25.452  26.733  1.00  0.00     0.006 A 
ENDBRANCH  64  81
ENDBRANCH  38  39
ENDBRANCH  30  33
ENDBRANCH  28  29
ENDBRANCH  27  28
ENDBRANCH  26  27
ENDBRANCH  25  26
ENDBRANCH   1  25
TORSDOF 17
ENDMDL
MODEL 2
REMARK VINA RESULT:     -10.9      4.141      7.851
REMARK SMILES COC(=O)[C@@H]1CCN(S(=O)(=O)N2CCC(C(=O)NCCCCCCNC(=O)c3ccc(-c4c5nc(c(-c6c(F)cccc6F)c6ccc([nH]6)c(-c6c(F)cccc6F)c6nc(c(-c7c(F)cccc7F)c7ccc4[nH]7)C=C6)C=C5)cc3)CC2)C1
REMARK SMILES IDX 20 1 19 2 18 3 16 4 17 5 15 7 12 8 13 9 83 10 14 11 82 12
REMARK SMILES IDX 9 13 10 14 11 15 8 16 5 17 6 18 84 19 7 20 3 21 4 22 2 23
REMARK SMILES IDX 1 24 21 25 22 26 23 27 24 28 25 29 26 30 27 32 28 33 29 34
REMARK SMILES IDX 81 35 30 36 80 37 31 38 32 39 33 40 74 41 34 42 79 43 73 44
REMARK SMILES IDX 75 45 35 46 78 47 72 48 71 49 36 51 62 52 45 53 61 54 46 55
REMARK SMILES IDX 49 56 60 57 76 58 47 59 48 60 59 62 77 63 50 64 37 65 38 66
REMARK SMILES IDX 43 67 39 68 40 69 42 70 44 71 41 72 63 73 64 74 69 75 65 76
REMARK SMILES IDX 66 77 68 78 70 79 67 80 51 81 52 82 57 83 53 84 54 85 56 86
REMARK SMILES IDX 58 87 55 88
REMARK H PARENT 18 6 25 31 75 50 49 61
REMARK Flexibility Score: inf
ROOT
ATOM      1  C   UNL A   1      33.167  28.425  25.279  1.00  0.00     0.021 C 
ENDROOT
BRANCH   1   2
ATOM      2  C   UNL A   1      33.160  27.876  23.859  1.00  0.00     0.116 C 
BRANCH   2   3
ATOM      3  N   UNL A   1      32.019  28.385  23.122  1.00  0.00    -0.356 N 
ATOM      4  C   UNL A   1      30.818  27.814  22.844  1.00  0.00     0.223 C 
ATOM      5  O   UNL A   1      30.038  28.422  22.110  1.00  0.00    -0.275 OA
ATOM      6  H   UNL A   1      32.134  29.294  22.762  1.00  0.00     0.163 HD
BRANCH   4   7
ATOM      7  C   UNL A   1      30.418  26.494  23.468  1.00  0.00     0.081 C 
ATOM      8  N   UNL A   1      31.011  24.284  25.198  1.00  0.00    -0.189 NA
ATOM      9  C   UNL A   1      30.934  24.013  23.745  1.00  0.00     0.104 C 
ATOM     10  C   UNL A   1      30.062  25.320  25.638  1.00  0.00     0.104 C 
ATOM     11  C   UNL A   1      31.228  25.293  22.962  1.00  0.00     0.030 C 
ATOM     12  C   UNL A   1      30.383  26.640  24.990  1.00  0.00     0.030 C 
BRANCH   8  13
ATOM     13  S   UNL A   1      31.206  22.944  26.209  1.00  0.00     0.281 S 
ATOM     14  O   UNL A   1      30.948  21.747  25.447  1.00  0.00    -0.195 OA
ATOM     15  O   UNL A   1      30.487  23.210  27.437  1.00  0.00    -0.195 OA
BRANCH  13  16
ATOM     16  N   UNL A   1      32.868  22.979  26.565  1.00  0.00    -0.188 NA
ATOM     17  C   UNL A   1      34.704  22.923  24.949  1.00  0.00     0.116 C 
ATOM     18  C   UNL A   1      34.179  24.335  25.119  1.00  0.00     0.033 C 
ATOM     19  C   UNL A   1      33.697  22.050  25.707  1.00  0.00     0.118 C 
ATOM     20  C   UNL A   1      33.561  24.288  26.497  1.00  0.00     0.104 C 
BRANCH  17  21
ATOM     21  C   UNL A   1      36.114  22.844  25.492  1.00  0.00     0.310 C 
ATOM     22  O   UNL A   1      36.872  23.785  25.666  1.00  0.00    -0.252 OA
BRANCH  21  23
ATOM     23  O   UNL A   1      36.426  21.534  25.723  1.00  0.00    -0.469 OA
ATOM     24  C   UNL A   1      37.542  21.044  24.981  1.00  0.00     0.282 C 
ENDBRANCH  21  23
ENDBRANCH  17  21
ENDBRANCH  13  16
ENDBRANCH   8  13
ENDBRANCH   4   7
ENDBRANCH   2   3
ENDBRANCH   1   2
BRANCH   1  25
ATOM     25  C   UNL A   1      32.822  29.915  25.349  1.00  0.00     0.002 C 
BRANCH  25  26
ATOM     26  C   UNL A   1      31.516  30.229  26.086  1.00  0.00     0.002 C 
BRANCH  26  27
ATOM     27  C   UNL A   1      31.363  31.689  26.519  1.00  0.00     0.021 C 
BRANCH  27  28
ATOM     28  C   UNL A   1      32.647  32.321  27.036  1.00  0.00     0.116 C 
BRANCH  28  29
ATOM     29  N   UNL A   1      32.442  33.704  27.441  1.00  0.00    -0.352 N 
ATOM     30  C   UNL A   1      33.108  34.433  28.391  1.00  0.00     0.251 C 
ATOM     31  H   UNL A   1      31.725  34.181  26.966  1.00  0.00     0.163 HD
ATOM     32  O   UNL A   1      32.668  35.515  28.765  1.00  0.00    -0.269 OA
BRANCH  30  33
ATOM     33  C   UNL A   1      34.352  33.895  28.976  1.00  0.00     0.039 A 
ATOM     34  C   UNL A   1      34.267  33.051  30.084  1.00  0.00     0.014 A 
ATOM     35  C   UNL A   1      35.596  34.220  28.425  1.00  0.00     0.014 A 
ATOM     36  C   UNL A   1      35.431  32.489  30.608  1.00  0.00     0.010 A 
ATOM     37  C   UNL A   1      36.744  33.593  28.897  1.00  0.00     0.010 A 
ATOM     38  C   UNL A   1      36.674  32.727  29.998  1.00  0.00    -0.014 A 
BRANCH  38  39
ATOM     39  C   UNL A   1      37.910  32.080  30.500  1.00  0.00     0.031 A 
ATOM     40  C   UNL A   1      38.660  32.677  31.659  1.00  0.00     0.074 A 
ATOM     41  C   UNL A   1      38.386  30.983  29.880  1.00  0.00     0.049 A 
ATOM     42  N   UNL A   1      39.783  32.286  32.206  1.00  0.00    -0.248 NA
ATOM     43  C   UNL A   1      38.084  33.886  32.269  1.00  0.00     0.031 C 
ATOM     44  C   UNL A   1      37.772  30.334  28.720  1.00  0.00     0.029 A 
ATOM     45  N   UNL A   1      39.499  30.223  30.135  1.00  0.00    -0.354 N 
ATOM     46  C   UNL A   1      40.048  33.202  33.217  1.00  0.00     0.074 A 
ATOM     47  C   UNL A   1      39.006  34.203  33.166  1.00  0.00     0.031 C 
ATOM     48  C   UNL A   1      38.499  29.257  28.383  1.00  0.00     0.029 A 
ATOM     49  C   UNL A   1      39.653  29.165  29.273  1.00  0.00     0.049 A 
ATOM     50  H   UNL A   1      40.129  30.418  30.867  1.00  0.00     0.167 HD
ATOM     51  C   UNL A   1      41.055  33.194  34.123  1.00  0.00     0.037 A 
ATOM     52  C   UNL A   1      40.620  28.231  29.200  1.00  0.00     0.037 A 
ATOM     53  C   UNL A   1      42.087  32.192  34.174  1.00  0.00     0.049 A 
ATOM     54  C   UNL A   1      41.747  28.265  30.195  1.00  0.00     0.074 A 
ATOM     55  C   UNL A   1      43.128  32.073  35.077  1.00  0.00     0.029 A 
ATOM     56  N   UNL A   1      42.210  31.138  33.280  1.00  0.00    -0.354 N 
ATOM     57  N   UNL A   1      41.954  29.102  31.184  1.00  0.00    -0.248 NA
ATOM     58  C   UNL A   1      42.772  27.222  30.067  1.00  0.00     0.031 C 
ATOM     59  C   UNL A   1      43.915  30.980  34.697  1.00  0.00     0.029 A 
ATOM     60  C   UNL A   1      43.327  30.379  33.595  1.00  0.00     0.049 A 
ATOM     61  H   UNL A   1      41.597  30.956  32.532  1.00  0.00     0.167 HD
ATOM     62  C   UNL A   1      43.112  28.668  31.814  1.00  0.00     0.074 A 
ATOM     63  C   UNL A   1      43.555  27.485  31.104  1.00  0.00     0.031 C 
ATOM     64  C   UNL A   1      43.752  29.200  32.885  1.00  0.00     0.037 A 
BRANCH  51  65
ATOM     65  C   UNL A   1      41.085  34.306  35.133  1.00  0.00     0.057 A 
ATOM     66  C   UNL A   1      41.740  35.518  34.878  1.00  0.00     0.134 A 
ATOM     67  C   UNL A   1      40.423  34.179  36.361  1.00  0.00     0.134 A 
ATOM     68  F   UNL A   1      42.404  35.704  33.726  1.00  0.00    -0.206 F 
ATOM     69  C   UNL A   1      41.763  36.550  35.818  1.00  0.00     0.040 A 
ATOM     70  C   UNL A   1      40.411  35.216  37.295  1.00  0.00     0.040 A 
ATOM     71  F   UNL A   1      39.768  33.049  36.668  1.00  0.00    -0.206 F 
ATOM     72  C   UNL A   1      41.089  36.404  37.028  1.00  0.00     0.006 A 
ENDBRANCH  51  65
BRANCH  52  73
ATOM     73  C   UNL A   1      40.553  27.171  28.162  1.00  0.00     0.057 A 
ATOM     74  C   UNL A   1      41.220  27.316  26.939  1.00  0.00     0.134 A 
ATOM     75  C   UNL A   1      39.822  25.995  28.360  1.00  0.00     0.134 A 
ATOM     76  F   UNL A   1      41.924  28.429  26.682  1.00  0.00    -0.206 F 
ATOM     77  C   UNL A   1      41.145  26.340  25.944  1.00  0.00     0.040 A 
ATOM     78  C   UNL A   1      39.760  24.998  27.385  1.00  0.00     0.040 A 
ATOM     79  F   UNL A   1      39.167  25.790  29.513  1.00  0.00    -0.206 F 
ATOM     80  C   UNL A   1      40.417  25.174  26.169  1.00  0.00     0.006 A 
ENDBRANCH  52  73
BRANCH  64  81
ATOM     81  C   UNL A   1      44.975  28.484  33.383  1.00  0.00     0.057 A 
ATOM     82  C   UNL A   1      46.263  28.820  32.949  1.00  0.00     0.134 A 
ATOM     83  C   UNL A   1      44.861  27.469  34.342  1.00  0.00     0.134 A 
ATOM     84  F   UNL A   1      46.442  29.775  32.022  1.00  0.00    -0.206 F 
ATOM     85  C   UNL A   1      47.392  28.155  33.431  1.00  0.00     0.040 A 
ATOM     86  C   UNL A   1      45.985  26.819  34.855  1.00  0.00     0.040 A 
ATOM     87  F   UNL A   1      43.658  27.104  34.810  1.00  0.00    -0.206 F 
ATOM     88  C   UNL A   1      47.255  27.157  34.392  1.00  0.00     0.006 A 
ENDBRANCH  64  81
ENDBRANCH  38  39
ENDBRANCH  30  33
ENDBRANCH  28  29
ENDBRANCH  27  28
ENDBRANCH  26  27
ENDBRANCH  25  26
ENDBRANCH   1  25
TORSDOF 17
ENDMDL
MODEL 3
REMARK VINA RESULT:     -10.9      5.766      9.245
REMARK SMILES COC(=O)[C@@H]1CCN(S(=O)(=O)N2CCC(C(=O)NCCCCCCNC(=O)c3ccc(-c4c5nc(c(-c6c(F)cccc6F)c6ccc([nH]6)c(-c6c(F)cccc6F)c6nc(c(-c7c(F)cccc7F)c7ccc4[nH]7)C=C6)C=C5)cc3)CC2)C1
REMARK SMILES IDX 20 1 19 2 18 3 16 4 17 5 15 7 12 8 13 9 83 10 14 11 82 12
REMARK SMILES IDX 9 13 10 14 11 15 8 16 5 17 6 18 84 19 7 20 3 21 4 22 2 23
REMARK SMILES IDX 1 24 21 25 22 26 23 27 24 28 25 29 26 30 27 32 28 33 29 34
REMARK SMILES IDX 81 35 30 36 80 37 31 38 32 39 33 40 74 41 34 42 79 43 73 44
REMARK SMILES IDX 75 45 35 46 78 47 72 48 71 49 36 51 62 52 45 53 61 54 46 55
REMARK SMILES IDX 49 56 60 57 76 58 47 59 48 60 59 62 77 63 50 64 37 65 38 66
REMARK SMILES IDX 43 67 39 68 40 69 42 70 44 71 41 72 63 73 64 74 69 75 65 76
REMARK SMILES IDX 66 77 68 78 70 79 67 80 51 81 52 82 57 83 53 84 54 85 56 86
REMARK SMILES IDX 58 87 55 88
REMARK H PARENT 18 6 25 31 75 50 49 61
REMARK Flexibility Score: inf
ROOT
ATOM      1  C   UNL A   1      35.749  32.250  28.012  1.00  0.00     0.021 C 
ENDROOT
BRANCH   1   2
ATOM      2  C   UNL A   1      35.278  30.803  27.983  1.00  0.00     0.116 C 
BRANCH   2   3
ATOM      3  N   UNL A   1      33.829  30.739  27.956  1.00  0.00    -0.356 N 
ATOM      4  C   UNL A   1      32.987  30.097  27.105  1.00  0.00     0.223 C 
ATOM      5  O   UNL A   1      31.775  30.274  27.239  1.00  0.00    -0.275 OA
ATOM      6  H   UNL A   1      33.382  31.245  28.673  1.00  0.00     0.163 HD
BRANCH   4   7
ATOM      7  C   UNL A   1      33.515  29.140  26.058  1.00  0.00     0.081 C 
ATOM      8  N   UNL A   1      33.044  27.112  24.085  1.00  0.00    -0.189 NA
ATOM      9  C   UNL A   1      33.774  26.716  25.310  1.00  0.00     0.104 C 
ATOM     10  C   UNL A   1      33.344  28.488  23.658  1.00  0.00     0.104 C 
ATOM     11  C   UNL A   1      33.414  27.662  26.457  1.00  0.00     0.030 C 
ATOM     12  C   UNL A   1      32.894  29.476  24.702  1.00  0.00     0.030 C 
BRANCH   8  13
ATOM     13  S   UNL A   1      32.914  25.943  22.871  1.00  0.00     0.281 S 
ATOM     14  O   UNL A   1      34.007  26.114  21.946  1.00  0.00    -0.195 OA
ATOM     15  O   UNL A   1      31.543  25.941  22.407  1.00  0.00    -0.195 OA
BRANCH  13  16
ATOM     16  N   UNL A   1      33.176  24.491  23.716  1.00  0.00    -0.188 NA
ATOM     17  C   UNL A   1      31.867  22.435  23.515  1.00  0.00     0.116 C 
ATOM     18  C   UNL A   1      32.916  22.514  22.424  1.00  0.00     0.033 C 
ATOM     19  C   UNL A   1      31.905  23.816  24.180  1.00  0.00     0.118 C 
ATOM     20  C   UNL A   1      33.952  23.427  23.035  1.00  0.00     0.104 C 
BRANCH  17  21
ATOM     21  C   UNL A   1      32.203  21.295  24.453  1.00  0.00     0.310 C 
ATOM     22  O   UNL A   1      32.431  21.390  25.648  1.00  0.00    -0.252 OA
BRANCH  21  23
ATOM     23  O   UNL A   1      32.253  20.134  23.736  1.00  0.00    -0.469 OA
ATOM     24  C   UNL A   1      33.173  19.162  24.230  1.00  0.00     0.282 C 
ENDBRANCH  21  23
ENDBRANCH  17  21
ENDBRANCH  13  16
ENDBRANCH   8  13
ENDBRANCH   4   7
ENDBRANCH   2   3
ENDBRANCH   1   2
BRANCH   1  25
ATOM     25  C   UNL A   1      34.705  33.211  28.586  1.00  0.00     0.002 C 
BRANCH  25  26
ATOM     26  C   UNL A   1      34.794  34.642  28.044  1.00  0.00     0.002 C 
BRANCH  26  27
ATOM     27  C   UNL A   1      33.846  35.638  28.715  1.00  0.00     0.021 C 
BRANCH  27  28
ATOM     28  C   UNL A   1      32.762  34.989  29.565  1.00  0.00     0.116 C 
BRANCH  28  29
ATOM     29  N   UNL A   1      32.445  35.789  30.738  1.00  0.00    -0.352 N 
ATOM     30  C   UNL A   1      32.964  35.708  32.004  1.00  0.00     0.251 C 
ATOM     31  H   UNL A   1      31.762  36.484  30.603  1.00  0.00     0.163 HD
ATOM     32  O   UNL A   1      32.433  36.307  32.933  1.00  0.00    -0.269 OA
BRANCH  30  33
ATOM     33  C   UNL A   1      34.161  34.878  32.243  1.00  0.00     0.039 A 
ATOM     34  C   UNL A   1      35.414  35.381  31.891  1.00  0.00     0.014 A 
ATOM     35  C   UNL A   1      34.043  33.609  32.820  1.00  0.00     0.014 A 
ATOM     36  C   UNL A   1      36.557  34.632  32.168  1.00  0.00     0.010 A 
ATOM     37  C   UNL A   1      35.188  32.901  33.169  1.00  0.00     0.010 A 
ATOM     38  C   UNL A   1      36.457  33.402  32.840  1.00  0.00    -0.014 A 
BRANCH  38  39
ATOM     39  C   UNL A   1      37.667  32.627  33.204  1.00  0.00     0.031 A 
ATOM     40  C   UNL A   1      38.410  32.936  34.475  1.00  0.00     0.074 A 
ATOM     41  C   UNL A   1      38.127  31.679  32.366  1.00  0.00     0.049 A 
ATOM     42  N   UNL A   1      39.513  32.405  34.937  1.00  0.00    -0.248 NA
ATOM     43  C   UNL A   1      37.853  33.999  35.327  1.00  0.00     0.031 C 
ATOM     44  C   UNL A   1      37.519  31.317  31.084  1.00  0.00     0.029 A 
ATOM     45  N   UNL A   1      39.217  30.852  32.462  1.00  0.00    -0.354 N 
ATOM     46  C   UNL A   1      39.783  33.070  36.127  1.00  0.00     0.074 A 
ATOM     47  C   UNL A   1      38.766  34.087  36.283  1.00  0.00     0.031 C 
ATOM     48  C   UNL A   1      38.225  30.319  30.530  1.00  0.00     0.029 A 
ATOM     49  C   UNL A   1      39.360  30.003  31.391  1.00  0.00     0.049 A 
ATOM     50  H   UNL A   1      39.838  30.864  33.226  1.00  0.00     0.167 HD
ATOM     51  C   UNL A   1      40.772  32.837  37.022  1.00  0.00     0.037 A 
ATOM     52  C   UNL A   1      40.305  29.081  31.129  1.00  0.00     0.037 A 
ATOM     53  C   UNL A   1      41.778  31.820  36.865  1.00  0.00     0.049 A 
ATOM     54  C   UNL A   1      41.415  28.866  32.120  1.00  0.00     0.074 A 
ATOM     55  C   UNL A   1      42.800  31.478  37.733  1.00  0.00     0.029 A 
ATOM     56  N   UNL A   1      41.892  30.983  35.764  1.00  0.00    -0.354 N 
ATOM     57  N   UNL A   1      41.624  29.461  33.270  1.00  0.00    -0.248 NA
ATOM     58  C   UNL A   1      42.416  27.847  31.780  1.00  0.00     0.031 C 
ATOM     59  C   UNL A   1      43.566  30.473  37.133  1.00  0.00     0.029 A 
ATOM     60  C   UNL A   1      42.984  30.143  35.919  1.00  0.00     0.049 A 
ATOM     61  H   UNL A   1      41.288  30.986  34.987  1.00  0.00     0.167 HD
ATOM     62  C   UNL A   1      42.760  28.868  33.805  1.00  0.00     0.074 A 
ATOM     63  C   UNL A   1      43.187  27.856  32.860  1.00  0.00     0.031 C 
ATOM     64  C   UNL A   1      43.393  29.135  34.974  1.00  0.00     0.037 A 
BRANCH  51  65
ATOM     65  C   UNL A   1      40.812  33.701  38.250  1.00  0.00     0.057 A 
ATOM     66  C   UNL A   1      41.640  34.828  38.335  1.00  0.00     0.134 A 
ATOM     67  C   UNL A   1      39.987  33.425  39.348  1.00  0.00     0.134 A 
ATOM     68  F   UNL A   1      42.464  35.144  37.324  1.00  0.00    -0.206 F 
ATOM     69  C   UNL A   1      41.671  35.630  39.477  1.00  0.00     0.040 A 
ATOM     70  C   UNL A   1      39.985  34.239  40.483  1.00  0.00     0.040 A 
ATOM     71  F   UNL A   1      39.162  32.367  39.332  1.00  0.00    -0.206 F 
ATOM     72  C   UNL A   1      40.834  35.341  40.553  1.00  0.00     0.006 A 
ENDBRANCH  51  65
BRANCH  52  73
ATOM     73  C   UNL A   1      40.231  28.275  29.883  1.00  0.00     0.057 A 
ATOM     74  C   UNL A   1      39.424  27.134  29.808  1.00  0.00     0.134 A 
ATOM     75  C   UNL A   1      40.967  28.619  28.743  1.00  0.00     0.134 A 
ATOM     76  F   UNL A   1      38.709  26.742  30.873  1.00  0.00    -0.206 F 
ATOM     77  C   UNL A   1      39.366  26.353  28.652  1.00  0.00     0.040 A 
ATOM     78  C   UNL A   1      40.897  27.864  27.571  1.00  0.00     0.040 A 
ATOM     79  F   UNL A   1      41.753  29.706  28.746  1.00  0.00    -0.206 F 
ATOM     80  C   UNL A   1      40.101  26.721  27.528  1.00  0.00     0.006 A 
ENDBRANCH  52  73
BRANCH  64  81
ATOM     81  C   UNL A   1      44.589  28.294  35.318  1.00  0.00     0.057 A 
ATOM     82  C   UNL A   1      44.477  27.102  36.044  1.00  0.00     0.134 A 
ATOM     83  C   UNL A   1      45.867  28.667  34.882  1.00  0.00     0.134 A 
ATOM     84  F   UNL A   1      43.283  26.694  36.502  1.00  0.00    -0.206 F 
ATOM     85  C   UNL A   1      45.596  26.324  36.345  1.00  0.00     0.040 A 
ATOM     86  C   UNL A   1      46.988  27.880  35.149  1.00  0.00     0.040 A 
ATOM     87  F   UNL A   1      46.045  29.791  34.172  1.00  0.00    -0.206 F 
ATOM     88  C   UNL A   1      46.855  26.709  35.890  1.00  0.00     0.006 A 
ENDBRANCH  64  81
ENDBRANCH  38  39
ENDBRANCH  30  33
ENDBRANCH  28  29
ENDBRANCH  27  28
ENDBRANCH  26  27
ENDBRANCH  25  26
ENDBRANCH   1  25
TORSDOF 17
ENDMDL
