MODEL 1
REMARK VINA RESULT:     -10.7      0.000      0.000
REMARK SMILES CC(C)(C)[NH2+]Cc1cc(C(=O)NCCCCCCNC(=O)c2ccc(-c3c4nc(c(-c5c(F)cccc5F)c5ccc([nH]5)c(-c5c(F)cccc5F)c5nc(c(-c6c(F)cccc6F)c6ccc3[nH]6)C=C5)C=C4)cc2)cs1
REMARK SMILES IDX 15 1 14 2 13 3 12 4 10 5 11 6 9 8 7 9 8 10 77 11 76 12 6 13
REMARK SMILES IDX 5 14 2 17 1 18 3 19 4 20 16 21 17 22 18 23 19 24 20 25 21 27
REMARK SMILES IDX 22 28 23 29 75 30 24 31 74 32 25 33 26 34 27 35 68 36 28 37
REMARK SMILES IDX 73 38 67 39 69 40 29 41 72 42 66 43 65 44 30 46 56 47 39 48
REMARK SMILES IDX 55 49 40 50 43 51 54 52 70 53 41 54 42 55 53 57 71 58 44 59
REMARK SMILES IDX 31 60 32 61 37 62 33 63 34 64 36 65 38 66 35 67 57 68 58 69
REMARK SMILES IDX 63 70 59 71 60 72 62 73 64 74 61 75 45 76 46 77 51 78 47 79
REMARK SMILES IDX 48 80 50 81 52 82 49 83
REMARK H PARENT 12 7 5 15 5 16 19 26 69 45 43 56
REMARK Flexibility Score: inf
ROOT
ATOM      1  C   UNL A   1      32.515  30.017  26.855  1.00  0.00     0.002 C 
ENDROOT
BRANCH   1   2
ATOM      2  C   UNL A   1      32.096  28.743  27.594  1.00  0.00     0.021 C 
BRANCH   2   3
ATOM      3  C   UNL A   1      32.500  27.434  26.922  1.00  0.00     0.116 C 
BRANCH   3   4
ATOM      4  N   UNL A   1      31.421  26.463  26.903  1.00  0.00    -0.352 N 
ATOM      5  C   UNL A   1      30.501  26.196  25.925  1.00  0.00     0.252 C 
ATOM      6  O   UNL A   1      29.531  25.476  26.204  1.00  0.00    -0.269 OA
ATOM      7  H   UNL A   1      31.338  25.913  27.716  1.00  0.00     0.163 HD
BRANCH   5   8
ATOM      8  C   UNL A   1      30.662  26.784  24.603  1.00  0.00     0.051 A 
ATOM      9  C   UNL A   1      30.448  28.303  22.816  1.00  0.00     0.059 A 
ATOM     10  C   UNL A   1      30.218  28.076  24.159  1.00  0.00     0.035 A 
ATOM     11  S   UNL A   1      31.306  27.000  22.112  1.00  0.00    -0.142 S 
ATOM     12  C   UNL A   1      31.352  26.145  23.590  1.00  0.00     0.079 A 
BRANCH   9  13
ATOM     13  C   UNL A   1      30.013  29.469  21.978  1.00  0.00     0.308 C 
BRANCH  13  14
ATOM     14  N   UNL A   1      29.885  30.720  22.719  1.00  0.00    -0.338 N 
ATOM     15  H   UNL A   1      30.034  30.503  23.705  1.00  0.00     0.347 HD
ATOM     16  H   UNL A   1      30.572  31.338  22.286  1.00  0.00     0.347 HD
BRANCH  14  17
ATOM     17  C   UNL A   1      28.622  31.468  22.627  1.00  0.00     0.088 C 
ATOM     18  C   UNL A   1      28.806  32.985  22.800  1.00  0.00     0.078 C 
ATOM     19  C   UNL A   1      27.564  30.953  23.617  1.00  0.00     0.078 C 
ATOM     20  C   UNL A   1      28.099  31.207  21.199  1.00  0.00     0.078 C 
ENDBRANCH  14  17
ENDBRANCH  13  14
ENDBRANCH   9  13
ENDBRANCH   5   8
ENDBRANCH   3   4
ENDBRANCH   2   3
ENDBRANCH   1   2
BRANCH   1  21
ATOM     21  C   UNL A   1      31.387  30.815  26.196  1.00  0.00     0.002 C 
BRANCH  21  22
ATOM     22  C   UNL A   1      31.319  32.307  26.536  1.00  0.00     0.021 C 
BRANCH  22  23
ATOM     23  C   UNL A   1      32.639  32.966  26.928  1.00  0.00     0.116 C 
BRANCH  23  24
ATOM     24  N   UNL A   1      32.452  34.180  27.701  1.00  0.00    -0.352 N 
ATOM     25  C   UNL A   1      33.136  34.644  28.795  1.00  0.00     0.251 C 
ATOM     26  H   UNL A   1      31.721  34.760  27.391  1.00  0.00     0.163 HD
ATOM     27  O   UNL A   1      32.727  35.644  29.381  1.00  0.00    -0.269 OA
BRANCH  25  28
ATOM     28  C   UNL A   1      34.348  33.954  29.298  1.00  0.00     0.039 A 
ATOM     29  C   UNL A   1      34.176  32.862  30.156  1.00  0.00     0.014 A 
ATOM     30  C   UNL A   1      35.638  34.399  28.994  1.00  0.00     0.014 A 
ATOM     31  C   UNL A   1      35.289  32.198  30.678  1.00  0.00     0.010 A 
ATOM     32  C   UNL A   1      36.750  33.700  29.472  1.00  0.00     0.010 A 
ATOM     33  C   UNL A   1      36.586  32.602  30.328  1.00  0.00    -0.014 A 
BRANCH  33  34
ATOM     34  C   UNL A   1      37.770  31.893  30.876  1.00  0.00     0.031 A 
ATOM     35  C   UNL A   1      38.272  32.207  32.258  1.00  0.00     0.074 A 
ATOM     36  C   UNL A   1      38.412  30.983  30.120  1.00  0.00     0.049 A 
ATOM     37  N   UNL A   1      39.293  31.697  32.901  1.00  0.00    -0.248 NA
ATOM     38  C   UNL A   1      37.547  33.243  33.007  1.00  0.00     0.031 C 
ATOM     39  C   UNL A   1      38.055  30.620  28.747  1.00  0.00     0.029 A 
ATOM     40  N   UNL A   1      39.504  30.200  30.399  1.00  0.00    -0.354 N 
ATOM     41  C   UNL A   1      39.340  32.360  34.121  1.00  0.00     0.074 A 
ATOM     42  C   UNL A   1      38.271  33.335  34.113  1.00  0.00     0.031 C 
ATOM     43  C   UNL A   1      38.897  29.667  28.314  1.00  0.00     0.029 A 
ATOM     44  C   UNL A   1      39.862  29.368  29.367  1.00  0.00     0.049 A 
ATOM     45  H   UNL A   1      39.984  30.231  31.258  1.00  0.00     0.167 HD
ATOM     46  C   UNL A   1      40.186  32.164  35.161  1.00  0.00     0.037 A 
ATOM     47  C   UNL A   1      40.851  28.458  29.284  1.00  0.00     0.037 A 
ATOM     48  C   UNL A   1      41.230  31.174  35.187  1.00  0.00     0.049 A 
ATOM     49  C   UNL A   1      41.747  28.227  30.467  1.00  0.00     0.074 A 
ATOM     50  C   UNL A   1      42.107  30.868  36.215  1.00  0.00     0.029 A 
ATOM     51  N   UNL A   1      41.533  30.322  34.137  1.00  0.00    -0.354 N 
ATOM     52  N   UNL A   1      41.745  28.823  31.634  1.00  0.00    -0.248 NA
ATOM     53  C   UNL A   1      42.775  27.185  30.326  1.00  0.00     0.031 C 
ATOM     54  C   UNL A   1      42.954  29.844  35.778  1.00  0.00     0.029 A 
ATOM     55  C   UNL A   1      42.586  29.493  34.489  1.00  0.00     0.049 A 
ATOM     56  H   UNL A   1      41.069  30.307  33.269  1.00  0.00     0.167 HD
ATOM     57  C   UNL A   1      42.748  28.214  32.374  1.00  0.00     0.074 A 
ATOM     58  C   UNL A   1      43.334  27.195  31.528  1.00  0.00     0.031 C 
ATOM     59  C   UNL A   1      43.148  28.474  33.642  1.00  0.00     0.037 A 
BRANCH  46  60
ATOM     60  C   UNL A   1      40.010  33.040  36.364  1.00  0.00     0.057 A 
ATOM     61  C   UNL A   1      40.765  34.206  36.540  1.00  0.00     0.134 A 
ATOM     62  C   UNL A   1      39.058  32.730  37.343  1.00  0.00     0.134 A 
ATOM     63  F   UNL A   1      41.703  34.550  35.644  1.00  0.00    -0.206 F 
ATOM     64  C   UNL A   1      40.596  35.023  37.659  1.00  0.00     0.040 A 
ATOM     65  C   UNL A   1      38.864  33.551  38.456  1.00  0.00     0.040 A 
ATOM     66  F   UNL A   1      38.300  31.630  37.232  1.00  0.00    -0.206 F 
ATOM     67  C   UNL A   1      39.638  34.698  38.619  1.00  0.00     0.006 A 
ENDBRANCH  46  60
BRANCH  47  68
ATOM     68  C   UNL A   1      41.015  27.659  28.047  1.00  0.00     0.057 A 
ATOM     69  C   UNL A   1      41.793  28.131  26.985  1.00  0.00     0.134 A 
ATOM     70  C   UNL A   1      40.404  26.410  27.897  1.00  0.00     0.134 A 
ATOM     71  F   UNL A   1      42.389  29.331  27.066  1.00  0.00    -0.206 F 
ATOM     72  C   UNL A   1      41.948  27.397  25.809  1.00  0.00     0.040 A 
ATOM     73  C   UNL A   1      40.563  25.655  26.735  1.00  0.00     0.040 A 
ATOM     74  F   UNL A   1      39.650  25.902  28.884  1.00  0.00    -0.206 F 
ATOM     75  C   UNL A   1      41.333  26.151  25.683  1.00  0.00     0.006 A 
ENDBRANCH  47  68
BRANCH  59  76
ATOM     76  C   UNL A   1      44.246  27.623  34.201  1.00  0.00     0.057 A 
ATOM     77  C   UNL A   1      45.591  27.991  34.093  1.00  0.00     0.134 A 
ATOM     78  C   UNL A   1      43.949  26.433  34.878  1.00  0.00     0.134 A 
ATOM     79  F   UNL A   1      45.939  29.113  33.444  1.00  0.00    -0.206 F 
ATOM     80  C   UNL A   1      46.608  27.196  34.625  1.00  0.00     0.040 A 
ATOM     81  C   UNL A   1      44.955  25.639  35.428  1.00  0.00     0.040 A 
ATOM     82  F   UNL A   1      42.678  26.028  35.018  1.00  0.00    -0.206 F 
ATOM     83  C   UNL A   1      46.290  26.018  35.298  1.00  0.00     0.006 A 
ENDBRANCH  59  76
ENDBRANCH  33  34
ENDBRANCH  25  28
ENDBRANCH  23  24
ENDBRANCH  22  23
ENDBRANCH  21  22
ENDBRANCH   1  21
TORSDOF 16
ENDMDL
MODEL 2
REMARK VINA RESULT:     -10.5      0.723      6.458
REMARK SMILES CC(C)(C)[NH2+]Cc1cc(C(=O)NCCCCCCNC(=O)c2ccc(-c3c4nc(c(-c5c(F)cccc5F)c5ccc([nH]5)c(-c5c(F)cccc5F)c5nc(c(-c6c(F)cccc6F)c6ccc3[nH]6)C=C5)C=C4)cc2)cs1
REMARK SMILES IDX 15 1 14 2 13 3 12 4 10 5 11 6 9 8 7 9 8 10 77 11 76 12 6 13
REMARK SMILES IDX 5 14 2 17 1 18 3 19 4 20 16 21 17 22 18 23 19 24 20 25 21 27
REMARK SMILES IDX 22 28 23 29 75 30 24 31 74 32 25 33 26 34 27 35 68 36 28 37
REMARK SMILES IDX 73 38 67 39 69 40 29 41 72 42 66 43 65 44 30 46 56 47 39 48
REMARK SMILES IDX 55 49 40 50 43 51 54 52 70 53 41 54 42 55 53 57 71 58 44 59
REMARK SMILES IDX 31 60 32 61 37 62 33 63 34 64 36 65 38 66 35 67 57 68 58 69
REMARK SMILES IDX 63 70 59 71 60 72 62 73 64 74 61 75 45 76 46 77 51 78 47 79
REMARK SMILES IDX 48 80 50 81 52 82 49 83
REMARK H PARENT 12 7 5 15 5 16 19 26 69 45 43 56
REMARK Flexibility Score: inf
ROOT
ATOM      1  C   UNL A   1      32.869  30.066  27.201  1.00  0.00     0.002 C 
ENDROOT
BRANCH   1   2
ATOM      2  C   UNL A   1      32.796  28.545  27.357  1.00  0.00     0.021 C 
BRANCH   2   3
ATOM      3  C   UNL A   1      31.389  27.964  27.468  1.00  0.00     0.116 C 
BRANCH   3   4
ATOM      4  N   UNL A   1      31.282  26.646  26.868  1.00  0.00    -0.352 N 
ATOM      5  C   UNL A   1      31.061  26.294  25.564  1.00  0.00     0.252 C 
ATOM      6  O   UNL A   1      30.789  25.112  25.307  1.00  0.00    -0.269 OA
ATOM      7  H   UNL A   1      31.384  25.893  27.493  1.00  0.00     0.163 HD
BRANCH   5   8
ATOM      8  C   UNL A   1      31.116  27.309  24.523  1.00  0.00     0.051 A 
ATOM      9  C   UNL A   1      30.396  28.904  22.946  1.00  0.00     0.059 A 
ATOM     10  C   UNL A   1      30.027  28.081  23.992  1.00  0.00     0.035 A 
ATOM     11  S   UNL A   1      32.084  28.832  22.675  1.00  0.00    -0.142 S 
ATOM     12  C   UNL A   1      32.305  27.703  23.938  1.00  0.00     0.079 A 
BRANCH   9  13
ATOM     13  C   UNL A   1      29.519  29.749  22.070  1.00  0.00     0.308 C 
BRANCH  13  14
ATOM     14  N   UNL A   1      29.783  31.182  22.167  1.00  0.00    -0.338 N 
ATOM     15  H   UNL A   1      30.419  31.318  22.954  1.00  0.00     0.347 HD
ATOM     16  H   UNL A   1      30.147  31.432  21.248  1.00  0.00     0.347 HD
BRANCH  14  17
ATOM     17  C   UNL A   1      28.648  32.096  22.366  1.00  0.00     0.088 C 
ATOM     18  C   UNL A   1      27.916  32.439  21.058  1.00  0.00     0.078 C 
ATOM     19  C   UNL A   1      29.057  33.388  23.091  1.00  0.00     0.078 C 
ATOM     20  C   UNL A   1      27.667  31.331  23.279  1.00  0.00     0.078 C 
ENDBRANCH  14  17
ENDBRANCH  13  14
ENDBRANCH   9  13
ENDBRANCH   5   8
ENDBRANCH   3   4
ENDBRANCH   2   3
ENDBRANCH   1   2
BRANCH   1  21
ATOM     21  C   UNL A   1      31.663  30.733  26.533  1.00  0.00     0.002 C 
BRANCH  21  22
ATOM     22  C   UNL A   1      31.492  32.235  26.780  1.00  0.00     0.021 C 
BRANCH  22  23
ATOM     23  C   UNL A   1      32.779  33.033  26.975  1.00  0.00     0.116 C 
BRANCH  23  24
ATOM     24  N   UNL A   1      32.559  34.299  27.649  1.00  0.00    -0.352 N 
ATOM     25  C   UNL A   1      33.141  34.810  28.780  1.00  0.00     0.251 C 
ATOM     26  H   UNL A   1      31.885  34.881  27.228  1.00  0.00     0.163 HD
ATOM     27  O   UNL A   1      32.710  35.857  29.257  1.00  0.00    -0.269 OA
BRANCH  25  28
ATOM     28  C   UNL A   1      34.267  34.116  29.450  1.00  0.00     0.039 A 
ATOM     29  C   UNL A   1      35.568  34.423  29.038  1.00  0.00     0.014 A 
ATOM     30  C   UNL A   1      34.062  33.132  30.422  1.00  0.00     0.014 A 
ATOM     31  C   UNL A   1      36.660  33.773  29.620  1.00  0.00     0.010 A 
ATOM     32  C   UNL A   1      35.156  32.523  31.042  1.00  0.00     0.010 A 
ATOM     33  C   UNL A   1      36.464  32.829  30.638  1.00  0.00    -0.014 A 
BRANCH  33  34
ATOM     34  C   UNL A   1      37.622  32.142  31.265  1.00  0.00     0.031 A 
ATOM     35  C   UNL A   1      38.367  31.073  30.516  1.00  0.00     0.074 A 
ATOM     36  C   UNL A   1      37.990  32.463  32.519  1.00  0.00     0.049 A 
ATOM     37  N   UNL A   1      39.397  30.359  30.900  1.00  0.00    -0.248 NA
ATOM     38  C   UNL A   1      37.880  30.746  29.167  1.00  0.00     0.031 C 
ATOM     39  C   UNL A   1      37.323  33.450  33.370  1.00  0.00     0.029 A 
ATOM     40  N   UNL A   1      39.016  31.988  33.298  1.00  0.00    -0.354 N 
ATOM     41  C   UNL A   1      39.669  29.492  29.850  1.00  0.00     0.074 A 
ATOM     42  C   UNL A   1      38.675  29.741  28.828  1.00  0.00     0.031 C 
ATOM     43  C   UNL A   1      37.973  33.524  34.544  1.00  0.00     0.029 A 
ATOM     44  C   UNL A   1      39.085  32.580  34.535  1.00  0.00     0.049 A 
ATOM     45  H   UNL A   1      39.642  31.291  32.998  1.00  0.00     0.167 HD
ATOM     46  C   UNL A   1      40.668  28.583  29.738  1.00  0.00     0.037 A 
ATOM     47  C   UNL A   1      39.955  32.389  35.545  1.00  0.00     0.037 A 
ATOM     48  C   UNL A   1      41.679  28.355  30.736  1.00  0.00     0.049 A 
ATOM     49  C   UNL A   1      41.080  31.408  35.379  1.00  0.00     0.074 A 
ATOM     50  C   UNL A   1      42.759  27.489  30.692  1.00  0.00     0.029 A 
ATOM     51  N   UNL A   1      41.738  29.005  31.959  1.00  0.00    -0.354 N 
ATOM     52  N   UNL A   1      41.358  30.635  34.358  1.00  0.00    -0.248 NA
ATOM     53  C   UNL A   1      42.022  31.285  36.501  1.00  0.00     0.031 C 
ATOM     54  C   UNL A   1      43.460  27.602  31.897  1.00  0.00     0.029 A 
ATOM     55  C   UNL A   1      42.833  28.558  32.679  1.00  0.00     0.049 A 
ATOM     56  H   UNL A   1      41.097  29.685  32.269  1.00  0.00     0.167 HD
ATOM     57  C   UNL A   1      42.517  29.954  34.701  1.00  0.00     0.074 A 
ATOM     58  C   UNL A   1      42.897  30.411  36.022  1.00  0.00     0.031 C 
ATOM     59  C   UNL A   1      43.206  29.033  33.986  1.00  0.00     0.037 A 
BRANCH  46  60
ATOM     60  C   UNL A   1      40.717  27.768  28.481  1.00  0.00     0.057 A 
ATOM     61  C   UNL A   1      40.033  26.552  28.368  1.00  0.00     0.134 A 
ATOM     62  C   UNL A   1      41.431  28.216  27.364  1.00  0.00     0.134 A 
ATOM     63  F   UNL A   1      39.341  26.062  29.408  1.00  0.00    -0.206 F 
ATOM     64  C   UNL A   1      40.075  25.797  27.195  1.00  0.00     0.040 A 
ATOM     65  C   UNL A   1      41.464  27.481  26.177  1.00  0.00     0.040 A 
ATOM     66  F   UNL A   1      42.105  29.375  27.405  1.00  0.00    -0.206 F 
ATOM     67  C   UNL A   1      40.789  26.265  26.093  1.00  0.00     0.006 A 
ENDBRANCH  46  60
BRANCH  47  68
ATOM     68  C   UNL A   1      39.825  33.184  36.789  1.00  0.00     0.057 A 
ATOM     69  C   UNL A   1      40.580  34.345  36.983  1.00  0.00     0.134 A 
ATOM     70  C   UNL A   1      38.945  32.805  37.808  1.00  0.00     0.134 A 
ATOM     71  F   UNL A   1      41.453  34.746  36.046  1.00  0.00    -0.206 F 
ATOM     72  C   UNL A   1      40.477  35.097  38.153  1.00  0.00     0.040 A 
ATOM     73  C   UNL A   1      38.818  33.556  38.977  1.00  0.00     0.040 A 
ATOM     74  F   UNL A   1      38.189  31.704  37.677  1.00  0.00    -0.206 F 
ATOM     75  C   UNL A   1      39.590  34.704  39.154  1.00  0.00     0.006 A 
ENDBRANCH  47  68
BRANCH  59  76
ATOM     76  C   UNL A   1      44.457  28.486  34.602  1.00  0.00     0.057 A 
ATOM     77  C   UNL A   1      44.447  27.327  35.385  1.00  0.00     0.134 A 
ATOM     78  C   UNL A   1      45.690  29.113  34.385  1.00  0.00     0.134 A 
ATOM     79  F   UNL A   1      43.294  26.688  35.640  1.00  0.00    -0.206 F 
ATOM     80  C   UNL A   1      45.619  26.818  35.948  1.00  0.00     0.040 A 
ATOM     81  C   UNL A   1      46.871  28.605  34.927  1.00  0.00     0.040 A 
ATOM     82  F   UNL A   1      45.767  30.225  33.638  1.00  0.00    -0.206 F 
ATOM     83  C   UNL A   1      46.835  27.457  35.715  1.00  0.00     0.006 A 
ENDBRANCH  59  76
ENDBRANCH  33  34
ENDBRANCH  25  28
ENDBRANCH  23  24
ENDBRANCH  22  23
ENDBRANCH  21  22
ENDBRANCH   1  21
TORSDOF 16
ENDMDL
MODEL 3
REMARK VINA RESULT:     -10.3      3.518      4.868
REMARK SMILES CC(C)(C)[NH2+]Cc1cc(C(=O)NCCCCCCNC(=O)c2ccc(-c3c4nc(c(-c5c(F)cccc5F)c5ccc([nH]5)c(-c5c(F)cccc5F)c5nc(c(-c6c(F)cccc6F)c6ccc3[nH]6)C=C5)C=C4)cc2)cs1
REMARK SMILES IDX 15 1 14 2 13 3 12 4 10 5 11 6 9 8 7 9 8 10 77 11 76 12 6 13
REMARK SMILES IDX 5 14 2 17 1 18 3 19 4 20 16 21 17 22 18 23 19 24 20 25 21 27
REMARK SMILES IDX 22 28 23 29 75 30 24 31 74 32 25 33 26 34 27 35 68 36 28 37
REMARK SMILES IDX 73 38 67 39 69 40 29 41 72 42 66 43 65 44 30 46 56 47 39 48
REMARK SMILES IDX 55 49 40 50 43 51 54 52 70 53 41 54 42 55 53 57 71 58 44 59
REMARK SMILES IDX 31 60 32 61 37 62 33 63 34 64 36 65 38 66 35 67 57 68 58 69
REMARK SMILES IDX 63 70 59 71 60 72 62 73 64 74 61 75 45 76 46 77 51 78 47 79
REMARK SMILES IDX 48 80 50 81 52 82 49 83
REMARK H PARENT 12 7 5 15 5 16 19 26 69 45 43 56
REMARK Flexibility Score: inf
ROOT
ATOM      1  C   UNL A   1      33.722  25.675  25.755  1.00  0.00     0.002 C 
ENDROOT
BRANCH   1   2
ATOM      2  C   UNL A   1      33.688  24.371  24.954  1.00  0.00     0.021 C 
BRANCH   2   3
ATOM      3  C   UNL A   1      32.539  24.245  23.957  1.00  0.00     0.116 C 
BRANCH   3   4
ATOM      4  N   UNL A   1      32.968  24.453  22.585  1.00  0.00    -0.352 N 
ATOM      5  C   UNL A   1      32.910  25.581  21.812  1.00  0.00     0.252 C 
ATOM      6  O   UNL A   1      33.131  25.479  20.596  1.00  0.00    -0.269 OA
ATOM      7  H   UNL A   1      33.359  23.664  22.145  1.00  0.00     0.163 HD
BRANCH   5   8
ATOM      8  C   UNL A   1      32.561  26.856  22.421  1.00  0.00     0.051 A 
ATOM      9  C   UNL A   1      31.249  28.636  23.233  1.00  0.00     0.059 A 
ATOM     10  C   UNL A   1      31.248  27.346  22.739  1.00  0.00     0.035 A 
ATOM     11  S   UNL A   1      32.846  29.220  23.421  1.00  0.00    -0.142 S 
ATOM     12  C   UNL A   1      33.519  27.763  22.835  1.00  0.00     0.079 A 
BRANCH   9  13
ATOM     13  C   UNL A   1      30.074  29.514  23.549  1.00  0.00     0.308 C 
BRANCH  13  14
ATOM     14  N   UNL A   1      29.949  30.679  22.678  1.00  0.00    -0.338 N 
ATOM     15  H   UNL A   1      30.471  31.440  23.116  1.00  0.00     0.347 HD
ATOM     16  H   UNL A   1      30.299  30.355  21.777  1.00  0.00     0.347 HD
BRANCH  14  17
ATOM     17  C   UNL A   1      28.604  31.194  22.378  1.00  0.00     0.088 C 
ATOM     18  C   UNL A   1      28.616  32.636  21.848  1.00  0.00     0.078 C 
ATOM     19  C   UNL A   1      27.655  31.087  23.583  1.00  0.00     0.078 C 
ATOM     20  C   UNL A   1      28.059  30.276  21.264  1.00  0.00     0.078 C 
ENDBRANCH  14  17
ENDBRANCH  13  14
ENDBRANCH   9  13
ENDBRANCH   5   8
ENDBRANCH   3   4
ENDBRANCH   2   3
ENDBRANCH   1   2
BRANCH   1  21
ATOM     21  C   UNL A   1      32.363  26.292  26.096  1.00  0.00     0.002 C 
BRANCH  21  22
ATOM     22  C   UNL A   1      32.387  27.561  26.954  1.00  0.00     0.021 C 
BRANCH  22  23
ATOM     23  C   UNL A   1      33.723  28.297  27.025  1.00  0.00     0.116 C 
BRANCH  23  24
ATOM     24  N   UNL A   1      33.584  29.669  27.476  1.00  0.00    -0.352 N 
ATOM     25  C   UNL A   1      34.490  30.489  28.099  1.00  0.00     0.251 C 
ATOM     26  H   UNL A   1      32.703  30.073  27.310  1.00  0.00     0.163 HD
ATOM     27  O   UNL A   1      34.122  31.585  28.516  1.00  0.00    -0.269 OA
BRANCH  25  28
ATOM     28  C   UNL A   1      35.900  30.074  28.296  1.00  0.00     0.039 A 
ATOM     29  C   UNL A   1      36.274  29.592  29.555  1.00  0.00     0.014 A 
ATOM     30  C   UNL A   1      36.863  30.211  27.292  1.00  0.00     0.014 A 
ATOM     31  C   UNL A   1      37.598  29.216  29.796  1.00  0.00     0.010 A 
ATOM     32  C   UNL A   1      38.174  29.783  27.517  1.00  0.00     0.010 A 
ATOM     33  C   UNL A   1      38.556  29.294  28.774  1.00  0.00    -0.014 A 
BRANCH  33  34
ATOM     34  C   UNL A   1      39.963  28.887  29.026  1.00  0.00     0.031 A 
ATOM     35  C   UNL A   1      40.907  29.817  29.737  1.00  0.00     0.074 A 
ATOM     36  C   UNL A   1      40.399  27.691  28.591  1.00  0.00     0.049 A 
ATOM     37  N   UNL A   1      42.169  29.640  30.039  1.00  0.00    -0.248 NA
ATOM     38  C   UNL A   1      40.370  31.124  30.142  1.00  0.00     0.031 C 
ATOM     39  C   UNL A   1      39.598  26.716  27.849  1.00  0.00     0.029 A 
ATOM     40  N   UNL A   1      41.629  27.092  28.709  1.00  0.00    -0.354 N 
ATOM     41  C   UNL A   1      42.579  30.815  30.655  1.00  0.00     0.074 A 
ATOM     42  C   UNL A   1      41.444  31.713  30.649  1.00  0.00     0.031 C 
ATOM     43  C   UNL A   1      40.351  25.631  27.600  1.00  0.00     0.029 A 
ATOM     44  C   UNL A   1      41.688  25.842  28.146  1.00  0.00     0.049 A 
ATOM     45  H   UNL A   1      42.395  27.519  29.156  1.00  0.00     0.167 HD
ATOM     46  C   UNL A   1      43.786  31.115  31.193  1.00  0.00     0.037 A 
ATOM     47  C   UNL A   1      42.703  24.960  28.086  1.00  0.00     0.037 A 
ATOM     48  C   UNL A   1      44.907  30.214  31.232  1.00  0.00     0.049 A 
ATOM     49  C   UNL A   1      44.018  25.297  28.730  1.00  0.00     0.074 A 
ATOM     50  C   UNL A   1      46.156  30.411  31.798  1.00  0.00     0.029 A 
ATOM     51  N   UNL A   1      44.913  28.940  30.687  1.00  0.00    -0.354 N 
ATOM     52  N   UNL A   1      44.373  26.391  29.357  1.00  0.00    -0.248 NA
ATOM     53  C   UNL A   1      45.068  24.270  28.669  1.00  0.00     0.031 C 
ATOM     54  C   UNL A   1      46.923  29.262  31.578  1.00  0.00     0.029 A 
ATOM     55  C   UNL A   1      46.143  28.340  30.899  1.00  0.00     0.049 A 
ATOM     56  H   UNL A   1      44.154  28.523  30.218  1.00  0.00     0.167 HD
ATOM     57  C   UNL A   1      45.675  26.176  29.788  1.00  0.00     0.074 A 
ATOM     58  C   UNL A   1      46.045  24.843  29.359  1.00  0.00     0.031 C 
ATOM     59  C   UNL A   1      46.490  27.008  30.479  1.00  0.00     0.037 A 
BRANCH  46  60
ATOM     60  C   UNL A   1      43.951  32.479  31.792  1.00  0.00     0.057 A 
ATOM     61  C   UNL A   1      44.391  33.567  31.028  1.00  0.00     0.134 A 
ATOM     62  C   UNL A   1      43.642  32.714  33.137  1.00  0.00     0.134 A 
ATOM     63  F   UNL A   1      44.716  33.404  29.736  1.00  0.00    -0.206 F 
ATOM     64  C   UNL A   1      44.539  34.838  31.587  1.00  0.00     0.040 A 
ATOM     65  C   UNL A   1      43.766  33.984  33.702  1.00  0.00     0.040 A 
ATOM     66  F   UNL A   1      43.212  31.715  33.922  1.00  0.00    -0.206 F 
ATOM     67  C   UNL A   1      44.220  35.049  32.927  1.00  0.00     0.006 A 
ENDBRANCH  46  60
BRANCH  47  68
ATOM     68  C   UNL A   1      42.500  23.646  27.430  1.00  0.00     0.057 A 
ATOM     69  C   UNL A   1      42.152  22.516  28.178  1.00  0.00     0.134 A 
ATOM     70  C   UNL A   1      42.645  23.490  26.048  1.00  0.00     0.134 A 
ATOM     71  F   UNL A   1      42.016  22.604  29.510  1.00  0.00    -0.206 F 
ATOM     72  C   UNL A   1      41.969  21.271  27.577  1.00  0.00     0.040 A 
ATOM     73  C   UNL A   1      42.448  22.254  25.430  1.00  0.00     0.040 A 
ATOM     74  F   UNL A   1      42.972  24.539  25.278  1.00  0.00    -0.206 F 
ATOM     75  C   UNL A   1      42.113  21.139  26.196  1.00  0.00     0.006 A 
ENDBRANCH  47  68
BRANCH  59  76
ATOM     76  C   UNL A   1      47.847  26.488  30.843  1.00  0.00     0.057 A 
ATOM     77  C   UNL A   1      48.081  25.822  32.051  1.00  0.00     0.134 A 
ATOM     78  C   UNL A   1      48.925  26.634  29.961  1.00  0.00     0.134 A 
ATOM     79  F   UNL A   1      47.090  25.662  32.943  1.00  0.00    -0.206 F 
ATOM     80  C   UNL A   1      49.346  25.332  32.379  1.00  0.00     0.040 A 
ATOM     81  C   UNL A   1      50.190  26.135  30.270  1.00  0.00     0.040 A 
ATOM     82  F   UNL A   1      48.764  27.260  28.786  1.00  0.00    -0.206 F 
ATOM     83  C   UNL A   1      50.404  25.485  31.484  1.00  0.00     0.006 A 
ENDBRANCH  59  76
ENDBRANCH  33  34
ENDBRANCH  25  28
ENDBRANCH  23  24
ENDBRANCH  22  23
ENDBRANCH  21  22
ENDBRANCH   1  21
TORSDOF 16
ENDMDL
