MODEL 1
REMARK VINA RESULT:     -12.4      0.000      0.000
REMARK SMILES COc1ccc(OC)c(S(=O)(=O)Nc2ccc(N3CCC(C)CC3)c(C(=O)NCCCCCCNC(=O)c3ccc(-c4c5nc(c(-c6c(F)cccc6F)c6ccc([nH]6)c(-c6c(F)cccc6F)c6nc(c(-c7c(F)cccc7F)c7ccc4[nH]7)C=C6)C=C5)cc3)c2)c1
REMARK SMILES IDX 30 1 29 2 28 3 26 4 27 5 25 7 14 8 15 9 92 10 16 11 17 12
REMARK SMILES IDX 13 13 10 15 11 16 12 17 9 18 3 19 4 20 93 21 5 22 6 23 2 24
REMARK SMILES IDX 1 25 7 26 8 27 18 28 19 29 24 30 20 31 23 32 21 33 22 34
REMARK SMILES IDX 31 35 32 36 33 37 34 38 35 39 36 40 37 42 38 43 39 44 91 45
REMARK SMILES IDX 40 46 90 47 41 48 42 49 43 50 84 51 44 52 89 53 83 54 85 55
REMARK SMILES IDX 45 56 88 57 82 58 81 59 46 61 72 62 55 63 71 64 56 65 59 66
REMARK SMILES IDX 70 67 86 68 57 69 58 70 69 72 87 73 60 74 47 75 48 76 53 77
REMARK SMILES IDX 49 78 50 79 52 80 54 81 51 82 73 83 74 84 79 85 75 86 76 87
REMARK SMILES IDX 78 88 80 89 77 90 61 91 62 92 67 93 63 94 64 95 66 96 68 97
REMARK SMILES IDX 65 98
REMARK H PARENT 28 6 13 14 35 41 85 60 59 71
REMARK Flexibility Score: inf
ROOT
ATOM      1  C   UNL A   1      36.632  22.645  24.989  1.00  0.00     0.021 C 
ENDROOT
BRANCH   1   2
ATOM      2  C   UNL A   1      36.279  21.159  24.893  1.00  0.00     0.116 C 
BRANCH   2   3
ATOM      3  N   UNL A   1      35.226  20.846  25.836  1.00  0.00    -0.352 N 
ATOM      4  C   UNL A   1      33.878  21.108  25.889  1.00  0.00     0.253 C 
ATOM      5  O   UNL A   1      33.428  21.141  27.033  1.00  0.00    -0.269 OA
ATOM      6  H   UNL A   1      35.546  20.330  26.611  1.00  0.00     0.163 HD
BRANCH   4   7
ATOM      7  C   UNL A   1      33.000  21.281  24.674  1.00  0.00     0.065 A 
ATOM      8  C   UNL A   1      32.169  22.818  22.975  1.00  0.00     0.050 A 
ATOM      9  C   UNL A   1      31.733  21.750  22.206  1.00  0.00     0.029 A 
ATOM     10  C   UNL A   1      32.649  22.580  24.260  1.00  0.00     0.042 A 
ATOM     11  C   UNL A   1      31.936  20.450  22.656  1.00  0.00     0.029 A 
ATOM     12  C   UNL A   1      32.636  20.172  23.850  1.00  0.00     0.050 A 
BRANCH   8  13
ATOM     13  N   UNL A   1      32.173  24.091  22.346  1.00  0.00    -0.279 N 
ATOM     14  H   UNL A   1      31.394  24.316  21.788  1.00  0.00     0.180 HD
BRANCH  13  15
ATOM     15  S   UNL A   1      33.385  25.245  22.466  1.00  0.00     0.265 S 
ATOM     16  O   UNL A   1      33.385  25.990  21.217  1.00  0.00    -0.201 OA
ATOM     17  O   UNL A   1      34.544  24.510  22.908  1.00  0.00    -0.201 OA
BRANCH  15  18
ATOM     18  C   UNL A   1      32.981  26.389  23.772  1.00  0.00     0.133 A 
ATOM     19  C   UNL A   1      33.542  27.566  25.816  1.00  0.00     0.120 A 
ATOM     20  C   UNL A   1      32.186  27.828  26.033  1.00  0.00     0.050 A 
ATOM     21  C   UNL A   1      33.945  26.888  24.660  1.00  0.00     0.072 A 
ATOM     22  C   UNL A   1      31.230  27.401  25.115  1.00  0.00     0.052 A 
ATOM     23  C   UNL A   1      31.627  26.694  23.981  1.00  0.00     0.139 A 
BRANCH  19  24
ATOM     24  O   UNL A   1      34.373  28.049  26.786  1.00  0.00    -0.497 OA
ATOM     25  C   UNL A   1      34.139  29.374  27.251  1.00  0.00     0.278 C 
ENDBRANCH  19  24
BRANCH  23  26
ATOM     26  O   UNL A   1      30.629  26.261  23.154  1.00  0.00    -0.495 OA
ATOM     27  C   UNL A   1      29.421  27.000  23.363  1.00  0.00     0.278 C 
ENDBRANCH  23  26
ENDBRANCH  15  18
ENDBRANCH  13  15
ENDBRANCH   8  13
BRANCH  12  28
ATOM     28  N   UNL A   1      32.996  18.849  24.094  1.00  0.00    -0.371 N 
ATOM     29  C   UNL A   1      32.531  18.194  25.323  1.00  0.00     0.117 C 
ATOM     30  C   UNL A   1      33.254  17.928  22.986  1.00  0.00     0.117 C 
ATOM     31  C   UNL A   1      33.624  17.236  25.807  1.00  0.00     0.025 C 
ATOM     32  C   UNL A   1      34.347  16.944  23.395  1.00  0.00     0.025 C 
ATOM     33  C   UNL A   1      34.019  16.228  24.715  1.00  0.00    -0.011 C 
ATOM     34  C   UNL A   1      35.213  15.388  25.166  1.00  0.00     0.008 C 
ENDBRANCH  12  28
ENDBRANCH   4   7
ENDBRANCH   2   3
ENDBRANCH   1   2
BRANCH   1  35
ATOM     35  C   UNL A   1      37.902  22.910  25.812  1.00  0.00     0.002 C 
BRANCH  35  36
ATOM     36  C   UNL A   1      38.829  21.700  25.969  1.00  0.00     0.002 C 
BRANCH  36  37
ATOM     37  C   UNL A   1      40.169  21.997  26.647  1.00  0.00     0.021 C 
BRANCH  37  38
ATOM     38  C   UNL A   1      40.410  23.473  26.949  1.00  0.00     0.116 C 
BRANCH  38  39
ATOM     39  N   UNL A   1      41.291  24.095  25.971  1.00  0.00    -0.352 N 
ATOM     40  C   UNL A   1      41.675  25.408  25.867  1.00  0.00     0.251 C 
ATOM     41  H   UNL A   1      41.664  23.489  25.291  1.00  0.00     0.163 HD
ATOM     42  O   UNL A   1      42.290  25.803  24.882  1.00  0.00    -0.269 OA
BRANCH  40  43
ATOM     43  C   UNL A   1      41.319  26.355  26.941  1.00  0.00     0.039 A 
ATOM     44  C   UNL A   1      40.339  25.987  27.868  1.00  0.00     0.014 A 
ATOM     45  C   UNL A   1      41.957  27.596  27.040  1.00  0.00     0.014 A 
ATOM     46  C   UNL A   1      40.046  26.836  28.936  1.00  0.00     0.010 A 
ATOM     47  C   UNL A   1      41.698  28.419  28.131  1.00  0.00     0.010 A 
ATOM     48  C   UNL A   1      40.747  28.042  29.092  1.00  0.00    -0.014 A 
BRANCH  48  49
ATOM     49  C   UNL A   1      40.522  28.910  30.272  1.00  0.00     0.031 A 
ATOM     50  C   UNL A   1      39.441  29.950  30.253  1.00  0.00     0.074 A 
ATOM     51  C   UNL A   1      41.346  28.807  31.332  1.00  0.00     0.049 A 
ATOM     52  N   UNL A   1      39.147  30.850  31.157  1.00  0.00    -0.248 NA
ATOM     53  C   UNL A   1      38.592  29.999  29.053  1.00  0.00     0.031 C 
ATOM     54  C   UNL A   1      42.461  27.864  31.448  1.00  0.00     0.029 A 
ATOM     55  N   UNL A   1      41.384  29.514  32.506  1.00  0.00    -0.354 N 
ATOM     56  C   UNL A   1      38.090  31.580  30.630  1.00  0.00     0.074 A 
ATOM     57  C   UNL A   1      37.817  31.042  29.315  1.00  0.00     0.031 C 
ATOM     58  C   UNL A   1      43.066  28.045  32.633  1.00  0.00     0.029 A 
ATOM     59  C   UNL A   1      42.405  29.135  33.343  1.00  0.00     0.049 A 
ATOM     60  H   UNL A   1      40.741  30.226  32.728  1.00  0.00     0.167 HD
ATOM     61  C   UNL A   1      37.401  32.596  31.201  1.00  0.00     0.037 A 
ATOM     62  C   UNL A   1      42.774  29.621  34.542  1.00  0.00     0.037 A 
ATOM     63  C   UNL A   1      37.657  33.113  32.519  1.00  0.00     0.049 A 
ATOM     64  C   UNL A   1      42.003  30.760  35.146  1.00  0.00     0.074 A 
ATOM     65  C   UNL A   1      36.957  34.080  33.218  1.00  0.00     0.029 A 
ATOM     66  N   UNL A   1      38.703  32.707  33.334  1.00  0.00    -0.354 N 
ATOM     67  N   UNL A   1      40.960  31.394  34.667  1.00  0.00    -0.248 NA
ATOM     68  C   UNL A   1      42.461  31.252  36.451  1.00  0.00     0.031 C 
ATOM     69  C   UNL A   1      37.601  34.286  34.443  1.00  0.00     0.029 A 
ATOM     70  C   UNL A   1      38.684  33.425  34.517  1.00  0.00     0.049 A 
ATOM     71  H   UNL A   1      39.361  32.012  33.105  1.00  0.00     0.167 HD
ATOM     72  C   UNL A   1      40.633  32.354  35.614  1.00  0.00     0.074 A 
ATOM     73  C   UNL A   1      41.576  32.207  36.704  1.00  0.00     0.031 C 
ATOM     74  C   UNL A   1      39.640  33.275  35.584  1.00  0.00     0.037 A 
BRANCH  61  75
ATOM     75  C   UNL A   1      36.295  33.214  30.399  1.00  0.00     0.057 A 
ATOM     76  C   UNL A   1      34.949  32.930  30.663  1.00  0.00     0.134 A 
ATOM     77  C   UNL A   1      36.577  34.126  29.376  1.00  0.00     0.134 A 
ATOM     78  F   UNL A   1      34.615  32.054  31.623  1.00  0.00    -0.206 F 
ATOM     79  C   UNL A   1      33.922  33.518  29.923  1.00  0.00     0.040 A 
ATOM     80  C   UNL A   1      35.558  34.736  28.643  1.00  0.00     0.040 A 
ATOM     81  F   UNL A   1      37.845  34.444  29.077  1.00  0.00    -0.206 F 
ATOM     82  C   UNL A   1      34.226  34.428  28.913  1.00  0.00     0.006 A 
ENDBRANCH  61  75
BRANCH  62  83
ATOM     83  C   UNL A   1      43.929  29.027  35.255  1.00  0.00     0.057 A 
ATOM     84  C   UNL A   1      45.232  29.470  35.008  1.00  0.00     0.134 A 
ATOM     85  C   UNL A   1      43.758  28.009  36.202  1.00  0.00     0.134 A 
ATOM     86  F   UNL A   1      45.456  30.429  34.098  1.00  0.00    -0.206 F 
ATOM     87  C   UNL A   1      46.329  28.918  35.669  1.00  0.00     0.040 A 
ATOM     88  C   UNL A   1      44.845  27.459  36.884  1.00  0.00     0.040 A 
ATOM     89  F   UNL A   1      42.533  27.546  36.486  1.00  0.00    -0.206 F 
ATOM     90  C   UNL A   1      46.135  27.912  36.615  1.00  0.00     0.006 A 
ENDBRANCH  62  83
BRANCH  74  91
ATOM     91  C   UNL A   1      39.529  34.195  36.761  1.00  0.00     0.057 A 
ATOM     92  C   UNL A   1      40.078  35.483  36.735  1.00  0.00     0.134 A 
ATOM     93  C   UNL A   1      38.840  33.804  37.915  1.00  0.00     0.134 A 
ATOM     94  F   UNL A   1      40.763  35.908  35.663  1.00  0.00    -0.206 F 
ATOM     95  C   UNL A   1      39.956  36.347  37.824  1.00  0.00     0.040 A 
ATOM     96  C   UNL A   1      38.695  34.666  39.003  1.00  0.00     0.040 A 
ATOM     97  F   UNL A   1      38.289  32.584  38.000  1.00  0.00    -0.206 F 
ATOM     98  C   UNL A   1      39.258  35.940  38.959  1.00  0.00     0.006 A 
ENDBRANCH  74  91
ENDBRANCH  48  49
ENDBRANCH  40  43
ENDBRANCH  38  39
ENDBRANCH  37  38
ENDBRANCH  36  37
ENDBRANCH  35  36
ENDBRANCH   1  35
TORSDOF 19
ENDMDL
MODEL 2
REMARK VINA RESULT:     -12.0      0.712      5.794
REMARK SMILES COc1ccc(OC)c(S(=O)(=O)Nc2ccc(N3CCC(C)CC3)c(C(=O)NCCCCCCNC(=O)c3ccc(-c4c5nc(c(-c6c(F)cccc6F)c6ccc([nH]6)c(-c6c(F)cccc6F)c6nc(c(-c7c(F)cccc7F)c7ccc4[nH]7)C=C6)C=C5)cc3)c2)c1
REMARK SMILES IDX 30 1 29 2 28 3 26 4 27 5 25 7 14 8 15 9 92 10 16 11 17 12
REMARK SMILES IDX 13 13 10 15 11 16 12 17 9 18 3 19 4 20 93 21 5 22 6 23 2 24
REMARK SMILES IDX 1 25 7 26 8 27 18 28 19 29 24 30 20 31 23 32 21 33 22 34
REMARK SMILES IDX 31 35 32 36 33 37 34 38 35 39 36 40 37 42 38 43 39 44 91 45
REMARK SMILES IDX 40 46 90 47 41 48 42 49 43 50 84 51 44 52 89 53 83 54 85 55
REMARK SMILES IDX 45 56 88 57 82 58 81 59 46 61 72 62 55 63 71 64 56 65 59 66
REMARK SMILES IDX 70 67 86 68 57 69 58 70 69 72 87 73 60 74 47 75 48 76 53 77
REMARK SMILES IDX 49 78 50 79 52 80 54 81 51 82 73 83 74 84 79 85 75 86 76 87
REMARK SMILES IDX 78 88 80 89 77 90 61 91 62 92 67 93 63 94 64 95 66 96 68 97
REMARK SMILES IDX 65 98
REMARK H PARENT 28 6 13 14 35 41 85 60 59 71
REMARK Flexibility Score: inf
ROOT
ATOM      1  C   UNL A   1      36.817  22.584  24.971  1.00  0.00     0.021 C 
ENDROOT
BRANCH   1   2
ATOM      2  C   UNL A   1      36.330  21.150  24.750  1.00  0.00     0.116 C 
BRANCH   2   3
ATOM      3  N   UNL A   1      35.316  20.822  25.729  1.00  0.00    -0.352 N 
ATOM      4  C   UNL A   1      33.971  21.086  25.842  1.00  0.00     0.253 C 
ATOM      5  O   UNL A   1      33.568  21.100  27.003  1.00  0.00    -0.269 OA
ATOM      6  H   UNL A   1      35.666  20.293  26.482  1.00  0.00     0.163 HD
BRANCH   4   7
ATOM      7  C   UNL A   1      33.046  21.281  24.666  1.00  0.00     0.065 A 
ATOM      8  C   UNL A   1      32.160  22.846  23.020  1.00  0.00     0.050 A 
ATOM      9  C   UNL A   1      31.682  21.790  22.259  1.00  0.00     0.029 A 
ATOM     10  C   UNL A   1      32.691  22.589  24.282  1.00  0.00     0.042 A 
ATOM     11  C   UNL A   1      31.890  20.484  22.685  1.00  0.00     0.029 A 
ATOM     12  C   UNL A   1      32.636  20.185  23.846  1.00  0.00     0.050 A 
BRANCH   8  13
ATOM     13  N   UNL A   1      32.150  24.125  22.406  1.00  0.00    -0.279 N 
ATOM     14  H   UNL A   1      31.334  24.382  21.921  1.00  0.00     0.180 HD
BRANCH  13  15
ATOM     15  S   UNL A   1      33.405  25.239  22.430  1.00  0.00     0.265 S 
ATOM     16  O   UNL A   1      33.408  25.901  21.135  1.00  0.00    -0.201 OA
ATOM     17  O   UNL A   1      34.545  24.491  22.900  1.00  0.00    -0.201 OA
BRANCH  15  18
ATOM     18  C   UNL A   1      33.067  26.480  23.665  1.00  0.00     0.133 A 
ATOM     19  C   UNL A   1      33.588  27.599  25.751  1.00  0.00     0.120 A 
ATOM     20  C   UNL A   1      32.289  28.112  25.797  1.00  0.00     0.050 A 
ATOM     21  C   UNL A   1      33.994  26.822  24.661  1.00  0.00     0.072 A 
ATOM     22  C   UNL A   1      31.387  27.838  24.772  1.00  0.00     0.052 A 
ATOM     23  C   UNL A   1      31.779  27.033  23.702  1.00  0.00     0.139 A 
BRANCH  19  24
ATOM     24  O   UNL A   1      34.373  27.953  26.811  1.00  0.00    -0.497 OA
ATOM     25  C   UNL A   1      34.275  29.294  27.282  1.00  0.00     0.278 C 
ENDBRANCH  19  24
BRANCH  23  26
ATOM     26  O   UNL A   1      30.823  26.764  22.763  1.00  0.00    -0.495 OA
ATOM     27  C   UNL A   1      29.800  27.764  22.757  1.00  0.00     0.278 C 
ENDBRANCH  23  26
ENDBRANCH  15  18
ENDBRANCH  13  15
ENDBRANCH   8  13
BRANCH  12  28
ATOM     28  N   UNL A   1      32.993  18.857  24.060  1.00  0.00    -0.371 N 
ATOM     29  C   UNL A   1      32.418  18.134  25.202  1.00  0.00     0.117 C 
ATOM     30  C   UNL A   1      33.378  17.995  22.940  1.00  0.00     0.117 C 
ATOM     31  C   UNL A   1      33.473  17.167  25.747  1.00  0.00     0.025 C 
ATOM     32  C   UNL A   1      34.441  17.006  23.410  1.00  0.00     0.025 C 
ATOM     33  C   UNL A   1      33.994  16.220  24.652  1.00  0.00    -0.011 C 
ATOM     34  C   UNL A   1      35.151  15.373  25.180  1.00  0.00     0.008 C 
ENDBRANCH  12  28
ENDBRANCH   4   7
ENDBRANCH   2   3
ENDBRANCH   1   2
BRANCH   1  35
ATOM     35  C   UNL A   1      38.116  22.659  25.787  1.00  0.00     0.002 C 
BRANCH  35  36
ATOM     36  C   UNL A   1      38.908  21.349  25.857  1.00  0.00     0.002 C 
BRANCH  36  37
ATOM     37  C   UNL A   1      40.319  21.478  26.434  1.00  0.00     0.021 C 
BRANCH  37  38
ATOM     38  C   UNL A   1      40.747  22.910  26.744  1.00  0.00     0.116 C 
BRANCH  38  39
ATOM     39  N   UNL A   1      41.775  23.384  25.829  1.00  0.00    -0.352 N 
ATOM     40  C   UNL A   1      42.315  24.640  25.714  1.00  0.00     0.251 C 
ATOM     41  H   UNL A   1      42.132  22.710  25.206  1.00  0.00     0.163 HD
ATOM     42  O   UNL A   1      43.055  24.919  24.776  1.00  0.00    -0.269 OA
BRANCH  40  43
ATOM     43  C   UNL A   1      41.980  25.668  26.719  1.00  0.00     0.039 A 
ATOM     44  C   UNL A   1      40.976  25.397  27.652  1.00  0.00     0.014 A 
ATOM     45  C   UNL A   1      42.662  26.889  26.745  1.00  0.00     0.014 A 
ATOM     46  C   UNL A   1      40.700  26.325  28.658  1.00  0.00     0.010 A 
ATOM     47  C   UNL A   1      42.420  27.792  27.776  1.00  0.00     0.010 A 
ATOM     48  C   UNL A   1      41.443  27.513  28.745  1.00  0.00    -0.014 A 
BRANCH  48  49
ATOM     49  C   UNL A   1      41.235  28.465  29.862  1.00  0.00     0.031 A 
ATOM     50  C   UNL A   1      42.086  28.384  31.094  1.00  0.00     0.074 A 
ATOM     51  C   UNL A   1      40.226  29.353  29.790  1.00  0.00     0.049 A 
ATOM     52  N   UNL A   1      42.001  29.077  32.202  1.00  0.00    -0.248 NA
ATOM     53  C   UNL A   1      43.160  27.380  31.091  1.00  0.00     0.031 C 
ATOM     54  C   UNL A   1      39.303  29.497  28.662  1.00  0.00     0.029 A 
ATOM     55  N   UNL A   1      39.797  30.292  30.693  1.00  0.00    -0.354 N 
ATOM     56  C   UNL A   1      42.999  28.584  33.031  1.00  0.00     0.074 A 
ATOM     57  C   UNL A   1      43.655  27.511  32.315  1.00  0.00     0.031 C 
ATOM     58  C   UNL A   1      38.424  30.474  28.937  1.00  0.00     0.029 A 
ATOM     59  C   UNL A   1      38.700  31.001  30.269  1.00  0.00     0.049 A 
ATOM     60  H   UNL A   1      40.234  30.444  31.562  1.00  0.00     0.167 HD
ATOM     61  C   UNL A   1      43.347  29.002  34.271  1.00  0.00     0.037 A 
ATOM     62  C   UNL A   1      37.988  31.960  30.891  1.00  0.00     0.037 A 
ATOM     63  C   UNL A   1      42.711  30.085  34.971  1.00  0.00     0.049 A 
ATOM     64  C   UNL A   1      38.385  32.393  32.273  1.00  0.00     0.074 A 
ATOM     65  C   UNL A   1      43.049  30.640  36.194  1.00  0.00     0.029 A 
ATOM     66  N   UNL A   1      41.600  30.776  34.512  1.00  0.00    -0.354 N 
ATOM     67  N   UNL A   1      39.376  31.967  33.018  1.00  0.00    -0.248 NA
ATOM     68  C   UNL A   1      37.563  33.435  32.902  1.00  0.00     0.031 C 
ATOM     69  C   UNL A   1      42.119  31.642  36.491  1.00  0.00     0.029 A 
ATOM     70  C   UNL A   1      41.221  31.731  35.440  1.00  0.00     0.049 A 
ATOM     71  H   UNL A   1      41.147  30.611  33.653  1.00  0.00     0.167 HD
ATOM     72  C   UNL A   1      39.302  32.692  34.198  1.00  0.00     0.074 A 
ATOM     73  C   UNL A   1      38.181  33.599  34.064  1.00  0.00     0.031 C 
ATOM     74  C   UNL A   1      40.093  32.614  35.296  1.00  0.00     0.037 A 
BRANCH  61  75
ATOM     75  C   UNL A   1      44.474  28.283  34.949  1.00  0.00     0.057 A 
ATOM     76  C   UNL A   1      45.798  28.727  34.843  1.00  0.00     0.134 A 
ATOM     77  C   UNL A   1      44.230  27.155  35.741  1.00  0.00     0.134 A 
ATOM     78  F   UNL A   1      46.098  29.796  34.088  1.00  0.00    -0.206 F 
ATOM     79  C   UNL A   1      46.844  28.063  35.487  1.00  0.00     0.040 A 
ATOM     80  C   UNL A   1      45.264  26.495  36.406  1.00  0.00     0.040 A 
ATOM     81  F   UNL A   1      42.983  26.682  35.887  1.00  0.00    -0.206 F 
ATOM     82  C   UNL A   1      46.576  26.946  36.276  1.00  0.00     0.006 A 
ENDBRANCH  61  75
BRANCH  62  83
ATOM     83  C   UNL A   1      36.830  32.579  30.206  1.00  0.00     0.057 A 
ATOM     84  C   UNL A   1      37.015  33.559  29.225  1.00  0.00     0.134 A 
ATOM     85  C   UNL A   1      35.516  32.205  30.509  1.00  0.00     0.134 A 
ATOM     86  F   UNL A   1      38.252  33.969  28.908  1.00  0.00    -0.206 F 
ATOM     87  C   UNL A   1      35.935  34.153  28.574  1.00  0.00     0.040 A 
ATOM     88  C   UNL A   1      34.425  32.779  29.853  1.00  0.00     0.040 A 
ATOM     89  F   UNL A   1      35.274  31.268  31.437  1.00  0.00    -0.206 F 
ATOM     90  C   UNL A   1      34.634  33.759  28.884  1.00  0.00     0.006 A 
ENDBRANCH  62  83
BRANCH  74  91
ATOM     91  C   UNL A   1      39.767  33.530  36.435  1.00  0.00     0.057 A 
ATOM     92  C   UNL A   1      40.300  34.822  36.509  1.00  0.00     0.134 A 
ATOM     93  C   UNL A   1      38.887  33.130  37.449  1.00  0.00     0.134 A 
ATOM     94  F   UNL A   1      41.161  35.255  35.577  1.00  0.00    -0.206 F 
ATOM     95  C   UNL A   1      39.980  35.681  37.561  1.00  0.00     0.040 A 
ATOM     96  C   UNL A   1      38.545  33.987  38.495  1.00  0.00     0.040 A 
ATOM     97  F   UNL A   1      38.341  31.905  37.432  1.00  0.00    -0.206 F 
ATOM     98  C   UNL A   1      39.095  35.266  38.554  1.00  0.00     0.006 A 
ENDBRANCH  74  91
ENDBRANCH  48  49
ENDBRANCH  40  43
ENDBRANCH  38  39
ENDBRANCH  37  38
ENDBRANCH  36  37
ENDBRANCH  35  36
ENDBRANCH   1  35
TORSDOF 19
ENDMDL
MODEL 3
REMARK VINA RESULT:     -11.9      4.899     10.714
REMARK SMILES COc1ccc(OC)c(S(=O)(=O)Nc2ccc(N3CCC(C)CC3)c(C(=O)NCCCCCCNC(=O)c3ccc(-c4c5nc(c(-c6c(F)cccc6F)c6ccc([nH]6)c(-c6c(F)cccc6F)c6nc(c(-c7c(F)cccc7F)c7ccc4[nH]7)C=C6)C=C5)cc3)c2)c1
REMARK SMILES IDX 30 1 29 2 28 3 26 4 27 5 25 7 14 8 15 9 92 10 16 11 17 12
REMARK SMILES IDX 13 13 10 15 11 16 12 17 9 18 3 19 4 20 93 21 5 22 6 23 2 24
REMARK SMILES IDX 1 25 7 26 8 27 18 28 19 29 24 30 20 31 23 32 21 33 22 34
REMARK SMILES IDX 31 35 32 36 33 37 34 38 35 39 36 40 37 42 38 43 39 44 91 45
REMARK SMILES IDX 40 46 90 47 41 48 42 49 43 50 84 51 44 52 89 53 83 54 85 55
REMARK SMILES IDX 45 56 88 57 82 58 81 59 46 61 72 62 55 63 71 64 56 65 59 66
REMARK SMILES IDX 70 67 86 68 57 69 58 70 69 72 87 73 60 74 47 75 48 76 53 77
REMARK SMILES IDX 49 78 50 79 52 80 54 81 51 82 73 83 74 84 79 85 75 86 76 87
REMARK SMILES IDX 78 88 80 89 77 90 61 91 62 92 67 93 63 94 64 95 66 96 68 97
REMARK SMILES IDX 65 98
REMARK H PARENT 28 6 13 14 35 41 85 60 59 71
REMARK Flexibility Score: inf
ROOT
ATOM      1  C   UNL A   1      33.917  29.979  26.692  1.00  0.00     0.021 C 
ENDROOT
BRANCH   1   2
ATOM      2  C   UNL A   1      33.890  28.449  26.635  1.00  0.00     0.116 C 
BRANCH   2   3
ATOM      3  N   UNL A   1      32.679  27.959  27.260  1.00  0.00    -0.352 N 
ATOM      4  C   UNL A   1      31.618  27.199  26.830  1.00  0.00     0.253 C 
ATOM      5  O   UNL A   1      30.577  27.413  27.448  1.00  0.00    -0.269 OA
ATOM      6  H   UNL A   1      32.598  28.230  28.203  1.00  0.00     0.163 HD
BRANCH   4   7
ATOM      7  C   UNL A   1      31.711  26.152  25.747  1.00  0.00     0.065 A 
ATOM      8  C   UNL A   1      31.876  23.775  25.234  1.00  0.00     0.050 A 
ATOM      9  C   UNL A   1      31.522  24.024  23.917  1.00  0.00     0.029 A 
ATOM     10  C   UNL A   1      32.120  24.848  26.087  1.00  0.00     0.042 A 
ATOM     11  C   UNL A   1      31.251  25.326  23.511  1.00  0.00     0.029 A 
ATOM     12  C   UNL A   1      31.259  26.409  24.417  1.00  0.00     0.050 A 
BRANCH   8  13
ATOM     13  N   UNL A   1      31.878  22.416  25.642  1.00  0.00    -0.279 N 
ATOM     14  H   UNL A   1      31.005  22.005  25.835  1.00  0.00     0.180 HD
BRANCH  13  15
ATOM     15  S   UNL A   1      33.234  21.446  25.830  1.00  0.00     0.265 S 
ATOM     16  O   UNL A   1      33.444  21.283  27.260  1.00  0.00    -0.201 OA
ATOM     17  O   UNL A   1      34.233  22.051  24.983  1.00  0.00    -0.201 OA
BRANCH  15  18
ATOM     18  C   UNL A   1      32.902  19.832  25.151  1.00  0.00     0.133 A 
ATOM     19  C   UNL A   1      33.132  17.419  25.195  1.00  0.00     0.120 A 
ATOM     20  C   UNL A   1      32.755  17.361  23.851  1.00  0.00     0.050 A 
ATOM     21  C   UNL A   1      33.160  18.649  25.860  1.00  0.00     0.072 A 
ATOM     22  C   UNL A   1      32.425  18.525  23.161  1.00  0.00     0.052 A 
ATOM     23  C   UNL A   1      32.486  19.756  23.813  1.00  0.00     0.139 A 
BRANCH  19  24
ATOM     24  O   UNL A   1      33.418  16.206  25.754  1.00  0.00    -0.497 OA
ATOM     25  C   UNL A   1      32.546  15.121  25.453  1.00  0.00     0.278 C 
ENDBRANCH  19  24
BRANCH  23  26
ATOM     26  O   UNL A   1      32.200  20.859  23.057  1.00  0.00    -0.495 OA
ATOM     27  C   UNL A   1      31.866  20.498  21.713  1.00  0.00     0.278 C 
ENDBRANCH  23  26
ENDBRANCH  15  18
ENDBRANCH  13  15
ENDBRANCH   8  13
BRANCH  12  28
ATOM     28  N   UNL A   1      30.746  27.625  23.974  1.00  0.00    -0.371 N 
ATOM     29  C   UNL A   1      31.612  28.811  23.972  1.00  0.00     0.117 C 
ATOM     30  C   UNL A   1      29.673  27.666  22.978  1.00  0.00     0.117 C 
ATOM     31  C   UNL A   1      30.757  30.037  24.311  1.00  0.00     0.025 C 
ATOM     32  C   UNL A   1      28.771  28.864  23.262  1.00  0.00     0.025 C 
ATOM     33  C   UNL A   1      29.562  30.178  23.354  1.00  0.00    -0.011 C 
ATOM     34  C   UNL A   1      28.643  31.312  23.805  1.00  0.00     0.008 C 
ENDBRANCH  12  28
ENDBRANCH   4   7
ENDBRANCH   2   3
ENDBRANCH   1   2
BRANCH   1  35
ATOM     35  C   UNL A   1      35.057  30.528  27.562  1.00  0.00     0.002 C 
BRANCH  35  36
ATOM     36  C   UNL A   1      34.751  31.861  28.255  1.00  0.00     0.002 C 
BRANCH  36  37
ATOM     37  C   UNL A   1      35.936  32.824  28.350  1.00  0.00     0.021 C 
BRANCH  37  38
ATOM     38  C   UNL A   1      36.659  32.809  29.694  1.00  0.00     0.116 C 
BRANCH  38  39
ATOM     39  N   UNL A   1      36.209  31.717  30.544  1.00  0.00    -0.352 N 
ATOM     40  C   UNL A   1      36.795  30.497  30.764  1.00  0.00     0.251 C 
ATOM     41  H   UNL A   1      35.367  31.876  31.029  1.00  0.00     0.163 HD
ATOM     42  O   UNL A   1      36.201  29.619  31.381  1.00  0.00    -0.269 OA
BRANCH  40  43
ATOM     43  C   UNL A   1      38.146  30.234  30.229  1.00  0.00     0.039 A 
ATOM     44  C   UNL A   1      39.217  30.134  31.121  1.00  0.00     0.014 A 
ATOM     45  C   UNL A   1      38.350  30.075  28.855  1.00  0.00     0.014 A 
ATOM     46  C   UNL A   1      40.486  29.808  30.642  1.00  0.00     0.010 A 
ATOM     47  C   UNL A   1      39.606  29.702  28.384  1.00  0.00     0.010 A 
ATOM     48  C   UNL A   1      40.681  29.558  29.274  1.00  0.00    -0.014 A 
BRANCH  48  49
ATOM     49  C   UNL A   1      41.997  29.113  28.758  1.00  0.00     0.031 A 
ATOM     50  C   UNL A   1      42.206  27.686  28.346  1.00  0.00     0.074 A 
ATOM     51  C   UNL A   1      43.024  29.984  28.733  1.00  0.00     0.049 A 
ATOM     52  N   UNL A   1      43.304  27.095  27.946  1.00  0.00    -0.248 NA
ATOM     53  C   UNL A   1      41.033  26.801  28.412  1.00  0.00     0.031 C 
ATOM     54  C   UNL A   1      42.954  31.386  29.150  1.00  0.00     0.029 A 
ATOM     55  N   UNL A   1      44.331  29.813  28.356  1.00  0.00    -0.354 N 
ATOM     56  C   UNL A   1      42.958  25.769  27.725  1.00  0.00     0.074 A 
ATOM     57  C   UNL A   1      41.559  25.632  28.069  1.00  0.00     0.031 C 
ATOM     58  C   UNL A   1      44.163  31.950  28.996  1.00  0.00     0.029 A 
ATOM     59  C   UNL A   1      45.097  30.944  28.502  1.00  0.00     0.049 A 
ATOM     60  H   UNL A   1      44.687  28.962  28.013  1.00  0.00     0.167 HD
ATOM     61  C   UNL A   1      43.736  24.762  27.262  1.00  0.00     0.037 A 
ATOM     62  C   UNL A   1      46.409  31.143  28.276  1.00  0.00     0.037 A 
ATOM     63  C   UNL A   1      45.119  24.905  26.897  1.00  0.00     0.049 A 
ATOM     64  C   UNL A   1      47.252  30.004  27.778  1.00  0.00     0.074 A 
ATOM     65  C   UNL A   1      45.966  23.966  26.335  1.00  0.00     0.029 A 
ATOM     66  N   UNL A   1      45.862  26.064  27.064  1.00  0.00    -0.354 N 
ATOM     67  N   UNL A   1      46.896  28.772  27.506  1.00  0.00    -0.248 NA
ATOM     68  C   UNL A   1      48.678  30.281  27.560  1.00  0.00     0.031 C 
ATOM     69  C   UNL A   1      47.231  24.545  26.196  1.00  0.00     0.029 A 
ATOM     70  C   UNL A   1      47.164  25.854  26.644  1.00  0.00     0.049 A 
ATOM     71  H   UNL A   1      45.514  26.910  27.428  1.00  0.00     0.167 HD
ATOM     72  C   UNL A   1      48.049  28.130  27.078  1.00  0.00     0.074 A 
ATOM     73  C   UNL A   1      49.113  29.113  27.109  1.00  0.00     0.031 C 
ATOM     74  C   UNL A   1      48.213  26.841  26.695  1.00  0.00     0.037 A 
BRANCH  61  75
ATOM     75  C   UNL A   1      43.100  23.411  27.120  1.00  0.00     0.057 A 
ATOM     76  C   UNL A   1      42.714  22.909  25.871  1.00  0.00     0.134 A 
ATOM     77  C   UNL A   1      42.903  22.593  28.238  1.00  0.00     0.134 A 
ATOM     78  F   UNL A   1      42.866  23.651  24.763  1.00  0.00    -0.206 F 
ATOM     79  C   UNL A   1      42.136  21.645  25.741  1.00  0.00     0.040 A 
ATOM     80  C   UNL A   1      42.344  21.319  28.119  1.00  0.00     0.040 A 
ATOM     81  F   UNL A   1      43.255  23.014  29.462  1.00  0.00    -0.206 F 
ATOM     82  C   UNL A   1      41.954  20.845  26.867  1.00  0.00     0.006 A 
ENDBRANCH  61  75
BRANCH  62  83
ATOM     83  C   UNL A   1      47.003  32.479  28.512  1.00  0.00     0.057 A 
ATOM     84  C   UNL A   1      47.540  32.815  29.759  1.00  0.00     0.134 A 
ATOM     85  C   UNL A   1      47.056  33.445  27.501  1.00  0.00     0.134 A 
ATOM     86  F   UNL A   1      47.500  31.935  30.770  1.00  0.00    -0.206 F 
ATOM     87  C   UNL A   1      48.101  34.070  29.998  1.00  0.00     0.040 A 
ATOM     88  C   UNL A   1      47.630  34.699  27.720  1.00  0.00     0.040 A 
ATOM     89  F   UNL A   1      46.562  33.180  26.283  1.00  0.00    -0.206 F 
ATOM     90  C   UNL A   1      48.152  35.014  28.973  1.00  0.00     0.006 A 
ENDBRANCH  62  83
BRANCH  74  91
ATOM     91  C   UNL A   1      49.591  26.422  26.284  1.00  0.00     0.057 A 
ATOM     92  C   UNL A   1      50.427  25.710  27.151  1.00  0.00     0.134 A 
ATOM     93  C   UNL A   1      50.073  26.704  25.000  1.00  0.00     0.134 A 
ATOM     94  F   UNL A   1      50.026  25.425  28.399  1.00  0.00    -0.206 F 
ATOM     95  C   UNL A   1      51.703  25.303  26.760  1.00  0.00     0.040 A 
ATOM     96  C   UNL A   1      51.340  26.285  24.591  1.00  0.00     0.040 A 
ATOM     97  F   UNL A   1      49.318  27.381  24.122  1.00  0.00    -0.206 F 
ATOM     98  C   UNL A   1      52.159  25.586  25.474  1.00  0.00     0.006 A 
ENDBRANCH  74  91
ENDBRANCH  48  49
ENDBRANCH  40  43
ENDBRANCH  38  39
ENDBRANCH  37  38
ENDBRANCH  36  37
ENDBRANCH  35  36
ENDBRANCH   1  35
TORSDOF 19
ENDMDL
