MODEL 1
REMARK VINA RESULT:     -10.0      0.000      0.000
REMARK SMILES CCN(CC(=O)NCCCCCCNC(=O)c1ccc(-c2c3nc(c(-c4c(F)cccc4F)c4ccc([nH]4)c(-c4c(F)cccc4F)c4nc(c(-c5c(F)cccc5F)c5ccc2[nH]5)C=C4)C=C3)cc1)C(=O)[C@@H]1CC[NH2+][C@@H]1C
REMARK SMILES IDX 10 1 9 2 8 3 7 4 5 5 6 6 4 8 3 9 2 10 1 11 71 12 72 13 73 14
REMARK SMILES IDX 74 15 77 16 75 17 76 18 78 19 11 22 12 23 13 24 14 25 15 26
REMARK SMILES IDX 16 28 17 29 18 30 70 31 19 32 69 33 20 34 21 35 22 36 63 37
REMARK SMILES IDX 23 38 68 39 62 40 64 41 24 42 67 43 61 44 60 45 25 47 51 48
REMARK SMILES IDX 34 49 50 50 35 51 38 52 49 53 65 54 36 55 37 56 48 58 66 59
REMARK SMILES IDX 39 60 26 61 27 62 32 63 28 64 29 65 31 66 33 67 30 68 52 69
REMARK SMILES IDX 53 70 58 71 54 72 55 73 57 74 59 75 56 76 40 77 41 78 46 79
REMARK SMILES IDX 42 80 43 81 45 82 47 83 44 84
REMARK H PARENT 7 7 76 20 76 21 14 27 64 46 38 57
REMARK Flexibility Score: inf
ROOT
ATOM      1  C   UNL A   1      38.057  22.407  25.651  1.00  0.00     0.002 C 
ENDROOT
BRANCH   1   2
ATOM      2  C   UNL A   1      37.223  23.692  25.631  1.00  0.00     0.021 C 
BRANCH   2   3
ATOM      3  C   UNL A   1      35.715  23.463  25.623  1.00  0.00     0.116 C 
BRANCH   3   4
ATOM      4  N   UNL A   1      35.122  23.772  24.345  1.00  0.00    -0.355 N 
ATOM      5  C   UNL A   1      34.318  24.816  24.005  1.00  0.00     0.239 C 
ATOM      6  O   UNL A   1      34.057  24.974  22.811  1.00  0.00    -0.273 OA
ATOM      7  H   UNL A   1      35.326  23.141  23.619  1.00  0.00     0.163 HD
BRANCH   5   8
ATOM      8  C   UNL A   1      33.856  25.820  25.064  1.00  0.00     0.219 C 
BRANCH   8   9
ATOM      9  N   UNL A   1      32.462  25.739  25.517  1.00  0.00    -0.333 N 
BRANCH   9  10
ATOM     10  C   UNL A   1      31.892  24.381  25.614  1.00  0.00     0.116 C 
ATOM     11  C   UNL A   1      32.223  23.660  26.914  1.00  0.00     0.027 C 
ENDBRANCH   9  10
BRANCH   9  12
ATOM     12  C   UNL A   1      31.676  26.765  26.012  1.00  0.00     0.232 C 
ATOM     13  O   UNL A   1      30.555  26.472  26.467  1.00  0.00    -0.274 OA
BRANCH  12  14
ATOM     14  C   UNL A   1      31.978  28.267  25.945  1.00  0.00     0.142 C 
ATOM     15  C   UNL A   1      31.758  29.030  27.240  1.00  0.00     0.081 C 
ATOM     16  C   UNL A   1      31.683  29.266  24.817  1.00  0.00     0.192 C 
ATOM     17  C   UNL A   1      32.096  30.450  26.831  1.00  0.00     0.261 C 
ATOM     18  N   UNL A   1      31.527  30.585  25.486  1.00  0.00    -0.343 N 
ATOM     19  C   UNL A   1      30.538  29.065  23.847  1.00  0.00     0.076 C 
ATOM     20  H   UNL A   1      32.027  31.305  24.964  1.00  0.00     0.346 HD
ATOM     21  H   UNL A   1      30.545  30.859  25.531  1.00  0.00     0.346 HD
ENDBRANCH  12  14
ENDBRANCH   9  12
ENDBRANCH   8   9
ENDBRANCH   5   8
ENDBRANCH   3   4
ENDBRANCH   2   3
ENDBRANCH   1   2
BRANCH   1  22
ATOM     22  C   UNL A   1      37.501  21.248  24.815  1.00  0.00     0.002 C 
BRANCH  22  23
ATOM     23  C   UNL A   1      38.328  19.960  24.839  1.00  0.00     0.021 C 
BRANCH  23  24
ATOM     24  C   UNL A   1      39.143  19.749  26.107  1.00  0.00     0.116 C 
BRANCH  24  25
ATOM     25  N   UNL A   1      40.400  19.079  25.836  1.00  0.00    -0.352 N 
ATOM     26  C   UNL A   1      41.677  19.573  25.897  1.00  0.00     0.251 C 
ATOM     27  H   UNL A   1      40.325  18.133  25.572  1.00  0.00     0.163 HD
ATOM     28  O   UNL A   1      42.607  18.921  25.435  1.00  0.00    -0.269 OA
BRANCH  26  29
ATOM     29  C   UNL A   1      41.935  20.896  26.506  1.00  0.00     0.039 A 
ATOM     30  C   UNL A   1      42.206  21.976  25.662  1.00  0.00     0.014 A 
ATOM     31  C   UNL A   1      41.950  21.071  27.893  1.00  0.00     0.014 A 
ATOM     32  C   UNL A   1      42.466  23.232  26.208  1.00  0.00     0.010 A 
ATOM     33  C   UNL A   1      42.132  22.341  28.434  1.00  0.00     0.010 A 
ATOM     34  C   UNL A   1      42.415  23.430  27.598  1.00  0.00    -0.014 A 
BRANCH  34  35
ATOM     35  C   UNL A   1      42.686  24.768  28.179  1.00  0.00     0.031 A 
ATOM     36  C   UNL A   1      44.083  25.152  28.583  1.00  0.00     0.074 A 
ATOM     37  C   UNL A   1      41.669  25.632  28.355  1.00  0.00     0.049 A 
ATOM     38  N   UNL A   1      44.519  26.285  29.074  1.00  0.00    -0.248 NA
ATOM     39  C   UNL A   1      45.125  24.122  28.442  1.00  0.00     0.031 C 
ATOM     40  C   UNL A   1      40.263  25.355  28.055  1.00  0.00     0.029 A 
ATOM     41  N   UNL A   1      41.662  26.922  28.820  1.00  0.00    -0.354 N 
ATOM     42  C   UNL A   1      45.877  26.101  29.304  1.00  0.00     0.074 A 
ATOM     43  C   UNL A   1      46.181  24.731  28.959  1.00  0.00     0.031 C 
ATOM     44  C   UNL A   1      39.535  26.454  28.309  1.00  0.00     0.029 A 
ATOM     45  C   UNL A   1      40.417  27.503  28.811  1.00  0.00     0.049 A 
ATOM     46  H   UNL A   1      42.471  27.388  29.131  1.00  0.00     0.167 HD
ATOM     47  C   UNL A   1      46.793  27.000  29.737  1.00  0.00     0.037 A 
ATOM     48  C   UNL A   1      40.035  28.746  29.155  1.00  0.00     0.037 A 
ATOM     49  C   UNL A   1      46.489  28.371  30.058  1.00  0.00     0.049 A 
ATOM     50  C   UNL A   1      41.074  29.733  29.610  1.00  0.00     0.074 A 
ATOM     51  C   UNL A   1      47.353  29.375  30.458  1.00  0.00     0.029 A 
ATOM     52  N   UNL A   1      45.220  28.928  30.016  1.00  0.00    -0.354 N 
ATOM     53  N   UNL A   1      42.366  29.566  29.753  1.00  0.00    -0.248 NA
ATOM     54  C   UNL A   1      40.602  31.086  29.934  1.00  0.00     0.031 C 
ATOM     55  C   UNL A   1      46.600  30.530  30.695  1.00  0.00     0.029 A 
ATOM     56  C   UNL A   1      45.275  30.259  30.395  1.00  0.00     0.049 A 
ATOM     57  H   UNL A   1      44.401  28.448  29.755  1.00  0.00     0.167 HD
ATOM     58  C   UNL A   1      42.866  30.799  30.153  1.00  0.00     0.074 A 
ATOM     59  C   UNL A   1      41.739  31.707  30.213  1.00  0.00     0.031 C 
ATOM     60  C   UNL A   1      44.143  31.150  30.443  1.00  0.00     0.037 A 
BRANCH  47  61
ATOM     61  C   UNL A   1      48.212  26.528  29.878  1.00  0.00     0.057 A 
ATOM     62  C   UNL A   1      48.669  25.898  31.044  1.00  0.00     0.134 A 
ATOM     63  C   UNL A   1      49.125  26.677  28.826  1.00  0.00     0.134 A 
ATOM     64  F   UNL A   1      47.849  25.735  32.093  1.00  0.00    -0.206 F 
ATOM     65  C   UNL A   1      49.988  25.462  31.170  1.00  0.00     0.040 A 
ATOM     66  C   UNL A   1      50.439  26.219  28.930  1.00  0.00     0.040 A 
ATOM     67  F   UNL A   1      48.754  27.266  27.680  1.00  0.00    -0.206 F 
ATOM     68  C   UNL A   1      50.876  25.615  30.108  1.00  0.00     0.006 A 
ENDBRANCH  47  61
BRANCH  48  69
ATOM     69  C   UNL A   1      38.609  29.144  29.038  1.00  0.00     0.057 A 
ATOM     70  C   UNL A   1      37.746  29.069  30.137  1.00  0.00     0.134 A 
ATOM     71  C   UNL A   1      38.075  29.603  27.829  1.00  0.00     0.134 A 
ATOM     72  F   UNL A   1      38.195  28.622  31.319  1.00  0.00    -0.206 F 
ATOM     73  C   UNL A   1      36.397  29.414  30.033  1.00  0.00     0.040 A 
ATOM     74  C   UNL A   1      36.735  29.976  27.717  1.00  0.00     0.040 A 
ATOM     75  F   UNL A   1      38.853  29.709  26.742  1.00  0.00    -0.206 F 
ATOM     76  C   UNL A   1      35.889  29.874  28.821  1.00  0.00     0.006 A 
ENDBRANCH  48  69
BRANCH  60  77
ATOM     77  C   UNL A   1      44.389  32.584  30.811  1.00  0.00     0.057 A 
ATOM     78  C   UNL A   1      44.346  33.028  32.138  1.00  0.00     0.134 A 
ATOM     79  C   UNL A   1      44.687  33.529  29.821  1.00  0.00     0.134 A 
ATOM     80  F   UNL A   1      44.054  32.175  33.132  1.00  0.00    -0.206 F 
ATOM     81  C   UNL A   1      44.555  34.369  32.465  1.00  0.00     0.040 A 
ATOM     82  C   UNL A   1      44.926  34.866  30.138  1.00  0.00     0.040 A 
ATOM     83  F   UNL A   1      44.755  33.168  28.530  1.00  0.00    -0.206 F 
ATOM     84  C   UNL A   1      44.850  35.291  31.463  1.00  0.00     0.006 A 
ENDBRANCH  60  77
ENDBRANCH  34  35
ENDBRANCH  26  29
ENDBRANCH  24  25
ENDBRANCH  23  24
ENDBRANCH  22  23
ENDBRANCH   1  22
TORSDOF 17
ENDMDL
MODEL 2
REMARK VINA RESULT:     -10.0      2.060      3.926
REMARK SMILES CCN(CC(=O)NCCCCCCNC(=O)c1ccc(-c2c3nc(c(-c4c(F)cccc4F)c4ccc([nH]4)c(-c4c(F)cccc4F)c4nc(c(-c5c(F)cccc5F)c5ccc2[nH]5)C=C4)C=C3)cc1)C(=O)[C@@H]1CC[NH2+][C@@H]1C
REMARK SMILES IDX 10 1 9 2 8 3 7 4 5 5 6 6 4 8 3 9 2 10 1 11 71 12 72 13 73 14
REMARK SMILES IDX 74 15 77 16 75 17 76 18 78 19 11 22 12 23 13 24 14 25 15 26
REMARK SMILES IDX 16 28 17 29 18 30 70 31 19 32 69 33 20 34 21 35 22 36 63 37
REMARK SMILES IDX 23 38 68 39 62 40 64 41 24 42 67 43 61 44 60 45 25 47 51 48
REMARK SMILES IDX 34 49 50 50 35 51 38 52 49 53 65 54 36 55 37 56 48 58 66 59
REMARK SMILES IDX 39 60 26 61 27 62 32 63 28 64 29 65 31 66 33 67 30 68 52 69
REMARK SMILES IDX 53 70 58 71 54 72 55 73 57 74 59 75 56 76 40 77 41 78 46 79
REMARK SMILES IDX 42 80 43 81 45 82 47 83 44 84
REMARK H PARENT 7 7 76 20 76 21 14 27 64 46 38 57
REMARK Flexibility Score: inf
ROOT
ATOM      1  C   UNL A   1      38.388  22.315  26.099  1.00  0.00     0.002 C 
ENDROOT
BRANCH   1   2
ATOM      2  C   UNL A   1      37.778  23.721  26.083  1.00  0.00     0.021 C 
BRANCH   2   3
ATOM      3  C   UNL A   1      36.676  23.916  25.046  1.00  0.00     0.116 C 
BRANCH   3   4
ATOM      4  N   UNL A   1      35.365  23.972  25.646  1.00  0.00    -0.355 N 
ATOM      5  C   UNL A   1      34.283  23.181  25.413  1.00  0.00     0.239 C 
ATOM      6  O   UNL A   1      33.310  23.305  26.160  1.00  0.00    -0.273 OA
ATOM      7  H   UNL A   1      35.235  24.681  26.316  1.00  0.00     0.163 HD
BRANCH   5   8
ATOM      8  C   UNL A   1      34.329  22.097  24.333  1.00  0.00     0.219 C 
BRANCH   8   9
ATOM      9  N   UNL A   1      33.078  21.396  24.017  1.00  0.00    -0.333 N 
BRANCH   9  10
ATOM     10  C   UNL A   1      32.322  21.913  22.859  1.00  0.00     0.116 C 
ATOM     11  C   UNL A   1      33.046  23.004  22.082  1.00  0.00     0.027 C 
ENDBRANCH   9  10
BRANCH   9  12
ATOM     12  C   UNL A   1      32.608  20.220  24.575  1.00  0.00     0.232 C 
ATOM     13  O   UNL A   1      31.746  20.304  25.469  1.00  0.00    -0.274 OA
BRANCH  12  14
ATOM     14  C   UNL A   1      33.129  18.804  24.305  1.00  0.00     0.142 C 
ATOM     15  C   UNL A   1      34.610  18.596  24.573  1.00  0.00     0.081 C 
ATOM     16  C   UNL A   1      32.772  17.840  23.165  1.00  0.00     0.192 C 
ATOM     17  C   UNL A   1      34.802  17.145  24.178  1.00  0.00     0.261 C 
ATOM     18  N   UNL A   1      33.974  16.984  22.978  1.00  0.00    -0.343 N 
ATOM     19  C   UNL A   1      32.304  18.337  21.812  1.00  0.00     0.076 C 
ATOM     20  H   UNL A   1      33.697  16.008  22.871  1.00  0.00     0.346 HD
ATOM     21  H   UNL A   1      34.489  17.254  22.140  1.00  0.00     0.346 HD
ENDBRANCH  12  14
ENDBRANCH   9  12
ENDBRANCH   8   9
ENDBRANCH   5   8
ENDBRANCH   3   4
ENDBRANCH   2   3
ENDBRANCH   1   2
BRANCH   1  22
ATOM     22  C   UNL A   1      37.925  21.384  24.972  1.00  0.00     0.002 C 
BRANCH  22  23
ATOM     23  C   UNL A   1      38.572  19.997  24.953  1.00  0.00     0.021 C 
BRANCH  23  24
ATOM     24  C   UNL A   1      39.325  19.627  26.222  1.00  0.00     0.116 C 
BRANCH  24  25
ATOM     25  N   UNL A   1      40.570  18.942  25.933  1.00  0.00    -0.352 N 
ATOM     26  C   UNL A   1      41.850  19.432  25.932  1.00  0.00     0.251 C 
ATOM     27  H   UNL A   1      40.483  17.988  25.705  1.00  0.00     0.163 HD
ATOM     28  O   UNL A   1      42.761  18.760  25.462  1.00  0.00    -0.269 OA
BRANCH  26  29
ATOM     29  C   UNL A   1      42.133  20.774  26.484  1.00  0.00     0.039 A 
ATOM     30  C   UNL A   1      42.408  21.816  25.595  1.00  0.00     0.014 A 
ATOM     31  C   UNL A   1      42.168  21.004  27.864  1.00  0.00     0.014 A 
ATOM     32  C   UNL A   1      42.692  23.089  26.087  1.00  0.00     0.010 A 
ATOM     33  C   UNL A   1      42.374  22.292  28.351  1.00  0.00     0.010 A 
ATOM     34  C   UNL A   1      42.662  23.343  27.469  1.00  0.00    -0.014 A 
BRANCH  34  35
ATOM     35  C   UNL A   1      42.958  24.699  27.993  1.00  0.00     0.031 A 
ATOM     36  C   UNL A   1      44.379  25.121  28.247  1.00  0.00     0.074 A 
ATOM     37  C   UNL A   1      41.943  25.546  28.251  1.00  0.00     0.049 A 
ATOM     38  N   UNL A   1      44.835  26.274  28.669  1.00  0.00    -0.248 NA
ATOM     39  C   UNL A   1      45.424  24.111  28.025  1.00  0.00     0.031 C 
ATOM     40  C   UNL A   1      40.521  25.232  28.099  1.00  0.00     0.029 A 
ATOM     41  N   UNL A   1      41.953  26.845  28.688  1.00  0.00    -0.354 N 
ATOM     42  C   UNL A   1      46.212  26.124  28.766  1.00  0.00     0.074 A 
ATOM     43  C   UNL A   1      46.513  24.753  28.421  1.00  0.00     0.031 C 
ATOM     44  C   UNL A   1      39.797  26.322  28.400  1.00  0.00     0.029 A 
ATOM     45  C   UNL A   1      40.700  27.400  28.791  1.00  0.00     0.049 A 
ATOM     46  H   UNL A   1      42.778  27.335  28.907  1.00  0.00     0.167 HD
ATOM     47  C   UNL A   1      47.146  27.052  29.088  1.00  0.00     0.037 A 
ATOM     48  C   UNL A   1      40.325  28.642  29.146  1.00  0.00     0.037 A 
ATOM     49  C   UNL A   1      46.844  28.422  29.409  1.00  0.00     0.049 A 
ATOM     50  C   UNL A   1      41.381  29.660  29.474  1.00  0.00     0.074 A 
ATOM     51  C   UNL A   1      47.720  29.453  29.701  1.00  0.00     0.029 A 
ATOM     52  N   UNL A   1      45.565  28.951  29.482  1.00  0.00    -0.354 N 
ATOM     53  N   UNL A   1      42.685  29.524  29.492  1.00  0.00    -0.248 NA
ATOM     54  C   UNL A   1      40.912  31.010  29.816  1.00  0.00     0.031 C 
ATOM     55  C   UNL A   1      46.968  30.597  29.988  1.00  0.00     0.029 A 
ATOM     56  C   UNL A   1      45.626  30.292  29.827  1.00  0.00     0.049 A 
ATOM     57  H   UNL A   1      44.735  28.449  29.314  1.00  0.00     0.167 HD
ATOM     58  C   UNL A   1      43.194  30.775  29.815  1.00  0.00     0.074 A 
ATOM     59  C   UNL A   1      42.057  31.661  29.968  1.00  0.00     0.031 C 
ATOM     60  C   UNL A   1      44.484  31.159  29.969  1.00  0.00     0.037 A 
BRANCH  47  61
ATOM     61  C   UNL A   1      48.582  26.612  29.097  1.00  0.00     0.057 A 
ATOM     62  C   UNL A   1      49.369  26.634  27.937  1.00  0.00     0.134 A 
ATOM     63  C   UNL A   1      49.195  26.187  30.283  1.00  0.00     0.134 A 
ATOM     64  F   UNL A   1      48.842  27.018  26.765  1.00  0.00    -0.206 F 
ATOM     65  C   UNL A   1      50.703  26.224  27.951  1.00  0.00     0.040 A 
ATOM     66  C   UNL A   1      50.536  25.802  30.314  1.00  0.00     0.040 A 
ATOM     67  F   UNL A   1      48.502  26.146  31.430  1.00  0.00    -0.206 F 
ATOM     68  C   UNL A   1      51.292  25.813  29.144  1.00  0.00     0.006 A 
ENDBRANCH  47  61
BRANCH  48  69
ATOM     69  C   UNL A   1      38.886  29.007  29.163  1.00  0.00     0.057 A 
ATOM     70  C   UNL A   1      38.116  28.853  30.321  1.00  0.00     0.134 A 
ATOM     71  C   UNL A   1      38.246  29.514  28.026  1.00  0.00     0.134 A 
ATOM     72  F   UNL A   1      38.668  28.357  31.438  1.00  0.00    -0.206 F 
ATOM     73  C   UNL A   1      36.755  29.167  30.343  1.00  0.00     0.040 A 
ATOM     74  C   UNL A   1      36.894  29.856  28.040  1.00  0.00     0.040 A 
ATOM     75  F   UNL A   1      38.932  29.696  26.888  1.00  0.00    -0.206 F 
ATOM     76  C   UNL A   1      36.142  29.675  29.200  1.00  0.00     0.006 A 
ENDBRANCH  48  69
BRANCH  60  77
ATOM     77  C   UNL A   1      44.733  32.606  30.281  1.00  0.00     0.057 A 
ATOM     78  C   UNL A   1      44.877  33.569  29.274  1.00  0.00     0.134 A 
ATOM     79  C   UNL A   1      44.815  33.042  31.609  1.00  0.00     0.134 A 
ATOM     80  F   UNL A   1      44.820  33.214  27.981  1.00  0.00    -0.206 F 
ATOM     81  C   UNL A   1      45.129  34.908  29.577  1.00  0.00     0.040 A 
ATOM     82  C   UNL A   1      45.039  34.382  31.925  1.00  0.00     0.040 A 
ATOM     83  F   UNL A   1      44.676  32.174  32.623  1.00  0.00    -0.206 F 
ATOM     84  C   UNL A   1      45.207  35.318  30.906  1.00  0.00     0.006 A 
ENDBRANCH  60  77
ENDBRANCH  34  35
ENDBRANCH  26  29
ENDBRANCH  24  25
ENDBRANCH  23  24
ENDBRANCH  22  23
ENDBRANCH   1  22
TORSDOF 17
ENDMDL
MODEL 3
REMARK VINA RESULT:     -10.0      3.886      9.070
REMARK SMILES CCN(CC(=O)NCCCCCCNC(=O)c1ccc(-c2c3nc(c(-c4c(F)cccc4F)c4ccc([nH]4)c(-c4c(F)cccc4F)c4nc(c(-c5c(F)cccc5F)c5ccc2[nH]5)C=C4)C=C3)cc1)C(=O)[C@@H]1CC[NH2+][C@@H]1C
REMARK SMILES IDX 10 1 9 2 8 3 7 4 5 5 6 6 4 8 3 9 2 10 1 11 71 12 72 13 73 14
REMARK SMILES IDX 74 15 77 16 75 17 76 18 78 19 11 22 12 23 13 24 14 25 15 26
REMARK SMILES IDX 16 28 17 29 18 30 70 31 19 32 69 33 20 34 21 35 22 36 63 37
REMARK SMILES IDX 23 38 68 39 62 40 64 41 24 42 67 43 61 44 60 45 25 47 51 48
REMARK SMILES IDX 34 49 50 50 35 51 38 52 49 53 65 54 36 55 37 56 48 58 66 59
REMARK SMILES IDX 39 60 26 61 27 62 32 63 28 64 29 65 31 66 33 67 30 68 52 69
REMARK SMILES IDX 53 70 58 71 54 72 55 73 57 74 59 75 56 76 40 77 41 78 46 79
REMARK SMILES IDX 42 80 43 81 45 82 47 83 44 84
REMARK H PARENT 7 7 76 20 76 21 14 27 64 46 38 57
REMARK Flexibility Score: inf
ROOT
ATOM      1  C   UNL A   1      30.322  30.044  24.064  1.00  0.00     0.002 C 
ENDROOT
BRANCH   1   2
ATOM      2  C   UNL A   1      30.774  28.974  23.064  1.00  0.00     0.021 C 
BRANCH   2   3
ATOM      3  C   UNL A   1      32.283  28.756  23.015  1.00  0.00     0.116 C 
BRANCH   3   4
ATOM      4  N   UNL A   1      32.665  27.797  22.008  1.00  0.00    -0.355 N 
ATOM      5  C   UNL A   1      33.249  26.578  22.164  1.00  0.00     0.239 C 
ATOM      6  O   UNL A   1      33.338  25.853  21.172  1.00  0.00    -0.273 OA
ATOM      7  H   UNL A   1      32.478  28.061  21.078  1.00  0.00     0.163 HD
BRANCH   5   8
ATOM      8  C   UNL A   1      33.669  26.089  23.553  1.00  0.00     0.219 C 
BRANCH   8   9
ATOM      9  N   UNL A   1      33.616  24.644  23.811  1.00  0.00    -0.333 N 
BRANCH   9  10
ATOM     10  C   UNL A   1      34.917  23.970  23.983  1.00  0.00     0.116 C 
ATOM     11  C   UNL A   1      35.499  24.093  25.386  1.00  0.00     0.027 C 
ENDBRANCH   9  10
BRANCH   9  12
ATOM     12  C   UNL A   1      32.494  23.875  24.067  1.00  0.00     0.232 C 
ATOM     13  O   UNL A   1      32.057  23.159  23.148  1.00  0.00    -0.274 OA
BRANCH  12  14
ATOM     14  C   UNL A   1      31.633  23.902  25.335  1.00  0.00     0.142 C 
ATOM     15  C   UNL A   1      30.950  22.590  25.683  1.00  0.00     0.081 C 
ATOM     16  C   UNL A   1      30.699  25.007  25.851  1.00  0.00     0.192 C 
ATOM     17  C   UNL A   1      30.169  22.960  26.927  1.00  0.00     0.261 C 
ATOM     18  N   UNL A   1      29.657  24.306  26.647  1.00  0.00    -0.343 N 
ATOM     19  C   UNL A   1      30.028  25.991  24.915  1.00  0.00     0.076 C 
ATOM     20  H   UNL A   1      29.486  24.805  27.520  1.00  0.00     0.346 HD
ATOM     21  H   UNL A   1      28.774  24.262  26.137  1.00  0.00     0.346 HD
ENDBRANCH  12  14
ENDBRANCH   9  12
ENDBRANCH   8   9
ENDBRANCH   5   8
ENDBRANCH   3   4
ENDBRANCH   2   3
ENDBRANCH   1   2
BRANCH   1  22
ATOM     22  C   UNL A   1      31.269  30.281  25.246  1.00  0.00     0.002 C 
BRANCH  22  23
ATOM     23  C   UNL A   1      31.026  31.568  26.039  1.00  0.00     0.021 C 
BRANCH  23  24
ATOM     24  C   UNL A   1      32.210  32.038  26.871  1.00  0.00     0.116 C 
BRANCH  24  25
ATOM     25  N   UNL A   1      32.103  33.441  27.221  1.00  0.00    -0.352 N 
ATOM     26  C   UNL A   1      32.877  34.183  28.074  1.00  0.00     0.251 C 
ATOM     27  H   UNL A   1      31.370  33.930  26.782  1.00  0.00     0.163 HD
ATOM     28  O   UNL A   1      32.515  35.306  28.407  1.00  0.00    -0.269 OA
BRANCH  26  29
ATOM     29  C   UNL A   1      34.141  33.629  28.606  1.00  0.00     0.039 A 
ATOM     30  C   UNL A   1      34.080  32.758  29.696  1.00  0.00     0.014 A 
ATOM     31  C   UNL A   1      35.380  33.988  28.066  1.00  0.00     0.014 A 
ATOM     32  C   UNL A   1      35.257  32.231  30.227  1.00  0.00     0.010 A 
ATOM     33  C   UNL A   1      36.547  33.400  28.546  1.00  0.00     0.010 A 
ATOM     34  C   UNL A   1      36.499  32.534  29.646  1.00  0.00    -0.014 A 
BRANCH  34  35
ATOM     35  C   UNL A   1      37.751  31.967  30.207  1.00  0.00     0.031 A 
ATOM     36  C   UNL A   1      38.350  32.543  31.461  1.00  0.00     0.074 A 
ATOM     37  C   UNL A   1      38.354  30.941  29.578  1.00  0.00     0.049 A 
ATOM     38  N   UNL A   1      39.416  32.160  32.119  1.00  0.00    -0.248 NA
ATOM     39  C   UNL A   1      37.681  33.718  32.041  1.00  0.00     0.031 C 
ATOM     40  C   UNL A   1      37.901  30.335  28.324  1.00  0.00     0.029 A 
ATOM     41  N   UNL A   1      39.473  30.222  29.910  1.00  0.00    -0.354 N 
ATOM     42  C   UNL A   1      39.545  33.047  33.179  1.00  0.00     0.074 A 
ATOM     43  C   UNL A   1      38.489  34.024  33.044  1.00  0.00     0.031 C 
ATOM     44  C   UNL A   1      38.713  29.312  28.014  1.00  0.00     0.029 A 
ATOM     45  C   UNL A   1      39.756  29.206  29.030  1.00  0.00     0.049 A 
ATOM     46  H   UNL A   1      40.023  30.416  30.704  1.00  0.00     0.167 HD
ATOM     47  C   UNL A   1      40.447  33.033  34.191  1.00  0.00     0.037 A 
ATOM     48  C   UNL A   1      40.736  28.285  29.050  1.00  0.00     0.037 A 
ATOM     49  C   UNL A   1      41.484  32.045  34.334  1.00  0.00     0.049 A 
ATOM     50  C   UNL A   1      41.709  28.276  30.195  1.00  0.00     0.074 A 
ATOM     51  C   UNL A   1      42.417  31.913  35.348  1.00  0.00     0.029 A 
ATOM     52  N   UNL A   1      41.724  31.018  33.433  1.00  0.00    -0.354 N 
ATOM     53  N   UNL A   1      41.776  29.077  31.231  1.00  0.00    -0.248 NA
ATOM     54  C   UNL A   1      42.734  27.222  30.183  1.00  0.00     0.031 C 
ATOM     55  C   UNL A   1      43.246  30.829  35.040  1.00  0.00     0.029 A 
ATOM     56  C   UNL A   1      42.799  30.256  33.861  1.00  0.00     0.049 A 
ATOM     57  H   UNL A   1      41.208  30.855  32.611  1.00  0.00     0.167 HD
ATOM     58  C   UNL A   1      42.827  28.607  32.008  1.00  0.00     0.074 A 
ATOM     59  C   UNL A   1      43.357  27.440  31.332  1.00  0.00     0.031 C 
ATOM     60  C   UNL A   1      43.309  29.094  33.178  1.00  0.00     0.037 A 
BRANCH  47  61
ATOM     61  C   UNL A   1      40.341  34.117  35.225  1.00  0.00     0.057 A 
ATOM     62  C   UNL A   1      39.644  33.927  36.427  1.00  0.00     0.134 A 
ATOM     63  C   UNL A   1      40.966  35.356  35.032  1.00  0.00     0.134 A 
ATOM     64  F   UNL A   1      39.012  32.769  36.669  1.00  0.00    -0.206 F 
ATOM     65  C   UNL A   1      39.548  34.938  37.384  1.00  0.00     0.040 A 
ATOM     66  C   UNL A   1      40.900  36.364  35.995  1.00  0.00     0.040 A 
ATOM     67  F   UNL A   1      41.653  35.604  33.908  1.00  0.00    -0.206 F 
ATOM     68  C   UNL A   1      40.184  36.159  37.173  1.00  0.00     0.006 A 
ENDBRANCH  47  61
BRANCH  48  69
ATOM     69  C   UNL A   1      40.818  27.264  27.974  1.00  0.00     0.057 A 
ATOM     70  C   UNL A   1      41.622  27.468  26.846  1.00  0.00     0.134 A 
ATOM     71  C   UNL A   1      40.097  26.068  28.045  1.00  0.00     0.134 A 
ATOM     72  F   UNL A   1      42.325  28.602  26.713  1.00  0.00    -0.206 F 
ATOM     73  C   UNL A   1      41.687  26.528  25.816  1.00  0.00     0.040 A 
ATOM     74  C   UNL A   1      40.172  25.108  27.035  1.00  0.00     0.040 A 
ATOM     75  F   UNL A   1      39.318  25.808  29.106  1.00  0.00    -0.206 F 
ATOM     76  C   UNL A   1      40.964  25.342  25.911  1.00  0.00     0.006 A 
ENDBRANCH  48  69
BRANCH  60  77
ATOM     77  C   UNL A   1      44.440  28.341  33.815  1.00  0.00     0.057 A 
ATOM     78  C   UNL A   1      44.220  27.244  34.658  1.00  0.00     0.134 A 
ATOM     79  C   UNL A   1      45.768  28.713  33.570  1.00  0.00     0.134 A 
ATOM     80  F   UNL A   1      42.971  26.846  34.943  1.00  0.00    -0.206 F 
ATOM     81  C   UNL A   1      45.280  26.566  35.262  1.00  0.00     0.040 A 
ATOM     82  C   UNL A   1      46.836  28.025  34.145  1.00  0.00     0.040 A 
ATOM     83  F   UNL A   1      46.050  29.748  32.763  1.00  0.00    -0.206 F 
ATOM     84  C   UNL A   1      46.593  26.954  35.003  1.00  0.00     0.006 A 
ENDBRANCH  60  77
ENDBRANCH  34  35
ENDBRANCH  26  29
ENDBRANCH  24  25
ENDBRANCH  23  24
ENDBRANCH  22  23
ENDBRANCH   1  22
TORSDOF 17
ENDMDL
