MODEL 1
REMARK VINA RESULT:     -10.4      0.000      0.000
REMARK SMILES CSC[C@H](C(=O)NCCCCCCNC(=O)c1ccc(-c2c3nc(c(-c4c(F)cccc4F)c4ccc([nH]4)c(-c4c(F)cccc4F)c4nc(c(-c5c(F)cccc5F)c5ccc2[nH]5)C=C4)C=C3)cc1)c1ccccc1
REMARK SMILES IDX 10 1 9 2 8 3 7 4 5 5 6 6 4 8 3 9 2 10 1 11 71 12 72 13 76 14
REMARK SMILES IDX 73 15 75 16 74 17 11 18 12 19 13 20 14 21 15 22 16 24 17 25
REMARK SMILES IDX 18 26 70 27 19 28 69 29 20 30 21 31 22 32 63 33 23 34 68 35
REMARK SMILES IDX 62 36 64 37 24 38 67 39 61 40 60 41 25 43 51 44 34 45 50 46
REMARK SMILES IDX 35 47 38 48 49 49 65 50 36 51 37 52 48 54 66 55 39 56 26 57
REMARK SMILES IDX 27 58 32 59 28 60 29 61 31 62 33 63 30 64 52 65 53 66 58 67
REMARK SMILES IDX 54 68 55 69 57 70 59 71 56 72 40 73 41 74 46 75 42 76 43 77
REMARK SMILES IDX 45 78 47 79 44 80
REMARK H PARENT 7 7 14 23 64 42 38 53
REMARK Flexibility Score: inf
ROOT
ATOM      1  C   UNL A   1      36.867  22.144  24.230  1.00  0.00     0.002 C 
ENDROOT
BRANCH   1   2
ATOM      2  C   UNL A   1      36.574  23.424  25.015  1.00  0.00     0.021 C 
BRANCH   2   3
ATOM      3  C   UNL A   1      35.236  24.061  24.673  1.00  0.00     0.116 C 
BRANCH   3   4
ATOM      4  N   UNL A   1      34.846  23.808  23.299  1.00  0.00    -0.356 N 
ATOM      5  C   UNL A   1      33.667  23.295  22.825  1.00  0.00     0.228 C 
ATOM      6  O   UNL A   1      33.465  23.344  21.610  1.00  0.00    -0.274 OA
ATOM      7  H   UNL A   1      35.518  24.036  22.616  1.00  0.00     0.163 HD
BRANCH   5   8
ATOM      8  C   UNL A   1      32.630  22.695  23.788  1.00  0.00     0.118 C 
BRANCH   8   9
ATOM      9  C   UNL A   1      31.248  23.308  23.436  1.00  0.00     0.087 C 
BRANCH   9  10
ATOM     10  S   UNL A   1      31.189  25.137  23.500  1.00  0.00    -0.164 SA
ATOM     11  C   UNL A   1      31.377  25.362  25.283  1.00  0.00     0.085 C 
ENDBRANCH   9  10
ENDBRANCH   8   9
BRANCH   8  12
ATOM     12  C   UNL A   1      32.674  21.154  23.834  1.00  0.00    -0.035 A 
ATOM     13  C   UNL A   1      32.239  20.374  22.744  1.00  0.00     0.004 A 
ATOM     14  C   UNL A   1      33.167  20.471  24.958  1.00  0.00     0.004 A 
ATOM     15  C   UNL A   1      32.152  18.982  22.835  1.00  0.00     0.000 A 
ATOM     16  C   UNL A   1      33.098  19.077  25.041  1.00  0.00     0.000 A 
ATOM     17  C   UNL A   1      32.563  18.335  23.994  1.00  0.00     0.000 A 
ENDBRANCH   8  12
ENDBRANCH   5   8
ENDBRANCH   3   4
ENDBRANCH   2   3
ENDBRANCH   1   2
BRANCH   1  18
ATOM     18  C   UNL A   1      36.664  20.837  25.005  1.00  0.00     0.002 C 
BRANCH  18  19
ATOM     19  C   UNL A   1      37.824  19.842  24.928  1.00  0.00     0.021 C 
BRANCH  19  20
ATOM     20  C   UNL A   1      39.036  20.211  25.771  1.00  0.00     0.116 C 
BRANCH  20  21
ATOM     21  N   UNL A   1      40.023  19.146  25.815  1.00  0.00    -0.352 N 
ATOM     22  C   UNL A   1      41.377  19.244  26.004  1.00  0.00     0.251 C 
ATOM     23  H   UNL A   1      39.673  18.234  25.692  1.00  0.00     0.163 HD
ATOM     24  O   UNL A   1      42.105  18.269  25.849  1.00  0.00    -0.269 OA
BRANCH  22  25
ATOM     25  C   UNL A   1      41.953  20.549  26.378  1.00  0.00     0.039 A 
ATOM     26  C   UNL A   1      42.303  21.452  25.372  1.00  0.00     0.014 A 
ATOM     27  C   UNL A   1      42.124  20.883  27.725  1.00  0.00     0.014 A 
ATOM     28  C   UNL A   1      42.785  22.715  25.718  1.00  0.00     0.010 A 
ATOM     29  C   UNL A   1      42.534  22.165  28.068  1.00  0.00     0.010 A 
ATOM     30  C   UNL A   1      42.881  23.088  27.068  1.00  0.00    -0.014 A 
BRANCH  30  31
ATOM     31  C   UNL A   1      43.383  24.423  27.475  1.00  0.00     0.031 A 
ATOM     32  C   UNL A   1      42.404  25.472  27.921  1.00  0.00     0.074 A 
ATOM     33  C   UNL A   1      44.692  24.715  27.364  1.00  0.00     0.049 A 
ATOM     34  N   UNL A   1      42.606  26.739  28.178  1.00  0.00    -0.248 NA
ATOM     35  C   UNL A   1      41.001  25.047  28.064  1.00  0.00     0.031 C 
ATOM     36  C   UNL A   1      45.734  23.788  26.916  1.00  0.00     0.029 A 
ATOM     37  N   UNL A   1      45.368  25.886  27.599  1.00  0.00    -0.354 N 
ATOM     38  C   UNL A   1      41.358  27.263  28.485  1.00  0.00     0.074 A 
ATOM     39  C   UNL A   1      40.397  26.192  28.335  1.00  0.00     0.031 C 
ATOM     40  C   UNL A   1      46.917  24.423  26.920  1.00  0.00     0.029 A 
ATOM     41  C   UNL A   1      46.712  25.811  27.325  1.00  0.00     0.049 A 
ATOM     42  H   UNL A   1      44.930  26.702  27.933  1.00  0.00     0.167 HD
ATOM     43  C   UNL A   1      41.043  28.520  28.878  1.00  0.00     0.037 A 
ATOM     44  C   UNL A   1      47.665  26.760  27.378  1.00  0.00     0.037 A 
ATOM     45  C   UNL A   1      42.009  29.570  29.057  1.00  0.00     0.049 A 
ATOM     46  C   UNL A   1      47.290  28.153  27.808  1.00  0.00     0.074 A 
ATOM     47  C   UNL A   1      41.802  30.863  29.502  1.00  0.00     0.029 A 
ATOM     48  N   UNL A   1      43.366  29.444  28.802  1.00  0.00    -0.354 N 
ATOM     49  N   UNL A   1      46.113  28.625  28.143  1.00  0.00    -0.248 NA
ATOM     50  C   UNL A   1      48.373  29.144  27.869  1.00  0.00     0.031 C 
ATOM     51  C   UNL A   1      43.029  31.534  29.474  1.00  0.00     0.029 A 
ATOM     52  C   UNL A   1      44.007  30.643  29.064  1.00  0.00     0.049 A 
ATOM     53  H   UNL A   1      43.808  28.625  28.481  1.00  0.00     0.167 HD
ATOM     54  C   UNL A   1      46.322  29.953  28.495  1.00  0.00     0.074 A 
ATOM     55  C   UNL A   1      47.737  30.212  28.331  1.00  0.00     0.031 C 
ATOM     56  C   UNL A   1      45.423  30.872  28.922  1.00  0.00     0.037 A 
BRANCH  43  57
ATOM     57  C   UNL A   1      39.597  28.824  29.139  1.00  0.00     0.057 A 
ATOM     58  C   UNL A   1      38.733  29.249  28.121  1.00  0.00     0.134 A 
ATOM     59  C   UNL A   1      39.054  28.662  30.420  1.00  0.00     0.134 A 
ATOM     60  F   UNL A   1      39.193  29.436  26.874  1.00  0.00    -0.206 F 
ATOM     61  C   UNL A   1      37.390  29.530  28.372  1.00  0.00     0.040 A 
ATOM     62  C   UNL A   1      37.704  28.911  30.677  1.00  0.00     0.040 A 
ATOM     63  F   UNL A   1      39.821  28.253  31.441  1.00  0.00    -0.206 F 
ATOM     64  C   UNL A   1      36.870  29.354  29.652  1.00  0.00     0.006 A 
ENDBRANCH  43  57
BRANCH  44  65
ATOM     65  C   UNL A   1      49.070  26.425  27.033  1.00  0.00     0.057 A 
ATOM     66  C   UNL A   1      49.529  26.513  25.714  1.00  0.00     0.134 A 
ATOM     67  C   UNL A   1      49.983  26.001  28.006  1.00  0.00     0.134 A 
ATOM     68  F   UNL A   1      48.697  26.896  24.735  1.00  0.00    -0.206 F 
ATOM     69  C   UNL A   1      50.839  26.174  25.371  1.00  0.00     0.040 A 
ATOM     70  C   UNL A   1      51.303  25.683  27.680  1.00  0.00     0.040 A 
ATOM     71  F   UNL A   1      49.609  25.903  29.291  1.00  0.00    -0.206 F 
ATOM     72  C   UNL A   1      51.732  25.761  26.357  1.00  0.00     0.006 A 
ENDBRANCH  44  65
BRANCH  56  73
ATOM     73  C   UNL A   1      45.940  32.226  29.306  1.00  0.00     0.057 A 
ATOM     74  C   UNL A   1      45.984  33.290  28.399  1.00  0.00     0.134 A 
ATOM     75  C   UNL A   1      46.326  32.484  30.629  1.00  0.00     0.134 A 
ATOM     76  F   UNL A   1      45.639  33.105  27.116  1.00  0.00    -0.206 F 
ATOM     77  C   UNL A   1      46.402  34.563  28.791  1.00  0.00     0.040 A 
ATOM     78  C   UNL A   1      46.720  33.757  31.038  1.00  0.00     0.040 A 
ATOM     79  F   UNL A   1      46.297  31.508  31.548  1.00  0.00    -0.206 F 
ATOM     80  C   UNL A   1      46.762  34.801  30.117  1.00  0.00     0.006 A 
ENDBRANCH  56  73
ENDBRANCH  30  31
ENDBRANCH  22  25
ENDBRANCH  20  21
ENDBRANCH  19  20
ENDBRANCH  18  19
ENDBRANCH   1  18
TORSDOF 16
ENDMDL
MODEL 2
REMARK VINA RESULT:     -10.3      1.588      6.509
REMARK SMILES CSC[C@H](C(=O)NCCCCCCNC(=O)c1ccc(-c2c3nc(c(-c4c(F)cccc4F)c4ccc([nH]4)c(-c4c(F)cccc4F)c4nc(c(-c5c(F)cccc5F)c5ccc2[nH]5)C=C4)C=C3)cc1)c1ccccc1
REMARK SMILES IDX 10 1 9 2 8 3 7 4 5 5 6 6 4 8 3 9 2 10 1 11 71 12 72 13 76 14
REMARK SMILES IDX 73 15 75 16 74 17 11 18 12 19 13 20 14 21 15 22 16 24 17 25
REMARK SMILES IDX 18 26 70 27 19 28 69 29 20 30 21 31 22 32 63 33 23 34 68 35
REMARK SMILES IDX 62 36 64 37 24 38 67 39 61 40 60 41 25 43 51 44 34 45 50 46
REMARK SMILES IDX 35 47 38 48 49 49 65 50 36 51 37 52 48 54 66 55 39 56 26 57
REMARK SMILES IDX 27 58 32 59 28 60 29 61 31 62 33 63 30 64 52 65 53 66 58 67
REMARK SMILES IDX 54 68 55 69 57 70 59 71 56 72 40 73 41 74 46 75 42 76 43 77
REMARK SMILES IDX 45 78 47 79 44 80
REMARK H PARENT 7 7 14 23 64 42 38 53
REMARK Flexibility Score: inf
ROOT
ATOM      1  C   UNL A   1      37.161  21.856  24.092  1.00  0.00     0.002 C 
ENDROOT
BRANCH   1   2
ATOM      2  C   UNL A   1      36.762  23.132  24.835  1.00  0.00     0.021 C 
BRANCH   2   3
ATOM      3  C   UNL A   1      35.267  23.259  25.080  1.00  0.00     0.116 C 
BRANCH   3   4
ATOM      4  N   UNL A   1      34.500  23.121  23.856  1.00  0.00    -0.356 N 
ATOM      5  C   UNL A   1      33.416  22.319  23.611  1.00  0.00     0.228 C 
ATOM      6  O   UNL A   1      32.792  22.498  22.563  1.00  0.00    -0.274 OA
ATOM      7  H   UNL A   1      34.797  23.679  23.102  1.00  0.00     0.163 HD
BRANCH   5   8
ATOM      8  C   UNL A   1      32.993  21.243  24.624  1.00  0.00     0.118 C 
BRANCH   8   9
ATOM      9  C   UNL A   1      31.558  21.586  25.105  1.00  0.00     0.087 C 
BRANCH   9  10
ATOM     10  S   UNL A   1      31.362  23.282  25.766  1.00  0.00    -0.164 SA
ATOM     11  C   UNL A   1      30.055  22.965  26.972  1.00  0.00     0.085 C 
ENDBRANCH   9  10
ENDBRANCH   8   9
BRANCH   8  12
ATOM     12  C   UNL A   1      33.184  19.808  24.092  1.00  0.00    -0.035 A 
ATOM     13  C   UNL A   1      32.341  19.276  23.096  1.00  0.00     0.004 A 
ATOM     14  C   UNL A   1      34.217  18.984  24.567  1.00  0.00     0.004 A 
ATOM     15  C   UNL A   1      32.426  17.935  22.710  1.00  0.00     0.000 A 
ATOM     16  C   UNL A   1      34.316  17.648  24.167  1.00  0.00     0.000 A 
ATOM     17  C   UNL A   1      33.403  17.115  23.263  1.00  0.00     0.000 A 
ENDBRANCH   8  12
ENDBRANCH   5   8
ENDBRANCH   3   4
ENDBRANCH   2   3
ENDBRANCH   1   2
BRANCH   1  18
ATOM     18  C   UNL A   1      36.987  20.555  24.883  1.00  0.00     0.002 C 
BRANCH  18  19
ATOM     19  C   UNL A   1      38.209  19.635  24.911  1.00  0.00     0.021 C 
BRANCH  19  20
ATOM     20  C   UNL A   1      39.266  20.014  25.938  1.00  0.00     0.116 C 
BRANCH  20  21
ATOM     21  N   UNL A   1      40.430  19.147  25.877  1.00  0.00    -0.352 N 
ATOM     22  C   UNL A   1      41.749  19.476  26.050  1.00  0.00     0.251 C 
ATOM     23  H   UNL A   1      40.247  18.198  25.685  1.00  0.00     0.163 HD
ATOM     24  O   UNL A   1      42.636  18.666  25.803  1.00  0.00    -0.269 OA
BRANCH  22  25
ATOM     25  C   UNL A   1      42.091  20.831  26.522  1.00  0.00     0.039 A 
ATOM     26  C   UNL A   1      42.472  21.799  25.589  1.00  0.00     0.014 A 
ATOM     27  C   UNL A   1      42.013  21.144  27.882  1.00  0.00     0.014 A 
ATOM     28  C   UNL A   1      42.732  23.101  26.018  1.00  0.00     0.010 A 
ATOM     29  C   UNL A   1      42.200  22.456  28.296  1.00  0.00     0.010 A 
ATOM     30  C   UNL A   1      42.573  23.444  27.370  1.00  0.00    -0.014 A 
BRANCH  30  31
ATOM     31  C   UNL A   1      42.835  24.819  27.862  1.00  0.00     0.031 A 
ATOM     32  C   UNL A   1      44.230  25.200  28.270  1.00  0.00     0.074 A 
ATOM     33  C   UNL A   1      41.817  25.685  28.019  1.00  0.00     0.049 A 
ATOM     34  N   UNL A   1      44.653  26.289  28.859  1.00  0.00    -0.248 NA
ATOM     35  C   UNL A   1      45.287  24.208  28.011  1.00  0.00     0.031 C 
ATOM     36  C   UNL A   1      40.417  25.420  27.685  1.00  0.00     0.029 A 
ATOM     37  N   UNL A   1      41.803  26.962  28.523  1.00  0.00    -0.354 N 
ATOM     38  C   UNL A   1      46.013  26.101  29.064  1.00  0.00     0.074 A 
ATOM     39  C   UNL A   1      46.338  24.775  28.582  1.00  0.00     0.031 C 
ATOM     40  C   UNL A   1      39.682  26.504  27.982  1.00  0.00     0.029 A 
ATOM     41  C   UNL A   1      40.549  27.522  28.569  1.00  0.00     0.049 A 
ATOM     42  H   UNL A   1      42.615  27.431  28.823  1.00  0.00     0.167 HD
ATOM     43  C   UNL A   1      46.916  26.963  29.587  1.00  0.00     0.037 A 
ATOM     44  C   UNL A   1      40.146  28.713  29.049  1.00  0.00     0.037 A 
ATOM     45  C   UNL A   1      46.592  28.292  30.032  1.00  0.00     0.049 A 
ATOM     46  C   UNL A   1      41.165  29.652  29.636  1.00  0.00     0.074 A 
ATOM     47  C   UNL A   1      47.441  29.264  30.530  1.00  0.00     0.029 A 
ATOM     48  N   UNL A   1      45.315  28.833  30.032  1.00  0.00    -0.354 N 
ATOM     49  N   UNL A   1      42.458  29.481  29.779  1.00  0.00    -0.248 NA
ATOM     50  C   UNL A   1      40.673  30.947  30.124  1.00  0.00     0.031 C 
ATOM     51  C   UNL A   1      46.670  30.380  30.870  1.00  0.00     0.029 A 
ATOM     52  C   UNL A   1      45.351  30.122  30.535  1.00  0.00     0.049 A 
ATOM     53  H   UNL A   1      44.505  28.370  29.719  1.00  0.00     0.167 HD
ATOM     54  C   UNL A   1      42.937  30.662  30.334  1.00  0.00     0.074 A 
ATOM     55  C   UNL A   1      41.798  31.538  30.502  1.00  0.00     0.031 C 
ATOM     56  C   UNL A   1      44.209  30.990  30.667  1.00  0.00     0.037 A 
BRANCH  43  57
ATOM     57  C   UNL A   1      48.337  26.494  29.705  1.00  0.00     0.057 A 
ATOM     58  C   UNL A   1      49.284  26.739  28.702  1.00  0.00     0.134 A 
ATOM     59  C   UNL A   1      48.771  25.813  30.849  1.00  0.00     0.134 A 
ATOM     60  F   UNL A   1      48.931  27.376  27.574  1.00  0.00    -0.206 F 
ATOM     61  C   UNL A   1      50.603  26.300  28.819  1.00  0.00     0.040 A 
ATOM     62  C   UNL A   1      50.095  25.395  30.992  1.00  0.00     0.040 A 
ATOM     63  F   UNL A   1      47.918  25.550  31.851  1.00  0.00    -0.206 F 
ATOM     64  C   UNL A   1      51.014  25.631  29.971  1.00  0.00     0.006 A 
ENDBRANCH  43  57
BRANCH  44  65
ATOM     65  C   UNL A   1      38.712  29.096  28.979  1.00  0.00     0.057 A 
ATOM     66  C   UNL A   1      38.159  29.606  27.799  1.00  0.00     0.134 A 
ATOM     67  C   UNL A   1      37.865  28.972  30.086  1.00  0.00     0.134 A 
ATOM     68  F   UNL A   1      38.924  29.766  26.710  1.00  0.00    -0.206 F 
ATOM     69  C   UNL A   1      36.821  29.997  27.727  1.00  0.00     0.040 A 
ATOM     70  C   UNL A   1      36.518  29.335  30.021  1.00  0.00     0.040 A 
ATOM     71  F   UNL A   1      38.330  28.481  31.245  1.00  0.00    -0.206 F 
ATOM     72  C   UNL A   1      35.995  29.857  28.840  1.00  0.00     0.006 A 
ENDBRANCH  44  65
BRANCH  56  73
ATOM     73  C   UNL A   1      44.456  32.375  31.187  1.00  0.00     0.057 A 
ATOM     74  C   UNL A   1      44.482  32.662  32.556  1.00  0.00     0.134 A 
ATOM     75  C   UNL A   1      44.751  33.419  30.299  1.00  0.00     0.134 A 
ATOM     76  F   UNL A   1      44.197  31.709  33.457  1.00  0.00    -0.206 F 
ATOM     77  C   UNL A   1      44.784  33.942  33.025  1.00  0.00     0.040 A 
ATOM     78  C   UNL A   1      45.079  34.694  30.757  1.00  0.00     0.040 A 
ATOM     79  F   UNL A   1      44.752  33.206  28.975  1.00  0.00    -0.206 F 
ATOM     80  C   UNL A   1      45.094  34.960  32.124  1.00  0.00     0.006 A 
ENDBRANCH  56  73
ENDBRANCH  30  31
ENDBRANCH  22  25
ENDBRANCH  20  21
ENDBRANCH  19  20
ENDBRANCH  18  19
ENDBRANCH   1  18
TORSDOF 16
ENDMDL
MODEL 3
REMARK VINA RESULT:     -10.3      5.803     10.788
REMARK SMILES CSC[C@H](C(=O)NCCCCCCNC(=O)c1ccc(-c2c3nc(c(-c4c(F)cccc4F)c4ccc([nH]4)c(-c4c(F)cccc4F)c4nc(c(-c5c(F)cccc5F)c5ccc2[nH]5)C=C4)C=C3)cc1)c1ccccc1
REMARK SMILES IDX 10 1 9 2 8 3 7 4 5 5 6 6 4 8 3 9 2 10 1 11 71 12 72 13 76 14
REMARK SMILES IDX 73 15 75 16 74 17 11 18 12 19 13 20 14 21 15 22 16 24 17 25
REMARK SMILES IDX 18 26 70 27 19 28 69 29 20 30 21 31 22 32 63 33 23 34 68 35
REMARK SMILES IDX 62 36 64 37 24 38 67 39 61 40 60 41 25 43 51 44 34 45 50 46
REMARK SMILES IDX 35 47 38 48 49 49 65 50 36 51 37 52 48 54 66 55 39 56 26 57
REMARK SMILES IDX 27 58 32 59 28 60 29 61 31 62 33 63 30 64 52 65 53 66 58 67
REMARK SMILES IDX 54 68 55 69 57 70 59 71 56 72 40 73 41 74 46 75 42 76 43 77
REMARK SMILES IDX 45 78 47 79 44 80
REMARK H PARENT 7 7 14 23 64 42 38 53
REMARK Flexibility Score: inf
ROOT
ATOM      1  C   UNL A   1      32.448  29.962  26.786  1.00  0.00     0.002 C 
ENDROOT
BRANCH   1   2
ATOM      2  C   UNL A   1      31.921  28.679  27.431  1.00  0.00     0.021 C 
BRANCH   2   3
ATOM      3  C   UNL A   1      32.242  27.418  26.643  1.00  0.00     0.116 C 
BRANCH   3   4
ATOM      4  N   UNL A   1      31.056  26.627  26.371  1.00  0.00    -0.356 N 
ATOM      5  C   UNL A   1      30.414  26.432  25.177  1.00  0.00     0.228 C 
ATOM      6  O   UNL A   1      29.538  25.566  25.129  1.00  0.00    -0.274 OA
ATOM      7  H   UNL A   1      30.661  26.171  27.148  1.00  0.00     0.163 HD
BRANCH   5   8
ATOM      8  C   UNL A   1      30.793  27.260  23.938  1.00  0.00     0.118 C 
BRANCH   8   9
ATOM      9  C   UNL A   1      31.244  26.273  22.829  1.00  0.00     0.087 C 
BRANCH   9  10
ATOM     10  S   UNL A   1      33.027  26.354  22.419  1.00  0.00    -0.164 SA
ATOM     11  C   UNL A   1      33.674  25.356  23.779  1.00  0.00     0.085 C 
ENDBRANCH   9  10
ENDBRANCH   8   9
BRANCH   8  12
ATOM     12  C   UNL A   1      29.692  28.258  23.523  1.00  0.00    -0.035 A 
ATOM     13  C   UNL A   1      29.991  29.607  23.246  1.00  0.00     0.004 A 
ATOM     14  C   UNL A   1      28.354  27.855  23.389  1.00  0.00     0.004 A 
ATOM     15  C   UNL A   1      28.979  30.540  23.002  1.00  0.00     0.000 A 
ATOM     16  C   UNL A   1      27.344  28.785  23.126  1.00  0.00     0.000 A 
ATOM     17  C   UNL A   1      27.652  30.131  22.963  1.00  0.00     0.000 A 
ENDBRANCH   8  12
ENDBRANCH   5   8
ENDBRANCH   3   4
ENDBRANCH   2   3
ENDBRANCH   1   2
BRANCH   1  18
ATOM     18  C   UNL A   1      31.403  30.793  26.032  1.00  0.00     0.002 C 
BRANCH  18  19
ATOM     19  C   UNL A   1      31.296  32.259  26.460  1.00  0.00     0.021 C 
BRANCH  19  20
ATOM     20  C   UNL A   1      32.485  32.776  27.257  1.00  0.00     0.116 C 
BRANCH  20  21
ATOM     21  N   UNL A   1      32.326  34.167  27.644  1.00  0.00    -0.352 N 
ATOM     22  C   UNL A   1      33.023  34.875  28.588  1.00  0.00     0.251 C 
ATOM     23  H   UNL A   1      31.624  34.666  27.166  1.00  0.00     0.163 HD
ATOM     24  O   UNL A   1      32.662  35.998  28.923  1.00  0.00    -0.269 OA
BRANCH  22  25
ATOM     25  C   UNL A   1      34.207  34.257  29.215  1.00  0.00     0.039 A 
ATOM     26  C   UNL A   1      35.478  34.587  28.738  1.00  0.00     0.014 A 
ATOM     27  C   UNL A   1      34.055  33.371  30.285  1.00  0.00     0.014 A 
ATOM     28  C   UNL A   1      36.606  34.060  29.368  1.00  0.00     0.010 A 
ATOM     29  C   UNL A   1      35.179  32.907  30.956  1.00  0.00     0.010 A 
ATOM     30  C   UNL A   1      36.465  33.237  30.496  1.00  0.00    -0.014 A 
BRANCH  30  31
ATOM     31  C   UNL A   1      37.640  32.663  31.195  1.00  0.00     0.031 A 
ATOM     32  C   UNL A   1      38.330  31.463  30.609  1.00  0.00     0.074 A 
ATOM     33  C   UNL A   1      38.031  33.162  32.382  1.00  0.00     0.049 A 
ATOM     34  N   UNL A   1      39.275  30.718  31.122  1.00  0.00    -0.248 NA
ATOM     35  C   UNL A   1      37.870  31.021  29.282  1.00  0.00     0.031 C 
ATOM     36  C   UNL A   1      37.422  34.306  33.064  1.00  0.00     0.029 A 
ATOM     37  N   UNL A   1      39.023  32.754  33.238  1.00  0.00    -0.354 N 
ATOM     38  C   UNL A   1      39.501  29.709  30.195  1.00  0.00     0.074 A 
ATOM     39  C   UNL A   1      38.563  29.906  29.112  1.00  0.00     0.031 C 
ATOM     40  C   UNL A   1      38.061  34.515  34.226  1.00  0.00     0.029 A 
ATOM     41  C   UNL A   1      39.091  33.493  34.394  1.00  0.00     0.049 A 
ATOM     42  H   UNL A   1      39.627  32.002  33.042  1.00  0.00     0.167 HD
ATOM     43  C   UNL A   1      40.424  28.719  30.234  1.00  0.00     0.037 A 
ATOM     44  C   UNL A   1      39.884  33.350  35.472  1.00  0.00     0.037 A 
ATOM     45  C   UNL A   1      41.376  28.549  31.298  1.00  0.00     0.049 A 
ATOM     46  C   UNL A   1      40.895  32.236  35.498  1.00  0.00     0.074 A 
ATOM     47  C   UNL A   1      42.386  27.611  31.408  1.00  0.00     0.029 A 
ATOM     48  N   UNL A   1      41.434  29.340  32.436  1.00  0.00    -0.354 N 
ATOM     49  N   UNL A   1      41.133  31.316  34.593  1.00  0.00    -0.248 NA
ATOM     50  C   UNL A   1      41.749  32.139  36.689  1.00  0.00     0.031 C 
ATOM     51  C   UNL A   1      43.028  27.807  32.634  1.00  0.00     0.029 A 
ATOM     52  C   UNL A   1      42.454  28.901  33.262  1.00  0.00     0.049 A 
ATOM     53  H   UNL A   1      40.839  30.101  32.627  1.00  0.00     0.167 HD
ATOM     54  C   UNL A   1      42.189  30.561  35.087  1.00  0.00     0.074 A 
ATOM     55  C   UNL A   1      42.545  31.128  36.370  1.00  0.00     0.031 C 
ATOM     56  C   UNL A   1      42.812  29.497  34.524  1.00  0.00     0.037 A 
BRANCH  43  57
ATOM     57  C   UNL A   1      40.444  27.745  29.092  1.00  0.00     0.057 A 
ATOM     58  C   UNL A   1      41.267  27.931  27.972  1.00  0.00     0.134 A 
ATOM     59  C   UNL A   1      39.652  26.590  29.125  1.00  0.00     0.134 A 
ATOM     60  F   UNL A   1      42.041  29.023  27.873  1.00  0.00    -0.206 F 
ATOM     61  C   UNL A   1      41.280  27.021  26.915  1.00  0.00     0.040 A 
ATOM     62  C   UNL A   1      39.678  25.657  28.087  1.00  0.00     0.040 A 
ATOM     63  F   UNL A   1      38.845  26.345  30.168  1.00  0.00    -0.206 F 
ATOM     64  C   UNL A   1      40.489  25.876  26.974  1.00  0.00     0.006 A 
ENDBRANCH  43  57
BRANCH  44  65
ATOM     65  C   UNL A   1      39.768  34.296  36.612  1.00  0.00     0.057 A 
ATOM     66  C   UNL A   1      39.045  33.956  37.761  1.00  0.00     0.134 A 
ATOM     67  C   UNL A   1      40.367  35.560  36.579  1.00  0.00     0.134 A 
ATOM     68  F   UNL A   1      38.433  32.766  37.845  1.00  0.00    -0.206 F 
ATOM     69  C   UNL A   1      38.904  34.845  38.827  1.00  0.00     0.040 A 
ATOM     70  C   UNL A   1      40.256  36.450  37.650  1.00  0.00     0.040 A 
ATOM     71  F   UNL A   1      41.083  35.946  35.511  1.00  0.00    -0.206 F 
ATOM     72  C   UNL A   1      39.515  36.096  38.775  1.00  0.00     0.006 A 
ENDBRANCH  44  65
BRANCH  56  73
ATOM     73  C   UNL A   1      43.983  28.910  35.252  1.00  0.00     0.057 A 
ATOM     74  C   UNL A   1      43.837  27.882  36.190  1.00  0.00     0.134 A 
ATOM     75  C   UNL A   1      45.285  29.332  34.948  1.00  0.00     0.134 A 
ATOM     76  F   UNL A   1      42.617  27.442  36.533  1.00  0.00    -0.206 F 
ATOM     77  C   UNL A   1      44.945  27.299  36.807  1.00  0.00     0.040 A 
ATOM     78  C   UNL A   1      46.401  28.739  35.539  1.00  0.00     0.040 A 
ATOM     79  F   UNL A   1      45.493  30.307  34.051  1.00  0.00    -0.206 F 
ATOM     80  C   UNL A   1      46.232  27.720  36.474  1.00  0.00     0.006 A 
ENDBRANCH  56  73
ENDBRANCH  30  31
ENDBRANCH  22  25
ENDBRANCH  20  21
ENDBRANCH  19  20
ENDBRANCH  18  19
ENDBRANCH   1  18
TORSDOF 16
ENDMDL
