MODEL 1
REMARK VINA RESULT:     -11.2      0.000      0.000
REMARK SMILES CCc1cccc(CC)c1NC(=O)C[C@@](C)(C(=O)NCCCCCCNC(=O)c1ccc(-c2c3nc(c(-c4c(F)cccc4F)c4ccc([nH]4)c(-c4c(F)cccc4F)c4nc(c(-c5c(F)cccc5F)c5ccc2[nH]5)C=C4)C=C3)cc1)c1ccccc1
REMARK SMILES IDX 21 1 20 2 19 3 17 4 18 5 15 7 16 8 14 9 12 10 11 11 13 13
REMARK SMILES IDX 10 14 3 15 4 16 5 17 7 18 6 19 2 20 1 21 8 22 9 23 83 24
REMARK SMILES IDX 84 25 88 26 85 27 87 28 86 29 22 30 23 31 24 32 25 33 26 34
REMARK SMILES IDX 27 35 28 37 29 38 30 39 82 40 31 41 81 42 32 43 33 44 34 45
REMARK SMILES IDX 75 46 35 47 80 48 74 49 76 50 36 51 79 52 73 53 72 54 37 56
REMARK SMILES IDX 63 57 46 58 62 59 47 60 50 61 61 62 77 63 48 64 49 65 60 67
REMARK SMILES IDX 78 68 51 69 38 70 39 71 44 72 40 73 41 74 43 75 45 76 42 77
REMARK SMILES IDX 64 78 65 79 70 80 66 81 67 82 69 83 71 84 68 85 52 86 53 87
REMARK SMILES IDX 58 88 54 89 55 90 57 91 59 92 56 93
REMARK H PARENT 19 6 11 12 26 36 76 55 50 66
REMARK Flexibility Score: inf
ROOT
ATOM      1  C   UNL A   1      36.855  22.314  24.583  1.00  0.00     0.021 C 
ENDROOT
BRANCH   1   2
ATOM      2  C   UNL A   1      35.832  21.293  25.103  1.00  0.00     0.116 C 
BRANCH   2   3
ATOM      3  N   UNL A   1      34.511  21.846  25.425  1.00  0.00    -0.355 N 
ATOM      4  C   UNL A   1      33.745  22.511  24.466  1.00  0.00     0.230 C 
ATOM      5  O   UNL A   1      33.690  22.060  23.321  1.00  0.00    -0.274 OA
ATOM      6  H   UNL A   1      34.156  21.746  26.339  1.00  0.00     0.163 HD
BRANCH   4   7
ATOM      7  C   UNL A   1      33.019  23.869  24.881  1.00  0.00     0.080 C 
ATOM      8  C   UNL A   1      33.849  24.389  26.097  1.00  0.00     0.027 C 
BRANCH   7   9
ATOM      9  C   UNL A   1      31.531  23.576  25.225  1.00  0.00     0.121 C 
BRANCH   9  10
ATOM     10  C   UNL A   1      30.833  24.416  26.260  1.00  0.00     0.225 C 
ATOM     11  N   UNL A   1      30.649  25.751  26.323  1.00  0.00    -0.326 N 
ATOM     12  H   UNL A   1      30.087  25.908  27.115  1.00  0.00     0.169 HD
ATOM     13  O   UNL A   1      30.362  23.813  27.243  1.00  0.00    -0.275 OA
BRANCH  11  14
ATOM     14  C   UNL A   1      30.898  27.032  25.762  1.00  0.00     0.047 A 
ATOM     15  C   UNL A   1      30.098  27.329  24.599  1.00  0.00    -0.024 A 
ATOM     16  C   UNL A   1      30.198  28.583  23.949  1.00  0.00     0.006 A 
ATOM     17  C   UNL A   1      31.049  29.565  24.406  1.00  0.00     0.001 A 
ATOM     18  C   UNL A   1      31.796  28.042  26.181  1.00  0.00    -0.024 A 
ATOM     19  C   UNL A   1      31.821  29.297  25.514  1.00  0.00     0.006 A 
BRANCH  15  20
ATOM     20  C   UNL A   1      29.185  26.332  23.883  1.00  0.00     0.034 C 
ATOM     21  C   UNL A   1      27.691  26.640  23.878  1.00  0.00     0.009 C 
ENDBRANCH  15  20
BRANCH  18  22
ATOM     22  C   UNL A   1      32.805  27.983  27.289  1.00  0.00     0.034 C 
ATOM     23  C   UNL A   1      34.117  28.721  26.939  1.00  0.00     0.009 C 
ENDBRANCH  18  22
ENDBRANCH  11  14
ENDBRANCH   9  10
ENDBRANCH   7   9
BRANCH   7  24
ATOM     24  C   UNL A   1      33.174  25.005  23.823  1.00  0.00    -0.032 A 
ATOM     25  C   UNL A   1      33.961  26.139  24.054  1.00  0.00     0.005 A 
ATOM     26  C   UNL A   1      32.392  24.999  22.638  1.00  0.00     0.005 A 
ATOM     27  C   UNL A   1      33.860  27.263  23.218  1.00  0.00     0.000 A 
ATOM     28  C   UNL A   1      32.259  26.132  21.833  1.00  0.00     0.000 A 
ATOM     29  C   UNL A   1      32.980  27.275  22.137  1.00  0.00     0.000 A 
ENDBRANCH   7  24
ENDBRANCH   4   7
ENDBRANCH   2   3
ENDBRANCH   1   2
BRANCH   1  30
ATOM     30  C   UNL A   1      37.573  23.089  25.708  1.00  0.00     0.002 C 
BRANCH  30  31
ATOM     31  C   UNL A   1      39.033  22.719  26.014  1.00  0.00     0.002 C 
BRANCH  31  32
ATOM     32  C   UNL A   1      39.313  21.286  26.478  1.00  0.00     0.021 C 
BRANCH  32  33
ATOM     33  C   UNL A   1      39.392  20.212  25.391  1.00  0.00     0.116 C 
BRANCH  33  34
ATOM     34  N   UNL A   1      40.328  19.141  25.699  1.00  0.00    -0.352 N 
ATOM     35  C   UNL A   1      41.626  19.188  26.158  1.00  0.00     0.251 C 
ATOM     36  H   UNL A   1      39.976  18.234  25.555  1.00  0.00     0.163 HD
ATOM     37  O   UNL A   1      42.284  18.165  26.235  1.00  0.00    -0.269 OA
BRANCH  35  38
ATOM     38  C   UNL A   1      42.240  20.483  26.536  1.00  0.00     0.039 A 
ATOM     39  C   UNL A   1      42.804  21.275  25.530  1.00  0.00     0.014 A 
ATOM     40  C   UNL A   1      42.282  20.907  27.865  1.00  0.00     0.014 A 
ATOM     41  C   UNL A   1      43.334  22.529  25.847  1.00  0.00     0.010 A 
ATOM     42  C   UNL A   1      42.752  22.183  28.171  1.00  0.00     0.010 A 
ATOM     43  C   UNL A   1      43.269  23.012  27.164  1.00  0.00    -0.014 A 
BRANCH  43  44
ATOM     44  C   UNL A   1      43.687  24.398  27.495  1.00  0.00     0.031 A 
ATOM     45  C   UNL A   1      42.666  25.440  27.857  1.00  0.00     0.074 A 
ATOM     46  C   UNL A   1      44.988  24.733  27.388  1.00  0.00     0.049 A 
ATOM     47  N   UNL A   1      42.838  26.714  28.098  1.00  0.00    -0.248 NA
ATOM     48  C   UNL A   1      41.265  24.997  27.935  1.00  0.00     0.031 C 
ATOM     49  C   UNL A   1      46.064  23.823  26.995  1.00  0.00     0.029 A 
ATOM     50  N   UNL A   1      45.625  25.934  27.581  1.00  0.00    -0.354 N 
ATOM     51  C   UNL A   1      41.571  27.228  28.344  1.00  0.00     0.074 A 
ATOM     52  C   UNL A   1      40.635  26.137  28.177  1.00  0.00     0.031 C 
ATOM     53  C   UNL A   1      47.228  24.492  26.989  1.00  0.00     0.029 A 
ATOM     54  C   UNL A   1      46.976  25.886  27.334  1.00  0.00     0.049 A 
ATOM     55  H   UNL A   1      45.158  26.751  27.869  1.00  0.00     0.167 HD
ATOM     56  C   UNL A   1      41.223  28.490  28.692  1.00  0.00     0.037 A 
ATOM     57  C   UNL A   1      47.906  26.860  27.363  1.00  0.00     0.037 A 
ATOM     58  C   UNL A   1      42.164  29.565  28.871  1.00  0.00     0.049 A 
ATOM     59  C   UNL A   1      47.490  28.257  27.732  1.00  0.00     0.074 A 
ATOM     60  C   UNL A   1      41.921  30.859  29.302  1.00  0.00     0.029 A 
ATOM     61  N   UNL A   1      43.525  29.477  28.619  1.00  0.00    -0.354 N 
ATOM     62  N   UNL A   1      46.300  28.708  28.050  1.00  0.00    -0.248 NA
ATOM     63  C   UNL A   1      48.543  29.281  27.747  1.00  0.00     0.031 C 
ATOM     64  C   UNL A   1      43.125  31.568  29.253  1.00  0.00     0.029 A 
ATOM     65  C   UNL A   1      44.127  30.705  28.844  1.00  0.00     0.049 A 
ATOM     66  H   UNL A   1      43.993  28.663  28.323  1.00  0.00     0.167 HD
ATOM     67  C   UNL A   1      46.464  30.060  28.315  1.00  0.00     0.074 A 
ATOM     68  C   UNL A   1      47.871  30.352  28.146  1.00  0.00     0.031 C 
ATOM     69  C   UNL A   1      45.530  30.980  28.663  1.00  0.00     0.037 A 
BRANCH  56  70
ATOM     70  C   UNL A   1      39.766  28.782  28.899  1.00  0.00     0.057 A 
ATOM     71  C   UNL A   1      39.152  28.641  30.151  1.00  0.00     0.134 A 
ATOM     72  C   UNL A   1      38.976  29.261  27.846  1.00  0.00     0.134 A 
ATOM     73  F   UNL A   1      39.848  28.178  31.201  1.00  0.00    -0.206 F 
ATOM     74  C   UNL A   1      37.802  28.942  30.343  1.00  0.00     0.040 A 
ATOM     75  C   UNL A   1      37.633  29.593  28.031  1.00  0.00     0.040 A 
ATOM     76  F   UNL A   1      39.501  29.428  26.623  1.00  0.00    -0.206 F 
ATOM     77  C   UNL A   1      37.041  29.429  29.281  1.00  0.00     0.006 A 
ENDBRANCH  56  70
BRANCH  57  78
ATOM     78  C   UNL A   1      49.319  26.551  27.028  1.00  0.00     0.057 A 
ATOM     79  C   UNL A   1      50.211  26.091  28.004  1.00  0.00     0.134 A 
ATOM     80  C   UNL A   1      49.814  26.712  25.729  1.00  0.00     0.134 A 
ATOM     81  F   UNL A   1      49.802  25.934  29.271  1.00  0.00    -0.206 F 
ATOM     82  C   UNL A   1      51.549  25.824  27.705  1.00  0.00     0.040 A 
ATOM     83  C   UNL A   1      51.142  26.423  25.409  1.00  0.00     0.040 A 
ATOM     84  F   UNL A   1      49.010  27.141  24.745  1.00  0.00    -0.206 F 
ATOM     85  C   UNL A   1      52.015  25.984  26.403  1.00  0.00     0.006 A 
ENDBRANCH  57  78
BRANCH  69  86
ATOM     86  C   UNL A   1      46.004  32.386  28.887  1.00  0.00     0.057 A 
ATOM     87  C   UNL A   1      46.465  32.817  30.137  1.00  0.00     0.134 A 
ATOM     88  C   UNL A   1      46.042  33.306  27.831  1.00  0.00     0.134 A 
ATOM     89  F   UNL A   1      46.441  31.989  31.193  1.00  0.00    -0.206 F 
ATOM     90  C   UNL A   1      46.931  34.117  30.334  1.00  0.00     0.040 A 
ATOM     91  C   UNL A   1      46.531  34.600  28.009  1.00  0.00     0.040 A 
ATOM     92  F   UNL A   1      45.622  32.956  26.606  1.00  0.00    -0.206 F 
ATOM     93  C   UNL A   1      46.973  35.010  29.265  1.00  0.00     0.006 A 
ENDBRANCH  69  86
ENDBRANCH  43  44
ENDBRANCH  35  38
ENDBRANCH  33  34
ENDBRANCH  32  33
ENDBRANCH  31  32
ENDBRANCH  30  31
ENDBRANCH   1  30
TORSDOF 19
ENDMDL
MODEL 2
REMARK VINA RESULT:     -11.2      0.386      5.994
REMARK SMILES CCc1cccc(CC)c1NC(=O)C[C@@](C)(C(=O)NCCCCCCNC(=O)c1ccc(-c2c3nc(c(-c4c(F)cccc4F)c4ccc([nH]4)c(-c4c(F)cccc4F)c4nc(c(-c5c(F)cccc5F)c5ccc2[nH]5)C=C4)C=C3)cc1)c1ccccc1
REMARK SMILES IDX 21 1 20 2 19 3 17 4 18 5 15 7 16 8 14 9 12 10 11 11 13 13
REMARK SMILES IDX 10 14 3 15 4 16 5 17 7 18 6 19 2 20 1 21 8 22 9 23 83 24
REMARK SMILES IDX 84 25 88 26 85 27 87 28 86 29 22 30 23 31 24 32 25 33 26 34
REMARK SMILES IDX 27 35 28 37 29 38 30 39 82 40 31 41 81 42 32 43 33 44 34 45
REMARK SMILES IDX 75 46 35 47 80 48 74 49 76 50 36 51 79 52 73 53 72 54 37 56
REMARK SMILES IDX 63 57 46 58 62 59 47 60 50 61 61 62 77 63 48 64 49 65 60 67
REMARK SMILES IDX 78 68 51 69 38 70 39 71 44 72 40 73 41 74 43 75 45 76 42 77
REMARK SMILES IDX 64 78 65 79 70 80 66 81 67 82 69 83 71 84 68 85 52 86 53 87
REMARK SMILES IDX 58 88 54 89 55 90 57 91 59 92 56 93
REMARK H PARENT 19 6 11 12 26 36 76 55 50 66
REMARK Flexibility Score: inf
ROOT
ATOM      1  C   UNL A   1      36.960  22.167  24.420  1.00  0.00     0.021 C 
ENDROOT
BRANCH   1   2
ATOM      2  C   UNL A   1      35.850  21.166  24.774  1.00  0.00     0.116 C 
BRANCH   2   3
ATOM      3  N   UNL A   1      34.649  21.758  25.377  1.00  0.00    -0.355 N 
ATOM      4  C   UNL A   1      33.566  22.167  24.595  1.00  0.00     0.230 C 
ATOM      5  O   UNL A   1      33.201  21.459  23.655  1.00  0.00    -0.274 OA
ATOM      6  H   UNL A   1      34.605  21.870  26.354  1.00  0.00     0.163 HD
BRANCH   4   7
ATOM      7  C   UNL A   1      32.886  23.573  24.916  1.00  0.00     0.080 C 
ATOM      8  C   UNL A   1      33.744  24.156  26.083  1.00  0.00     0.027 C 
BRANCH   7   9
ATOM      9  C   UNL A   1      31.394  23.350  25.294  1.00  0.00     0.121 C 
BRANCH   9  10
ATOM     10  C   UNL A   1      30.733  24.285  26.270  1.00  0.00     0.225 C 
ATOM     11  N   UNL A   1      30.612  25.629  26.250  1.00  0.00    -0.326 N 
ATOM     12  H   UNL A   1      30.055  25.861  27.027  1.00  0.00     0.169 HD
ATOM     13  O   UNL A   1      30.228  23.767  27.285  1.00  0.00    -0.275 OA
BRANCH  11  14
ATOM     14  C   UNL A   1      30.925  26.859  25.613  1.00  0.00     0.047 A 
ATOM     15  C   UNL A   1      30.074  27.173  24.492  1.00  0.00    -0.024 A 
ATOM     16  C   UNL A   1      30.230  28.386  23.778  1.00  0.00     0.006 A 
ATOM     17  C   UNL A   1      31.187  29.311  24.131  1.00  0.00     0.001 A 
ATOM     18  C   UNL A   1      31.928  27.808  25.925  1.00  0.00    -0.024 A 
ATOM     19  C   UNL A   1      32.009  29.027  25.198  1.00  0.00     0.006 A 
BRANCH  15  20
ATOM     20  C   UNL A   1      29.036  26.227  23.885  1.00  0.00     0.034 C 
ATOM     21  C   UNL A   1      27.577  26.670  23.939  1.00  0.00     0.009 C 
ENDBRANCH  15  20
BRANCH  18  22
ATOM     22  C   UNL A   1      33.003  27.711  26.966  1.00  0.00     0.034 C 
ATOM     23  C   UNL A   1      33.685  29.069  27.244  1.00  0.00     0.009 C 
ENDBRANCH  18  22
ENDBRANCH  11  14
ENDBRANCH   9  10
ENDBRANCH   7   9
BRANCH   7  24
ATOM     24  C   UNL A   1      33.062  24.624  23.775  1.00  0.00    -0.032 A 
ATOM     25  C   UNL A   1      33.972  25.682  23.868  1.00  0.00     0.005 A 
ATOM     26  C   UNL A   1      32.186  24.629  22.658  1.00  0.00     0.005 A 
ATOM     27  C   UNL A   1      33.913  26.759  22.970  1.00  0.00     0.000 A 
ATOM     28  C   UNL A   1      32.097  25.721  21.792  1.00  0.00     0.000 A 
ATOM     29  C   UNL A   1      32.950  26.799  21.963  1.00  0.00     0.000 A 
ENDBRANCH   7  24
ENDBRANCH   4   7
ENDBRANCH   2   3
ENDBRANCH   1   2
BRANCH   1  30
ATOM     30  C   UNL A   1      37.622  22.808  25.658  1.00  0.00     0.002 C 
BRANCH  30  31
ATOM     31  C   UNL A   1      39.080  22.431  25.968  1.00  0.00     0.002 C 
BRANCH  31  32
ATOM     32  C   UNL A   1      39.345  21.011  26.480  1.00  0.00     0.021 C 
BRANCH  32  33
ATOM     33  C   UNL A   1      39.436  19.904  25.427  1.00  0.00     0.116 C 
BRANCH  33  34
ATOM     34  N   UNL A   1      40.444  18.899  25.728  1.00  0.00    -0.352 N 
ATOM     35  C   UNL A   1      41.753  19.034  26.136  1.00  0.00     0.251 C 
ATOM     36  H   UNL A   1      40.141  17.969  25.622  1.00  0.00     0.163 HD
ATOM     37  O   UNL A   1      42.472  18.053  26.214  1.00  0.00    -0.269 OA
BRANCH  35  38
ATOM     38  C   UNL A   1      42.303  20.372  26.454  1.00  0.00     0.039 A 
ATOM     39  C   UNL A   1      42.805  21.156  25.411  1.00  0.00     0.014 A 
ATOM     40  C   UNL A   1      42.348  20.846  27.767  1.00  0.00     0.014 A 
ATOM     41  C   UNL A   1      43.272  22.447  25.672  1.00  0.00     0.010 A 
ATOM     42  C   UNL A   1      42.754  22.155  28.018  1.00  0.00     0.010 A 
ATOM     43  C   UNL A   1      43.206  22.974  26.972  1.00  0.00    -0.014 A 
BRANCH  43  44
ATOM     44  C   UNL A   1      43.555  24.391  27.245  1.00  0.00     0.031 A 
ATOM     45  C   UNL A   1      44.986  24.848  27.206  1.00  0.00     0.074 A 
ATOM     46  C   UNL A   1      42.581  25.247  27.610  1.00  0.00     0.049 A 
ATOM     47  N   UNL A   1      45.485  26.023  27.493  1.00  0.00    -0.248 NA
ATOM     48  C   UNL A   1      45.992  23.847  26.817  1.00  0.00     0.031 C 
ATOM     49  C   UNL A   1      41.162  24.908  27.734  1.00  0.00     0.029 A 
ATOM     50  N   UNL A   1      42.635  26.574  27.961  1.00  0.00    -0.354 N 
ATOM     51  C   UNL A   1      46.859  25.902  27.331  1.00  0.00     0.074 A 
ATOM     52  C   UNL A   1      47.120  24.526  26.966  1.00  0.00     0.031 C 
ATOM     53  C   UNL A   1      40.480  25.998  28.119  1.00  0.00     0.029 A 
ATOM     54  C   UNL A   1      41.415  27.101  28.312  1.00  0.00     0.049 A 
ATOM     55  H   UNL A   1      43.469  27.097  27.962  1.00  0.00     0.167 HD
ATOM     56  C   UNL A   1      47.813  26.855  27.461  1.00  0.00     0.037 A 
ATOM     57  C   UNL A   1      41.088  28.329  28.758  1.00  0.00     0.037 A 
ATOM     58  C   UNL A   1      47.541  28.226  27.809  1.00  0.00     0.049 A 
ATOM     59  C   UNL A   1      42.169  29.362  28.913  1.00  0.00     0.074 A 
ATOM     60  C   UNL A   1      48.428  29.286  27.885  1.00  0.00     0.029 A 
ATOM     61  N   UNL A   1      46.293  28.724  28.150  1.00  0.00    -0.354 N 
ATOM     62  N   UNL A   1      43.453  29.257  28.669  1.00  0.00    -0.248 NA
ATOM     63  C   UNL A   1      41.758  30.684  29.404  1.00  0.00     0.031 C 
ATOM     64  C   UNL A   1      47.727  30.411  28.330  1.00  0.00     0.029 A 
ATOM     65  C   UNL A   1      46.394  30.066  28.479  1.00  0.00     0.049 A 
ATOM     66  H   UNL A   1      45.459  28.201  28.158  1.00  0.00     0.167 HD
ATOM     67  C   UNL A   1      43.999  30.498  28.962  1.00  0.00     0.074 A 
ATOM     68  C   UNL A   1      42.905  31.349  29.378  1.00  0.00     0.031 C 
ATOM     69  C   UNL A   1      45.293  30.897  28.899  1.00  0.00     0.037 A 
BRANCH  56  70
ATOM     70  C   UNL A   1      49.239  26.452  27.229  1.00  0.00     0.057 A 
ATOM     71  C   UNL A   1      49.818  26.474  25.953  1.00  0.00     0.134 A 
ATOM     72  C   UNL A   1      50.063  26.088  28.303  1.00  0.00     0.134 A 
ATOM     73  F   UNL A   1      49.085  26.804  24.879  1.00  0.00    -0.206 F 
ATOM     74  C   UNL A   1      51.155  26.125  25.750  1.00  0.00     0.040 A 
ATOM     75  C   UNL A   1      51.408  25.765  28.117  1.00  0.00     0.040 A 
ATOM     76  F   UNL A   1      49.577  26.054  29.553  1.00  0.00    -0.206 F 
ATOM     77  C   UNL A   1      51.956  25.779  26.837  1.00  0.00     0.006 A 
ENDBRANCH  56  70
BRANCH  57  78
ATOM     78  C   UNL A   1      39.677  28.647  29.095  1.00  0.00     0.057 A 
ATOM     79  C   UNL A   1      38.799  29.155  28.132  1.00  0.00     0.134 A 
ATOM     80  C   UNL A   1      39.174  28.457  30.388  1.00  0.00     0.134 A 
ATOM     81  F   UNL A   1      39.226  29.377  26.880  1.00  0.00    -0.206 F 
ATOM     82  C   UNL A   1      37.479  29.484  28.445  1.00  0.00     0.040 A 
ATOM     83  C   UNL A   1      37.848  28.755  30.710  1.00  0.00     0.040 A 
ATOM     84  F   UNL A   1      39.961  27.965  31.356  1.00  0.00    -0.206 F 
ATOM     85  C   UNL A   1      36.999  29.278  29.736  1.00  0.00     0.006 A 
ENDBRANCH  57  78
BRANCH  69  86
ATOM     86  C   UNL A   1      45.593  32.316  29.283  1.00  0.00     0.057 A 
ATOM     87  C   UNL A   1      45.971  32.661  30.587  1.00  0.00     0.134 A 
ATOM     88  C   UNL A   1      45.547  33.342  28.330  1.00  0.00     0.134 A 
ATOM     89  F   UNL A   1      46.020  31.729  31.550  1.00  0.00    -0.206 F 
ATOM     90  C   UNL A   1      46.276  33.978  30.933  1.00  0.00     0.040 A 
ATOM     91  C   UNL A   1      45.876  34.657  28.658  1.00  0.00     0.040 A 
ATOM     92  F   UNL A   1      45.199  33.079  27.061  1.00  0.00    -0.206 F 
ATOM     93  C   UNL A   1      46.237  34.979  29.964  1.00  0.00     0.006 A 
ENDBRANCH  69  86
ENDBRANCH  43  44
ENDBRANCH  35  38
ENDBRANCH  33  34
ENDBRANCH  32  33
ENDBRANCH  31  32
ENDBRANCH  30  31
ENDBRANCH   1  30
TORSDOF 19
ENDMDL
MODEL 3
REMARK VINA RESULT:     -11.1      1.242      2.208
REMARK SMILES CCc1cccc(CC)c1NC(=O)C[C@@](C)(C(=O)NCCCCCCNC(=O)c1ccc(-c2c3nc(c(-c4c(F)cccc4F)c4ccc([nH]4)c(-c4c(F)cccc4F)c4nc(c(-c5c(F)cccc5F)c5ccc2[nH]5)C=C4)C=C3)cc1)c1ccccc1
REMARK SMILES IDX 21 1 20 2 19 3 17 4 18 5 15 7 16 8 14 9 12 10 11 11 13 13
REMARK SMILES IDX 10 14 3 15 4 16 5 17 7 18 6 19 2 20 1 21 8 22 9 23 83 24
REMARK SMILES IDX 84 25 88 26 85 27 87 28 86 29 22 30 23 31 24 32 25 33 26 34
REMARK SMILES IDX 27 35 28 37 29 38 30 39 82 40 31 41 81 42 32 43 33 44 34 45
REMARK SMILES IDX 75 46 35 47 80 48 74 49 76 50 36 51 79 52 73 53 72 54 37 56
REMARK SMILES IDX 63 57 46 58 62 59 47 60 50 61 61 62 77 63 48 64 49 65 60 67
REMARK SMILES IDX 78 68 51 69 38 70 39 71 44 72 40 73 41 74 43 75 45 76 42 77
REMARK SMILES IDX 64 78 65 79 70 80 66 81 67 82 69 83 71 84 68 85 52 86 53 87
REMARK SMILES IDX 58 88 54 89 55 90 57 91 59 92 56 93
REMARK H PARENT 19 6 11 12 26 36 76 55 50 66
REMARK Flexibility Score: inf
ROOT
ATOM      1  C   UNL A   1      34.495  19.865  24.672  1.00  0.00     0.021 C 
ENDROOT
BRANCH   1   2
ATOM      2  C   UNL A   1      33.155  19.598  25.373  1.00  0.00     0.116 C 
BRANCH   2   3
ATOM      3  N   UNL A   1      32.193  20.705  25.316  1.00  0.00    -0.355 N 
ATOM      4  C   UNL A   1      32.228  21.650  24.288  1.00  0.00     0.230 C 
ATOM      5  O   UNL A   1      32.434  21.275  23.133  1.00  0.00    -0.274 OA
ATOM      6  H   UNL A   1      31.506  20.784  26.017  1.00  0.00     0.163 HD
BRANCH   4   7
ATOM      7  C   UNL A   1      32.063  23.190  24.666  1.00  0.00     0.080 C 
ATOM      8  C   UNL A   1      33.091  23.413  25.820  1.00  0.00     0.027 C 
BRANCH   7   9
ATOM      9  C   UNL A   1      30.590  23.464  25.085  1.00  0.00     0.121 C 
BRANCH   9  10
ATOM     10  C   UNL A   1      30.291  24.589  26.038  1.00  0.00     0.225 C 
ATOM     11  N   UNL A   1      30.335  25.925  25.856  1.00  0.00    -0.326 N 
ATOM     12  H   UNL A   1      30.005  26.323  26.693  1.00  0.00     0.169 HD
ATOM     13  O   UNL A   1      29.974  24.267  27.200  1.00  0.00    -0.275 OA
BRANCH  11  14
ATOM     14  C   UNL A   1      30.642  27.017  25.000  1.00  0.00     0.047 A 
ATOM     15  C   UNL A   1      31.933  27.610  25.246  1.00  0.00    -0.024 A 
ATOM     16  C   UNL A   1      32.405  28.681  24.448  1.00  0.00     0.006 A 
ATOM     17  C   UNL A   1      31.658  29.186  23.407  1.00  0.00     0.001 A 
ATOM     18  C   UNL A   1      29.878  27.586  23.953  1.00  0.00    -0.024 A 
ATOM     19  C   UNL A   1      30.423  28.633  23.160  1.00  0.00     0.006 A 
BRANCH  15  20
ATOM     20  C   UNL A   1      32.851  27.261  26.419  1.00  0.00     0.034 C 
ATOM     21  C   UNL A   1      33.382  28.422  27.254  1.00  0.00     0.009 C 
ENDBRANCH  15  20
BRANCH  18  22
ATOM     22  C   UNL A   1      28.481  27.241  23.533  1.00  0.00     0.034 C 
ATOM     23  C   UNL A   1      27.664  28.482  23.109  1.00  0.00     0.009 C 
ENDBRANCH  18  22
ENDBRANCH  11  14
ENDBRANCH   9  10
ENDBRANCH   7   9
BRANCH   7  24
ATOM     24  C   UNL A   1      32.555  24.162  23.548  1.00  0.00    -0.032 A 
ATOM     25  C   UNL A   1      33.789  24.819  23.620  1.00  0.00     0.005 A 
ATOM     26  C   UNL A   1      31.693  24.532  22.483  1.00  0.00     0.005 A 
ATOM     27  C   UNL A   1      34.082  25.887  22.758  1.00  0.00     0.000 A 
ATOM     28  C   UNL A   1      31.966  25.624  21.656  1.00  0.00     0.000 A 
ATOM     29  C   UNL A   1      33.155  26.316  21.809  1.00  0.00     0.000 A 
ENDBRANCH   7  24
ENDBRANCH   4   7
ENDBRANCH   2   3
ENDBRANCH   1   2
BRANCH   1  30
ATOM     30  C   UNL A   1      35.435  20.784  25.480  1.00  0.00     0.002 C 
BRANCH  30  31
ATOM     31  C   UNL A   1      36.702  21.304  24.783  1.00  0.00     0.002 C 
BRANCH  31  32
ATOM     32  C   UNL A   1      37.915  20.368  24.737  1.00  0.00     0.021 C 
BRANCH  32  33
ATOM     33  C   UNL A   1      38.908  20.469  25.897  1.00  0.00     0.116 C 
BRANCH  33  34
ATOM     34  N   UNL A   1      39.969  19.475  25.841  1.00  0.00    -0.352 N 
ATOM     35  C   UNL A   1      41.319  19.587  26.094  1.00  0.00     0.251 C 
ATOM     36  H   UNL A   1      39.674  18.574  25.579  1.00  0.00     0.163 HD
ATOM     37  O   UNL A   1      42.062  18.649  25.867  1.00  0.00    -0.269 OA
BRANCH  35  38
ATOM     38  C   UNL A   1      41.879  20.855  26.618  1.00  0.00     0.039 A 
ATOM     39  C   UNL A   1      42.328  21.816  25.706  1.00  0.00     0.014 A 
ATOM     40  C   UNL A   1      41.984  21.092  27.990  1.00  0.00     0.014 A 
ATOM     41  C   UNL A   1      42.803  23.046  26.168  1.00  0.00     0.010 A 
ATOM     42  C   UNL A   1      42.398  22.341  28.448  1.00  0.00     0.010 A 
ATOM     43  C   UNL A   1      42.797  23.336  27.542  1.00  0.00    -0.014 A 
BRANCH  43  44
ATOM     44  C   UNL A   1      43.154  24.687  28.044  1.00  0.00     0.031 A 
ATOM     45  C   UNL A   1      42.089  25.715  28.297  1.00  0.00     0.074 A 
ATOM     46  C   UNL A   1      44.455  25.008  28.193  1.00  0.00     0.049 A 
ATOM     47  N   UNL A   1      42.219  26.966  28.659  1.00  0.00    -0.248 NA
ATOM     48  C   UNL A   1      40.695  25.290  28.094  1.00  0.00     0.031 C 
ATOM     49  C   UNL A   1      45.581  24.111  27.929  1.00  0.00     0.029 A 
ATOM     50  N   UNL A   1      45.051  26.182  28.584  1.00  0.00    -0.354 N 
ATOM     51  C   UNL A   1      40.930  27.481  28.716  1.00  0.00     0.074 A 
ATOM     52  C   UNL A   1      40.035  26.420  28.306  1.00  0.00     0.031 C 
ATOM     53  C   UNL A   1      46.729  24.760  28.177  1.00  0.00     0.029 A 
ATOM     54  C   UNL A   1      46.425  26.130  28.576  1.00  0.00     0.049 A 
ATOM     55  H   UNL A   1      44.543  26.983  28.846  1.00  0.00     0.167 HD
ATOM     56  C   UNL A   1      40.530  28.720  29.090  1.00  0.00     0.037 A 
ATOM     57  C   UNL A   1      47.337  27.084  28.841  1.00  0.00     0.037 A 
ATOM     58  C   UNL A   1      41.427  29.764  29.512  1.00  0.00     0.049 A 
ATOM     59  C   UNL A   1      46.867  28.457  29.233  1.00  0.00     0.074 A 
ATOM     60  C   UNL A   1      41.116  31.026  29.988  1.00  0.00     0.029 A 
ATOM     61  N   UNL A   1      42.811  29.673  29.497  1.00  0.00    -0.354 N 
ATOM     62  N   UNL A   1      45.641  28.902  29.370  1.00  0.00    -0.248 NA
ATOM     63  C   UNL A   1      47.904  29.460  29.510  1.00  0.00     0.031 C 
ATOM     64  C   UNL A   1      42.311  31.718  30.205  1.00  0.00     0.029 A 
ATOM     65  C   UNL A   1      43.367  30.870  29.916  1.00  0.00     0.049 A 
ATOM     66  H   UNL A   1      43.322  28.875  29.228  1.00  0.00     0.167 HD
ATOM     67  C   UNL A   1      45.759  30.229  29.760  1.00  0.00     0.074 A 
ATOM     68  C   UNL A   1      47.175  30.510  29.863  1.00  0.00     0.031 C 
ATOM     69  C   UNL A   1      44.782  31.136  30.006  1.00  0.00     0.037 A 
BRANCH  56  70
ATOM     70  C   UNL A   1      39.060  29.019  29.059  1.00  0.00     0.057 A 
ATOM     71  C   UNL A   1      38.257  28.912  30.202  1.00  0.00     0.134 A 
ATOM     72  C   UNL A   1      38.447  29.471  27.883  1.00  0.00     0.134 A 
ATOM     73  F   UNL A   1      38.777  28.477  31.360  1.00  0.00    -0.206 F 
ATOM     74  C   UNL A   1      36.895  29.220  30.172  1.00  0.00     0.040 A 
ATOM     75  C   UNL A   1      37.093  29.809  27.846  1.00  0.00     0.040 A 
ATOM     76  F   UNL A   1      39.158  29.604  26.753  1.00  0.00    -0.206 F 
ATOM     77  C   UNL A   1      36.312  29.680  28.992  1.00  0.00     0.006 A 
ENDBRANCH  56  70
BRANCH  57  78
ATOM     78  C   UNL A   1      48.787  26.777  28.737  1.00  0.00     0.057 A 
ATOM     79  C   UNL A   1      49.517  27.108  27.589  1.00  0.00     0.134 A 
ATOM     80  C   UNL A   1      49.475  26.142  29.777  1.00  0.00     0.134 A 
ATOM     81  F   UNL A   1      48.910  27.700  26.551  1.00  0.00    -0.206 F 
ATOM     82  C   UNL A   1      50.873  26.798  27.470  1.00  0.00     0.040 A 
ATOM     83  C   UNL A   1      50.838  25.851  29.683  1.00  0.00     0.040 A 
ATOM     84  F   UNL A   1      48.837  25.806  30.907  1.00  0.00    -0.206 F 
ATOM     85  C   UNL A   1      51.538  26.174  28.522  1.00  0.00     0.006 A 
ENDBRANCH  57  78
BRANCH  69  86
ATOM     86  C   UNL A   1      45.212  32.514  30.414  1.00  0.00     0.057 A 
ATOM     87  C   UNL A   1      45.468  32.840  31.752  1.00  0.00     0.134 A 
ATOM     88  C   UNL A   1      45.417  33.514  29.454  1.00  0.00     0.134 A 
ATOM     89  F   UNL A   1      45.277  31.931  32.720  1.00  0.00    -0.206 F 
ATOM     90  C   UNL A   1      45.895  34.115  32.123  1.00  0.00     0.040 A 
ATOM     91  C   UNL A   1      45.871  34.785  29.810  1.00  0.00     0.040 A 
ATOM     92  F   UNL A   1      45.198  33.267  28.154  1.00  0.00    -0.206 F 
ATOM     93  C   UNL A   1      46.106  35.089  31.149  1.00  0.00     0.006 A 
ENDBRANCH  69  86
ENDBRANCH  43  44
ENDBRANCH  35  38
ENDBRANCH  33  34
ENDBRANCH  32  33
ENDBRANCH  31  32
ENDBRANCH  30  31
ENDBRANCH   1  30
TORSDOF 19
ENDMDL
