MODEL 1
REMARK VINA RESULT:     -10.2      0.000      0.000
REMARK SMILES CC[C@H](C)CN(CC)C(=O)Nc1ccc(C(=O)NCCCCCCNC(=O)c2ccc(-c3c4nc(c(-c5c(F)cccc5F)c5ccc([nH]5)c(-c5c(F)cccc5F)c5nc(c(-c6c(F)cccc6F)c6ccc3[nH]6)C=C5)C=C4)cc2)cc1Cl
REMARK SMILES IDX 20 1 19 2 18 3 16 4 17 5 15 7 12 8 13 9 83 10 14 11 82 12
REMARK SMILES IDX 84 13 11 14 9 15 10 16 6 18 5 19 3 20 4 21 2 22 1 23 7 24
REMARK SMILES IDX 8 25 21 26 22 27 23 28 24 29 25 30 26 31 27 33 28 34 29 35
REMARK SMILES IDX 81 36 30 37 80 38 31 39 32 40 33 41 74 42 34 43 79 44 73 45
REMARK SMILES IDX 75 46 35 47 78 48 72 49 71 50 36 52 62 53 45 54 61 55 46 56
REMARK SMILES IDX 49 57 60 58 76 59 47 60 48 61 59 63 77 64 50 65 37 66 38 67
REMARK SMILES IDX 43 68 39 69 40 70 42 71 44 72 41 73 63 74 64 75 69 76 65 77
REMARK SMILES IDX 66 78 68 79 70 80 67 81 51 82 52 83 57 84 53 85 54 86 56 87
REMARK SMILES IDX 58 88 55 89
REMARK H PARENT 18 6 11 17 25 32 75 51 49 62
REMARK Flexibility Score: inf
ROOT
ATOM      1  C   UNL A   1      36.846  23.678  26.079  1.00  0.00     0.021 C 
ENDROOT
BRANCH   1   2
ATOM      2  C   UNL A   1      35.998  23.253  24.880  1.00  0.00     0.116 C 
BRANCH   2   3
ATOM      3  N   UNL A   1      35.773  21.817  24.900  1.00  0.00    -0.352 N 
ATOM      4  C   UNL A   1      34.622  21.075  24.825  1.00  0.00     0.251 C 
ATOM      5  O   UNL A   1      34.693  19.848  24.813  1.00  0.00    -0.269 OA
ATOM      6  H   UNL A   1      36.594  21.280  24.981  1.00  0.00     0.163 HD
BRANCH   4   7
ATOM      7  C   UNL A   1      33.305  21.725  24.651  1.00  0.00     0.041 A 
ATOM      8  C   UNL A   1      31.091  23.357  24.235  1.00  0.00     0.061 A 
ATOM      9  C   UNL A   1      31.790  22.848  23.135  1.00  0.00     0.028 A 
ATOM     10  C   UNL A   1      31.374  22.877  25.521  1.00  0.00     0.065 A 
ATOM     11  C   UNL A   1      32.918  22.058  23.348  1.00  0.00     0.016 A 
ATOM     12  C   UNL A   1      32.470  22.040  25.724  1.00  0.00     0.036 A 
ATOM     13  Cl  UNL A   1      30.365  23.228  26.879  1.00  0.00    -0.082 Cl
BRANCH   8  14
ATOM     14  N   UNL A   1      30.160  24.365  23.969  1.00  0.00    -0.306 N 
ATOM     15  C   UNL A   1      30.278  25.719  24.058  1.00  0.00     0.321 C 
ATOM     16  O   UNL A   1      29.281  26.337  24.443  1.00  0.00    -0.248 OA
ATOM     17  H   UNL A   1      29.279  24.045  23.669  1.00  0.00     0.171 HD
BRANCH  15  18
ATOM     18  N   UNL A   1      31.379  26.365  23.508  1.00  0.00    -0.325 N 
BRANCH  18  19
ATOM     19  C   UNL A   1      32.128  27.270  24.397  1.00  0.00     0.124 C 
BRANCH  19  20
ATOM     20  C   UNL A   1      32.449  26.658  25.794  1.00  0.00     0.005 C 
ATOM     21  C   UNL A   1      33.655  25.713  25.739  1.00  0.00     0.009 C 
BRANCH  20  22
ATOM     22  C   UNL A   1      32.655  27.805  26.809  1.00  0.00     0.002 C 
ATOM     23  C   UNL A   1      31.411  28.213  27.590  1.00  0.00     0.004 C 
ENDBRANCH  20  22
ENDBRANCH  19  20
ENDBRANCH  18  19
BRANCH  18  24
ATOM     24  C   UNL A   1      31.843  26.354  22.114  1.00  0.00     0.118 C 
ATOM     25  C   UNL A   1      33.358  26.519  22.009  1.00  0.00     0.027 C 
ENDBRANCH  18  24
ENDBRANCH  15  18
ENDBRANCH   8  14
ENDBRANCH   4   7
ENDBRANCH   2   3
ENDBRANCH   1   2
BRANCH   1  26
ATOM     26  C   UNL A   1      38.356  23.635  25.804  1.00  0.00     0.002 C 
BRANCH  26  27
ATOM     27  C   UNL A   1      39.108  22.499  26.507  1.00  0.00     0.002 C 
BRANCH  27  28
ATOM     28  C   UNL A   1      39.283  21.225  25.679  1.00  0.00     0.021 C 
BRANCH  28  29
ATOM     29  C   UNL A   1      39.517  19.958  26.497  1.00  0.00     0.116 C 
BRANCH  29  30
ATOM     30  N   UNL A   1      40.671  19.207  26.027  1.00  0.00    -0.352 N 
ATOM     31  C   UNL A   1      41.968  19.616  25.860  1.00  0.00     0.251 C 
ATOM     32  H   UNL A   1      40.494  18.266  25.795  1.00  0.00     0.163 HD
ATOM     33  O   UNL A   1      42.770  18.893  25.268  1.00  0.00    -0.269 OA
BRANCH  31  34
ATOM     34  C   UNL A   1      42.406  20.934  26.367  1.00  0.00     0.039 A 
ATOM     35  C   UNL A   1      42.801  21.912  25.450  1.00  0.00     0.014 A 
ATOM     36  C   UNL A   1      42.446  21.202  27.737  1.00  0.00     0.014 A 
ATOM     37  C   UNL A   1      43.179  23.178  25.905  1.00  0.00     0.010 A 
ATOM     38  C   UNL A   1      42.756  22.484  28.186  1.00  0.00     0.010 A 
ATOM     39  C   UNL A   1      43.129  23.485  27.275  1.00  0.00    -0.014 A 
BRANCH  39  40
ATOM     40  C   UNL A   1      43.452  24.849  27.768  1.00  0.00     0.031 A 
ATOM     41  C   UNL A   1      42.350  25.825  28.080  1.00  0.00     0.074 A 
ATOM     42  C   UNL A   1      44.741  25.232  27.870  1.00  0.00     0.049 A 
ATOM     43  N   UNL A   1      42.437  27.077  28.454  1.00  0.00    -0.248 NA
ATOM     44  C   UNL A   1      40.968  25.340  27.930  1.00  0.00     0.031 C 
ATOM     45  C   UNL A   1      45.900  24.398  27.545  1.00  0.00     0.029 A 
ATOM     46  N   UNL A   1      45.293  26.427  28.261  1.00  0.00    -0.354 N 
ATOM     47  C   UNL A   1      41.129  27.533  28.563  1.00  0.00     0.074 A 
ATOM     48  C   UNL A   1      40.267  26.438  28.177  1.00  0.00     0.031 C 
ATOM     49  C   UNL A   1      47.023  25.102  27.761  1.00  0.00     0.029 A 
ATOM     50  C   UNL A   1      46.665  26.446  28.204  1.00  0.00     0.049 A 
ATOM     51  H   UNL A   1      44.755  27.198  28.555  1.00  0.00     0.167 HD
ATOM     52  C   UNL A   1      40.688  28.748  28.964  1.00  0.00     0.037 A 
ATOM     53  C   UNL A   1      47.538  27.438  28.465  1.00  0.00     0.037 A 
ATOM     54  C   UNL A   1      41.546  29.824  29.385  1.00  0.00     0.049 A 
ATOM     55  C   UNL A   1      47.017  28.773  28.924  1.00  0.00     0.074 A 
ATOM     56  C   UNL A   1      41.189  31.063  29.888  1.00  0.00     0.029 A 
ATOM     57  N   UNL A   1      42.931  29.792  29.346  1.00  0.00    -0.354 N 
ATOM     58  N   UNL A   1      45.778  29.159  29.105  1.00  0.00    -0.248 NA
ATOM     59  C   UNL A   1      48.018  29.808  29.223  1.00  0.00     0.031 C 
ATOM     60  C   UNL A   1      42.356  31.800  30.109  1.00  0.00     0.029 A 
ATOM     61  C   UNL A   1      43.442  31.000  29.793  1.00  0.00     0.049 A 
ATOM     62  H   UNL A   1      43.472  29.026  29.046  1.00  0.00     0.167 HD
ATOM     63  C   UNL A   1      45.851  30.468  29.566  1.00  0.00     0.074 A 
ATOM     64  C   UNL A   1      47.256  30.803  29.654  1.00  0.00     0.031 C 
ATOM     65  C   UNL A   1      44.844  31.315  29.887  1.00  0.00     0.037 A 
BRANCH  52  66
ATOM     66  C   UNL A   1      39.206  28.988  28.980  1.00  0.00     0.057 A 
ATOM     67  C   UNL A   1      38.440  28.812  30.139  1.00  0.00     0.134 A 
ATOM     68  C   UNL A   1      38.552  29.473  27.840  1.00  0.00     0.134 A 
ATOM     69  F   UNL A   1      39.004  28.342  31.262  1.00  0.00    -0.206 F 
ATOM     70  C   UNL A   1      37.074  29.097  30.161  1.00  0.00     0.040 A 
ATOM     71  C   UNL A   1      37.192  29.786  27.856  1.00  0.00     0.040 A 
ATOM     72  F   UNL A   1      39.228  29.670  26.699  1.00  0.00    -0.206 F 
ATOM     73  C   UNL A   1      36.448  29.595  29.019  1.00  0.00     0.006 A 
ENDBRANCH  52  66
BRANCH  53  74
ATOM     74  C   UNL A   1      48.998  27.215  28.302  1.00  0.00     0.057 A 
ATOM     75  C   UNL A   1      49.643  27.487  27.089  1.00  0.00     0.134 A 
ATOM     76  C   UNL A   1      49.776  26.695  29.342  1.00  0.00     0.134 A 
ATOM     77  F   UNL A   1      48.948  27.971  26.049  1.00  0.00    -0.206 F 
ATOM     78  C   UNL A   1      51.000  27.219  26.906  1.00  0.00     0.040 A 
ATOM     79  C   UNL A   1      51.141  26.448  29.182  1.00  0.00     0.040 A 
ATOM     80  F   UNL A   1      49.222  26.421  30.533  1.00  0.00    -0.206 F 
ATOM     81  C   UNL A   1      51.754  26.700  27.956  1.00  0.00     0.006 A 
ENDBRANCH  53  74
BRANCH  65  82
ATOM     82  C   UNL A   1      45.225  32.674  30.400  1.00  0.00     0.057 A 
ATOM     83  C   UNL A   1      45.372  33.773  29.547  1.00  0.00     0.134 A 
ATOM     84  C   UNL A   1      45.408  32.889  31.772  1.00  0.00     0.134 A 
ATOM     85  F   UNL A   1      45.223  33.632  28.221  1.00  0.00    -0.206 F 
ATOM     86  C   UNL A   1      45.713  35.036  30.037  1.00  0.00     0.040 A 
ATOM     87  C   UNL A   1      45.721  34.153  32.277  1.00  0.00     0.040 A 
ATOM     88  F   UNL A   1      45.272  31.880  32.645  1.00  0.00    -0.206 F 
ATOM     89  C   UNL A   1      45.882  35.229  31.407  1.00  0.00     0.006 A 
ENDBRANCH  65  82
ENDBRANCH  39  40
ENDBRANCH  31  34
ENDBRANCH  29  30
ENDBRANCH  28  29
ENDBRANCH  27  28
ENDBRANCH  26  27
ENDBRANCH   1  26
TORSDOF 19
ENDMDL
MODEL 2
REMARK VINA RESULT:     -10.2      0.927      6.215
REMARK SMILES CC[C@H](C)CN(CC)C(=O)Nc1ccc(C(=O)NCCCCCCNC(=O)c2ccc(-c3c4nc(c(-c5c(F)cccc5F)c5ccc([nH]5)c(-c5c(F)cccc5F)c5nc(c(-c6c(F)cccc6F)c6ccc3[nH]6)C=C5)C=C4)cc2)cc1Cl
REMARK SMILES IDX 20 1 19 2 18 3 16 4 17 5 15 7 12 8 13 9 83 10 14 11 82 12
REMARK SMILES IDX 84 13 11 14 9 15 10 16 6 18 5 19 3 20 4 21 2 22 1 23 7 24
REMARK SMILES IDX 8 25 21 26 22 27 23 28 24 29 25 30 26 31 27 33 28 34 29 35
REMARK SMILES IDX 81 36 30 37 80 38 31 39 32 40 33 41 74 42 34 43 79 44 73 45
REMARK SMILES IDX 75 46 35 47 78 48 72 49 71 50 36 52 62 53 45 54 61 55 46 56
REMARK SMILES IDX 49 57 60 58 76 59 47 60 48 61 59 63 77 64 50 65 37 66 38 67
REMARK SMILES IDX 43 68 39 69 40 70 42 71 44 72 41 73 63 74 64 75 69 76 65 77
REMARK SMILES IDX 66 78 68 79 70 80 67 81 51 82 52 83 57 84 53 85 54 86 56 87
REMARK SMILES IDX 58 88 55 89
REMARK H PARENT 18 6 11 17 25 32 75 51 49 62
REMARK Flexibility Score: inf
ROOT
ATOM      1  C   UNL A   1      36.966  22.699  25.156  1.00  0.00     0.021 C 
ENDROOT
BRANCH   1   2
ATOM      2  C   UNL A   1      35.763  22.165  25.934  1.00  0.00     0.116 C 
BRANCH   2   3
ATOM      3  N   UNL A   1      35.417  20.828  25.479  1.00  0.00    -0.352 N 
ATOM      4  C   UNL A   1      34.256  20.315  24.959  1.00  0.00     0.251 C 
ATOM      5  O   UNL A   1      34.223  19.142  24.596  1.00  0.00    -0.269 OA
ATOM      6  H   UNL A   1      36.148  20.173  25.557  1.00  0.00     0.163 HD
BRANCH   4   7
ATOM      7  C   UNL A   1      33.077  21.178  24.729  1.00  0.00     0.041 A 
ATOM      8  C   UNL A   1      31.185  23.172  24.305  1.00  0.00     0.061 A 
ATOM      9  C   UNL A   1      31.959  22.716  23.233  1.00  0.00     0.028 A 
ATOM     10  C   UNL A   1      31.215  22.485  25.526  1.00  0.00     0.065 A 
ATOM     11  C   UNL A   1      32.928  21.740  23.456  1.00  0.00     0.016 A 
ATOM     12  C   UNL A   1      32.148  21.470  25.729  1.00  0.00     0.036 A 
ATOM     13  Cl  UNL A   1      30.079  22.801  26.790  1.00  0.00    -0.082 Cl
BRANCH   8  14
ATOM     14  N   UNL A   1      30.446  24.338  24.087  1.00  0.00    -0.306 N 
ATOM     15  C   UNL A   1      30.540  25.564  24.674  1.00  0.00     0.321 C 
ATOM     16  O   UNL A   1      29.481  26.170  24.863  1.00  0.00    -0.248 OA
ATOM     17  H   UNL A   1      29.746  24.261  23.400  1.00  0.00     0.171 HD
BRANCH  15  18
ATOM     18  N   UNL A   1      31.778  26.181  24.818  1.00  0.00    -0.325 N 
BRANCH  18  19
ATOM     19  C   UNL A   1      32.306  26.888  23.638  1.00  0.00     0.124 C 
BRANCH  19  20
ATOM     20  C   UNL A   1      32.866  28.307  23.954  1.00  0.00     0.005 C 
ATOM     21  C   UNL A   1      33.748  28.838  22.818  1.00  0.00     0.009 C 
BRANCH  20  22
ATOM     22  C   UNL A   1      31.685  29.255  24.263  1.00  0.00     0.002 C 
ATOM     23  C   UNL A   1      31.691  29.868  25.659  1.00  0.00     0.004 C 
ENDBRANCH  20  22
ENDBRANCH  19  20
ENDBRANCH  18  19
BRANCH  18  24
ATOM     24  C   UNL A   1      32.694  26.133  25.965  1.00  0.00     0.118 C 
ATOM     25  C   UNL A   1      33.936  25.293  25.677  1.00  0.00     0.027 C 
ENDBRANCH  18  24
ENDBRANCH  15  18
ENDBRANCH   8  14
ENDBRANCH   4   7
ENDBRANCH   2   3
ENDBRANCH   1   2
BRANCH   1  26
ATOM     26  C   UNL A   1      38.040  23.332  26.051  1.00  0.00     0.002 C 
BRANCH  26  27
ATOM     27  C   UNL A   1      39.210  22.408  26.409  1.00  0.00     0.002 C 
BRANCH  27  28
ATOM     28  C   UNL A   1      39.270  21.100  25.617  1.00  0.00     0.021 C 
BRANCH  28  29
ATOM     29  C   UNL A   1      39.657  19.872  26.439  1.00  0.00     0.116 C 
BRANCH  29  30
ATOM     30  N   UNL A   1      40.853  19.223  25.925  1.00  0.00    -0.352 N 
ATOM     31  C   UNL A   1      42.118  19.725  25.769  1.00  0.00     0.251 C 
ATOM     32  H   UNL A   1      40.735  18.285  25.649  1.00  0.00     0.163 HD
ATOM     33  O   UNL A   1      42.960  19.086  25.138  1.00  0.00    -0.269 OA
BRANCH  31  34
ATOM     34  C   UNL A   1      42.474  21.043  26.338  1.00  0.00     0.039 A 
ATOM     35  C   UNL A   1      42.831  22.077  25.469  1.00  0.00     0.014 A 
ATOM     36  C   UNL A   1      42.474  21.257  27.718  1.00  0.00     0.014 A 
ATOM     37  C   UNL A   1      43.131  23.343  25.981  1.00  0.00     0.010 A 
ATOM     38  C   UNL A   1      42.705  22.534  28.223  1.00  0.00     0.010 A 
ATOM     39  C   UNL A   1      43.038  23.590  27.360  1.00  0.00    -0.014 A 
BRANCH  39  40
ATOM     40  C   UNL A   1      43.277  24.949  27.913  1.00  0.00     0.031 A 
ATOM     41  C   UNL A   1      44.660  25.363  28.338  1.00  0.00     0.074 A 
ATOM     42  C   UNL A   1      42.237  25.786  28.095  1.00  0.00     0.049 A 
ATOM     43  N   UNL A   1      45.050  26.478  28.904  1.00  0.00    -0.248 NA
ATOM     44  C   UNL A   1      45.743  24.390  28.123  1.00  0.00     0.031 C 
ATOM     45  C   UNL A   1      40.840  25.483  27.775  1.00  0.00     0.029 A 
ATOM     46  N   UNL A   1      42.189  27.058  28.609  1.00  0.00    -0.354 N 
ATOM     47  C   UNL A   1      46.414  26.332  29.129  1.00  0.00     0.074 A 
ATOM     48  C   UNL A   1      46.777  25.006  28.678  1.00  0.00     0.031 C 
ATOM     49  C   UNL A   1      40.077  26.542  28.088  1.00  0.00     0.029 A 
ATOM     50  C   UNL A   1      40.921  27.584  28.664  1.00  0.00     0.049 A 
ATOM     51  H   UNL A   1      42.989  27.548  28.910  1.00  0.00     0.167 HD
ATOM     52  C   UNL A   1      47.285  27.227  29.649  1.00  0.00     0.037 A 
ATOM     53  C   UNL A   1      40.484  28.767  29.139  1.00  0.00     0.037 A 
ATOM     54  C   UNL A   1      46.930  28.560  30.062  1.00  0.00     0.049 A 
ATOM     55  C   UNL A   1      41.480  29.748  29.697  1.00  0.00     0.074 A 
ATOM     56  C   UNL A   1      47.759  29.568  30.522  1.00  0.00     0.029 A 
ATOM     57  N   UNL A   1      45.640  29.068  30.069  1.00  0.00    -0.354 N 
ATOM     58  N   UNL A   1      42.779  29.626  29.822  1.00  0.00    -0.248 NA
ATOM     59  C   UNL A   1      40.949  31.034  30.171  1.00  0.00     0.031 C 
ATOM     60  C   UNL A   1      46.966  30.670  30.854  1.00  0.00     0.029 A 
ATOM     61  C   UNL A   1      45.649  30.367  30.551  1.00  0.00     0.049 A 
ATOM     62  H   UNL A   1      44.838  28.579  29.776  1.00  0.00     0.167 HD
ATOM     63  C   UNL A   1      43.223  30.828  30.361  1.00  0.00     0.074 A 
ATOM     64  C   UNL A   1      42.057  31.670  30.521  1.00  0.00     0.031 C 
ATOM     65  C   UNL A   1      44.483  31.198  30.694  1.00  0.00     0.037 A 
BRANCH  52  66
ATOM     66  C   UNL A   1      48.719  26.808  29.799  1.00  0.00     0.057 A 
ATOM     67  C   UNL A   1      49.679  27.089  28.818  1.00  0.00     0.134 A 
ATOM     68  C   UNL A   1      49.158  26.182  30.973  1.00  0.00     0.134 A 
ATOM     69  F   UNL A   1      49.322  27.678  27.667  1.00  0.00    -0.206 F 
ATOM     70  C   UNL A   1      51.021  26.750  28.993  1.00  0.00     0.040 A 
ATOM     71  C   UNL A   1      50.502  25.861  31.170  1.00  0.00     0.040 A 
ATOM     72  F   UNL A   1      48.292  25.891  31.955  1.00  0.00    -0.206 F 
ATOM     73  C   UNL A   1      51.438  26.143  30.177  1.00  0.00     0.006 A 
ENDBRANCH  52  66
BRANCH  53  74
ATOM     74  C   UNL A   1      39.036  29.098  29.110  1.00  0.00     0.057 A 
ATOM     75  C   UNL A   1      38.246  29.001  30.262  1.00  0.00     0.134 A 
ATOM     76  C   UNL A   1      38.401  29.489  27.925  1.00  0.00     0.134 A 
ATOM     77  F   UNL A   1      38.792  28.615  31.424  1.00  0.00    -0.206 F 
ATOM     78  C   UNL A   1      36.872  29.245  30.229  1.00  0.00     0.040 A 
ATOM     79  C   UNL A   1      37.034  29.764  27.884  1.00  0.00     0.040 A 
ATOM     80  F   UNL A   1      39.103  29.611  26.788  1.00  0.00    -0.206 F 
ATOM     81  C   UNL A   1      36.263  29.632  29.037  1.00  0.00     0.006 A 
ENDBRANCH  53  74
BRANCH  65  82
ATOM     82  C   UNL A   1      44.673  32.588  31.227  1.00  0.00     0.057 A 
ATOM     83  C   UNL A   1      44.900  33.681  30.382  1.00  0.00     0.134 A 
ATOM     84  C   UNL A   1      44.588  32.840  32.602  1.00  0.00     0.134 A 
ATOM     85  F   UNL A   1      45.005  33.507  29.056  1.00  0.00    -0.206 F 
ATOM     86  C   UNL A   1      45.062  34.973  30.888  1.00  0.00     0.040 A 
ATOM     87  C   UNL A   1      44.719  34.130  33.118  1.00  0.00     0.040 A 
ATOM     88  F   UNL A   1      44.362  31.838  33.466  1.00  0.00    -0.206 F 
ATOM     89  C   UNL A   1      44.964  35.200  32.260  1.00  0.00     0.006 A 
ENDBRANCH  65  82
ENDBRANCH  39  40
ENDBRANCH  31  34
ENDBRANCH  29  30
ENDBRANCH  28  29
ENDBRANCH  27  28
ENDBRANCH  26  27
ENDBRANCH   1  26
TORSDOF 19
ENDMDL
MODEL 3
REMARK VINA RESULT:      -9.9      4.841      9.859
REMARK SMILES CC[C@H](C)CN(CC)C(=O)Nc1ccc(C(=O)NCCCCCCNC(=O)c2ccc(-c3c4nc(c(-c5c(F)cccc5F)c5ccc([nH]5)c(-c5c(F)cccc5F)c5nc(c(-c6c(F)cccc6F)c6ccc3[nH]6)C=C5)C=C4)cc2)cc1Cl
REMARK SMILES IDX 20 1 19 2 18 3 16 4 17 5 15 7 12 8 13 9 83 10 14 11 82 12
REMARK SMILES IDX 84 13 11 14 9 15 10 16 6 18 5 19 3 20 4 21 2 22 1 23 7 24
REMARK SMILES IDX 8 25 21 26 22 27 23 28 24 29 25 30 26 31 27 33 28 34 29 35
REMARK SMILES IDX 81 36 30 37 80 38 31 39 32 40 33 41 74 42 34 43 79 44 73 45
REMARK SMILES IDX 75 46 35 47 78 48 72 49 71 50 36 52 62 53 45 54 61 55 46 56
REMARK SMILES IDX 49 57 60 58 76 59 47 60 48 61 59 63 77 64 50 65 37 66 38 67
REMARK SMILES IDX 43 68 39 69 40 70 42 71 44 72 41 73 63 74 64 75 69 76 65 77
REMARK SMILES IDX 66 78 68 79 70 80 67 81 51 82 52 83 57 84 53 85 54 86 56 87
REMARK SMILES IDX 58 88 55 89
REMARK H PARENT 18 6 11 17 25 32 75 51 49 62
REMARK Flexibility Score: inf
ROOT
ATOM      1  C   UNL A   1      34.016  28.913  26.533  1.00  0.00     0.021 C 
ENDROOT
BRANCH   1   2
ATOM      2  C   UNL A   1      33.649  28.843  25.050  1.00  0.00     0.116 C 
BRANCH   2   3
ATOM      3  N   UNL A   1      32.407  29.557  24.800  1.00  0.00    -0.352 N 
ATOM      4  C   UNL A   1      31.252  29.179  24.165  1.00  0.00     0.251 C 
ATOM      5  O   UNL A   1      30.302  29.958  24.122  1.00  0.00    -0.269 OA
ATOM      6  H   UNL A   1      32.392  30.477  25.151  1.00  0.00     0.163 HD
BRANCH   4   7
ATOM      7  C   UNL A   1      31.092  27.812  23.623  1.00  0.00     0.041 A 
ATOM      8  C   UNL A   1      31.108  25.111  22.959  1.00  0.00     0.061 A 
ATOM      9  C   UNL A   1      30.324  25.554  24.029  1.00  0.00     0.028 A 
ATOM     10  C   UNL A   1      31.709  26.045  22.104  1.00  0.00     0.065 A 
ATOM     11  C   UNL A   1      30.343  26.903  24.379  1.00  0.00     0.016 A 
ATOM     12  C   UNL A   1      31.679  27.401  22.425  1.00  0.00     0.036 A 
ATOM     13  Cl  UNL A   1      32.437  25.587  20.604  1.00  0.00    -0.082 Cl
BRANCH   8  14
ATOM     14  N   UNL A   1      31.275  23.728  22.841  1.00  0.00    -0.306 N 
ATOM     15  C   UNL A   1      32.401  22.966  22.922  1.00  0.00     0.321 C 
ATOM     16  O   UNL A   1      32.464  21.991  22.167  1.00  0.00    -0.248 OA
ATOM     17  H   UNL A   1      30.446  23.226  22.671  1.00  0.00     0.171 HD
BRANCH  15  18
ATOM     18  N   UNL A   1      33.298  23.148  23.969  1.00  0.00    -0.325 N 
BRANCH  18  19
ATOM     19  C   UNL A   1      32.969  22.490  25.245  1.00  0.00     0.124 C 
BRANCH  19  20
ATOM     20  C   UNL A   1      34.124  21.613  25.817  1.00  0.00     0.005 C 
ATOM     21  C   UNL A   1      34.084  21.547  27.347  1.00  0.00     0.009 C 
BRANCH  20  22
ATOM     22  C   UNL A   1      34.053  20.209  25.173  1.00  0.00     0.002 C 
ATOM     23  C   UNL A   1      32.648  19.716  24.843  1.00  0.00     0.004 C 
ENDBRANCH  20  22
ENDBRANCH  19  20
ENDBRANCH  18  19
BRANCH  18  24
ATOM     24  C   UNL A   1      34.490  24.006  24.011  1.00  0.00     0.118 C 
ATOM     25  C   UNL A   1      34.266  25.262  24.851  1.00  0.00     0.027 C 
ENDBRANCH  18  24
ENDBRANCH  15  18
ENDBRANCH   8  14
ENDBRANCH   4   7
ENDBRANCH   2   3
ENDBRANCH   1   2
BRANCH   1  26
ATOM     26  C   UNL A   1      33.296  30.039  27.287  1.00  0.00     0.002 C 
BRANCH  26  27
ATOM     27  C   UNL A   1      34.217  31.104  27.893  1.00  0.00     0.002 C 
BRANCH  27  28
ATOM     28  C   UNL A   1      33.949  32.536  27.428  1.00  0.00     0.021 C 
BRANCH  28  29
ATOM     29  C   UNL A   1      32.502  32.999  27.585  1.00  0.00     0.116 C 
BRANCH  29  30
ATOM     30  N   UNL A   1      32.408  34.427  27.845  1.00  0.00    -0.352 N 
ATOM     31  C   UNL A   1      33.112  35.199  28.731  1.00  0.00     0.251 C 
ATOM     32  H   UNL A   1      31.740  34.908  27.306  1.00  0.00     0.163 HD
ATOM     33  O   UNL A   1      32.762  36.360  28.949  1.00  0.00    -0.269 OA
BRANCH  31  34
ATOM     34  C   UNL A   1      34.281  34.641  29.444  1.00  0.00     0.039 A 
ATOM     35  C   UNL A   1      34.076  33.978  30.657  1.00  0.00     0.014 A 
ATOM     36  C   UNL A   1      35.573  34.783  28.934  1.00  0.00     0.014 A 
ATOM     37  C   UNL A   1      35.161  33.406  31.328  1.00  0.00     0.010 A 
ATOM     38  C   UNL A   1      36.644  34.154  29.566  1.00  0.00     0.010 A 
ATOM     39  C   UNL A   1      36.449  33.461  30.771  1.00  0.00    -0.014 A 
BRANCH  39  40
ATOM     40  C   UNL A   1      37.599  32.792  31.432  1.00  0.00     0.031 A 
ATOM     41  C   UNL A   1      38.248  31.593  30.795  1.00  0.00     0.074 A 
ATOM     42  C   UNL A   1      38.018  33.222  32.639  1.00  0.00     0.049 A 
ATOM     43  N   UNL A   1      39.214  30.836  31.252  1.00  0.00    -0.248 NA
ATOM     44  C   UNL A   1      37.727  31.170  29.484  1.00  0.00     0.031 C 
ATOM     45  C   UNL A   1      37.437  34.340  33.386  1.00  0.00     0.029 A 
ATOM     46  N   UNL A   1      39.019  32.762  33.457  1.00  0.00    -0.354 N 
ATOM     47  C   UNL A   1      39.402  29.842  30.299  1.00  0.00     0.074 A 
ATOM     48  C   UNL A   1      38.424  30.066  29.258  1.00  0.00     0.031 C 
ATOM     49  C   UNL A   1      38.098  34.485  34.546  1.00  0.00     0.029 A 
ATOM     50  C   UNL A   1      39.124  33.451  34.642  1.00  0.00     0.049 A 
ATOM     51  H   UNL A   1      39.606  32.009  33.219  1.00  0.00     0.167 HD
ATOM     52  C   UNL A   1      40.318  28.846  30.286  1.00  0.00     0.037 A 
ATOM     53  C   UNL A   1      39.944  33.263  35.693  1.00  0.00     0.037 A 
ATOM     54  C   UNL A   1      41.317  28.648  31.304  1.00  0.00     0.049 A 
ATOM     55  C   UNL A   1      40.963  32.156  35.642  1.00  0.00     0.074 A 
ATOM     56  C   UNL A   1      42.341  27.717  31.336  1.00  0.00     0.029 A 
ATOM     57  N   UNL A   1      41.413  29.390  32.471  1.00  0.00    -0.354 N 
ATOM     58  N   UNL A   1      41.184  31.279  34.694  1.00  0.00    -0.248 NA
ATOM     59  C   UNL A   1      41.851  32.018  36.805  1.00  0.00     0.031 C 
ATOM     60  C   UNL A   1      43.027  27.863  32.545  1.00  0.00     0.029 A 
ATOM     61  C   UNL A   1      42.464  28.919  33.242  1.00  0.00     0.049 A 
ATOM     62  H   UNL A   1      40.823  30.138  32.717  1.00  0.00     0.167 HD
ATOM     63  C   UNL A   1      42.252  30.507  35.131  1.00  0.00     0.074 A 
ATOM     64  C   UNL A   1      42.646  31.030  36.422  1.00  0.00     0.031 C 
ATOM     65  C   UNL A   1      42.853  29.458  34.519  1.00  0.00     0.037 A 
BRANCH  52  66
ATOM     66  C   UNL A   1      40.298  27.887  29.131  1.00  0.00     0.057 A 
ATOM     67  C   UNL A   1      41.109  28.070  28.003  1.00  0.00     0.134 A 
ATOM     68  C   UNL A   1      39.513  26.728  29.182  1.00  0.00     0.134 A 
ATOM     69  F   UNL A   1      41.877  29.164  27.888  1.00  0.00    -0.206 F 
ATOM     70  C   UNL A   1      41.129  27.142  26.961  1.00  0.00     0.040 A 
ATOM     71  C   UNL A   1      39.544  25.780  28.158  1.00  0.00     0.040 A 
ATOM     72  F   UNL A   1      38.720  26.489  30.236  1.00  0.00    -0.206 F 
ATOM     73  C   UNL A   1      40.353  25.987  27.042  1.00  0.00     0.006 A 
ENDBRANCH  52  66
BRANCH  53  74
ATOM     74  C   UNL A   1      39.845  34.140  36.888  1.00  0.00     0.057 A 
ATOM     75  C   UNL A   1      39.060  33.779  37.990  1.00  0.00     0.134 A 
ATOM     76  C   UNL A   1      40.506  35.373  36.945  1.00  0.00     0.134 A 
ATOM     77  F   UNL A   1      38.388  32.619  37.988  1.00  0.00    -0.206 F 
ATOM     78  C   UNL A   1      38.908  34.626  39.089  1.00  0.00     0.040 A 
ATOM     79  C   UNL A   1      40.386  36.218  38.050  1.00  0.00     0.040 A 
ATOM     80  F   UNL A   1      41.283  35.773  35.927  1.00  0.00    -0.206 F 
ATOM     81  C   UNL A   1      39.575  35.850  39.121  1.00  0.00     0.006 A 
ENDBRANCH  53  74
BRANCH  65  82
ATOM     82  C   UNL A   1      44.023  28.831  35.218  1.00  0.00     0.057 A 
ATOM     83  C   UNL A   1      45.336  29.265  34.999  1.00  0.00     0.134 A 
ATOM     84  C   UNL A   1      43.828  27.805  36.152  1.00  0.00     0.134 A 
ATOM     85  F   UNL A   1      45.593  30.234  34.109  1.00  0.00    -0.206 F 
ATOM     86  C   UNL A   1      46.417  28.684  35.666  1.00  0.00     0.040 A 
ATOM     87  C   UNL A   1      44.897  27.236  36.846  1.00  0.00     0.040 A 
ATOM     88  F   UNL A   1      42.594  27.349  36.416  1.00  0.00    -0.206 F 
ATOM     89  C   UNL A   1      46.197  27.671  36.598  1.00  0.00     0.006 A 
ENDBRANCH  65  82
ENDBRANCH  39  40
ENDBRANCH  31  34
ENDBRANCH  29  30
ENDBRANCH  28  29
ENDBRANCH  27  28
ENDBRANCH  26  27
ENDBRANCH   1  26
TORSDOF 19
ENDMDL
