MODEL 1
REMARK VINA RESULT:     -11.9      0.000      0.000
REMARK SMILES Cc1nn2c(nnc3c(=O)n(CCCC(=O)NCCCCCCNC(=O)c4ccc(-c5c6nc(c(-c7c(F)cccc7F)c7ccc([nH]7)c(-c7c(F)cccc7F)c7nc(c(-c8c(F)cccc8F)c8ccc5[nH]8)C=C7)C=C6)cc4)ccc32)c1-c1ccc(F)cc1
REMARK SMILES IDX 19 1 18 2 17 3 15 4 16 5 14 7 13 8 12 9 11 10 1 11 2 12 3 13
REMARK SMILES IDX 84 14 4 15 5 16 83 17 6 18 8 19 82 20 7 21 9 22 81 23 10 24
REMARK SMILES IDX 85 25 86 26 91 27 87 28 90 29 88 30 89 31 20 32 21 33 22 34
REMARK SMILES IDX 23 35 24 36 25 37 26 39 27 40 28 41 80 42 29 43 79 44 30 45
REMARK SMILES IDX 31 46 32 47 73 48 33 49 78 50 72 51 74 52 34 53 77 54 71 55
REMARK SMILES IDX 70 56 35 58 61 59 44 60 60 61 45 62 48 63 59 64 75 65 46 66
REMARK SMILES IDX 47 67 58 69 76 70 49 71 36 72 37 73 42 74 38 75 39 76 41 77
REMARK SMILES IDX 43 78 40 79 62 80 63 81 68 82 64 83 65 84 67 85 69 86 66 87
REMARK SMILES IDX 50 88 51 89 56 90 52 91 53 92 55 93 57 94 54 95
REMARK H PARENT 17 6 24 38 74 57 48 68
REMARK Flexibility Score: inf
ROOT
ATOM      1  C   UNL A   1      36.100  29.684  27.601  1.00  0.00     0.021 C 
ENDROOT
BRANCH   1   2
ATOM      2  C   UNL A   1      34.618  29.901  27.297  1.00  0.00     0.116 C 
BRANCH   2   3
ATOM      3  N   UNL A   1      33.875  28.668  27.342  1.00  0.00    -0.356 N 
ATOM      4  C   UNL A   1      32.866  28.169  26.593  1.00  0.00     0.220 C 
ATOM      5  O   UNL A   1      32.553  26.999  26.854  1.00  0.00    -0.275 OA
ATOM      6  H   UNL A   1      34.161  28.065  28.066  1.00  0.00     0.163 HD
BRANCH   4   7
ATOM      7  C   UNL A   1      32.166  28.868  25.433  1.00  0.00     0.102 C 
BRANCH   7   8
ATOM      8  C   UNL A   1      31.257  28.190  24.402  1.00  0.00     0.032 C 
BRANCH   8   9
ATOM      9  C   UNL A   1      31.708  27.274  23.251  1.00  0.00     0.126 C 
BRANCH   9  10
ATOM     10  N   UNL A   1      32.344  25.948  23.463  1.00  0.00    -0.313 N 
ATOM     11  C   UNL A   1      36.898  20.024  25.011  1.00  0.00     0.069 C 
ATOM     12  C   UNL A   1      35.600  20.721  24.845  1.00  0.00     0.070 A 
ATOM     13  N   UNL A   1      35.560  22.060  24.750  1.00  0.00    -0.170 NA
ATOM     14  C   UNL A   1      34.315  20.140  24.732  1.00  0.00     0.051 A 
ATOM     15  N   UNL A   1      34.251  22.350  24.508  1.00  0.00    -0.210 N 
ATOM     16  C   UNL A   1      33.466  21.205  24.550  1.00  0.00     0.186 A 
ATOM     17  C   UNL A   1      33.654  23.574  24.200  1.00  0.00     0.102 A 
ATOM     18  N   UNL A   1      32.117  21.278  24.376  1.00  0.00    -0.129 NA
ATOM     19  C   UNL A   1      32.333  23.525  23.963  1.00  0.00     0.177 A 
ATOM     20  C   UNL A   1      34.363  24.829  24.107  1.00  0.00     0.049 A 
ATOM     21  N   UNL A   1      31.583  22.372  24.081  1.00  0.00    -0.141 NA
ATOM     22  C   UNL A   1      31.608  24.764  23.564  1.00  0.00     0.280 A 
ATOM     23  C   UNL A   1      33.708  25.947  23.757  1.00  0.00     0.091 A 
ATOM     24  O   UNL A   1      30.399  24.668  23.398  1.00  0.00    -0.267 OA
BRANCH  14  25
ATOM     25  C   UNL A   1      33.851  18.768  24.739  1.00  0.00    -0.012 A 
ATOM     26  C   UNL A   1      34.398  17.828  23.858  1.00  0.00     0.012 A 
ATOM     27  C   UNL A   1      32.884  18.364  25.675  1.00  0.00     0.012 A 
ATOM     28  C   UNL A   1      33.984  16.494  23.921  1.00  0.00     0.040 A 
ATOM     29  C   UNL A   1      32.473  17.032  25.733  1.00  0.00     0.040 A 
ATOM     30  C   UNL A   1      33.028  16.110  24.856  1.00  0.00     0.123 A 
ATOM     31  F   UNL A   1      32.641  14.829  24.914  1.00  0.00    -0.207 F 
ENDBRANCH  14  25
ENDBRANCH   9  10
ENDBRANCH   8   9
ENDBRANCH   7   8
ENDBRANCH   4   7
ENDBRANCH   2   3
ENDBRANCH   1   2
BRANCH   1  32
ATOM     32  C   UNL A   1      36.689  30.738  28.538  1.00  0.00     0.002 C 
BRANCH  32  33
ATOM     33  C   UNL A   1      36.379  32.194  28.155  1.00  0.00     0.002 C 
BRANCH  33  34
ATOM     34  C   UNL A   1      35.577  33.011  29.181  1.00  0.00     0.021 C 
BRANCH  34  35
ATOM     35  C   UNL A   1      34.818  32.150  30.178  1.00  0.00     0.116 C 
BRANCH  35  36
ATOM     36  N   UNL A   1      34.983  32.636  31.541  1.00  0.00    -0.352 N 
ATOM     37  C   UNL A   1      35.827  32.199  32.535  1.00  0.00     0.251 C 
ATOM     38  H   UNL A   1      34.402  33.391  31.789  1.00  0.00     0.163 HD
ATOM     39  O   UNL A   1      35.614  32.494  33.700  1.00  0.00    -0.269 OA
BRANCH  37  40
ATOM     40  C   UNL A   1      37.004  31.383  32.185  1.00  0.00     0.039 A 
ATOM     41  C   UNL A   1      38.188  32.011  31.784  1.00  0.00     0.014 A 
ATOM     42  C   UNL A   1      36.900  29.992  32.185  1.00  0.00     0.014 A 
ATOM     43  C   UNL A   1      39.272  31.226  31.411  1.00  0.00     0.010 A 
ATOM     44  C   UNL A   1      38.002  29.216  31.930  1.00  0.00     0.010 A 
ATOM     45  C   UNL A   1      39.163  29.832  31.486  1.00  0.00    -0.014 A 
BRANCH  45  46
ATOM     46  C   UNL A   1      40.307  28.990  31.188  1.00  0.00     0.031 A 
ATOM     47  C   UNL A   1      41.147  28.685  32.372  1.00  0.00     0.074 A 
ATOM     48  C   UNL A   1      40.470  28.375  30.000  1.00  0.00     0.049 A 
ATOM     49  N   UNL A   1      42.322  29.148  32.640  1.00  0.00    -0.248 NA
ATOM     50  C   UNL A   1      40.545  27.911  33.470  1.00  0.00     0.031 C 
ATOM     51  C   UNL A   1      39.546  28.322  28.863  1.00  0.00     0.029 A 
ATOM     52  N   UNL A   1      41.494  27.579  29.592  1.00  0.00    -0.354 N 
ATOM     53  C   UNL A   1      42.705  28.541  33.832  1.00  0.00     0.074 A 
ATOM     54  C   UNL A   1      41.509  27.973  34.393  1.00  0.00     0.031 C 
ATOM     55  C   UNL A   1      39.956  27.372  27.991  1.00  0.00     0.029 A 
ATOM     56  C   UNL A   1      41.245  26.865  28.427  1.00  0.00     0.049 A 
ATOM     57  H   UNL A   1      42.344  27.514  30.085  1.00  0.00     0.167 HD
ATOM     58  C   UNL A   1      44.021  28.327  34.107  1.00  0.00     0.037 A 
ATOM     59  C   UNL A   1      42.041  25.908  27.887  1.00  0.00     0.037 A 
ATOM     60  C   UNL A   1      44.860  29.112  33.229  1.00  0.00     0.049 A 
ATOM     61  C   UNL A   1      43.396  26.080  28.472  1.00  0.00     0.074 A 
ATOM     62  C   UNL A   1      45.017  30.459  32.968  1.00  0.00     0.029 A 
ATOM     63  N   UNL A   1      45.436  28.458  32.166  1.00  0.00    -0.354 N 
ATOM     64  N   UNL A   1      44.168  27.098  28.216  1.00  0.00    -0.248 NA
ATOM     65  C   UNL A   1      43.695  25.365  29.702  1.00  0.00     0.031 C 
ATOM     66  C   UNL A   1      45.238  30.539  31.560  1.00  0.00     0.029 A 
ATOM     67  C   UNL A   1      45.274  29.241  31.053  1.00  0.00     0.049 A 
ATOM     68  H   UNL A   1      45.886  27.583  32.198  1.00  0.00     0.167 HD
ATOM     69  C   UNL A   1      44.742  27.422  29.437  1.00  0.00     0.074 A 
ATOM     70  C   UNL A   1      44.484  26.265  30.294  1.00  0.00     0.031 C 
ATOM     71  C   UNL A   1      45.105  28.708  29.721  1.00  0.00     0.037 A 
BRANCH  58  72
ATOM     72  C   UNL A   1      44.563  27.114  34.835  1.00  0.00     0.057 A 
ATOM     73  C   UNL A   1      44.502  25.791  34.355  1.00  0.00     0.134 A 
ATOM     74  C   UNL A   1      45.470  27.319  35.893  1.00  0.00     0.134 A 
ATOM     75  F   UNL A   1      43.717  25.421  33.338  1.00  0.00    -0.206 F 
ATOM     76  C   UNL A   1      45.331  24.772  34.833  1.00  0.00     0.040 A 
ATOM     77  C   UNL A   1      46.338  26.319  36.343  1.00  0.00     0.040 A 
ATOM     78  F   UNL A   1      45.610  28.529  36.457  1.00  0.00    -0.206 F 
ATOM     79  C   UNL A   1      46.284  25.044  35.799  1.00  0.00     0.006 A 
ENDBRANCH  58  72
BRANCH  59  80
ATOM     80  C   UNL A   1      41.665  24.699  27.122  1.00  0.00     0.057 A 
ATOM     81  C   UNL A   1      40.571  23.905  27.506  1.00  0.00     0.134 A 
ATOM     82  C   UNL A   1      42.532  24.137  26.174  1.00  0.00     0.134 A 
ATOM     83  F   UNL A   1      39.721  24.313  28.460  1.00  0.00    -0.206 F 
ATOM     84  C   UNL A   1      40.363  22.619  26.996  1.00  0.00     0.040 A 
ATOM     85  C   UNL A   1      42.338  22.848  25.658  1.00  0.00     0.040 A 
ATOM     86  F   UNL A   1      43.627  24.800  25.776  1.00  0.00    -0.206 F 
ATOM     87  C   UNL A   1      41.256  22.080  26.078  1.00  0.00     0.006 A 
ENDBRANCH  59  80
BRANCH  71  88
ATOM     88  C   UNL A   1      45.114  29.695  28.586  1.00  0.00     0.057 A 
ATOM     89  C   UNL A   1      43.955  30.435  28.333  1.00  0.00     0.134 A 
ATOM     90  C   UNL A   1      46.172  29.845  27.674  1.00  0.00     0.134 A 
ATOM     91  F   UNL A   1      42.882  30.299  29.129  1.00  0.00    -0.206 F 
ATOM     92  C   UNL A   1      43.853  31.297  27.239  1.00  0.00     0.040 A 
ATOM     93  C   UNL A   1      46.095  30.731  26.594  1.00  0.00     0.040 A 
ATOM     94  F   UNL A   1      47.283  29.106  27.771  1.00  0.00    -0.206 F 
ATOM     95  C   UNL A   1      44.931  31.458  26.373  1.00  0.00     0.006 A 
ENDBRANCH  71  88
ENDBRANCH  45  46
ENDBRANCH  37  40
ENDBRANCH  35  36
ENDBRANCH  34  35
ENDBRANCH  33  34
ENDBRANCH  32  33
ENDBRANCH   1  32
TORSDOF 17
ENDMDL
MODEL 2
REMARK VINA RESULT:     -11.8      2.593      7.084
REMARK SMILES Cc1nn2c(nnc3c(=O)n(CCCC(=O)NCCCCCCNC(=O)c4ccc(-c5c6nc(c(-c7c(F)cccc7F)c7ccc([nH]7)c(-c7c(F)cccc7F)c7nc(c(-c8c(F)cccc8F)c8ccc5[nH]8)C=C7)C=C6)cc4)ccc32)c1-c1ccc(F)cc1
REMARK SMILES IDX 19 1 18 2 17 3 15 4 16 5 14 7 13 8 12 9 11 10 1 11 2 12 3 13
REMARK SMILES IDX 84 14 4 15 5 16 83 17 6 18 8 19 82 20 7 21 9 22 81 23 10 24
REMARK SMILES IDX 85 25 86 26 91 27 87 28 90 29 88 30 89 31 20 32 21 33 22 34
REMARK SMILES IDX 23 35 24 36 25 37 26 39 27 40 28 41 80 42 29 43 79 44 30 45
REMARK SMILES IDX 31 46 32 47 73 48 33 49 78 50 72 51 74 52 34 53 77 54 71 55
REMARK SMILES IDX 70 56 35 58 61 59 44 60 60 61 45 62 48 63 59 64 75 65 46 66
REMARK SMILES IDX 47 67 58 69 76 70 49 71 36 72 37 73 42 74 38 75 39 76 41 77
REMARK SMILES IDX 43 78 40 79 62 80 63 81 68 82 64 83 65 84 67 85 69 86 66 87
REMARK SMILES IDX 50 88 51 89 56 90 52 91 53 92 55 93 57 94 54 95
REMARK H PARENT 17 6 24 38 74 57 48 68
REMARK Flexibility Score: inf
ROOT
ATOM      1  C   UNL A   1      34.430  24.863  23.766  1.00  0.00     0.021 C 
ENDROOT
BRANCH   1   2
ATOM      2  C   UNL A   1      33.990  26.028  24.653  1.00  0.00     0.116 C 
BRANCH   2   3
ATOM      3  N   UNL A   1      34.009  27.280  23.941  1.00  0.00    -0.356 N 
ATOM      4  C   UNL A   1      33.075  28.232  23.720  1.00  0.00     0.220 C 
ATOM      5  O   UNL A   1      33.495  29.252  23.155  1.00  0.00    -0.275 OA
ATOM      6  H   UNL A   1      34.882  27.484  23.533  1.00  0.00     0.163 HD
BRANCH   4   7
ATOM      7  C   UNL A   1      31.620  28.196  24.172  1.00  0.00     0.102 C 
BRANCH   7   8
ATOM      8  C   UNL A   1      31.128  27.765  25.558  1.00  0.00     0.032 C 
BRANCH   8   9
ATOM      9  C   UNL A   1      30.307  26.505  25.884  1.00  0.00     0.126 C 
BRANCH   9  10
ATOM     10  N   UNL A   1      30.632  25.158  25.349  1.00  0.00    -0.313 N 
ATOM     11  C   UNL A   1      32.123  18.961  21.152  1.00  0.00     0.069 C 
ATOM     12  C   UNL A   1      32.189  19.824  22.356  1.00  0.00     0.070 A 
ATOM     13  N   UNL A   1      31.793  21.105  22.292  1.00  0.00    -0.170 NA
ATOM     14  C   UNL A   1      32.608  19.461  23.657  1.00  0.00     0.051 A 
ATOM     15  N   UNL A   1      31.891  21.562  23.572  1.00  0.00    -0.210 N 
ATOM     16  C   UNL A   1      32.438  20.599  24.409  1.00  0.00     0.186 A 
ATOM     17  C   UNL A   1      31.490  22.785  24.112  1.00  0.00     0.102 A 
ATOM     18  N   UNL A   1      32.663  20.865  25.726  1.00  0.00    -0.129 NA
ATOM     19  C   UNL A   1      31.677  22.917  25.435  1.00  0.00     0.177 A 
ATOM     20  C   UNL A   1      30.892  23.858  23.352  1.00  0.00     0.049 A 
ATOM     21  N   UNL A   1      32.287  21.955  26.216  1.00  0.00    -0.141 NA
ATOM     22  C   UNL A   1      31.228  24.159  26.125  1.00  0.00     0.280 A 
ATOM     23  C   UNL A   1      30.496  24.981  23.971  1.00  0.00     0.091 A 
ATOM     24  O   UNL A   1      31.459  24.241  27.324  1.00  0.00    -0.267 OA
BRANCH  14  25
ATOM     25  C   UNL A   1      33.083  18.216  24.227  1.00  0.00    -0.012 A 
ATOM     26  C   UNL A   1      32.213  17.385  24.943  1.00  0.00     0.012 A 
ATOM     27  C   UNL A   1      34.411  17.812  24.013  1.00  0.00     0.012 A 
ATOM     28  C   UNL A   1      32.670  16.158  25.432  1.00  0.00     0.040 A 
ATOM     29  C   UNL A   1      34.863  16.587  24.504  1.00  0.00     0.040 A 
ATOM     30  C   UNL A   1      33.988  15.772  25.208  1.00  0.00     0.123 A 
ATOM     31  F   UNL A   1      34.418  14.592  25.674  1.00  0.00    -0.207 F 
ENDBRANCH  14  25
ENDBRANCH   9  10
ENDBRANCH   8   9
ENDBRANCH   7   8
ENDBRANCH   4   7
ENDBRANCH   2   3
ENDBRANCH   1   2
BRANCH   1  32
ATOM     32  C   UNL A   1      35.190  23.775  24.525  1.00  0.00     0.002 C 
BRANCH  32  33
ATOM     33  C   UNL A   1      36.300  23.077  23.722  1.00  0.00     0.002 C 
BRANCH  33  34
ATOM     34  C   UNL A   1      37.209  22.119  24.509  1.00  0.00     0.021 C 
BRANCH  34  35
ATOM     35  C   UNL A   1      38.052  22.817  25.563  1.00  0.00     0.116 C 
BRANCH  35  36
ATOM     36  N   UNL A   1      39.209  22.016  25.942  1.00  0.00    -0.352 N 
ATOM     37  C   UNL A   1      40.434  22.413  26.424  1.00  0.00     0.251 C 
ATOM     38  H   UNL A   1      39.097  21.044  25.837  1.00  0.00     0.163 HD
ATOM     39  O   UNL A   1      41.390  21.654  26.383  1.00  0.00    -0.269 OA
BRANCH  37  40
ATOM     40  C   UNL A   1      40.587  23.758  27.008  1.00  0.00     0.039 A 
ATOM     41  C   UNL A   1      39.860  24.830  26.481  1.00  0.00     0.014 A 
ATOM     42  C   UNL A   1      41.514  23.961  28.032  1.00  0.00     0.014 A 
ATOM     43  C   UNL A   1      40.052  26.099  27.012  1.00  0.00     0.010 A 
ATOM     44  C   UNL A   1      41.621  25.188  28.635  1.00  0.00     0.010 A 
ATOM     45  C   UNL A   1      40.938  26.263  28.085  1.00  0.00    -0.014 A 
BRANCH  45  46
ATOM     46  C   UNL A   1      41.092  27.560  28.717  1.00  0.00     0.031 A 
ATOM     47  C   UNL A   1      42.297  28.301  28.272  1.00  0.00     0.074 A 
ATOM     48  C   UNL A   1      40.128  28.123  29.473  1.00  0.00     0.049 A 
ATOM     49  N   UNL A   1      43.377  28.519  28.944  1.00  0.00    -0.248 NA
ATOM     50  C   UNL A   1      42.383  28.700  26.858  1.00  0.00     0.031 C 
ATOM     51  C   UNL A   1      38.762  27.646  29.716  1.00  0.00     0.029 A 
ATOM     52  N   UNL A   1      40.152  29.313  30.127  1.00  0.00    -0.354 N 
ATOM     53  C   UNL A   1      44.192  29.284  28.115  1.00  0.00     0.074 A 
ATOM     54  C   UNL A   1      43.628  29.180  26.796  1.00  0.00     0.031 C 
ATOM     55  C   UNL A   1      38.033  28.636  30.282  1.00  0.00     0.029 A 
ATOM     56  C   UNL A   1      38.914  29.750  30.583  1.00  0.00     0.049 A 
ATOM     57  H   UNL A   1      40.981  29.826  30.266  1.00  0.00     0.167 HD
ATOM     58  C   UNL A   1      45.094  30.155  28.645  1.00  0.00     0.037 A 
ATOM     59  C   UNL A   1      38.645  30.957  31.142  1.00  0.00     0.037 A 
ATOM     60  C   UNL A   1      45.307  29.877  30.048  1.00  0.00     0.049 A 
ATOM     61  C   UNL A   1      39.938  31.529  31.598  1.00  0.00     0.074 A 
ATOM     62  C   UNL A   1      45.757  28.793  30.776  1.00  0.00     0.029 A 
ATOM     63  N   UNL A   1      44.665  30.690  30.951  1.00  0.00    -0.354 N 
ATOM     64  N   UNL A   1      40.633  31.043  32.588  1.00  0.00    -0.248 NA
ATOM     65  C   UNL A   1      40.685  32.346  30.655  1.00  0.00     0.031 C 
ATOM     66  C   UNL A   1      44.951  28.780  31.954  1.00  0.00     0.029 A 
ATOM     67  C   UNL A   1      44.109  29.890  31.915  1.00  0.00     0.049 A 
ATOM     68  H   UNL A   1      44.613  31.672  30.913  1.00  0.00     0.167 HD
ATOM     69  C   UNL A   1      41.951  31.109  32.160  1.00  0.00     0.074 A 
ATOM     70  C   UNL A   1      41.928  32.004  31.003  1.00  0.00     0.031 C 
ATOM     71  C   UNL A   1      42.877  30.206  32.600  1.00  0.00     0.037 A 
BRANCH  58  72
ATOM     72  C   UNL A   1      45.444  31.502  28.048  1.00  0.00     0.057 A 
ATOM     73  C   UNL A   1      46.676  31.821  27.443  1.00  0.00     0.134 A 
ATOM     74  C   UNL A   1      44.398  32.403  27.773  1.00  0.00     0.134 A 
ATOM     75  F   UNL A   1      47.769  31.064  27.574  1.00  0.00    -0.206 F 
ATOM     76  C   UNL A   1      46.834  32.903  26.571  1.00  0.00     0.040 A 
ATOM     77  C   UNL A   1      44.533  33.458  26.863  1.00  0.00     0.040 A 
ATOM     78  F   UNL A   1      43.178  32.228  28.305  1.00  0.00    -0.206 F 
ATOM     79  C   UNL A   1      45.751  33.699  26.243  1.00  0.00     0.006 A 
ENDBRANCH  58  72
BRANCH  59  80
ATOM     80  C   UNL A   1      37.411  31.768  31.067  1.00  0.00     0.057 A 
ATOM     81  C   UNL A   1      36.455  31.739  32.097  1.00  0.00     0.134 A 
ATOM     82  C   UNL A   1      37.005  32.368  29.866  1.00  0.00     0.134 A 
ATOM     83  F   UNL A   1      36.711  31.125  33.260  1.00  0.00    -0.206 F 
ATOM     84  C   UNL A   1      35.164  32.254  31.935  1.00  0.00     0.040 A 
ATOM     85  C   UNL A   1      35.714  32.884  29.689  1.00  0.00     0.040 A 
ATOM     86  F   UNL A   1      37.833  32.407  28.811  1.00  0.00    -0.206 F 
ATOM     87  C   UNL A   1      34.784  32.817  30.723  1.00  0.00     0.006 A 
ENDBRANCH  59  80
BRANCH  71  88
ATOM     88  C   UNL A   1      42.490  29.318  33.751  1.00  0.00     0.057 A 
ATOM     89  C   UNL A   1      42.879  29.689  35.042  1.00  0.00     0.134 A 
ATOM     90  C   UNL A   1      41.864  28.069  33.613  1.00  0.00     0.134 A 
ATOM     91  F   UNL A   1      43.535  30.844  35.243  1.00  0.00    -0.206 F 
ATOM     92  C   UNL A   1      42.643  28.870  36.148  1.00  0.00     0.040 A 
ATOM     93  C   UNL A   1      41.590  27.255  34.718  1.00  0.00     0.040 A 
ATOM     94  F   UNL A   1      41.547  27.580  32.409  1.00  0.00    -0.206 F 
ATOM     95  C   UNL A   1      41.983  27.654  35.990  1.00  0.00     0.006 A 
ENDBRANCH  71  88
ENDBRANCH  45  46
ENDBRANCH  37  40
ENDBRANCH  35  36
ENDBRANCH  34  35
ENDBRANCH  33  34
ENDBRANCH  32  33
ENDBRANCH   1  32
TORSDOF 17
ENDMDL
MODEL 3
REMARK VINA RESULT:     -11.7      2.122      2.905
REMARK SMILES Cc1nn2c(nnc3c(=O)n(CCCC(=O)NCCCCCCNC(=O)c4ccc(-c5c6nc(c(-c7c(F)cccc7F)c7ccc([nH]7)c(-c7c(F)cccc7F)c7nc(c(-c8c(F)cccc8F)c8ccc5[nH]8)C=C7)C=C6)cc4)ccc32)c1-c1ccc(F)cc1
REMARK SMILES IDX 19 1 18 2 17 3 15 4 16 5 14 7 13 8 12 9 11 10 1 11 2 12 3 13
REMARK SMILES IDX 84 14 4 15 5 16 83 17 6 18 8 19 82 20 7 21 9 22 81 23 10 24
REMARK SMILES IDX 85 25 86 26 91 27 87 28 90 29 88 30 89 31 20 32 21 33 22 34
REMARK SMILES IDX 23 35 24 36 25 37 26 39 27 40 28 41 80 42 29 43 79 44 30 45
REMARK SMILES IDX 31 46 32 47 73 48 33 49 78 50 72 51 74 52 34 53 77 54 71 55
REMARK SMILES IDX 70 56 35 58 61 59 44 60 60 61 45 62 48 63 59 64 75 65 46 66
REMARK SMILES IDX 47 67 58 69 76 70 49 71 36 72 37 73 42 74 38 75 39 76 41 77
REMARK SMILES IDX 43 78 40 79 62 80 63 81 68 82 64 83 65 84 67 85 69 86 66 87
REMARK SMILES IDX 50 88 51 89 56 90 52 91 53 92 55 93 57 94 54 95
REMARK H PARENT 17 6 24 38 74 57 48 68
REMARK Flexibility Score: inf
ROOT
ATOM      1  C   UNL A   1      34.959  31.466  28.394  1.00  0.00     0.021 C 
ENDROOT
BRANCH   1   2
ATOM      2  C   UNL A   1      33.922  31.388  27.273  1.00  0.00     0.116 C 
BRANCH   2   3
ATOM      3  N   UNL A   1      33.004  30.295  27.468  1.00  0.00    -0.356 N 
ATOM      4  C   UNL A   1      32.010  29.777  26.712  1.00  0.00     0.220 C 
ATOM      5  O   UNL A   1      31.503  28.737  27.158  1.00  0.00    -0.275 OA
ATOM      6  H   UNL A   1      33.126  29.830  28.327  1.00  0.00     0.163 HD
BRANCH   4   7
ATOM      7  C   UNL A   1      31.537  30.294  25.358  1.00  0.00     0.102 C 
BRANCH   7   8
ATOM      8  C   UNL A   1      30.587  29.559  24.406  1.00  0.00     0.032 C 
BRANCH   8   9
ATOM      9  C   UNL A   1      30.994  28.653  23.231  1.00  0.00     0.126 C 
BRANCH   9  10
ATOM     10  N   UNL A   1      31.660  27.336  23.407  1.00  0.00    -0.313 N 
ATOM     11  C   UNL A   1      36.402  21.481  24.620  1.00  0.00     0.069 C 
ATOM     12  C   UNL A   1      35.087  22.165  24.568  1.00  0.00     0.070 A 
ATOM     13  N   UNL A   1      35.025  23.501  24.450  1.00  0.00    -0.170 NA
ATOM     14  C   UNL A   1      33.803  21.572  24.596  1.00  0.00     0.051 A 
ATOM     15  N   UNL A   1      33.696  23.776  24.333  1.00  0.00    -0.210 N 
ATOM     16  C   UNL A   1      32.930  22.627  24.476  1.00  0.00     0.186 A 
ATOM     17  C   UNL A   1      33.060  24.988  24.060  1.00  0.00     0.102 A 
ATOM     18  N   UNL A   1      31.570  22.685  24.436  1.00  0.00    -0.129 NA
ATOM     19  C   UNL A   1      31.723  24.924  23.956  1.00  0.00     0.177 A 
ATOM     20  C   UNL A   1      33.744  26.247  23.871  1.00  0.00     0.049 A 
ATOM     21  N   UNL A   1      30.999  23.769  24.172  1.00  0.00    -0.141 NA
ATOM     22  C   UNL A   1      30.949  26.149  23.605  1.00  0.00     0.280 A 
ATOM     23  C   UNL A   1      33.047  27.352  23.564  1.00  0.00     0.091 A 
ATOM     24  O   UNL A   1      29.731  26.040  23.562  1.00  0.00    -0.267 OA
BRANCH  14  25
ATOM     25  C   UNL A   1      33.355  20.197  24.678  1.00  0.00    -0.012 A 
ATOM     26  C   UNL A   1      33.373  19.515  25.900  1.00  0.00     0.012 A 
ATOM     27  C   UNL A   1      32.846  19.561  23.534  1.00  0.00     0.012 A 
ATOM     28  C   UNL A   1      32.878  18.210  25.974  1.00  0.00     0.040 A 
ATOM     29  C   UNL A   1      32.354  18.258  23.612  1.00  0.00     0.040 A 
ATOM     30  C   UNL A   1      32.375  17.595  24.832  1.00  0.00     0.123 A 
ATOM     31  F   UNL A   1      31.896  16.347  24.912  1.00  0.00    -0.207 F 
ENDBRANCH  14  25
ENDBRANCH   9  10
ENDBRANCH   8   9
ENDBRANCH   7   8
ENDBRANCH   4   7
ENDBRANCH   2   3
ENDBRANCH   1   2
BRANCH   1  32
ATOM     32  C   UNL A   1      34.717  32.621  29.365  1.00  0.00     0.002 C 
BRANCH  32  33
ATOM     33  C   UNL A   1      34.650  34.013  28.716  1.00  0.00     0.002 C 
BRANCH  33  34
ATOM     34  C   UNL A   1      34.217  35.170  29.631  1.00  0.00     0.021 C 
BRANCH  34  35
ATOM     35  C   UNL A   1      33.469  34.710  30.872  1.00  0.00     0.116 C 
BRANCH  35  36
ATOM     36  N   UNL A   1      33.806  35.523  32.034  1.00  0.00    -0.352 N 
ATOM     37  C   UNL A   1      34.733  35.300  33.024  1.00  0.00     0.251 C 
ATOM     38  H   UNL A   1      33.291  36.358  32.124  1.00  0.00     0.163 HD
ATOM     39  O   UNL A   1      34.664  35.905  34.082  1.00  0.00    -0.269 OA
BRANCH  37  40
ATOM     40  C   UNL A   1      35.826  34.338  32.796  1.00  0.00     0.039 A 
ATOM     41  C   UNL A   1      35.600  32.972  32.994  1.00  0.00     0.014 A 
ATOM     42  C   UNL A   1      37.096  34.808  32.459  1.00  0.00     0.014 A 
ATOM     43  C   UNL A   1      36.654  32.084  32.822  1.00  0.00     0.010 A 
ATOM     44  C   UNL A   1      38.108  33.926  32.176  1.00  0.00     0.010 A 
ATOM     45  C   UNL A   1      37.901  32.575  32.417  1.00  0.00    -0.014 A 
BRANCH  45  46
ATOM     46  C   UNL A   1      38.996  31.662  32.143  1.00  0.00     0.031 A 
ATOM     47  C   UNL A   1      39.739  31.242  33.356  1.00  0.00     0.074 A 
ATOM     48  C   UNL A   1      39.185  31.090  30.937  1.00  0.00     0.049 A 
ATOM     49  N   UNL A   1      40.926  31.602  33.712  1.00  0.00    -0.248 NA
ATOM     50  C   UNL A   1      39.018  30.468  34.379  1.00  0.00     0.031 C 
ATOM     51  C   UNL A   1      38.328  31.159  29.749  1.00  0.00     0.029 A 
ATOM     52  N   UNL A   1      40.169  30.238  30.550  1.00  0.00    -0.354 N 
ATOM     53  C   UNL A   1      41.192  30.916  34.893  1.00  0.00     0.074 A 
ATOM     54  C   UNL A   1      39.926  30.415  35.357  1.00  0.00     0.031 C 
ATOM     55  C   UNL A   1      38.719  30.220  28.857  1.00  0.00     0.029 A 
ATOM     56  C   UNL A   1      39.939  29.597  29.338  1.00  0.00     0.049 A 
ATOM     57  H   UNL A   1      40.982  30.086  31.086  1.00  0.00     0.167 HD
ATOM     58  C   UNL A   1      42.470  30.589  35.231  1.00  0.00     0.037 A 
ATOM     59  C   UNL A   1      40.693  28.607  28.798  1.00  0.00     0.037 A 
ATOM     60  C   UNL A   1      43.416  31.346  34.441  1.00  0.00     0.049 A 
ATOM     61  C   UNL A   1      42.019  28.649  29.466  1.00  0.00     0.074 A 
ATOM     62  C   UNL A   1      43.687  32.687  34.255  1.00  0.00     0.029 A 
ATOM     63  N   UNL A   1      44.004  30.699  33.381  1.00  0.00    -0.354 N 
ATOM     64  N   UNL A   1      42.878  29.616  29.304  1.00  0.00    -0.248 NA
ATOM     65  C   UNL A   1      42.191  27.860  30.675  1.00  0.00     0.031 C 
ATOM     66  C   UNL A   1      43.997  32.814  32.868  1.00  0.00     0.029 A 
ATOM     67  C   UNL A   1      43.967  31.540  32.301  1.00  0.00     0.049 A 
ATOM     68  H   UNL A   1      44.386  29.791  33.396  1.00  0.00     0.167 HD
ATOM     69  C   UNL A   1      43.400  29.841  30.570  1.00  0.00     0.074 A 
ATOM     70  C   UNL A   1      43.007  28.670  31.354  1.00  0.00     0.031 C 
ATOM     71  C   UNL A   1      43.840  31.082  30.937  1.00  0.00     0.037 A 
BRANCH  58  72
ATOM     72  C   UNL A   1      42.877  29.308  35.928  1.00  0.00     0.057 A 
ATOM     73  C   UNL A   1      42.605  28.010  35.453  1.00  0.00     0.134 A 
ATOM     74  C   UNL A   1      43.860  29.377  36.933  1.00  0.00     0.134 A 
ATOM     75  F   UNL A   1      41.721  27.760  34.482  1.00  0.00    -0.206 F 
ATOM     76  C   UNL A   1      43.309  26.882  35.885  1.00  0.00     0.040 A 
ATOM     77  C   UNL A   1      44.605  28.262  37.335  1.00  0.00     0.040 A 
ATOM     78  F   UNL A   1      44.199  30.551  37.488  1.00  0.00    -0.206 F 
ATOM     79  C   UNL A   1      44.343  27.011  36.795  1.00  0.00     0.006 A 
ENDBRANCH  58  72
BRANCH  59  80
ATOM     80  C   UNL A   1      40.275  27.466  27.956  1.00  0.00     0.057 A 
ATOM     81  C   UNL A   1      39.541  26.394  28.492  1.00  0.00     0.134 A 
ATOM     82  C   UNL A   1      40.825  27.260  26.682  1.00  0.00     0.134 A 
ATOM     83  F   UNL A   1      39.035  26.454  29.732  1.00  0.00    -0.206 F 
ATOM     84  C   UNL A   1      39.382  25.181  27.813  1.00  0.00     0.040 A 
ATOM     85  C   UNL A   1      40.677  26.049  25.993  1.00  0.00     0.040 A 
ATOM     86  F   UNL A   1      41.578  28.208  26.105  1.00  0.00    -0.206 F 
ATOM     87  C   UNL A   1      39.962  24.999  26.564  1.00  0.00     0.006 A 
ENDBRANCH  59  80
BRANCH  71  88
ATOM     88  C   UNL A   1      43.989  32.114  29.853  1.00  0.00     0.057 A 
ATOM     89  C   UNL A   1      45.235  32.259  29.234  1.00  0.00     0.134 A 
ATOM     90  C   UNL A   1      42.993  33.037  29.495  1.00  0.00     0.134 A 
ATOM     91  F   UNL A   1      46.253  31.450  29.570  1.00  0.00    -0.206 F 
ATOM     92  C   UNL A   1      45.478  33.259  28.291  1.00  0.00     0.040 A 
ATOM     93  C   UNL A   1      43.214  34.021  28.525  1.00  0.00     0.040 A 
ATOM     94  F   UNL A   1      41.802  33.045  30.104  1.00  0.00    -0.206 F 
ATOM     95  C   UNL A   1      44.461  34.136  27.923  1.00  0.00     0.006 A 
ENDBRANCH  71  88
ENDBRANCH  45  46
ENDBRANCH  37  40
ENDBRANCH  35  36
ENDBRANCH  34  35
ENDBRANCH  33  34
ENDBRANCH  32  33
ENDBRANCH   1  32
TORSDOF 17
ENDMDL
