MODEL 1
REMARK VINA RESULT:     -12.4      0.000      0.000
REMARK SMILES O=C(NCCCCCCNC(=O)c1ccc(N2C(=O)/C(=C/C3=c4ccccc4=NC3)SC2=S)cc1O)c1ccc(-c2c3nc(c(-c4c(F)cccc4F)c4ccc([nH]4)c(-c4c(F)cccc4F)c4nc(c(-c5c(F)cccc5F)c5ccc2[nH]5)C=C4)C=C3)cc1
REMARK SMILES IDX 6 1 5 2 4 3 3 4 1 5 2 6 37 8 38 9 90 10 39 11 89 12 40 13
REMARK SMILES IDX 41 14 42 15 83 16 43 17 88 18 82 19 84 20 44 21 87 22 81 23
REMARK SMILES IDX 80 24 45 26 71 27 54 28 70 29 55 30 58 31 69 32 85 33 56 34
REMARK SMILES IDX 57 35 68 37 86 38 59 39 46 40 47 41 52 42 48 43 49 44 51 45
REMARK SMILES IDX 53 46 50 47 72 48 73 49 78 50 74 51 75 52 77 53 79 54 76 55
REMARK SMILES IDX 60 56 61 57 66 58 62 59 63 60 65 61 67 62 64 63 7 64 8 65
REMARK SMILES IDX 9 66 10 67 11 68 12 70 13 71 14 72 35 73 15 74 34 75 16 76
REMARK SMILES IDX 36 77 17 79 18 80 32 81 19 82 20 83 31 84 33 85 21 86 22 87
REMARK SMILES IDX 23 88 30 89 24 90 28 91 29 92 25 93 27 94 26 95
REMARK H PARENT 3 7 84 25 58 36 10 69 36 78
REMARK Flexibility Score: inf
ROOT
ATOM      1  C   UNL A   1      31.657  30.493  26.119  1.00  0.00     0.002 C 
ENDROOT
BRANCH   1   2
ATOM      2  C   UNL A   1      31.475  31.965  26.498  1.00  0.00     0.021 C 
BRANCH   2   3
ATOM      3  C   UNL A   1      32.641  32.573  27.271  1.00  0.00     0.116 C 
BRANCH   3   4
ATOM      4  N   UNL A   1      32.422  33.979  27.559  1.00  0.00    -0.352 N 
ATOM      5  O   UNL A   1      32.532  35.881  28.757  1.00  0.00    -0.269 OA
ATOM      6  C   UNL A   1      32.995  34.770  28.520  1.00  0.00     0.251 C 
ATOM      7  H   UNL A   1      31.767  34.430  26.979  1.00  0.00     0.163 HD
BRANCH   6   8
ATOM      8  C   UNL A   1      34.173  34.291  29.272  1.00  0.00     0.039 A 
ATOM      9  C   UNL A   1      35.445  34.497  28.729  1.00  0.00     0.014 A 
ATOM     10  C   UNL A   1      34.026  33.580  30.467  1.00  0.00     0.014 A 
ATOM     11  C   UNL A   1      36.570  34.001  29.389  1.00  0.00     0.010 A 
ATOM     12  C   UNL A   1      35.152  33.144  31.159  1.00  0.00     0.010 A 
ATOM     13  C   UNL A   1      36.432  33.324  30.611  1.00  0.00    -0.014 A 
BRANCH  13  14
ATOM     14  C   UNL A   1      37.604  32.728  31.296  1.00  0.00     0.031 A 
ATOM     15  C   UNL A   1      38.283  31.528  30.697  1.00  0.00     0.074 A 
ATOM     16  C   UNL A   1      38.025  33.227  32.472  1.00  0.00     0.049 A 
ATOM     17  N   UNL A   1      39.252  30.793  31.182  1.00  0.00    -0.248 NA
ATOM     18  C   UNL A   1      37.785  31.081  29.388  1.00  0.00     0.031 C 
ATOM     19  C   UNL A   1      37.439  34.375  33.162  1.00  0.00     0.029 A 
ATOM     20  N   UNL A   1      39.036  32.813  33.303  1.00  0.00    -0.354 N 
ATOM     21  C   UNL A   1      39.465  29.788  30.246  1.00  0.00     0.074 A 
ATOM     22  C   UNL A   1      38.486  29.976  29.197  1.00  0.00     0.031 C 
ATOM     23  C   UNL A   1      38.103  34.578  34.312  1.00  0.00     0.029 A 
ATOM     24  C   UNL A   1      39.127  33.547  34.459  1.00  0.00     0.049 A 
ATOM     25  H   UNL A   1      39.637  32.064  33.090  1.00  0.00     0.167 HD
ATOM     26  C   UNL A   1      40.403  28.810  30.249  1.00  0.00     0.037 A 
ATOM     27  C   UNL A   1      39.928  33.390  35.529  1.00  0.00     0.037 A 
ATOM     28  C   UNL A   1      41.377  28.635  31.295  1.00  0.00     0.049 A 
ATOM     29  C   UNL A   1      40.928  32.267  35.541  1.00  0.00     0.074 A 
ATOM     30  C   UNL A   1      42.411  27.719  31.368  1.00  0.00     0.029 A 
ATOM     31  N   UNL A   1      41.427  29.388  32.460  1.00  0.00    -0.354 N 
ATOM     32  N   UNL A   1      41.163  31.359  34.623  1.00  0.00    -0.248 NA
ATOM     33  C   UNL A   1      41.768  32.143  36.740  1.00  0.00     0.031 C 
ATOM     34  C   UNL A   1      43.046  27.875  32.606  1.00  0.00     0.029 A 
ATOM     35  C   UNL A   1      42.442  28.925  33.281  1.00  0.00     0.049 A 
ATOM     36  H   UNL A   1      40.828  30.140  32.671  1.00  0.00     0.167 HD
ATOM     37  C   UNL A   1      42.178  30.559  35.131  1.00  0.00     0.074 A 
ATOM     38  C   UNL A   1      42.534  31.108  36.424  1.00  0.00     0.031 C 
ATOM     39  C   UNL A   1      42.760  29.463  34.581  1.00  0.00     0.037 A 
BRANCH  26  40
ATOM     40  C   UNL A   1      40.387  27.847  29.096  1.00  0.00     0.057 A 
ATOM     41  C   UNL A   1      41.161  28.089  27.955  1.00  0.00     0.134 A 
ATOM     42  C   UNL A   1      39.631  26.666  29.121  1.00  0.00     0.134 A 
ATOM     43  F   UNL A   1      41.903  29.203  27.858  1.00  0.00    -0.206 F 
ATOM     44  C   UNL A   1      41.200  27.185  26.892  1.00  0.00     0.040 A 
ATOM     45  C   UNL A   1      39.688  25.738  28.080  1.00  0.00     0.040 A 
ATOM     46  F   UNL A   1      38.875  26.365  30.188  1.00  0.00    -0.206 F 
ATOM     47  C   UNL A   1      40.474  25.997  26.959  1.00  0.00     0.006 A 
ENDBRANCH  26  40
BRANCH  27  48
ATOM     48  C   UNL A   1      39.799  34.313  36.685  1.00  0.00     0.057 A 
ATOM     49  C   UNL A   1      40.470  35.541  36.714  1.00  0.00     0.134 A 
ATOM     50  C   UNL A   1      39.014  33.979  37.793  1.00  0.00     0.134 A 
ATOM     51  F   UNL A   1      41.242  35.916  35.683  1.00  0.00    -0.206 F 
ATOM     52  C   UNL A   1      40.381  36.397  37.812  1.00  0.00     0.040 A 
ATOM     53  C   UNL A   1      38.895  34.837  38.888  1.00  0.00     0.040 A 
ATOM     54  F   UNL A   1      38.330  32.825  37.814  1.00  0.00    -0.206 F 
ATOM     55  C   UNL A   1      39.588  36.046  38.903  1.00  0.00     0.006 A 
ENDBRANCH  27  48
BRANCH  39  56
ATOM     56  C   UNL A   1      43.826  28.781  35.390  1.00  0.00     0.057 A 
ATOM     57  C   UNL A   1      43.503  27.762  36.294  1.00  0.00     0.134 A 
ATOM     58  C   UNL A   1      45.174  29.148  35.284  1.00  0.00     0.134 A 
ATOM     59  F   UNL A   1      42.230  27.366  36.450  1.00  0.00    -0.206 F 
ATOM     60  C   UNL A   1      44.482  27.136  37.068  1.00  0.00     0.040 A 
ATOM     61  C   UNL A   1      46.166  28.509  36.032  1.00  0.00     0.040 A 
ATOM     62  F   UNL A   1      45.553  30.106  34.424  1.00  0.00    -0.206 F 
ATOM     63  C   UNL A   1      45.818  27.504  36.931  1.00  0.00     0.006 A 
ENDBRANCH  39  56
ENDBRANCH  13  14
ENDBRANCH   6   8
ENDBRANCH   3   4
ENDBRANCH   2   3
ENDBRANCH   1   2
BRANCH   1  64
ATOM     64  C   UNL A   1      32.856  29.795  26.767  1.00  0.00     0.002 C 
BRANCH  64  65
ATOM     65  C   UNL A   1      33.003  28.310  26.430  1.00  0.00     0.021 C 
BRANCH  65  66
ATOM     66  C   UNL A   1      32.078  27.387  27.216  1.00  0.00     0.116 C 
BRANCH  66  67
ATOM     67  N   UNL A   1      31.038  26.823  26.377  1.00  0.00    -0.352 N 
ATOM     68  C   UNL A   1      31.094  25.686  25.611  1.00  0.00     0.255 C 
ATOM     69  H   UNL A   1      30.186  27.317  26.354  1.00  0.00     0.163 HD
ATOM     70  O   UNL A   1      30.165  25.384  24.869  1.00  0.00    -0.269 OA
BRANCH  68  71
ATOM     71  C   UNL A   1      32.314  24.859  25.628  1.00  0.00     0.081 A 
ATOM     72  C   UNL A   1      33.246  25.058  24.605  1.00  0.00     0.020 A 
ATOM     73  C   UNL A   1      32.558  23.904  26.618  1.00  0.00     0.130 A 
ATOM     74  C   UNL A   1      34.434  24.322  24.591  1.00  0.00     0.028 A 
ATOM     75  C   UNL A   1      33.740  23.165  26.597  1.00  0.00     0.073 A 
ATOM     76  C   UNL A   1      34.684  23.354  25.576  1.00  0.00     0.054 A 
BRANCH  73  77
ATOM     77  O   UNL A   1      31.656  23.699  27.625  1.00  0.00    -0.507 OA
ATOM     78  H   UNL A   1      30.787  24.041  27.552  1.00  0.00     0.293 HD
ENDBRANCH  73  77
BRANCH  76  79
ATOM     79  N   UNL A   1      35.888  22.588  25.552  1.00  0.00    -0.261 N 
ATOM     80  C   UNL A   1      37.103  23.195  25.873  1.00  0.00     0.270 C 
ATOM     81  C   UNL A   1      35.941  21.236  25.230  1.00  0.00     0.152 C 
ATOM     82  O   UNL A   1      37.296  24.360  26.190  1.00  0.00    -0.268 OA
ATOM     83  C   UNL A   1      38.199  22.188  25.841  1.00  0.00     0.081 C 
ATOM     84  S   UNL A   1      37.580  20.639  25.445  1.00  0.00    -0.054 SA
ATOM     85  S   UNL A   1      34.752  20.226  24.622  1.00  0.00    -0.051 S 
ATOM     86  C   UNL A   1      39.469  22.498  26.136  1.00  0.00     0.027 C 
BRANCH  86  87
ATOM     87  C   UNL A   1      40.586  21.584  26.124  1.00  0.00    -0.016 C 
ATOM     88  C   UNL A   1      41.835  21.854  25.754  1.00  0.00     0.005 A 
ATOM     89  C   UNL A   1      40.460  20.148  26.553  1.00  0.00     0.179 C 
ATOM     90  C   UNL A   1      42.528  23.002  25.265  1.00  0.00     0.011 A 
ATOM     91  C   UNL A   1      42.523  20.571  25.980  1.00  0.00     0.065 A 
ATOM     92  N   UNL A   1      41.820  19.570  26.414  1.00  0.00    -0.280 NA
ATOM     93  C   UNL A   1      43.845  22.902  25.015  1.00  0.00     0.001 A 
ATOM     94  C   UNL A   1      43.972  20.543  25.690  1.00  0.00     0.028 A 
ATOM     95  C   UNL A   1      44.567  21.658  25.239  1.00  0.00     0.002 A 
ENDBRANCH  86  87
ENDBRANCH  76  79
ENDBRANCH  68  71
ENDBRANCH  66  67
ENDBRANCH  65  66
ENDBRANCH  64  65
ENDBRANCH   1  64
TORSDOF 16
ENDMDL
MODEL 2
REMARK VINA RESULT:     -11.9      4.867      8.202
REMARK SMILES O=C(NCCCCCCNC(=O)c1ccc(N2C(=O)/C(=C/C3=c4ccccc4=NC3)SC2=S)cc1O)c1ccc(-c2c3nc(c(-c4c(F)cccc4F)c4ccc([nH]4)c(-c4c(F)cccc4F)c4nc(c(-c5c(F)cccc5F)c5ccc2[nH]5)C=C4)C=C3)cc1
REMARK SMILES IDX 6 1 5 2 4 3 3 4 1 5 2 6 37 8 38 9 90 10 39 11 89 12 40 13
REMARK SMILES IDX 41 14 42 15 83 16 43 17 88 18 82 19 84 20 44 21 87 22 81 23
REMARK SMILES IDX 80 24 45 26 71 27 54 28 70 29 55 30 58 31 69 32 85 33 56 34
REMARK SMILES IDX 57 35 68 37 86 38 59 39 46 40 47 41 52 42 48 43 49 44 51 45
REMARK SMILES IDX 53 46 50 47 72 48 73 49 78 50 74 51 75 52 77 53 79 54 76 55
REMARK SMILES IDX 60 56 61 57 66 58 62 59 63 60 65 61 67 62 64 63 7 64 8 65
REMARK SMILES IDX 9 66 10 67 11 68 12 70 13 71 14 72 35 73 15 74 34 75 16 76
REMARK SMILES IDX 36 77 17 79 18 80 32 81 19 82 20 83 31 84 33 85 21 86 22 87
REMARK SMILES IDX 23 88 30 89 24 90 28 91 29 92 25 93 27 94 26 95
REMARK H PARENT 3 7 84 25 58 36 10 69 36 78
REMARK Flexibility Score: inf
ROOT
ATOM      1  C   UNL A   1      34.819  32.716  28.941  1.00  0.00     0.002 C 
ENDROOT
BRANCH   1   2
ATOM      2  C   UNL A   1      36.103  33.474  29.285  1.00  0.00     0.021 C 
BRANCH   2   3
ATOM      3  C   UNL A   1      36.862  32.931  30.490  1.00  0.00     0.116 C 
BRANCH   3   4
ATOM      4  N   UNL A   1      36.276  31.698  30.986  1.00  0.00    -0.352 N 
ATOM      5  O   UNL A   1      35.969  29.473  31.133  1.00  0.00    -0.269 OA
ATOM      6  C   UNL A   1      36.705  30.406  30.829  1.00  0.00     0.251 C 
ATOM      7  H   UNL A   1      35.450  31.806  31.510  1.00  0.00     0.163 HD
BRANCH   6   8
ATOM      8  C   UNL A   1      38.056  30.130  30.299  1.00  0.00     0.039 A 
ATOM      9  C   UNL A   1      38.238  30.091  28.912  1.00  0.00     0.014 A 
ATOM     10  C   UNL A   1      39.123  29.841  31.156  1.00  0.00     0.014 A 
ATOM     11  C   UNL A   1      39.490  29.773  28.386  1.00  0.00     0.010 A 
ATOM     12  C   UNL A   1      40.386  29.590  30.631  1.00  0.00     0.010 A 
ATOM     13  C   UNL A   1      40.574  29.524  29.241  1.00  0.00    -0.014 A 
BRANCH  13  14
ATOM     14  C   UNL A   1      41.897  29.117  28.707  1.00  0.00     0.031 A 
ATOM     15  C   UNL A   1      42.124  27.688  28.299  1.00  0.00     0.074 A 
ATOM     16  C   UNL A   1      42.901  30.009  28.637  1.00  0.00     0.049 A 
ATOM     17  N   UNL A   1      43.227  27.101  27.907  1.00  0.00    -0.248 NA
ATOM     18  C   UNL A   1      40.958  26.795  28.365  1.00  0.00     0.031 C 
ATOM     19  C   UNL A   1      42.809  31.417  29.019  1.00  0.00     0.029 A 
ATOM     20  N   UNL A   1      44.204  29.852  28.235  1.00  0.00    -0.354 N 
ATOM     21  C   UNL A   1      42.890  25.769  27.700  1.00  0.00     0.074 A 
ATOM     22  C   UNL A   1      41.497  25.626  28.065  1.00  0.00     0.031 C 
ATOM     23  C   UNL A   1      44.005  31.999  28.830  1.00  0.00     0.029 A 
ATOM     24  C   UNL A   1      44.955  30.994  28.360  1.00  0.00     0.049 A 
ATOM     25  H   UNL A   1      44.564  29.003  27.892  1.00  0.00     0.167 HD
ATOM     26  C   UNL A   1      43.664  24.761  27.230  1.00  0.00     0.037 A 
ATOM     27  C   UNL A   1      46.267  31.200  28.144  1.00  0.00     0.037 A 
ATOM     28  C   UNL A   1      45.048  24.915  26.863  1.00  0.00     0.049 A 
ATOM     29  C   UNL A   1      47.124  30.057  27.674  1.00  0.00     0.074 A 
ATOM     30  C   UNL A   1      45.907  23.977  26.318  1.00  0.00     0.029 A 
ATOM     31  N   UNL A   1      45.780  26.083  27.021  1.00  0.00    -0.354 N 
ATOM     32  N   UNL A   1      46.782  28.816  27.422  1.00  0.00    -0.248 NA
ATOM     33  C   UNL A   1      48.550  30.344  27.465  1.00  0.00     0.031 C 
ATOM     34  C   UNL A   1      47.174  24.560  26.204  1.00  0.00     0.029 A 
ATOM     35  C   UNL A   1      47.093  25.877  26.629  1.00  0.00     0.049 A 
ATOM     36  H   UNL A   1      45.419  26.934  27.360  1.00  0.00     0.167 HD
ATOM     37  C   UNL A   1      47.947  28.174  27.023  1.00  0.00     0.074 A 
ATOM     38  C   UNL A   1      48.999  29.171  27.037  1.00  0.00     0.031 C 
ATOM     39  C   UNL A   1      48.134  26.874  26.681  1.00  0.00     0.037 A 
BRANCH  26  40
ATOM     40  C   UNL A   1      43.025  23.405  27.120  1.00  0.00     0.057 A 
ATOM     41  C   UNL A   1      42.807  22.626  28.263  1.00  0.00     0.134 A 
ATOM     42  C   UNL A   1      42.596  22.879  25.893  1.00  0.00     0.134 A 
ATOM     43  F   UNL A   1      43.198  23.061  29.471  1.00  0.00    -0.206 F 
ATOM     44  C   UNL A   1      42.172  21.385  28.192  1.00  0.00     0.040 A 
ATOM     45  C   UNL A   1      41.929  21.656  25.814  1.00  0.00     0.040 A 
ATOM     46  F   UNL A   1      42.762  23.578  24.759  1.00  0.00    -0.206 F 
ATOM     47  C   UNL A   1      41.717  20.903  26.966  1.00  0.00     0.006 A 
ENDBRANCH  26  40
BRANCH  27  48
ATOM     48  C   UNL A   1      46.850  32.542  28.394  1.00  0.00     0.057 A 
ATOM     49  C   UNL A   1      46.903  33.511  27.384  1.00  0.00     0.134 A 
ATOM     50  C   UNL A   1      47.382  32.880  29.642  1.00  0.00     0.134 A 
ATOM     51  F   UNL A   1      46.413  33.246  26.164  1.00  0.00    -0.206 F 
ATOM     52  C   UNL A   1      47.481  34.762  27.601  1.00  0.00     0.040 A 
ATOM     53  C   UNL A   1      47.940  34.137  29.882  1.00  0.00     0.040 A 
ATOM     54  F   UNL A   1      47.340  32.002  30.655  1.00  0.00    -0.206 F 
ATOM     55  C   UNL A   1      47.999  35.080  28.856  1.00  0.00     0.006 A 
ENDBRANCH  27  48
BRANCH  39  56
ATOM     56  C   UNL A   1      49.531  26.461  26.315  1.00  0.00     0.057 A 
ATOM     57  C   UNL A   1      50.045  26.713  25.037  1.00  0.00     0.134 A 
ATOM     58  C   UNL A   1      50.361  25.795  27.226  1.00  0.00     0.134 A 
ATOM     59  F   UNL A   1      49.301  27.340  24.114  1.00  0.00    -0.206 F 
ATOM     60  C   UNL A   1      51.333  26.313  24.677  1.00  0.00     0.040 A 
ATOM     61  C   UNL A   1      51.662  25.417  26.887  1.00  0.00     0.040 A 
ATOM     62  F   UNL A   1      49.935  25.537  28.472  1.00  0.00    -0.206 F 
ATOM     63  C   UNL A   1      52.148  25.671  25.607  1.00  0.00     0.006 A 
ENDBRANCH  39  56
ENDBRANCH  13  14
ENDBRANCH   6   8
ENDBRANCH   3   4
ENDBRANCH   2   3
ENDBRANCH   1   2
BRANCH   1  64
ATOM     64  C   UNL A   1      34.947  31.695  27.807  1.00  0.00     0.002 C 
BRANCH  64  65
ATOM     65  C   UNL A   1      33.788  30.703  27.692  1.00  0.00     0.021 C 
BRANCH  65  66
ATOM     66  C   UNL A   1      33.649  30.047  26.322  1.00  0.00     0.116 C 
BRANCH  66  67
ATOM     67  N   UNL A   1      32.389  30.383  25.687  1.00  0.00    -0.352 N 
ATOM     68  C   UNL A   1      31.542  29.553  25.001  1.00  0.00     0.255 C 
ATOM     69  H   UNL A   1      32.108  31.324  25.758  1.00  0.00     0.163 HD
ATOM     70  O   UNL A   1      30.554  30.000  24.426  1.00  0.00    -0.269 OA
BRANCH  68  71
ATOM     71  C   UNL A   1      31.861  28.117  24.891  1.00  0.00     0.081 A 
ATOM     72  C   UNL A   1      32.382  27.660  23.678  1.00  0.00     0.020 A 
ATOM     73  C   UNL A   1      31.662  27.224  25.947  1.00  0.00     0.130 A 
ATOM     74  C   UNL A   1      32.731  26.315  23.532  1.00  0.00     0.028 A 
ATOM     75  C   UNL A   1      32.002  25.880  25.796  1.00  0.00     0.073 A 
ATOM     76  C   UNL A   1      32.526  25.407  24.582  1.00  0.00     0.054 A 
BRANCH  73  77
ATOM     77  O   UNL A   1      31.154  27.657  27.140  1.00  0.00    -0.507 OA
ATOM     78  H   UNL A   1      30.336  27.322  27.451  1.00  0.00     0.293 HD
ENDBRANCH  73  77
BRANCH  76  79
ATOM     79  N   UNL A   1      32.865  24.029  24.428  1.00  0.00    -0.261 N 
ATOM     80  C   UNL A   1      31.910  23.129  23.955  1.00  0.00     0.270 C 
ATOM     81  C   UNL A   1      34.119  23.503  24.716  1.00  0.00     0.152 C 
ATOM     82  O   UNL A   1      30.754  23.364  23.634  1.00  0.00    -0.268 OA
ATOM     83  C   UNL A   1      32.512  21.773  23.819  1.00  0.00     0.081 C 
ATOM     84  S   UNL A   1      34.166  21.802  24.269  1.00  0.00    -0.054 SA
ATOM     85  S   UNL A   1      35.439  24.210  25.464  1.00  0.00    -0.051 S 
ATOM     86  C   UNL A   1      31.819  20.722  23.359  1.00  0.00     0.027 C 
BRANCH  86  87
ATOM     87  C   UNL A   1      32.326  19.381  23.203  1.00  0.00    -0.016 C 
ATOM     88  C   UNL A   1      32.629  18.523  24.173  1.00  0.00     0.005 A 
ATOM     89  C   UNL A   1      32.582  18.765  21.855  1.00  0.00     0.179 C 
ATOM     90  C   UNL A   1      32.600  18.546  25.601  1.00  0.00     0.011 A 
ATOM     91  C   UNL A   1      33.058  17.328  23.427  1.00  0.00     0.065 A 
ATOM     92  N   UNL A   1      33.069  17.390  22.131  1.00  0.00    -0.280 NA
ATOM     93  C   UNL A   1      32.967  17.440  26.271  1.00  0.00     0.001 A 
ATOM     94  C   UNL A   1      33.439  16.150  24.234  1.00  0.00     0.028 A 
ATOM     95  C   UNL A   1      33.383  16.233  25.573  1.00  0.00     0.002 A 
ENDBRANCH  86  87
ENDBRANCH  76  79
ENDBRANCH  68  71
ENDBRANCH  66  67
ENDBRANCH  65  66
ENDBRANCH  64  65
ENDBRANCH   1  64
TORSDOF 16
ENDMDL
MODEL 3
REMARK VINA RESULT:     -11.5      3.068      9.238
REMARK SMILES O=C(NCCCCCCNC(=O)c1ccc(N2C(=O)/C(=C/C3=c4ccccc4=NC3)SC2=S)cc1O)c1ccc(-c2c3nc(c(-c4c(F)cccc4F)c4ccc([nH]4)c(-c4c(F)cccc4F)c4nc(c(-c5c(F)cccc5F)c5ccc2[nH]5)C=C4)C=C3)cc1
REMARK SMILES IDX 6 1 5 2 4 3 3 4 1 5 2 6 37 8 38 9 90 10 39 11 89 12 40 13
REMARK SMILES IDX 41 14 42 15 83 16 43 17 88 18 82 19 84 20 44 21 87 22 81 23
REMARK SMILES IDX 80 24 45 26 71 27 54 28 70 29 55 30 58 31 69 32 85 33 56 34
REMARK SMILES IDX 57 35 68 37 86 38 59 39 46 40 47 41 52 42 48 43 49 44 51 45
REMARK SMILES IDX 53 46 50 47 72 48 73 49 78 50 74 51 75 52 77 53 79 54 76 55
REMARK SMILES IDX 60 56 61 57 66 58 62 59 63 60 65 61 67 62 64 63 7 64 8 65
REMARK SMILES IDX 9 66 10 67 11 68 12 70 13 71 14 72 35 73 15 74 34 75 16 76
REMARK SMILES IDX 36 77 17 79 18 80 32 81 19 82 20 83 31 84 33 85 21 86 22 87
REMARK SMILES IDX 23 88 30 89 24 90 28 91 29 92 25 93 27 94 26 95
REMARK H PARENT 3 7 84 25 58 36 10 69 36 78
REMARK Flexibility Score: inf
ROOT
ATOM      1  C   UNL A   1      44.379  23.892  33.596  1.00  0.00     0.002 C 
ENDROOT
BRANCH   1   2
ATOM      2  C   UNL A   1      45.642  23.502  34.368  1.00  0.00     0.021 C 
BRANCH   2   3
ATOM      3  C   UNL A   1      46.861  24.370  34.077  1.00  0.00     0.116 C 
BRANCH   3   4
ATOM      4  N   UNL A   1      47.380  24.994  35.282  1.00  0.00    -0.352 N 
ATOM      5  O   UNL A   1      47.761  26.667  36.739  1.00  0.00    -0.269 OA
ATOM      6  C   UNL A   1      47.068  26.207  35.837  1.00  0.00     0.251 C 
ATOM      7  H   UNL A   1      48.053  24.468  35.771  1.00  0.00     0.163 HD
BRANCH   6   8
ATOM      8  C   UNL A   1      45.895  26.966  35.355  1.00  0.00     0.039 A 
ATOM      9  C   UNL A   1      44.631  26.637  35.855  1.00  0.00     0.014 A 
ATOM     10  C   UNL A   1      46.027  27.945  34.365  1.00  0.00     0.014 A 
ATOM     11  C   UNL A   1      43.501  27.298  35.372  1.00  0.00     0.010 A 
ATOM     12  C   UNL A   1      44.907  28.648  33.932  1.00  0.00     0.010 A 
ATOM     13  C   UNL A   1      43.631  28.310  34.410  1.00  0.00    -0.014 A 
BRANCH  13  14
ATOM     14  C   UNL A   1      42.440  28.978  33.830  1.00  0.00     0.031 A 
ATOM     15  C   UNL A   1      42.036  28.676  32.414  1.00  0.00     0.074 A 
ATOM     16  C   UNL A   1      41.757  29.886  34.550  1.00  0.00     0.049 A 
ATOM     17  N   UNL A   1      41.096  29.221  31.684  1.00  0.00    -0.248 NA
ATOM     18  C   UNL A   1      42.811  27.636  31.720  1.00  0.00     0.031 C 
ATOM     19  C   UNL A   1      42.062  30.277  35.925  1.00  0.00     0.029 A 
ATOM     20  N   UNL A   1      40.675  30.658  34.211  1.00  0.00    -0.354 N 
ATOM     21  C   UNL A   1      41.182  28.605  30.441  1.00  0.00     0.074 A 
ATOM     22  C   UNL A   1      42.300  27.689  30.501  1.00  0.00     0.031 C 
ATOM     23  C   UNL A   1      41.183  31.215  36.316  1.00  0.00     0.029 A 
ATOM     24  C   UNL A   1      40.287  31.521  35.205  1.00  0.00     0.049 A 
ATOM     25  H   UNL A   1      40.220  30.598  33.340  1.00  0.00     0.167 HD
ATOM     26  C   UNL A   1      40.389  28.772  29.355  1.00  0.00     0.037 A 
ATOM     27  C   UNL A   1      39.334  32.472  35.209  1.00  0.00     0.037 A 
ATOM     28  C   UNL A   1      39.274  29.681  29.306  1.00  0.00     0.049 A 
ATOM     29  C   UNL A   1      38.498  32.681  33.976  1.00  0.00     0.074 A 
ATOM     30  C   UNL A   1      38.367  29.884  28.280  1.00  0.00     0.029 A 
ATOM     31  N   UNL A   1      38.923  30.554  30.327  1.00  0.00    -0.354 N 
ATOM     32  N   UNL A   1      38.546  32.051  32.827  1.00  0.00    -0.248 NA
ATOM     33  C   UNL A   1      37.481  33.739  34.041  1.00  0.00     0.031 C 
ATOM     34  C   UNL A   1      37.507  30.922  28.656  1.00  0.00     0.029 A 
ATOM     35  C   UNL A   1      37.844  31.331  29.938  1.00  0.00     0.049 A 
ATOM     36  H   UNL A   1      39.375  30.611  31.200  1.00  0.00     0.167 HD
ATOM     37  C   UNL A   1      37.566  32.632  32.033  1.00  0.00     0.074 A 
ATOM     38  C   UNL A   1      36.919  33.644  32.844  1.00  0.00     0.031 C 
ATOM     39  C   UNL A   1      37.234  32.358  30.746  1.00  0.00     0.037 A 
BRANCH  26  40
ATOM     40  C   UNL A   1      40.731  27.969  28.131  1.00  0.00     0.057 A 
ATOM     41  C   UNL A   1      41.560  28.503  27.138  1.00  0.00     0.134 A 
ATOM     42  C   UNL A   1      40.268  26.659  27.945  1.00  0.00     0.134 A 
ATOM     43  F   UNL A   1      42.035  29.754  27.245  1.00  0.00    -0.206 F 
ATOM     44  C   UNL A   1      41.932  27.760  26.016  1.00  0.00     0.040 A 
ATOM     45  C   UNL A   1      40.660  25.893  26.846  1.00  0.00     0.040 A 
ATOM     46  F   UNL A   1      39.479  26.080  28.863  1.00  0.00    -0.206 F 
ATOM     47  C   UNL A   1      41.493  26.445  25.875  1.00  0.00     0.006 A 
ENDBRANCH  26  40
BRANCH  27  48
ATOM     48  C   UNL A   1      39.139  33.309  36.419  1.00  0.00     0.057 A 
ATOM     49  C   UNL A   1      39.772  34.551  36.555  1.00  0.00     0.134 A 
ATOM     50  C   UNL A   1      38.327  32.879  37.474  1.00  0.00     0.134 A 
ATOM     51  F   UNL A   1      40.567  35.016  35.579  1.00  0.00    -0.206 F 
ATOM     52  C   UNL A   1      39.621  35.327  37.704  1.00  0.00     0.040 A 
ATOM     53  C   UNL A   1      38.146  33.657  38.619  1.00  0.00     0.040 A 
ATOM     54  F   UNL A   1      37.677  31.709  37.393  1.00  0.00    -0.206 F 
ATOM     55  C   UNL A   1      38.801  34.881  38.740  1.00  0.00     0.006 A 
ENDBRANCH  27  48
BRANCH  39  56
ATOM     56  C   UNL A   1      36.136  33.181  30.137  1.00  0.00     0.057 A 
ATOM     57  C   UNL A   1      36.419  34.173  29.190  1.00  0.00     0.134 A 
ATOM     58  C   UNL A   1      34.796  33.003  30.505  1.00  0.00     0.134 A 
ATOM     59  F   UNL A   1      37.682  34.401  28.798  1.00  0.00    -0.206 F 
ATOM     60  C   UNL A   1      35.410  34.960  28.633  1.00  0.00     0.040 A 
ATOM     61  C   UNL A   1      33.774  33.765  29.933  1.00  0.00     0.040 A 
ATOM     62  F   UNL A   1      34.454  32.059  31.395  1.00  0.00    -0.206 F 
ATOM     63  C   UNL A   1      34.082  34.751  28.999  1.00  0.00     0.006 A 
ENDBRANCH  39  56
ENDBRANCH  13  14
ENDBRANCH   6   8
ENDBRANCH   3   4
ENDBRANCH   2   3
ENDBRANCH   1   2
BRANCH   1  64
ATOM     64  C   UNL A   1      44.389  23.536  32.107  1.00  0.00     0.002 C 
BRANCH  64  65
ATOM     65  C   UNL A   1      44.737  24.691  31.165  1.00  0.00     0.021 C 
BRANCH  65  66
ATOM     66  C   UNL A   1      44.178  24.547  29.753  1.00  0.00     0.116 C 
BRANCH  66  67
ATOM     67  N   UNL A   1      45.202  24.155  28.804  1.00  0.00    -0.352 N 
ATOM     68  C   UNL A   1      45.051  23.427  27.651  1.00  0.00     0.255 C 
ATOM     69  H   UNL A   1      46.119  24.446  29.013  1.00  0.00     0.163 HD
ATOM     70  O   UNL A   1      46.029  23.082  26.995  1.00  0.00    -0.269 OA
BRANCH  68  71
ATOM     71  C   UNL A   1      43.704  22.995  27.236  1.00  0.00     0.081 A 
ATOM     72  C   UNL A   1      42.855  22.485  28.222  1.00  0.00     0.020 A 
ATOM     73  C   UNL A   1      43.266  23.082  25.912  1.00  0.00     0.130 A 
ATOM     74  C   UNL A   1      41.556  22.091  27.887  1.00  0.00     0.028 A 
ATOM     75  C   UNL A   1      41.973  22.679  25.579  1.00  0.00     0.073 A 
ATOM     76  C   UNL A   1      41.109  22.164  26.559  1.00  0.00     0.054 A 
BRANCH  73  77
ATOM     77  O   UNL A   1      44.085  23.579  24.938  1.00  0.00    -0.507 OA
ATOM     78  H   UNL A   1      43.748  23.737  24.078  1.00  0.00     0.293 HD
ENDBRANCH  73  77
BRANCH  76  79
ATOM     79  N   UNL A   1      39.790  21.744  26.213  1.00  0.00    -0.261 N 
ATOM     80  C   UNL A   1      38.727  22.642  26.309  1.00  0.00     0.270 C 
ATOM     81  C   UNL A   1      39.477  20.465  25.764  1.00  0.00     0.152 C 
ATOM     82  O   UNL A   1      38.765  23.809  26.670  1.00  0.00    -0.268 OA
ATOM     83  C   UNL A   1      37.471  21.997  25.836  1.00  0.00     0.081 C 
ATOM     84  S   UNL A   1      37.777  20.391  25.321  1.00  0.00    -0.054 SA
ATOM     85  S   UNL A   1      40.423  19.085  25.696  1.00  0.00    -0.051 S 
ATOM     86  C   UNL A   1      36.300  22.648  25.798  1.00  0.00     0.027 C 
BRANCH  86  87
ATOM     87  C   UNL A   1      35.041  22.094  25.360  1.00  0.00    -0.016 C 
ATOM     88  C   UNL A   1      34.384  22.391  24.242  1.00  0.00     0.005 A 
ATOM     89  C   UNL A   1      34.290  21.063  26.156  1.00  0.00     0.179 C 
ATOM     90  C   UNL A   1      34.596  23.271  23.137  1.00  0.00     0.011 A 
ATOM     91  C   UNL A   1      33.206  21.510  24.315  1.00  0.00     0.065 A 
ATOM     92  N   UNL A   1      33.079  20.748  25.358  1.00  0.00    -0.280 NA
ATOM     93  C   UNL A   1      33.695  23.281  22.139  1.00  0.00     0.001 A 
ATOM     94  C   UNL A   1      32.266  21.572  23.176  1.00  0.00     0.028 A 
ATOM     95  C   UNL A   1      32.526  22.415  22.165  1.00  0.00     0.002 A 
ENDBRANCH  86  87
ENDBRANCH  76  79
ENDBRANCH  68  71
ENDBRANCH  66  67
ENDBRANCH  65  66
ENDBRANCH  64  65
ENDBRANCH   1  64
TORSDOF 16
ENDMDL
