MODEL 1
REMARK VINA RESULT:     -10.0      0.000      0.000
REMARK SMILES C[NH2+]C[C@@H](C)C(=O)N1CC[NH+](CC(=O)NCCCCCCNC(=O)c2ccc(-c3c4nc(c(-c5c(F)cccc5F)c5ccc([nH]5)c(-c5c(F)cccc5F)c5nc(c(-c6c(F)cccc6F)c6ccc3[nH]6)C=C5)C=C4)cc2)CC1
REMARK SMILES IDX 17 1 16 2 15 3 13 4 14 5 12 7 11 8 6 9 7 10 8 11 9 12 80 13
REMARK SMILES IDX 10 14 79 15 4 17 5 18 3 19 2 20 1 21 18 24 19 25 20 26 21 27
REMARK SMILES IDX 22 28 23 29 24 31 25 32 26 33 78 34 27 35 77 36 28 37 29 38
REMARK SMILES IDX 30 39 71 40 31 41 76 42 70 43 72 44 32 45 75 46 69 47 68 48
REMARK SMILES IDX 33 50 59 51 42 52 58 53 43 54 46 55 57 56 73 57 44 58 45 59
REMARK SMILES IDX 56 61 74 62 47 63 34 64 35 65 40 66 36 67 37 68 39 69 41 70
REMARK SMILES IDX 38 71 60 72 61 73 66 74 62 75 63 76 65 77 67 78 64 79 48 80
REMARK SMILES IDX 49 81 54 82 50 83 51 84 53 85 55 86 52 87
REMARK H PARENT 15 6 11 16 2 22 2 23 22 30 72 49 46 60
REMARK Flexibility Score: inf
ROOT
ATOM      1  C   UNL A   1      34.841  31.237  28.205  1.00  0.00     0.021 C 
ENDROOT
BRANCH   1   2
ATOM      2  C   UNL A   1      33.568  31.058  27.361  1.00  0.00     0.116 C 
BRANCH   2   3
ATOM      3  N   UNL A   1      32.841  29.825  27.617  1.00  0.00    -0.351 N 
ATOM      4  C   UNL A   1      32.965  28.554  27.138  1.00  0.00     0.275 C 
ATOM      5  O   UNL A   1      32.188  27.705  27.585  1.00  0.00    -0.269 OA
ATOM      6  H   UNL A   1      32.112  29.928  28.270  1.00  0.00     0.163 HD
BRANCH   4   7
ATOM      7  C   UNL A   1      34.019  28.181  26.100  1.00  0.00     0.363 C 
BRANCH   7   8
ATOM      8  N   UNL A   1      33.586  28.242  24.693  1.00  0.00    -0.324 N 
ATOM      9  C   UNL A   1      29.381  27.890  23.586  1.00  0.00     0.231 C 
ATOM     10  O   UNL A   1      28.784  26.812  23.637  1.00  0.00    -0.274 OA
ATOM     11  N   UNL A   1      30.722  27.991  23.943  1.00  0.00    -0.331 N 
ATOM     12  C   UNL A   1      31.505  26.771  24.189  1.00  0.00     0.181 C 
ATOM     13  C   UNL A   1      31.259  29.166  24.590  1.00  0.00     0.181 C 
ATOM     14  C   UNL A   1      33.042  27.001  24.108  1.00  0.00     0.284 C 
ATOM     15  C   UNL A   1      32.752  29.388  24.363  1.00  0.00     0.284 C 
ATOM     16  H   UNL A   1      34.487  28.373  24.232  1.00  0.00     0.348 HD
BRANCH   9  17
ATOM     17  C   UNL A   1      28.651  29.131  23.022  1.00  0.00     0.130 C 
ATOM     18  C   UNL A   1      27.139  28.878  23.038  1.00  0.00     0.024 C 
BRANCH  17  19
ATOM     19  C   UNL A   1      29.225  29.668  21.694  1.00  0.00     0.273 C 
BRANCH  19  20
ATOM     20  N   UNL A   1      29.744  31.044  21.708  1.00  0.00    -0.348 N 
ATOM     21  C   UNL A   1      28.692  32.034  21.888  1.00  0.00     0.330 C 
ATOM     22  H   UNL A   1      30.412  31.135  22.474  1.00  0.00     0.346 HD
ATOM     23  H   UNL A   1      30.183  31.220  20.805  1.00  0.00     0.346 HD
ENDBRANCH  19  20
ENDBRANCH  17  19
ENDBRANCH   9  17
ENDBRANCH   7   8
ENDBRANCH   4   7
ENDBRANCH   2   3
ENDBRANCH   1   2
BRANCH   1  24
ATOM     24  C   UNL A   1      34.795  32.352  29.265  1.00  0.00     0.002 C 
BRANCH  24  25
ATOM     25  C   UNL A   1      35.359  33.698  28.808  1.00  0.00     0.002 C 
BRANCH  25  26
ATOM     26  C   UNL A   1      34.447  34.905  29.046  1.00  0.00     0.021 C 
BRANCH  26  27
ATOM     27  C   UNL A   1      33.052  34.570  29.563  1.00  0.00     0.116 C 
BRANCH  27  28
ATOM     28  N   UNL A   1      32.590  35.538  30.545  1.00  0.00    -0.352 N 
ATOM     29  C   UNL A   1      32.991  35.683  31.850  1.00  0.00     0.251 C 
ATOM     30  H   UNL A   1      31.901  36.170  30.235  1.00  0.00     0.163 HD
ATOM     31  O   UNL A   1      32.362  36.396  32.629  1.00  0.00    -0.269 OA
BRANCH  29  32
ATOM     32  C   UNL A   1      34.183  34.952  32.325  1.00  0.00     0.039 A 
ATOM     33  C   UNL A   1      34.047  33.632  32.759  1.00  0.00     0.014 A 
ATOM     34  C   UNL A   1      35.437  35.570  32.321  1.00  0.00     0.014 A 
ATOM     35  C   UNL A   1      35.180  32.911  33.139  1.00  0.00     0.010 A 
ATOM     36  C   UNL A   1      36.574  34.829  32.637  1.00  0.00     0.010 A 
ATOM     37  C   UNL A   1      36.457  33.492  33.053  1.00  0.00    -0.014 A 
BRANCH  37  38
ATOM     38  C   UNL A   1      37.676  32.710  33.386  1.00  0.00     0.031 A 
ATOM     39  C   UNL A   1      38.440  32.993  34.650  1.00  0.00     0.074 A 
ATOM     40  C   UNL A   1      38.129  31.781  32.523  1.00  0.00     0.049 A 
ATOM     41  N   UNL A   1      39.540  32.438  35.092  1.00  0.00    -0.248 NA
ATOM     42  C   UNL A   1      37.913  34.058  35.516  1.00  0.00     0.031 C 
ATOM     43  C   UNL A   1      37.512  31.449  31.238  1.00  0.00     0.029 A 
ATOM     44  N   UNL A   1      39.223  30.954  32.589  1.00  0.00    -0.354 N 
ATOM     45  C   UNL A   1      39.842  33.093  36.280  1.00  0.00     0.074 A 
ATOM     46  C   UNL A   1      38.840  34.121  36.460  1.00  0.00     0.031 C 
ATOM     47  C   UNL A   1      38.226  30.480  30.645  1.00  0.00     0.029 A 
ATOM     48  C   UNL A   1      39.371  30.146  31.487  1.00  0.00     0.049 A 
ATOM     49  H   UNL A   1      39.843  30.939  33.354  1.00  0.00     0.167 HD
ATOM     50  C   UNL A   1      40.853  32.849  37.149  1.00  0.00     0.037 A 
ATOM     51  C   UNL A   1      40.327  29.249  31.180  1.00  0.00     0.037 A 
ATOM     52  C   UNL A   1      41.840  31.816  36.972  1.00  0.00     0.049 A 
ATOM     53  C   UNL A   1      41.441  28.995  32.158  1.00  0.00     0.074 A 
ATOM     54  C   UNL A   1      42.856  31.438  37.834  1.00  0.00     0.029 A 
ATOM     55  N   UNL A   1      41.948  31.007  35.850  1.00  0.00    -0.354 N 
ATOM     56  N   UNL A   1      41.663  29.557  33.321  1.00  0.00    -0.248 NA
ATOM     57  C   UNL A   1      42.430  27.974  31.787  1.00  0.00     0.031 C 
ATOM     58  C   UNL A   1      43.616  30.447  37.205  1.00  0.00     0.029 A 
ATOM     59  C   UNL A   1      43.037  30.159  35.980  1.00  0.00     0.049 A 
ATOM     60  H   UNL A   1      41.340  31.032  35.075  1.00  0.00     0.167 HD
ATOM     61  C   UNL A   1      42.802  28.947  33.831  1.00  0.00     0.074 A 
ATOM     62  C   UNL A   1      43.214  27.957  32.855  1.00  0.00     0.031 C 
ATOM     63  C   UNL A   1      43.445  29.183  35.000  1.00  0.00     0.037 A 
BRANCH  50  64
ATOM     64  C   UNL A   1      40.949  33.730  38.363  1.00  0.00     0.057 A 
ATOM     65  C   UNL A   1      40.183  33.500  39.515  1.00  0.00     0.134 A 
ATOM     66  C   UNL A   1      41.837  34.813  38.388  1.00  0.00     0.134 A 
ATOM     67  F   UNL A   1      39.306  32.486  39.558  1.00  0.00    -0.206 F 
ATOM     68  C   UNL A   1      40.269  34.337  40.630  1.00  0.00     0.040 A 
ATOM     69  C   UNL A   1      41.956  35.637  39.508  1.00  0.00     0.040 A 
ATOM     70  F   UNL A   1      42.608  35.087  37.325  1.00  0.00    -0.206 F 
ATOM     71  C   UNL A   1      41.162  35.406  40.630  1.00  0.00     0.006 A 
ENDBRANCH  50  64
BRANCH  51  72
ATOM     72  C   UNL A   1      40.262  28.520  29.888  1.00  0.00     0.057 A 
ATOM     73  C   UNL A   1      39.473  27.374  29.736  1.00  0.00     0.134 A 
ATOM     74  C   UNL A   1      40.978  28.961  28.768  1.00  0.00     0.134 A 
ATOM     75  F   UNL A   1      38.778  26.890  30.777  1.00  0.00    -0.206 F 
ATOM     76  C   UNL A   1      39.406  26.687  28.523  1.00  0.00     0.040 A 
ATOM     77  C   UNL A   1      40.900  28.301  27.542  1.00  0.00     0.040 A 
ATOM     78  F   UNL A   1      41.747  30.058  28.845  1.00  0.00    -0.206 F 
ATOM     79  C   UNL A   1      40.115  27.156  27.419  1.00  0.00     0.006 A 
ENDBRANCH  51  72
BRANCH  63  80
ATOM     80  C   UNL A   1      44.652  28.341  35.307  1.00  0.00     0.057 A 
ATOM     81  C   UNL A   1      45.948  28.746  34.961  1.00  0.00     0.134 A 
ATOM     82  C   UNL A   1      44.518  27.129  35.997  1.00  0.00     0.134 A 
ATOM     83  F   UNL A   1      46.146  29.890  34.288  1.00  0.00    -0.206 F 
ATOM     84  C   UNL A   1      47.063  27.966  35.268  1.00  0.00     0.040 A 
ATOM     85  C   UNL A   1      45.628  26.355  36.338  1.00  0.00     0.040 A 
ATOM     86  F   UNL A   1      43.308  26.685  36.369  1.00  0.00    -0.206 F 
ATOM     87  C   UNL A   1      46.906  26.770  35.967  1.00  0.00     0.006 A 
ENDBRANCH  63  80
ENDBRANCH  37  38
ENDBRANCH  29  32
ENDBRANCH  27  28
ENDBRANCH  26  27
ENDBRANCH  25  26
ENDBRANCH  24  25
ENDBRANCH   1  24
TORSDOF 17
ENDMDL
MODEL 2
REMARK VINA RESULT:      -9.8      3.580      8.496
REMARK SMILES C[NH2+]C[C@@H](C)C(=O)N1CC[NH+](CC(=O)NCCCCCCNC(=O)c2ccc(-c3c4nc(c(-c5c(F)cccc5F)c5ccc([nH]5)c(-c5c(F)cccc5F)c5nc(c(-c6c(F)cccc6F)c6ccc3[nH]6)C=C5)C=C4)cc2)CC1
REMARK SMILES IDX 17 1 16 2 15 3 13 4 14 5 12 7 11 8 6 9 7 10 8 11 9 12 80 13
REMARK SMILES IDX 10 14 79 15 4 17 5 18 3 19 2 20 1 21 18 24 19 25 20 26 21 27
REMARK SMILES IDX 22 28 23 29 24 31 25 32 26 33 78 34 27 35 77 36 28 37 29 38
REMARK SMILES IDX 30 39 71 40 31 41 76 42 70 43 72 44 32 45 75 46 69 47 68 48
REMARK SMILES IDX 33 50 59 51 42 52 58 53 43 54 46 55 57 56 73 57 44 58 45 59
REMARK SMILES IDX 56 61 74 62 47 63 34 64 35 65 40 66 36 67 37 68 39 69 41 70
REMARK SMILES IDX 38 71 60 72 61 73 66 74 62 75 63 76 65 77 67 78 64 79 48 80
REMARK SMILES IDX 49 81 54 82 50 83 51 84 53 85 55 86 52 87
REMARK H PARENT 15 6 11 16 2 22 2 23 22 30 72 49 46 60
REMARK Flexibility Score: inf
ROOT
ATOM      1  C   UNL A   1      34.411  21.868  27.190  1.00  0.00     0.021 C 
ENDROOT
BRANCH   1   2
ATOM      2  C   UNL A   1      33.367  22.997  27.213  1.00  0.00     0.116 C 
BRANCH   2   3
ATOM      3  N   UNL A   1      31.993  22.552  27.035  1.00  0.00    -0.351 N 
ATOM      4  C   UNL A   1      31.185  22.439  25.943  1.00  0.00     0.275 C 
ATOM      5  O   UNL A   1      30.048  21.994  26.127  1.00  0.00    -0.269 OA
ATOM      6  H   UNL A   1      31.559  22.276  27.875  1.00  0.00     0.163 HD
BRANCH   4   7
ATOM      7  C   UNL A   1      31.653  22.835  24.547  1.00  0.00     0.363 C 
BRANCH   7   8
ATOM      8  N   UNL A   1      31.329  24.208  24.125  1.00  0.00    -0.324 N 
ATOM      9  C   UNL A   1      32.261  27.647  26.641  1.00  0.00     0.231 C 
ATOM     10  O   UNL A   1      31.617  27.898  27.663  1.00  0.00    -0.274 OA
ATOM     11  N   UNL A   1      31.956  26.547  25.846  1.00  0.00    -0.331 N 
ATOM     12  C   UNL A   1      30.726  25.782  26.101  1.00  0.00     0.181 C 
ATOM     13  C   UNL A   1      32.975  25.793  25.152  1.00  0.00     0.181 C 
ATOM     14  C   UNL A   1      30.282  24.913  24.889  1.00  0.00     0.284 C 
ATOM     15  C   UNL A   1      32.484  25.065  23.904  1.00  0.00     0.284 C 
ATOM     16  H   UNL A   1      30.904  24.023  23.215  1.00  0.00     0.348 HD
BRANCH   9  17
ATOM     17  C   UNL A   1      33.364  28.630  26.184  1.00  0.00     0.130 C 
ATOM     18  C   UNL A   1      34.272  28.958  27.375  1.00  0.00     0.024 C 
BRANCH  17  19
ATOM     19  C   UNL A   1      32.854  29.843  25.379  1.00  0.00     0.273 C 
BRANCH  19  20
ATOM     20  N   UNL A   1      31.405  30.093  25.410  1.00  0.00    -0.348 N 
ATOM     21  C   UNL A   1      30.745  29.698  24.175  1.00  0.00     0.330 C 
ATOM     22  H   UNL A   1      30.997  29.564  26.182  1.00  0.00     0.346 HD
ATOM     23  H   UNL A   1      31.265  31.096  25.529  1.00  0.00     0.346 HD
ENDBRANCH  19  20
ENDBRANCH  17  19
ENDBRANCH   9  17
ENDBRANCH   7   8
ENDBRANCH   4   7
ENDBRANCH   2   3
ENDBRANCH   1   2
BRANCH   1  24
ATOM     24  C   UNL A   1      34.553  21.108  25.860  1.00  0.00     0.002 C 
BRANCH  24  25
ATOM     25  C   UNL A   1      35.782  21.485  25.031  1.00  0.00     0.002 C 
BRANCH  25  26
ATOM     26  C   UNL A   1      35.902  22.969  24.672  1.00  0.00     0.021 C 
BRANCH  26  27
ATOM     27  C   UNL A   1      37.113  23.682  25.264  1.00  0.00     0.116 C 
BRANCH  27  28
ATOM     28  N   UNL A   1      38.205  22.759  25.538  1.00  0.00    -0.352 N 
ATOM     29  C   UNL A   1      39.403  23.020  26.156  1.00  0.00     0.251 C 
ATOM     30  H   UNL A   1      38.067  21.831  25.241  1.00  0.00     0.163 HD
ATOM     31  O   UNL A   1      40.320  22.202  26.124  1.00  0.00    -0.269 OA
BRANCH  29  32
ATOM     32  C   UNL A   1      39.594  24.310  26.848  1.00  0.00     0.039 A 
ATOM     33  C   UNL A   1      39.067  24.482  28.130  1.00  0.00     0.014 A 
ATOM     34  C   UNL A   1      40.313  25.340  26.233  1.00  0.00     0.014 A 
ATOM     35  C   UNL A   1      39.308  25.672  28.819  1.00  0.00     0.010 A 
ATOM     36  C   UNL A   1      40.608  26.499  26.949  1.00  0.00     0.010 A 
ATOM     37  C   UNL A   1      40.106  26.679  28.248  1.00  0.00    -0.014 A 
BRANCH  37  38
ATOM     38  C   UNL A   1      40.427  27.918  29.002  1.00  0.00     0.031 A 
ATOM     39  C   UNL A   1      41.740  28.052  29.723  1.00  0.00     0.074 A 
ATOM     40  C   UNL A   1      39.513  28.904  29.086  1.00  0.00     0.049 A 
ATOM     41  N   UNL A   1      42.183  29.041  30.456  1.00  0.00    -0.248 NA
ATOM     42  C   UNL A   1      42.665  26.913  29.628  1.00  0.00     0.031 C 
ATOM     43  C   UNL A   1      38.181  28.875  28.480  1.00  0.00     0.029 A 
ATOM     44  N   UNL A   1      39.559  30.117  29.727  1.00  0.00    -0.354 N 
ATOM     45  C   UNL A   1      43.430  28.639  30.920  1.00  0.00     0.074 A 
ATOM     46  C   UNL A   1      43.648  27.296  30.428  1.00  0.00     0.031 C 
ATOM     47  C   UNL A   1      37.544  30.021  28.764  1.00  0.00     0.029 A 
ATOM     48  C   UNL A   1      38.404  30.850  29.603  1.00  0.00     0.049 A 
ATOM     49  H   UNL A   1      40.346  30.432  30.228  1.00  0.00     0.167 HD
ATOM     50  C   UNL A   1      44.319  29.333  31.671  1.00  0.00     0.037 A 
ATOM     51  C   UNL A   1      38.068  32.049  30.116  1.00  0.00     0.037 A 
ATOM     52  C   UNL A   1      44.103  30.675  32.147  1.00  0.00     0.049 A 
ATOM     53  C   UNL A   1      39.069  32.802  30.949  1.00  0.00     0.074 A 
ATOM     54  C   UNL A   1      44.973  31.492  32.848  1.00  0.00     0.029 A 
ATOM     55  N   UNL A   1      42.925  31.393  31.986  1.00  0.00    -0.354 N 
ATOM     56  N   UNL A   1      40.281  32.449  31.302  1.00  0.00    -0.248 NA
ATOM     57  C   UNL A   1      38.660  34.122  31.446  1.00  0.00     0.031 C 
ATOM     58  C   UNL A   1      44.300  32.676  33.168  1.00  0.00     0.029 A 
ATOM     59  C   UNL A   1      43.034  32.626  32.610  1.00  0.00     0.049 A 
ATOM     60  H   UNL A   1      42.130  31.072  31.502  1.00  0.00     0.167 HD
ATOM     61  C   UNL A   1      40.788  33.509  32.043  1.00  0.00     0.074 A 
ATOM     62  C   UNL A   1      39.756  34.526  32.073  1.00  0.00     0.031 C 
ATOM     63  C   UNL A   1      41.998  33.629  32.642  1.00  0.00     0.037 A 
BRANCH  50  64
ATOM     64  C   UNL A   1      45.601  28.642  32.040  1.00  0.00     0.057 A 
ATOM     65  C   UNL A   1      46.748  28.719  31.237  1.00  0.00     0.134 A 
ATOM     66  C   UNL A   1      45.697  27.904  33.227  1.00  0.00     0.134 A 
ATOM     67  F   UNL A   1      46.726  29.402  30.083  1.00  0.00    -0.206 F 
ATOM     68  C   UNL A   1      47.929  28.057  31.583  1.00  0.00     0.040 A 
ATOM     69  C   UNL A   1      46.880  27.265  33.599  1.00  0.00     0.040 A 
ATOM     70  F   UNL A   1      44.641  27.794  34.048  1.00  0.00    -0.206 F 
ATOM     71  C   UNL A   1      47.998  27.332  32.770  1.00  0.00     0.006 A 
ENDBRANCH  50  64
BRANCH  51  72
ATOM     72  C   UNL A   1      36.721  32.612  29.845  1.00  0.00     0.057 A 
ATOM     73  C   UNL A   1      36.442  33.293  28.654  1.00  0.00     0.134 A 
ATOM     74  C   UNL A   1      35.675  32.469  30.765  1.00  0.00     0.134 A 
ATOM     75  F   UNL A   1      37.407  33.480  27.741  1.00  0.00    -0.206 F 
ATOM     76  C   UNL A   1      35.177  33.822  28.393  1.00  0.00     0.040 A 
ATOM     77  C   UNL A   1      34.398  32.968  30.505  1.00  0.00     0.040 A 
ATOM     78  F   UNL A   1      35.874  31.820  31.921  1.00  0.00    -0.206 F 
ATOM     79  C   UNL A   1      34.148  33.652  29.318  1.00  0.00     0.006 A 
ENDBRANCH  51  72
BRANCH  63  80
ATOM     80  C   UNL A   1      42.287  34.916  33.362  1.00  0.00     0.057 A 
ATOM     81  C   UNL A   1      41.878  35.136  34.684  1.00  0.00     0.134 A 
ATOM     82  C   UNL A   1      43.025  35.931  32.738  1.00  0.00     0.134 A 
ATOM     83  F   UNL A   1      41.158  34.210  35.336  1.00  0.00    -0.206 F 
ATOM     84  C   UNL A   1      42.170  36.327  35.349  1.00  0.00     0.040 A 
ATOM     85  C   UNL A   1      43.349  37.114  33.404  1.00  0.00     0.040 A 
ATOM     86  F   UNL A   1      43.457  35.783  31.476  1.00  0.00    -0.206 F 
ATOM     87  C   UNL A   1      42.916  37.317  34.712  1.00  0.00     0.006 A 
ENDBRANCH  63  80
ENDBRANCH  37  38
ENDBRANCH  29  32
ENDBRANCH  27  28
ENDBRANCH  26  27
ENDBRANCH  25  26
ENDBRANCH  24  25
ENDBRANCH   1  24
TORSDOF 17
ENDMDL
MODEL 3
REMARK VINA RESULT:      -9.8      6.873     11.993
REMARK SMILES C[NH2+]C[C@@H](C)C(=O)N1CC[NH+](CC(=O)NCCCCCCNC(=O)c2ccc(-c3c4nc(c(-c5c(F)cccc5F)c5ccc([nH]5)c(-c5c(F)cccc5F)c5nc(c(-c6c(F)cccc6F)c6ccc3[nH]6)C=C5)C=C4)cc2)CC1
REMARK SMILES IDX 17 1 16 2 15 3 13 4 14 5 12 7 11 8 6 9 7 10 8 11 9 12 80 13
REMARK SMILES IDX 10 14 79 15 4 17 5 18 3 19 2 20 1 21 18 24 19 25 20 26 21 27
REMARK SMILES IDX 22 28 23 29 24 31 25 32 26 33 78 34 27 35 77 36 28 37 29 38
REMARK SMILES IDX 30 39 71 40 31 41 76 42 70 43 72 44 32 45 75 46 69 47 68 48
REMARK SMILES IDX 33 50 59 51 42 52 58 53 43 54 46 55 57 56 73 57 44 58 45 59
REMARK SMILES IDX 56 61 74 62 47 63 34 64 35 65 40 66 36 67 37 68 39 69 41 70
REMARK SMILES IDX 38 71 60 72 61 73 66 74 62 75 63 76 65 77 67 78 64 79 48 80
REMARK SMILES IDX 49 81 54 82 50 83 51 84 53 85 55 86 52 87
REMARK H PARENT 15 6 11 16 2 22 2 23 22 30 72 49 46 60
REMARK Flexibility Score: inf
ROOT
ATOM      1  C   UNL A   1      40.008  23.103  27.221  1.00  0.00     0.021 C 
ENDROOT
BRANCH   1   2
ATOM      2  C   UNL A   1      38.706  23.056  26.405  1.00  0.00     0.116 C 
BRANCH   2   3
ATOM      3  N   UNL A   1      38.319  21.726  25.960  1.00  0.00    -0.351 N 
ATOM      4  C   UNL A   1      37.480  21.278  24.984  1.00  0.00     0.275 C 
ATOM      5  O   UNL A   1      37.385  20.055  24.839  1.00  0.00    -0.269 OA
ATOM      6  H   UNL A   1      38.752  21.001  26.467  1.00  0.00     0.163 HD
BRANCH   4   7
ATOM      7  C   UNL A   1      36.691  22.234  24.096  1.00  0.00     0.363 C 
BRANCH   7   8
ATOM      8  N   UNL A   1      35.230  22.233  24.287  1.00  0.00    -0.324 N 
ATOM      9  C   UNL A   1      33.054  25.891  25.243  1.00  0.00     0.231 C 
ATOM     10  O   UNL A   1      33.116  26.411  26.360  1.00  0.00    -0.274 OA
ATOM     11  N   UNL A   1      33.753  24.725  24.948  1.00  0.00    -0.331 N 
ATOM     12  C   UNL A   1      34.415  23.978  26.029  1.00  0.00     0.181 C 
ATOM     13  C   UNL A   1      34.317  24.475  23.641  1.00  0.00     0.181 C 
ATOM     14  C   UNL A   1      34.734  22.504  25.650  1.00  0.00     0.284 C 
ATOM     15  C   UNL A   1      34.488  22.999  23.296  1.00  0.00     0.284 C 
ATOM     16  H   UNL A   1      35.027  21.245  24.128  1.00  0.00     0.348 HD
BRANCH   9  17
ATOM     17  C   UNL A   1      32.104  26.494  24.181  1.00  0.00     0.130 C 
ATOM     18  C   UNL A   1      32.455  27.972  23.972  1.00  0.00     0.024 C 
BRANCH  17  19
ATOM     19  C   UNL A   1      30.608  26.187  24.406  1.00  0.00     0.273 C 
BRANCH  19  20
ATOM     20  N   UNL A   1      30.234  24.768  24.506  1.00  0.00    -0.348 N 
ATOM     21  C   UNL A   1      30.547  24.024  23.295  1.00  0.00     0.330 C 
ATOM     22  H   UNL A   1      30.741  24.349  25.286  1.00  0.00     0.346 HD
ATOM     23  H   UNL A   1      29.225  24.723  24.645  1.00  0.00     0.346 HD
ENDBRANCH  19  20
ENDBRANCH  17  19
ENDBRANCH   9  17
ENDBRANCH   7   8
ENDBRANCH   4   7
ENDBRANCH   2   3
ENDBRANCH   1   2
BRANCH   1  24
ATOM     24  C   UNL A   1      40.752  21.765  27.380  1.00  0.00     0.002 C 
BRANCH  24  25
ATOM     25  C   UNL A   1      41.740  21.440  26.258  1.00  0.00     0.002 C 
BRANCH  25  26
ATOM     26  C   UNL A   1      41.775  19.974  25.820  1.00  0.00     0.021 C 
BRANCH  26  27
ATOM     27  C   UNL A   1      43.014  19.198  26.255  1.00  0.00     0.116 C 
BRANCH  27  28
ATOM     28  N   UNL A   1      43.822  18.784  25.118  1.00  0.00    -0.352 N 
ATOM     29  C   UNL A   1      44.615  19.562  24.311  1.00  0.00     0.251 C 
ATOM     30  H   UNL A   1      43.795  17.825  24.898  1.00  0.00     0.163 HD
ATOM     31  O   UNL A   1      45.065  19.121  23.256  1.00  0.00    -0.269 OA
BRANCH  29  32
ATOM     32  C   UNL A   1      44.910  20.953  24.710  1.00  0.00     0.039 A 
ATOM     33  C   UNL A   1      44.561  21.998  23.853  1.00  0.00     0.014 A 
ATOM     34  C   UNL A   1      45.513  21.219  25.943  1.00  0.00     0.014 A 
ATOM     35  C   UNL A   1      44.768  23.318  24.256  1.00  0.00     0.010 A 
ATOM     36  C   UNL A   1      45.658  22.538  26.370  1.00  0.00     0.010 A 
ATOM     37  C   UNL A   1      45.290  23.601  25.530  1.00  0.00    -0.014 A 
BRANCH  37  38
ATOM     38  C   UNL A   1      45.447  25.003  25.996  1.00  0.00     0.031 A 
ATOM     39  C   UNL A   1      46.797  25.666  25.975  1.00  0.00     0.074 A 
ATOM     40  C   UNL A   1      44.384  25.665  26.493  1.00  0.00     0.049 A 
ATOM     41  N   UNL A   1      47.134  26.867  26.370  1.00  0.00    -0.248 NA
ATOM     42  C   UNL A   1      47.920  24.862  25.468  1.00  0.00     0.031 C 
ATOM     43  C   UNL A   1      43.033  25.117  26.620  1.00  0.00     0.029 A 
ATOM     44  N   UNL A   1      44.275  26.937  26.996  1.00  0.00    -0.354 N 
ATOM     45  C   UNL A   1      48.506  26.959  26.172  1.00  0.00     0.074 A 
ATOM     46  C   UNL A   1      48.946  25.675  25.671  1.00  0.00     0.031 C 
ATOM     47  C   UNL A   1      42.228  26.051  27.150  1.00  0.00     0.029 A 
ATOM     48  C   UNL A   1      43.011  27.250  27.436  1.00  0.00     0.049 A 
ATOM     49  H   UNL A   1      45.031  27.567  27.038  1.00  0.00     0.167 HD
ATOM     50  C   UNL A   1      49.323  28.022  26.371  1.00  0.00     0.037 A 
ATOM     51  C   UNL A   1      42.537  28.368  28.016  1.00  0.00     0.037 A 
ATOM     52  C   UNL A   1      48.879  29.303  26.857  1.00  0.00     0.049 A 
ATOM     53  C   UNL A   1      43.461  29.536  28.231  1.00  0.00     0.074 A 
ATOM     54  C   UNL A   1      49.613  30.466  27.018  1.00  0.00     0.029 A 
ATOM     55  N   UNL A   1      47.586  29.587  27.276  1.00  0.00    -0.354 N 
ATOM     56  N   UNL A   1      44.737  29.641  27.952  1.00  0.00    -0.248 NA
ATOM     57  C   UNL A   1      42.876  30.744  28.830  1.00  0.00     0.031 C 
ATOM     58  C   UNL A   1      48.782  31.431  27.596  1.00  0.00     0.029 A 
ATOM     59  C   UNL A   1      47.513  30.893  27.734  1.00  0.00     0.049 A 
ATOM     60  H   UNL A   1      46.833  28.953  27.253  1.00  0.00     0.167 HD
ATOM     61  C   UNL A   1      45.105  30.929  28.321  1.00  0.00     0.074 A 
ATOM     62  C   UNL A   1      43.910  31.574  28.827  1.00  0.00     0.031 C 
ATOM     63  C   UNL A   1      46.320  31.524  28.244  1.00  0.00     0.037 A 
BRANCH  50  64
ATOM     64  C   UNL A   1      50.785  27.836  26.080  1.00  0.00     0.057 A 
ATOM     65  C   UNL A   1      51.319  28.008  24.795  1.00  0.00     0.134 A 
ATOM     66  C   UNL A   1      51.678  27.499  27.106  1.00  0.00     0.134 A 
ATOM     67  F   UNL A   1      50.520  28.323  23.763  1.00  0.00    -0.206 F 
ATOM     68  C   UNL A   1      52.677  27.814  24.535  1.00  0.00     0.040 A 
ATOM     69  C   UNL A   1      53.043  27.335  26.865  1.00  0.00     0.040 A 
ATOM     70  F   UNL A   1      51.239  27.328  28.363  1.00  0.00    -0.206 F 
ATOM     71  C   UNL A   1      53.545  27.482  25.573  1.00  0.00     0.006 A 
ENDBRANCH  50  64
BRANCH  51  72
ATOM     72  C   UNL A   1      41.112  28.435  28.428  1.00  0.00     0.057 A 
ATOM     73  C   UNL A   1      40.116  28.856  27.539  1.00  0.00     0.134 A 
ATOM     74  C   UNL A   1      40.709  28.064  29.717  1.00  0.00     0.134 A 
ATOM     75  F   UNL A   1      40.440  29.242  26.296  1.00  0.00    -0.206 F 
ATOM     76  C   UNL A   1      38.774  28.917  27.919  1.00  0.00     0.040 A 
ATOM     77  C   UNL A   1      39.369  28.094  30.102  1.00  0.00     0.040 A 
ATOM     78  F   UNL A   1      41.613  27.643  30.614  1.00  0.00    -0.206 F 
ATOM     79  C   UNL A   1      38.397  28.528  29.202  1.00  0.00     0.006 A 
ENDBRANCH  51  72
BRANCH  63  80
ATOM     80  C   UNL A   1      46.419  32.954  28.696  1.00  0.00     0.057 A 
ATOM     81  C   UNL A   1      46.764  33.296  30.009  1.00  0.00     0.134 A 
ATOM     82  C   UNL A   1      46.210  34.002  27.789  1.00  0.00     0.134 A 
ATOM     83  F   UNL A   1      46.966  32.341  30.931  1.00  0.00    -0.206 F 
ATOM     84  C   UNL A   1      46.872  34.628  30.412  1.00  0.00     0.040 A 
ATOM     85  C   UNL A   1      46.347  35.337  28.173  1.00  0.00     0.040 A 
ATOM     86  F   UNL A   1      45.888  33.747  26.513  1.00  0.00    -0.206 F 
ATOM     87  C   UNL A   1      46.672  35.654  29.490  1.00  0.00     0.006 A 
ENDBRANCH  63  80
ENDBRANCH  37  38
ENDBRANCH  29  32
ENDBRANCH  27  28
ENDBRANCH  26  27
ENDBRANCH  25  26
ENDBRANCH  24  25
ENDBRANCH   1  24
TORSDOF 17
ENDMDL
