MODEL 1
REMARK VINA RESULT:     -12.1      0.000      0.000
REMARK SMILES O=C(NCCCCCCNC(=O)c1cc(Br)ccc1OC(=O)c1ccc(F)cc1)c1ccc(-c2c3nc(c(-c4c(F)cccc4F)c4ccc([nH]4)c(-c4c(F)cccc4F)c4nc(c(-c5c(F)cccc5F)c5ccc2[nH]5)C=C4)C=C3)cc1
REMARK SMILES IDX 7 1 6 2 5 3 4 4 3 5 1 6 2 7 30 9 31 10 83 11 32 12 82 13
REMARK SMILES IDX 33 14 34 15 35 16 76 17 36 18 81 19 75 20 77 21 37 22 80 23
REMARK SMILES IDX 74 24 73 25 38 27 64 28 47 29 63 30 48 31 51 32 62 33 78 34
REMARK SMILES IDX 49 35 50 36 61 38 79 39 52 40 39 41 40 42 45 43 41 44 42 45
REMARK SMILES IDX 44 46 46 47 43 48 65 49 66 50 71 51 67 52 68 53 70 54 72 55
REMARK SMILES IDX 69 56 53 57 54 58 59 59 55 60 56 61 58 62 60 63 57 64 8 65
REMARK SMILES IDX 9 66 10 67 11 68 12 70 13 71 14 72 19 73 15 74 18 75 16 76
REMARK SMILES IDX 17 77 20 78 21 79 22 80 23 81 24 82 29 83 25 84 28 85 26 86
REMARK SMILES IDX 27 87
REMARK H PARENT 3 8 77 26 51 37 10 69
REMARK Flexibility Score: inf
ROOT
ATOM      1  C   UNL A   1      36.913  21.806  24.762  1.00  0.00     0.002 C 
ENDROOT
BRANCH   1   2
ATOM      2  C   UNL A   1      36.664  20.315  25.011  1.00  0.00     0.002 C 
BRANCH   2   3
ATOM      3  C   UNL A   1      37.898  19.415  24.929  1.00  0.00     0.021 C 
BRANCH   3   4
ATOM      4  C   UNL A   1      39.127  19.941  25.659  1.00  0.00     0.116 C 
BRANCH   4   5
ATOM      5  N   UNL A   1      40.157  18.928  25.800  1.00  0.00    -0.352 N 
ATOM      6  O   UNL A   1      42.261  18.135  25.983  1.00  0.00    -0.269 OA
ATOM      7  C   UNL A   1      41.493  19.087  26.075  1.00  0.00     0.251 C 
ATOM      8  H   UNL A   1      39.857  17.999  25.683  1.00  0.00     0.163 HD
BRANCH   7   9
ATOM      9  C   UNL A   1      42.010  20.414  26.477  1.00  0.00     0.039 A 
ATOM     10  C   UNL A   1      42.488  21.314  25.520  1.00  0.00     0.014 A 
ATOM     11  C   UNL A   1      41.969  20.778  27.826  1.00  0.00     0.014 A 
ATOM     12  C   UNL A   1      43.007  22.542  25.920  1.00  0.00     0.010 A 
ATOM     13  C   UNL A   1      42.422  22.041  28.219  1.00  0.00     0.010 A 
ATOM     14  C   UNL A   1      42.946  22.929  27.269  1.00  0.00    -0.014 A 
BRANCH  14  15
ATOM     15  C   UNL A   1      43.298  24.320  27.644  1.00  0.00     0.031 A 
ATOM     16  C   UNL A   1      42.245  25.326  28.004  1.00  0.00     0.074 A 
ATOM     17  C   UNL A   1      44.600  24.667  27.636  1.00  0.00     0.049 A 
ATOM     18  N   UNL A   1      42.393  26.590  28.309  1.00  0.00    -0.248 NA
ATOM     19  C   UNL A   1      40.849  24.863  28.024  1.00  0.00     0.031 C 
ATOM     20  C   UNL A   1      45.706  23.771  27.285  1.00  0.00     0.029 A 
ATOM     21  N   UNL A   1      45.219  25.857  27.924  1.00  0.00    -0.354 N 
ATOM     22  C   UNL A   1      41.114  27.078  28.543  1.00  0.00     0.074 A 
ATOM     23  C   UNL A   1      40.198  25.978  28.332  1.00  0.00     0.031 C 
ATOM     24  C   UNL A   1      46.864  24.435  27.395  1.00  0.00     0.029 A 
ATOM     25  C   UNL A   1      46.583  25.817  27.761  1.00  0.00     0.049 A 
ATOM     26  H   UNL A   1      44.733  26.661  28.219  1.00  0.00     0.167 HD
ATOM     27  C   UNL A   1      40.751  28.329  28.906  1.00  0.00     0.037 A 
ATOM     28  C   UNL A   1      47.506  26.792  27.858  1.00  0.00     0.037 A 
ATOM     29  C   UNL A   1      41.679  29.408  29.135  1.00  0.00     0.049 A 
ATOM     30  C   UNL A   1      47.064  28.179  28.218  1.00  0.00     0.074 A 
ATOM     31  C   UNL A   1      41.406  30.691  29.580  1.00  0.00     0.029 A 
ATOM     32  N   UNL A   1      43.047  29.337  28.930  1.00  0.00    -0.354 N 
ATOM     33  N   UNL A   1      45.858  28.609  28.494  1.00  0.00    -0.248 NA
ATOM     34  C   UNL A   1      48.102  29.217  28.271  1.00  0.00     0.031 C 
ATOM     35  C   UNL A   1      42.602  31.411  29.593  1.00  0.00     0.029 A 
ATOM     36  C   UNL A   1      43.626  30.565  29.199  1.00  0.00     0.049 A 
ATOM     37  H   UNL A   1      43.534  28.533  28.636  1.00  0.00     0.167 HD
ATOM     38  C   UNL A   1      45.990  29.966  28.752  1.00  0.00     0.074 A 
ATOM     39  C   UNL A   1      47.397  30.283  28.626  1.00  0.00     0.031 C 
ATOM     40  C   UNL A   1      45.027  30.866  29.061  1.00  0.00     0.037 A 
BRANCH  27  41
ATOM     41  C   UNL A   1      39.294  28.632  29.084  1.00  0.00     0.057 A 
ATOM     42  C   UNL A   1      38.562  29.229  28.049  1.00  0.00     0.134 A 
ATOM     43  C   UNL A   1      38.657  28.472  30.319  1.00  0.00     0.134 A 
ATOM     44  F   UNL A   1      39.121  29.422  26.844  1.00  0.00    -0.206 F 
ATOM     45  C   UNL A   1      37.256  29.680  28.245  1.00  0.00     0.040 A 
ATOM     46  C   UNL A   1      37.345  28.903  30.523  1.00  0.00     0.040 A 
ATOM     47  F   UNL A   1      39.304  27.905  31.349  1.00  0.00    -0.206 F 
ATOM     48  C   UNL A   1      36.645  29.521  29.488  1.00  0.00     0.006 A 
ENDBRANCH  27  41
BRANCH  28  49
ATOM     49  C   UNL A   1      48.927  26.483  27.569  1.00  0.00     0.057 A 
ATOM     50  C   UNL A   1      49.447  26.611  26.273  1.00  0.00     0.134 A 
ATOM     51  C   UNL A   1      49.790  26.024  28.568  1.00  0.00     0.134 A 
ATOM     52  F   UNL A   1      48.668  27.039  25.270  1.00  0.00    -0.206 F 
ATOM     53  C   UNL A   1      50.767  26.269  25.978  1.00  0.00     0.040 A 
ATOM     54  C   UNL A   1      51.121  25.705  28.292  1.00  0.00     0.040 A 
ATOM     55  F   UNL A   1      49.355  25.898  29.830  1.00  0.00    -0.206 F 
ATOM     56  C   UNL A   1      51.610  25.819  26.992  1.00  0.00     0.006 A 
ENDBRANCH  28  49
BRANCH  40  57
ATOM     57  C   UNL A   1      45.451  32.287  29.276  1.00  0.00     0.057 A 
ATOM     58  C   UNL A   1      45.494  33.192  28.209  1.00  0.00     0.134 A 
ATOM     59  C   UNL A   1      45.906  32.728  30.524  1.00  0.00     0.134 A 
ATOM     60  F   UNL A   1      45.080  32.825  26.987  1.00  0.00    -0.206 F 
ATOM     61  C   UNL A   1      45.999  34.482  28.371  1.00  0.00     0.040 A 
ATOM     62  C   UNL A   1      46.393  34.023  30.703  1.00  0.00     0.040 A 
ATOM     63  F   UNL A   1      45.876  31.910  31.588  1.00  0.00    -0.206 F 
ATOM     64  C   UNL A   1      46.451  34.900  29.621  1.00  0.00     0.006 A 
ENDBRANCH  40  57
ENDBRANCH  14  15
ENDBRANCH   7   9
ENDBRANCH   4   5
ENDBRANCH   3   4
ENDBRANCH   2   3
ENDBRANCH   1   2
BRANCH   1  65
ATOM     65  C   UNL A   1      36.265  22.765  25.762  1.00  0.00     0.021 C 
BRANCH  65  66
ATOM     66  C   UNL A   1      35.647  24.026  25.162  1.00  0.00     0.116 C 
BRANCH  66  67
ATOM     67  N   UNL A   1      35.265  23.868  23.769  1.00  0.00    -0.352 N 
ATOM     68  C   UNL A   1      34.050  23.502  23.245  1.00  0.00     0.255 C 
ATOM     69  H   UNL A   1      35.974  24.048  23.110  1.00  0.00     0.163 HD
ATOM     70  O   UNL A   1      33.920  23.295  22.043  1.00  0.00    -0.269 OA
BRANCH  68  71
ATOM     71  C   UNL A   1      32.893  23.350  24.147  1.00  0.00     0.083 A 
ATOM     72  C   UNL A   1      32.053  24.450  24.366  1.00  0.00     0.033 A 
ATOM     73  C   UNL A   1      32.613  22.130  24.770  1.00  0.00     0.144 A 
ATOM     74  C   UNL A   1      30.988  24.337  25.258  1.00  0.00     0.019 A 
ATOM     75  C   UNL A   1      31.531  22.015  25.646  1.00  0.00     0.049 A 
ATOM     76  Br  UNL A   1      29.892  25.839  25.596  1.00  0.00    -0.051 Br
ATOM     77  C   UNL A   1      30.729  23.128  25.906  1.00  0.00     0.019 A 
BRANCH  73  78
ATOM     78  O   UNL A   1      33.306  20.946  24.478  1.00  0.00    -0.422 OA
BRANCH  78  79
ATOM     79  C   UNL A   1      32.679  20.056  23.629  1.00  0.00     0.343 C 
ATOM     80  O   UNL A   1      32.039  20.331  22.617  1.00  0.00    -0.246 OA
BRANCH  79  81
ATOM     81  C   UNL A   1      32.897  18.668  24.114  1.00  0.00     0.060 A 
ATOM     82  C   UNL A   1      32.615  18.288  25.437  1.00  0.00     0.019 A 
ATOM     83  C   UNL A   1      33.434  17.725  23.224  1.00  0.00     0.019 A 
ATOM     84  C   UNL A   1      32.877  16.982  25.862  1.00  0.00     0.040 A 
ATOM     85  C   UNL A   1      33.688  16.420  23.653  1.00  0.00     0.040 A 
ATOM     86  C   UNL A   1      33.412  16.062  24.968  1.00  0.00     0.123 A 
ATOM     87  F   UNL A   1      33.669  14.815  25.381  1.00  0.00    -0.207 F 
ENDBRANCH  79  81
ENDBRANCH  78  79
ENDBRANCH  73  78
ENDBRANCH  68  71
ENDBRANCH  66  67
ENDBRANCH  65  66
ENDBRANCH   1  65
TORSDOF 16
ENDMDL
MODEL 2
REMARK VINA RESULT:     -11.9      5.788     10.684
REMARK SMILES O=C(NCCCCCCNC(=O)c1cc(Br)ccc1OC(=O)c1ccc(F)cc1)c1ccc(-c2c3nc(c(-c4c(F)cccc4F)c4ccc([nH]4)c(-c4c(F)cccc4F)c4nc(c(-c5c(F)cccc5F)c5ccc2[nH]5)C=C4)C=C3)cc1
REMARK SMILES IDX 7 1 6 2 5 3 4 4 3 5 1 6 2 7 30 9 31 10 83 11 32 12 82 13
REMARK SMILES IDX 33 14 34 15 35 16 76 17 36 18 81 19 75 20 77 21 37 22 80 23
REMARK SMILES IDX 74 24 73 25 38 27 64 28 47 29 63 30 48 31 51 32 62 33 78 34
REMARK SMILES IDX 49 35 50 36 61 38 79 39 52 40 39 41 40 42 45 43 41 44 42 45
REMARK SMILES IDX 44 46 46 47 43 48 65 49 66 50 71 51 67 52 68 53 70 54 72 55
REMARK SMILES IDX 69 56 53 57 54 58 59 59 55 60 56 61 58 62 60 63 57 64 8 65
REMARK SMILES IDX 9 66 10 67 11 68 12 70 13 71 14 72 19 73 15 74 18 75 16 76
REMARK SMILES IDX 17 77 20 78 21 79 22 80 23 81 24 82 29 83 25 84 28 85 26 86
REMARK SMILES IDX 27 87
REMARK H PARENT 3 8 77 26 51 37 10 69
REMARK Flexibility Score: inf
ROOT
ATOM      1  C   UNL A   1      32.276  30.093  25.992  1.00  0.00     0.002 C 
ENDROOT
BRANCH   1   2
ATOM      2  C   UNL A   1      31.063  30.998  25.760  1.00  0.00     0.002 C 
BRANCH   2   3
ATOM      3  C   UNL A   1      31.132  32.379  26.413  1.00  0.00     0.021 C 
BRANCH   3   4
ATOM      4  C   UNL A   1      32.467  32.717  27.062  1.00  0.00     0.116 C 
BRANCH   4   5
ATOM      5  N   UNL A   1      32.499  34.071  27.584  1.00  0.00    -0.352 N 
ATOM      6  O   UNL A   1      33.097  35.728  28.994  1.00  0.00    -0.269 OA
ATOM      7  C   UNL A   1      33.324  34.611  28.539  1.00  0.00     0.251 C 
ATOM      8  H   UNL A   1      31.837  34.689  27.199  1.00  0.00     0.163 HD
BRANCH   7   9
ATOM      9  C   UNL A   1      34.487  33.839  29.031  1.00  0.00     0.039 A 
ATOM     10  C   UNL A   1      35.791  34.235  28.720  1.00  0.00     0.014 A 
ATOM     11  C   UNL A   1      34.267  32.732  29.856  1.00  0.00     0.014 A 
ATOM     12  C   UNL A   1      36.871  33.475  29.158  1.00  0.00     0.010 A 
ATOM     13  C   UNL A   1      35.354  32.012  30.357  1.00  0.00     0.010 A 
ATOM     14  C   UNL A   1      36.663  32.377  30.009  1.00  0.00    -0.014 A 
BRANCH  14  15
ATOM     15  C   UNL A   1      37.829  31.714  30.642  1.00  0.00     0.031 A 
ATOM     16  C   UNL A   1      38.618  30.660  29.923  1.00  0.00     0.074 A 
ATOM     17  C   UNL A   1      38.155  32.074  31.899  1.00  0.00     0.049 A 
ATOM     18  N   UNL A   1      39.633  29.959  30.361  1.00  0.00    -0.248 NA
ATOM     19  C   UNL A   1      38.223  30.347  28.541  1.00  0.00     0.031 C 
ATOM     20  C   UNL A   1      37.444  33.077  32.697  1.00  0.00     0.029 A 
ATOM     21  N   UNL A   1      39.156  31.641  32.730  1.00  0.00    -0.354 N 
ATOM     22  C   UNL A   1      39.989  29.114  29.319  1.00  0.00     0.074 A 
ATOM     23  C   UNL A   1      39.075  29.378  28.229  1.00  0.00     0.031 C 
ATOM     24  C   UNL A   1      38.040  33.196  33.890  1.00  0.00     0.029 A 
ATOM     25  C   UNL A   1      39.133  32.236  33.969  1.00  0.00     0.049 A 
ATOM     26  H   UNL A   1      39.827  30.971  32.465  1.00  0.00     0.167 HD
ATOM     27  C   UNL A   1      40.994  28.208  29.285  1.00  0.00     0.037 A 
ATOM     28  C   UNL A   1      39.883  32.009  35.064  1.00  0.00     0.037 A 
ATOM     29  C   UNL A   1      41.912  27.974  30.370  1.00  0.00     0.049 A 
ATOM     30  C   UNL A   1      40.959  30.967  35.007  1.00  0.00     0.074 A 
ATOM     31  C   UNL A   1      43.009  27.129  30.396  1.00  0.00     0.029 A 
ATOM     32  N   UNL A   1      41.836  28.572  31.618  1.00  0.00    -0.354 N 
ATOM     33  N   UNL A   1      41.321  30.218  33.994  1.00  0.00    -0.248 NA
ATOM     34  C   UNL A   1      41.722  30.727  36.239  1.00  0.00     0.031 C 
ATOM     35  C   UNL A   1      43.564  27.176  31.676  1.00  0.00     0.029 A 
ATOM     36  C   UNL A   1      42.842  28.084  32.434  1.00  0.00     0.049 A 
ATOM     37  H   UNL A   1      41.167  29.244  31.884  1.00  0.00     0.167 HD
ATOM     38  C   UNL A   1      42.353  29.418  34.465  1.00  0.00     0.074 A 
ATOM     39  C   UNL A   1      42.577  29.791  35.846  1.00  0.00     0.031 C 
ATOM     40  C   UNL A   1      43.047  28.459  33.809  1.00  0.00     0.037 A 
BRANCH  27  41
ATOM     41  C   UNL A   1      41.179  27.386  28.045  1.00  0.00     0.057 A 
ATOM     42  C   UNL A   1      41.940  27.877  26.975  1.00  0.00     0.134 A 
ATOM     43  C   UNL A   1      40.489  26.184  27.852  1.00  0.00     0.134 A 
ATOM     44  F   UNL A   1      42.614  29.031  27.094  1.00  0.00    -0.206 F 
ATOM     45  C   UNL A   1      41.985  27.214  25.748  1.00  0.00     0.040 A 
ATOM     46  C   UNL A   1      40.541  25.502  26.634  1.00  0.00     0.040 A 
ATOM     47  F   UNL A   1      39.746  25.661  28.839  1.00  0.00    -0.206 F 
ATOM     48  C   UNL A   1      41.280  26.025  25.574  1.00  0.00     0.006 A 
ENDBRANCH  27  41
BRANCH  28  49
ATOM     49  C   UNL A   1      39.603  32.764  36.310  1.00  0.00     0.057 A 
ATOM     50  C   UNL A   1      40.316  33.929  36.627  1.00  0.00     0.134 A 
ATOM     51  C   UNL A   1      38.645  32.324  37.227  1.00  0.00     0.134 A 
ATOM     52  F   UNL A   1      41.254  34.397  35.791  1.00  0.00    -0.206 F 
ATOM     53  C   UNL A   1      40.101  34.616  37.822  1.00  0.00     0.040 A 
ATOM     54  C   UNL A   1      38.400  33.017  38.414  1.00  0.00     0.040 A 
ATOM     55  F   UNL A   1      37.920  31.226  36.971  1.00  0.00    -0.206 F 
ATOM     56  C   UNL A   1      39.136  34.162  38.718  1.00  0.00     0.006 A 
ENDBRANCH  28  49
BRANCH  40  57
ATOM     57  C   UNL A   1      44.110  27.730  34.571  1.00  0.00     0.057 A 
ATOM     58  C   UNL A   1      45.422  28.218  34.617  1.00  0.00     0.134 A 
ATOM     59  C   UNL A   1      43.852  26.495  35.178  1.00  0.00     0.134 A 
ATOM     60  F   UNL A   1      45.733  29.390  34.045  1.00  0.00    -0.206 F 
ATOM     61  C   UNL A   1      46.446  27.489  35.220  1.00  0.00     0.040 A 
ATOM     62  C   UNL A   1      44.864  25.768  35.804  1.00  0.00     0.040 A 
ATOM     63  F   UNL A   1      42.612  25.983  35.178  1.00  0.00    -0.206 F 
ATOM     64  C   UNL A   1      46.169  26.260  35.815  1.00  0.00     0.006 A 
ENDBRANCH  40  57
ENDBRANCH  14  15
ENDBRANCH   7   9
ENDBRANCH   4   5
ENDBRANCH   3   4
ENDBRANCH   2   3
ENDBRANCH   1   2
BRANCH   1  65
ATOM     65  C   UNL A   1      32.131  29.061  27.112  1.00  0.00     0.021 C 
BRANCH  65  66
ATOM     66  C   UNL A   1      32.428  27.615  26.720  1.00  0.00     0.116 C 
BRANCH  66  67
ATOM     67  N   UNL A   1      31.295  26.726  26.916  1.00  0.00    -0.352 N 
ATOM     68  C   UNL A   1      30.605  25.991  25.984  1.00  0.00     0.255 C 
ATOM     69  H   UNL A   1      30.978  26.638  27.845  1.00  0.00     0.163 HD
ATOM     70  O   UNL A   1      29.589  25.378  26.293  1.00  0.00    -0.269 OA
BRANCH  68  71
ATOM     71  C   UNL A   1      31.096  25.950  24.593  1.00  0.00     0.083 A 
ATOM     72  C   UNL A   1      31.765  24.804  24.143  1.00  0.00     0.033 A 
ATOM     73  C   UNL A   1      30.890  27.021  23.719  1.00  0.00     0.144 A 
ATOM     74  C   UNL A   1      32.282  24.772  22.849  1.00  0.00     0.019 A 
ATOM     75  C   UNL A   1      31.390  26.976  22.416  1.00  0.00     0.049 A 
ATOM     76  Br  UNL A   1      33.235  23.250  22.263  1.00  0.00    -0.051 Br
ATOM     77  C   UNL A   1      32.107  25.856  21.987  1.00  0.00     0.019 A 
BRANCH  73  78
ATOM     78  O   UNL A   1      30.094  28.130  24.042  1.00  0.00    -0.422 OA
BRANCH  78  79
ATOM     79  C   UNL A   1      28.826  28.159  23.496  1.00  0.00     0.343 C 
ATOM     80  O   UNL A   1      28.005  27.247  23.493  1.00  0.00    -0.246 OA
BRANCH  79  81
ATOM     81  C   UNL A   1      28.573  29.498  22.899  1.00  0.00     0.060 A 
ATOM     82  C   UNL A   1      29.057  29.849  21.628  1.00  0.00     0.019 A 
ATOM     83  C   UNL A   1      27.859  30.442  23.651  1.00  0.00     0.019 A 
ATOM     84  C   UNL A   1      28.834  31.134  21.124  1.00  0.00     0.040 A 
ATOM     85  C   UNL A   1      27.633  31.722  23.141  1.00  0.00     0.040 A 
ATOM     86  C   UNL A   1      28.126  32.058  21.885  1.00  0.00     0.123 A 
ATOM     87  F   UNL A   1      27.921  33.290  21.402  1.00  0.00    -0.207 F 
ENDBRANCH  79  81
ENDBRANCH  78  79
ENDBRANCH  73  78
ENDBRANCH  68  71
ENDBRANCH  66  67
ENDBRANCH  65  66
ENDBRANCH   1  65
TORSDOF 16
ENDMDL
MODEL 3
REMARK VINA RESULT:     -11.9      6.100     11.028
REMARK SMILES O=C(NCCCCCCNC(=O)c1cc(Br)ccc1OC(=O)c1ccc(F)cc1)c1ccc(-c2c3nc(c(-c4c(F)cccc4F)c4ccc([nH]4)c(-c4c(F)cccc4F)c4nc(c(-c5c(F)cccc5F)c5ccc2[nH]5)C=C4)C=C3)cc1
REMARK SMILES IDX 7 1 6 2 5 3 4 4 3 5 1 6 2 7 30 9 31 10 83 11 32 12 82 13
REMARK SMILES IDX 33 14 34 15 35 16 76 17 36 18 81 19 75 20 77 21 37 22 80 23
REMARK SMILES IDX 74 24 73 25 38 27 64 28 47 29 63 30 48 31 51 32 62 33 78 34
REMARK SMILES IDX 49 35 50 36 61 38 79 39 52 40 39 41 40 42 45 43 41 44 42 45
REMARK SMILES IDX 44 46 46 47 43 48 65 49 66 50 71 51 67 52 68 53 70 54 72 55
REMARK SMILES IDX 69 56 53 57 54 58 59 59 55 60 56 61 58 62 60 63 57 64 8 65
REMARK SMILES IDX 9 66 10 67 11 68 12 70 13 71 14 72 19 73 15 74 18 75 16 76
REMARK SMILES IDX 17 77 20 78 21 79 22 80 23 81 24 82 29 83 25 84 28 85 26 86
REMARK SMILES IDX 27 87
REMARK H PARENT 3 8 77 26 51 37 10 69
REMARK Flexibility Score: inf
ROOT
ATOM      1  C   UNL A   1      32.963  30.016  26.798  1.00  0.00     0.002 C 
ENDROOT
BRANCH   1   2
ATOM      2  C   UNL A   1      31.601  30.628  26.459  1.00  0.00     0.002 C 
BRANCH   2   3
ATOM      3  C   UNL A   1      31.503  32.148  26.605  1.00  0.00     0.021 C 
BRANCH   3   4
ATOM      4  C   UNL A   1      32.707  32.809  27.261  1.00  0.00     0.116 C 
BRANCH   4   5
ATOM      5  N   UNL A   1      32.441  34.187  27.636  1.00  0.00    -0.352 N 
ATOM      6  O   UNL A   1      32.550  36.033  28.927  1.00  0.00    -0.269 OA
ATOM      7  C   UNL A   1      33.019  34.940  28.628  1.00  0.00     0.251 C 
ATOM      8  H   UNL A   1      31.752  34.645  27.104  1.00  0.00     0.163 HD
BRANCH   7   9
ATOM      9  C   UNL A   1      34.206  34.427  29.346  1.00  0.00     0.039 A 
ATOM     10  C   UNL A   1      34.072  33.769  30.573  1.00  0.00     0.014 A 
ATOM     11  C   UNL A   1      35.467  34.561  28.757  1.00  0.00     0.014 A 
ATOM     12  C   UNL A   1      35.203  33.328  31.252  1.00  0.00     0.010 A 
ATOM     13  C   UNL A   1      36.596  34.053  29.405  1.00  0.00     0.010 A 
ATOM     14  C   UNL A   1      36.471  33.435  30.658  1.00  0.00    -0.014 A 
BRANCH  14  15
ATOM     15  C   UNL A   1      37.632  32.766  31.292  1.00  0.00     0.031 A 
ATOM     16  C   UNL A   1      38.278  31.562  30.673  1.00  0.00     0.074 A 
ATOM     17  C   UNL A   1      38.086  33.260  32.461  1.00  0.00     0.049 A 
ATOM     18  N   UNL A   1      39.270  30.841  31.131  1.00  0.00    -0.248 NA
ATOM     19  C   UNL A   1      37.748  31.103  29.380  1.00  0.00     0.031 C 
ATOM     20  C   UNL A   1      37.520  34.417  33.160  1.00  0.00     0.029 A 
ATOM     21  N   UNL A   1      39.117  32.857  33.271  1.00  0.00    -0.354 N 
ATOM     22  C   UNL A   1      39.475  29.837  30.194  1.00  0.00     0.074 A 
ATOM     23  C   UNL A   1      38.497  30.031  29.146  1.00  0.00     0.031 C 
ATOM     24  C   UNL A   1      38.219  34.642  34.280  1.00  0.00     0.029 A 
ATOM     25  C   UNL A   1      39.240  33.611  34.413  1.00  0.00     0.049 A 
ATOM     26  H   UNL A   1      39.711  32.103  33.055  1.00  0.00     0.167 HD
ATOM     27  C   UNL A   1      40.402  28.852  30.215  1.00  0.00     0.037 A 
ATOM     28  C   UNL A   1      40.058  33.469  35.473  1.00  0.00     0.037 A 
ATOM     29  C   UNL A   1      41.386  28.687  31.255  1.00  0.00     0.049 A 
ATOM     30  C   UNL A   1      41.045  32.340  35.485  1.00  0.00     0.074 A 
ATOM     31  C   UNL A   1      42.415  27.762  31.320  1.00  0.00     0.029 A 
ATOM     32  N   UNL A   1      41.459  29.450  32.409  1.00  0.00    -0.354 N 
ATOM     33  N   UNL A   1      41.265  31.435  34.563  1.00  0.00    -0.248 NA
ATOM     34  C   UNL A   1      41.887  32.202  36.681  1.00  0.00     0.031 C 
ATOM     35  C   UNL A   1      43.076  27.932  32.538  1.00  0.00     0.029 A 
ATOM     36  C   UNL A   1      42.489  28.990  33.212  1.00  0.00     0.049 A 
ATOM     37  H   UNL A   1      40.866  30.206  32.625  1.00  0.00     0.167 HD
ATOM     38  C   UNL A   1      42.269  30.620  35.066  1.00  0.00     0.074 A 
ATOM     39  C   UNL A   1      42.633  31.152  36.362  1.00  0.00     0.031 C 
ATOM     40  C   UNL A   1      42.833  29.526  34.502  1.00  0.00     0.037 A 
BRANCH  27  41
ATOM     41  C   UNL A   1      40.423  27.860  29.092  1.00  0.00     0.057 A 
ATOM     42  C   UNL A   1      41.175  28.112  27.936  1.00  0.00     0.134 A 
ATOM     43  C   UNL A   1      39.590  26.735  29.091  1.00  0.00     0.134 A 
ATOM     44  F   UNL A   1      41.983  29.181  27.870  1.00  0.00    -0.206 F 
ATOM     45  C   UNL A   1      41.076  27.295  26.809  1.00  0.00     0.040 A 
ATOM     46  C   UNL A   1      39.496  25.900  27.976  1.00  0.00     0.040 A 
ATOM     47  F   UNL A   1      38.847  26.439  30.168  1.00  0.00    -0.206 F 
ATOM     48  C   UNL A   1      40.230  26.187  26.826  1.00  0.00     0.006 A 
ENDBRANCH  27  41
BRANCH  28  49
ATOM     49  C   UNL A   1      39.939  34.404  36.618  1.00  0.00     0.057 A 
ATOM     50  C   UNL A   1      39.130  34.099  37.722  1.00  0.00     0.134 A 
ATOM     51  C   UNL A   1      40.602  35.635  36.624  1.00  0.00     0.134 A 
ATOM     52  F   UNL A   1      38.462  32.938  37.771  1.00  0.00    -0.206 F 
ATOM     53  C   UNL A   1      38.966  34.996  38.778  1.00  0.00     0.040 A 
ATOM     54  C   UNL A   1      40.469  36.529  37.688  1.00  0.00     0.040 A 
ATOM     55  F   UNL A   1      41.403  35.975  35.605  1.00  0.00    -0.206 F 
ATOM     56  C   UNL A   1      39.641  36.214  38.765  1.00  0.00     0.006 A 
ENDBRANCH  28  49
BRANCH  40  57
ATOM     57  C   UNL A   1      43.898  28.816  35.281  1.00  0.00     0.057 A 
ATOM     58  C   UNL A   1      43.563  27.845  36.233  1.00  0.00     0.134 A 
ATOM     59  C   UNL A   1      45.247  29.166  35.153  1.00  0.00     0.134 A 
ATOM     60  F   UNL A   1      42.287  27.474  36.409  1.00  0.00    -0.206 F 
ATOM     61  C   UNL A   1      44.534  27.263  37.048  1.00  0.00     0.040 A 
ATOM     62  C   UNL A   1      46.229  28.575  35.947  1.00  0.00     0.040 A 
ATOM     63  F   UNL A   1      45.630  30.081  34.248  1.00  0.00    -0.206 F 
ATOM     64  C   UNL A   1      45.871  27.628  36.907  1.00  0.00     0.006 A 
ENDBRANCH  40  57
ENDBRANCH  14  15
ENDBRANCH   7   9
ENDBRANCH   4   5
ENDBRANCH   3   4
ENDBRANCH   2   3
ENDBRANCH   1   2
BRANCH   1  65
ATOM     65  C   UNL A   1      33.532  29.044  25.764  1.00  0.00     0.021 C 
BRANCH  65  66
ATOM     66  C   UNL A   1      33.617  27.585  26.205  1.00  0.00     0.116 C 
BRANCH  66  67
ATOM     67  N   UNL A   1      32.343  27.050  26.658  1.00  0.00    -0.352 N 
ATOM     68  C   UNL A   1      31.341  26.470  25.920  1.00  0.00     0.255 C 
ATOM     69  H   UNL A   1      32.176  27.112  27.627  1.00  0.00     0.163 HD
ATOM     70  O   UNL A   1      30.268  26.176  26.438  1.00  0.00    -0.269 OA
BRANCH  68  71
ATOM     71  C   UNL A   1      31.563  26.208  24.486  1.00  0.00     0.083 A 
ATOM     72  C   UNL A   1      32.144  24.993  24.099  1.00  0.00     0.033 A 
ATOM     73  C   UNL A   1      31.188  27.138  23.511  1.00  0.00     0.144 A 
ATOM     74  C   UNL A   1      32.409  24.754  22.752  1.00  0.00     0.019 A 
ATOM     75  C   UNL A   1      31.435  26.885  22.160  1.00  0.00     0.049 A 
ATOM     76  Br  UNL A   1      33.248  23.141  22.239  1.00  0.00    -0.051 Br
ATOM     77  C   UNL A   1      32.067  25.698  21.782  1.00  0.00     0.019 A 
BRANCH  73  78
ATOM     78  O   UNL A   1      30.457  28.299  23.804  1.00  0.00    -0.422 OA
BRANCH  78  79
ATOM     79  C   UNL A   1      29.134  28.312  23.410  1.00  0.00     0.343 C 
ATOM     80  O   UNL A   1      28.335  27.382  23.485  1.00  0.00    -0.246 OA
BRANCH  79  81
ATOM     81  C   UNL A   1      28.788  29.654  22.872  1.00  0.00     0.060 A 
ATOM     82  C   UNL A   1      28.242  29.824  21.589  1.00  0.00     0.019 A 
ATOM     83  C   UNL A   1      29.052  30.781  23.666  1.00  0.00     0.019 A 
ATOM     84  C   UNL A   1      27.973  31.109  21.107  1.00  0.00     0.040 A 
ATOM     85  C   UNL A   1      28.775  32.062  23.182  1.00  0.00     0.040 A 
ATOM     86  C   UNL A   1      28.243  32.214  21.906  1.00  0.00     0.123 A 
ATOM     87  F   UNL A   1      27.992  33.443  21.437  1.00  0.00    -0.207 F 
ENDBRANCH  79  81
ENDBRANCH  78  79
ENDBRANCH  73  78
ENDBRANCH  68  71
ENDBRANCH  66  67
ENDBRANCH  65  66
ENDBRANCH   1  65
TORSDOF 16
ENDMDL
