MODEL 1
REMARK VINA RESULT:     -13.2      0.000      0.000
REMARK SMILES O=C(NCCCCCCNC(=O)[C@H]1CC2=c3ccccc3=N[C@H]2[C@@H](c2ccccc2)[NH2+]1)c1ccc(-c2c3nc(c(-c4c(F)cccc4F)c4ccc([nH]4)c(-c4c(F)cccc4F)c4nc(c(-c5c(F)cccc5F)c5ccc2[nH]5)C=C4)C=C3)cc1
REMARK SMILES IDX 6 1 5 2 4 3 3 4 1 5 2 6 32 8 33 9 85 10 34 11 84 12 35 13
REMARK SMILES IDX 36 14 37 15 78 16 38 17 83 18 77 19 79 20 39 21 82 22 76 23
REMARK SMILES IDX 75 24 40 26 66 27 49 28 65 29 50 30 53 31 64 32 80 33 51 34
REMARK SMILES IDX 52 35 63 37 81 38 54 39 41 40 42 41 47 42 43 43 44 44 46 45
REMARK SMILES IDX 48 46 45 47 67 48 68 49 73 50 69 51 70 52 72 53 74 54 71 55
REMARK SMILES IDX 55 56 56 57 61 58 57 59 58 60 60 61 62 62 59 63 7 64 8 65
REMARK SMILES IDX 9 66 10 67 11 68 12 70 13 71 14 72 31 73 15 74 24 75 16 78
REMARK SMILES IDX 23 79 17 80 21 81 22 82 18 83 20 84 19 85 25 86 26 87 30 88
REMARK SMILES IDX 27 89 29 90 28 91
REMARK H PARENT 3 7 79 25 53 36 10 69 31 76 31 77
REMARK Flexibility Score: inf
ROOT
ATOM      1  C   UNL A   1      32.263  29.318  27.232  1.00  0.00     0.002 C 
ENDROOT
BRANCH   1   2
ATOM      2  C   UNL A   1      33.656  29.625  26.670  1.00  0.00     0.021 C 
BRANCH   2   3
ATOM      3  C   UNL A   1      34.831  29.291  27.587  1.00  0.00     0.116 C 
BRANCH   3   4
ATOM      4  N   UNL A   1      34.938  30.202  28.717  1.00  0.00    -0.352 N 
ATOM      5  O   UNL A   1      35.833  31.185  30.533  1.00  0.00    -0.269 OA
ATOM      6  C   UNL A   1      36.009  30.494  29.519  1.00  0.00     0.251 C 
ATOM      7  H   UNL A   1      34.108  30.684  28.941  1.00  0.00     0.163 HD
BRANCH   6   8
ATOM      8  C   UNL A   1      37.372  30.000  29.216  1.00  0.00     0.039 A 
ATOM      9  C   UNL A   1      38.196  29.598  30.274  1.00  0.00     0.014 A 
ATOM     10  C   UNL A   1      37.879  29.997  27.913  1.00  0.00     0.014 A 
ATOM     11  C   UNL A   1      39.505  29.171  30.028  1.00  0.00     0.010 A 
ATOM     12  C   UNL A   1      39.158  29.499  27.660  1.00  0.00     0.010 A 
ATOM     13  C   UNL A   1      39.996  29.106  28.715  1.00  0.00    -0.014 A 
BRANCH  13  14
ATOM     14  C   UNL A   1      41.404  28.715  28.433  1.00  0.00     0.031 A 
ATOM     15  C   UNL A   1      41.727  27.280  28.099  1.00  0.00     0.074 A 
ATOM     16  C   UNL A   1      42.395  29.625  28.492  1.00  0.00     0.049 A 
ATOM     17  N   UNL A   1      42.890  26.714  27.898  1.00  0.00    -0.248 NA
ATOM     18  C   UNL A   1      40.586  26.356  27.995  1.00  0.00     0.031 C 
ATOM     19  C   UNL A   1      42.228  31.044  28.801  1.00  0.00     0.029 A 
ATOM     20  N   UNL A   1      43.747  29.484  28.294  1.00  0.00    -0.354 N 
ATOM     21  C   UNL A   1      42.621  25.372  27.656  1.00  0.00     0.074 A 
ATOM     22  C   UNL A   1      41.192  25.195  27.798  1.00  0.00     0.031 C 
ATOM     23  C   UNL A   1      43.425  31.651  28.742  1.00  0.00     0.029 A 
ATOM     24  C   UNL A   1      44.451  30.658  28.436  1.00  0.00     0.049 A 
ATOM     25  H   UNL A   1      44.173  28.625  28.072  1.00  0.00     0.167 HD
ATOM     26  C   UNL A   1      43.477  24.378  27.317  1.00  0.00     0.037 A 
ATOM     27  C   UNL A   1      45.772  30.899  28.338  1.00  0.00     0.037 A 
ATOM     28  C   UNL A   1      44.897  24.549  27.158  1.00  0.00     0.049 A 
ATOM     29  C   UNL A   1      46.711  29.762  28.033  1.00  0.00     0.074 A 
ATOM     30  C   UNL A   1      45.847  23.608  26.799  1.00  0.00     0.029 A 
ATOM     31  N   UNL A   1      45.572  25.745  27.348  1.00  0.00    -0.354 N 
ATOM     32  N   UNL A   1      46.440  28.504  27.785  1.00  0.00    -0.248 NA
ATOM     33  C   UNL A   1      48.146  30.084  27.998  1.00  0.00     0.031 C 
ATOM     34  C   UNL A   1      47.102  24.224  26.815  1.00  0.00     0.029 A 
ATOM     35  C   UNL A   1      46.929  25.561  27.133  1.00  0.00     0.049 A 
ATOM     36  H   UNL A   1      45.151  26.599  27.599  1.00  0.00     0.167 HD
ATOM     37  C   UNL A   1      47.663  27.893  27.534  1.00  0.00     0.074 A 
ATOM     38  C   UNL A   1      48.675  28.923  27.643  1.00  0.00     0.031 C 
ATOM     39  C   UNL A   1      47.925  26.596  27.240  1.00  0.00     0.037 A 
BRANCH  26  40
ATOM     40  C   UNL A   1      42.891  23.013  27.092  1.00  0.00     0.057 A 
ATOM     41  C   UNL A   1      42.678  22.526  25.796  1.00  0.00     0.134 A 
ATOM     42  C   UNL A   1      42.525  22.182  28.160  1.00  0.00     0.134 A 
ATOM     43  F   UNL A   1      42.999  23.271  24.727  1.00  0.00    -0.206 F 
ATOM     44  C   UNL A   1      42.128  21.263  25.571  1.00  0.00     0.040 A 
ATOM     45  C   UNL A   1      42.002  20.906  27.948  1.00  0.00     0.040 A 
ATOM     46  F   UNL A   1      42.714  22.582  29.427  1.00  0.00    -0.206 F 
ATOM     47  C   UNL A   1      41.796  20.446  26.650  1.00  0.00     0.006 A 
ENDBRANCH  26  40
BRANCH  27  48
ATOM     48  C   UNL A   1      46.302  32.276  28.516  1.00  0.00     0.057 A 
ATOM     49  C   UNL A   1      46.442  33.157  27.437  1.00  0.00     0.134 A 
ATOM     50  C   UNL A   1      46.639  32.757  29.788  1.00  0.00     0.134 A 
ATOM     51  F   UNL A   1      46.137  32.759  26.193  1.00  0.00    -0.206 F 
ATOM     52  C   UNL A   1      46.898  34.464  27.615  1.00  0.00     0.040 A 
ATOM     53  C   UNL A   1      47.070  34.069  29.984  1.00  0.00     0.040 A 
ATOM     54  F   UNL A   1      46.503  31.969  30.864  1.00  0.00    -0.206 F 
ATOM     55  C   UNL A   1      47.203  34.926  28.894  1.00  0.00     0.006 A 
ENDBRANCH  27  48
BRANCH  39  56
ATOM     56  C   UNL A   1      49.358  26.228  26.977  1.00  0.00     0.057 A 
ATOM     57  C   UNL A   1      49.871  26.251  25.674  1.00  0.00     0.134 A 
ATOM     58  C   UNL A   1      50.221  25.830  28.006  1.00  0.00     0.134 A 
ATOM     59  F   UNL A   1      49.096  26.613  24.641  1.00  0.00    -0.206 F 
ATOM     60  C   UNL A   1      51.193  25.890  25.403  1.00  0.00     0.040 A 
ATOM     61  C   UNL A   1      51.553  25.496  27.751  1.00  0.00     0.040 A 
ATOM     62  F   UNL A   1      49.796  25.800  29.277  1.00  0.00    -0.206 F 
ATOM     63  C   UNL A   1      52.040  25.520  26.446  1.00  0.00     0.006 A 
ENDBRANCH  39  56
ENDBRANCH  13  14
ENDBRANCH   6   8
ENDBRANCH   3   4
ENDBRANCH   2   3
ENDBRANCH   1   2
BRANCH   1  64
ATOM     64  C   UNL A   1      31.840  27.841  27.241  1.00  0.00     0.002 C 
BRANCH  64  65
ATOM     65  C   UNL A   1      31.022  27.373  26.029  1.00  0.00     0.021 C 
BRANCH  65  66
ATOM     66  C   UNL A   1      30.429  25.961  26.159  1.00  0.00     0.116 C 
BRANCH  66  67
ATOM     67  N   UNL A   1      31.423  25.010  26.656  1.00  0.00    -0.351 N 
ATOM     68  C   UNL A   1      31.554  23.650  26.567  1.00  0.00     0.278 C 
ATOM     69  H   UNL A   1      32.152  25.438  27.160  1.00  0.00     0.163 HD
ATOM     70  O   UNL A   1      32.224  23.127  27.471  1.00  0.00    -0.268 OA
BRANCH  68  71
ATOM     71  C   UNL A   1      31.103  22.769  25.360  1.00  0.00     0.277 C 
ATOM     72  C   UNL A   1      31.139  23.491  23.957  1.00  0.00     0.109 C 
ATOM     73  N   UNL A   1      31.635  21.402  25.356  1.00  0.00    -0.327 N 
ATOM     74  C   UNL A   1      32.504  23.411  23.260  1.00  0.00    -0.024 C 
ATOM     75  C   UNL A   1      32.537  21.166  24.226  1.00  0.00     0.243 C 
ATOM     76  H   UNL A   1      30.855  20.746  25.298  1.00  0.00     0.347 HD
ATOM     77  H   UNL A   1      32.167  21.268  26.216  1.00  0.00     0.347 HD
ATOM     78  C   UNL A   1      33.213  24.511  23.027  1.00  0.00     0.002 A 
ATOM     79  C   UNL A   1      33.448  22.359  23.792  1.00  0.00     0.196 C 
ATOM     80  C   UNL A   1      32.824  25.767  22.476  1.00  0.00     0.010 A 
ATOM     81  C   UNL A   1      34.020  24.402  24.278  1.00  0.00     0.066 A 
ATOM     82  N   UNL A   1      34.208  23.197  24.780  1.00  0.00    -0.270 NA
ATOM     83  C   UNL A   1      33.202  26.899  23.080  1.00  0.00     0.001 A 
ATOM     84  C   UNL A   1      34.345  25.712  24.916  1.00  0.00     0.028 A 
ATOM     85  C   UNL A   1      33.917  26.857  24.343  1.00  0.00     0.002 A 
BRANCH  75  86
ATOM     86  C   UNL A   1      32.946  19.705  24.118  1.00  0.00     0.012 A 
ATOM     87  C   UNL A   1      32.296  18.950  23.108  1.00  0.00     0.010 A 
ATOM     88  C   UNL A   1      34.028  19.124  24.779  1.00  0.00     0.010 A 
ATOM     89  C   UNL A   1      32.746  17.693  22.724  1.00  0.00     0.001 A 
ATOM     90  C   UNL A   1      34.476  17.849  24.396  1.00  0.00     0.001 A 
ATOM     91  C   UNL A   1      33.850  17.146  23.361  1.00  0.00     0.000 A 
ENDBRANCH  75  86
ENDBRANCH  68  71
ENDBRANCH  66  67
ENDBRANCH  65  66
ENDBRANCH  64  65
ENDBRANCH   1  64
TORSDOF 14
ENDMDL
MODEL 2
REMARK VINA RESULT:     -13.1      2.880      8.105
REMARK SMILES O=C(NCCCCCCNC(=O)[C@H]1CC2=c3ccccc3=N[C@H]2[C@@H](c2ccccc2)[NH2+]1)c1ccc(-c2c3nc(c(-c4c(F)cccc4F)c4ccc([nH]4)c(-c4c(F)cccc4F)c4nc(c(-c5c(F)cccc5F)c5ccc2[nH]5)C=C4)C=C3)cc1
REMARK SMILES IDX 6 1 5 2 4 3 3 4 1 5 2 6 32 8 33 9 85 10 34 11 84 12 35 13
REMARK SMILES IDX 36 14 37 15 78 16 38 17 83 18 77 19 79 20 39 21 82 22 76 23
REMARK SMILES IDX 75 24 40 26 66 27 49 28 65 29 50 30 53 31 64 32 80 33 51 34
REMARK SMILES IDX 52 35 63 37 81 38 54 39 41 40 42 41 47 42 43 43 44 44 46 45
REMARK SMILES IDX 48 46 45 47 67 48 68 49 73 50 69 51 70 52 72 53 74 54 71 55
REMARK SMILES IDX 55 56 56 57 61 58 57 59 58 60 60 61 62 62 59 63 7 64 8 65
REMARK SMILES IDX 9 66 10 67 11 68 12 70 13 71 14 72 31 73 15 74 24 75 16 78
REMARK SMILES IDX 23 79 17 80 21 81 22 82 18 83 20 84 19 85 25 86 26 87 30 88
REMARK SMILES IDX 27 89 29 90 28 91
REMARK H PARENT 3 7 79 25 53 36 10 69 31 76 31 77
REMARK Flexibility Score: inf
ROOT
ATOM      1  C   UNL A   1      36.213  20.113  24.974  1.00  0.00     0.002 C 
ENDROOT
BRANCH   1   2
ATOM      2  C   UNL A   1      37.552  19.374  24.870  1.00  0.00     0.021 C 
BRANCH   2   3
ATOM      3  C   UNL A   1      38.746  20.068  25.524  1.00  0.00     0.116 C 
BRANCH   3   4
ATOM      4  N   UNL A   1      39.889  19.181  25.690  1.00  0.00    -0.352 N 
ATOM      5  O   UNL A   1      42.033  18.568  25.995  1.00  0.00    -0.269 OA
ATOM      6  C   UNL A   1      41.174  19.457  26.076  1.00  0.00     0.251 C 
ATOM      7  H   UNL A   1      39.709  18.233  25.495  1.00  0.00     0.163 HD
BRANCH   6   8
ATOM      8  C   UNL A   1      41.570  20.793  26.580  1.00  0.00     0.039 A 
ATOM      9  C   UNL A   1      41.442  21.064  27.948  1.00  0.00     0.014 A 
ATOM     10  C   UNL A   1      41.994  21.808  25.716  1.00  0.00     0.014 A 
ATOM     11  C   UNL A   1      41.763  22.329  28.450  1.00  0.00     0.010 A 
ATOM     12  C   UNL A   1      42.386  23.046  26.229  1.00  0.00     0.010 A 
ATOM     13  C   UNL A   1      42.250  23.331  27.596  1.00  0.00    -0.014 A 
BRANCH  13  14
ATOM     14  C   UNL A   1      42.538  24.703  28.097  1.00  0.00     0.031 A 
ATOM     15  C   UNL A   1      43.954  25.089  28.440  1.00  0.00     0.074 A 
ATOM     16  C   UNL A   1      41.544  25.596  28.264  1.00  0.00     0.049 A 
ATOM     17  N   UNL A   1      44.411  26.199  28.962  1.00  0.00    -0.248 NA
ATOM     18  C   UNL A   1      44.994  24.080  28.176  1.00  0.00     0.031 C 
ATOM     19  C   UNL A   1      40.131  25.360  27.972  1.00  0.00     0.029 A 
ATOM     20  N   UNL A   1      41.576  26.890  28.726  1.00  0.00    -0.354 N 
ATOM     21  C   UNL A   1      45.783  26.018  29.098  1.00  0.00     0.074 A 
ATOM     22  C   UNL A   1      46.075  24.670  28.663  1.00  0.00     0.031 C 
ATOM     23  C   UNL A   1      39.435  26.479  28.231  1.00  0.00     0.029 A 
ATOM     24  C   UNL A   1      40.343  27.498  28.750  1.00  0.00     0.049 A 
ATOM     25  H   UNL A   1      42.404  27.339  29.013  1.00  0.00     0.167 HD
ATOM     26  C   UNL A   1      46.722  26.899  29.516  1.00  0.00     0.037 A 
ATOM     27  C   UNL A   1      39.988  28.733  29.154  1.00  0.00     0.037 A 
ATOM     28  C   UNL A   1      46.441  28.247  29.935  1.00  0.00     0.049 A 
ATOM     29  C   UNL A   1      41.042  29.669  29.685  1.00  0.00     0.074 A 
ATOM     30  C   UNL A   1      47.326  29.224  30.360  1.00  0.00     0.029 A 
ATOM     31  N   UNL A   1      45.174  28.810  29.980  1.00  0.00    -0.354 N 
ATOM     32  N   UNL A   1      42.337  29.491  29.786  1.00  0.00    -0.248 NA
ATOM     33  C   UNL A   1      40.578  30.980  30.163  1.00  0.00     0.031 C 
ATOM     34  C   UNL A   1      46.591  30.362  30.703  1.00  0.00     0.029 A 
ATOM     35  C   UNL A   1      45.253  30.114  30.444  1.00  0.00     0.049 A 
ATOM     36  H   UNL A   1      44.343  28.352  29.721  1.00  0.00     0.167 HD
ATOM     37  C   UNL A   1      42.844  30.676  30.307  1.00  0.00     0.074 A 
ATOM     38  C   UNL A   1      41.719  31.570  30.485  1.00  0.00     0.031 C 
ATOM     39  C   UNL A   1      44.126  30.995  30.611  1.00  0.00     0.037 A 
BRANCH  26  40
ATOM     40  C   UNL A   1      48.148  26.426  29.537  1.00  0.00     0.057 A 
ATOM     41  C   UNL A   1      48.978  26.593  28.422  1.00  0.00     0.134 A 
ATOM     42  C   UNL A   1      48.698  25.793  30.660  1.00  0.00     0.134 A 
ATOM     43  F   UNL A   1      48.515  27.185  27.310  1.00  0.00    -0.206 F 
ATOM     44  C   UNL A   1      50.302  26.152  28.424  1.00  0.00     0.040 A 
ATOM     45  C   UNL A   1      50.029  25.375  30.686  1.00  0.00     0.040 A 
ATOM     46  F   UNL A   1      47.962  25.613  31.768  1.00  0.00    -0.206 F 
ATOM     47  C   UNL A   1      50.834  25.549  29.562  1.00  0.00     0.006 A 
ENDBRANCH  26  40
BRANCH  27  48
ATOM     48  C   UNL A   1      38.573  29.178  29.065  1.00  0.00     0.057 A 
ATOM     49  C   UNL A   1      37.718  29.141  30.173  1.00  0.00     0.134 A 
ATOM     50  C   UNL A   1      38.057  29.696  27.870  1.00  0.00     0.134 A 
ATOM     51  F   UNL A   1      38.150  28.656  31.346  1.00  0.00    -0.206 F 
ATOM     52  C   UNL A   1      36.404  29.603  30.096  1.00  0.00     0.040 A 
ATOM     53  C   UNL A   1      36.754  30.186  27.787  1.00  0.00     0.040 A 
ATOM     54  F   UNL A   1      38.835  29.780  26.781  1.00  0.00    -0.206 F 
ATOM     55  C   UNL A   1      35.921  30.137  28.903  1.00  0.00     0.006 A 
ENDBRANCH  27  48
BRANCH  39  56
ATOM     56  C   UNL A   1      44.383  32.381  31.130  1.00  0.00     0.057 A 
ATOM     57  C   UNL A   1      44.640  33.436  30.246  1.00  0.00     0.134 A 
ATOM     58  C   UNL A   1      44.400  32.667  32.502  1.00  0.00     0.134 A 
ATOM     59  F   UNL A   1      44.649  33.230  28.921  1.00  0.00    -0.206 F 
ATOM     60  C   UNL A   1      44.905  34.727  30.707  1.00  0.00     0.040 A 
ATOM     61  C   UNL A   1      44.635  33.961  32.972  1.00  0.00     0.040 A 
ATOM     62  F   UNL A   1      44.148  31.705  33.401  1.00  0.00    -0.206 F 
ATOM     63  C   UNL A   1      44.894  34.994  32.074  1.00  0.00     0.006 A 
ENDBRANCH  39  56
ENDBRANCH  13  14
ENDBRANCH   6   8
ENDBRANCH   3   4
ENDBRANCH   2   3
ENDBRANCH   1   2
BRANCH   1  64
ATOM     64  C   UNL A   1      36.272  21.567  25.468  1.00  0.00     0.002 C 
BRANCH  64  65
ATOM     65  C   UNL A   1      35.663  22.617  24.528  1.00  0.00     0.021 C 
BRANCH  65  66
ATOM     66  C   UNL A   1      35.807  24.070  25.008  1.00  0.00     0.116 C 
BRANCH  66  67
ATOM     67  N   UNL A   1      34.586  24.538  25.664  1.00  0.00    -0.351 N 
ATOM     68  C   UNL A   1      33.692  25.538  25.390  1.00  0.00     0.278 C 
ATOM     69  H   UNL A   1      34.358  24.023  26.472  1.00  0.00     0.163 HD
ATOM     70  O   UNL A   1      33.060  25.959  26.371  1.00  0.00    -0.268 OA
BRANCH  68  71
ATOM     71  C   UNL A   1      33.291  26.035  23.966  1.00  0.00     0.277 C 
ATOM     72  C   UNL A   1      33.094  24.895  22.893  1.00  0.00     0.109 C 
ATOM     73  N   UNL A   1      32.262  27.081  23.941  1.00  0.00    -0.327 N 
ATOM     74  C   UNL A   1      31.678  24.304  22.877  1.00  0.00    -0.024 C 
ATOM     75  C   UNL A   1      31.023  26.618  23.311  1.00  0.00     0.243 C 
ATOM     76  H   UNL A   1      32.619  27.881  23.418  1.00  0.00     0.347 HD
ATOM     77  H   UNL A   1      32.048  27.336  24.905  1.00  0.00     0.347 HD
ATOM     78  C   UNL A   1      31.471  23.030  23.199  1.00  0.00     0.002 A 
ATOM     79  C   UNL A   1      30.617  25.129  23.564  1.00  0.00     0.196 C 
ATOM     80  C   UNL A   1      32.145  21.846  22.782  1.00  0.00     0.010 A 
ATOM     81  C   UNL A   1      31.168  23.315  24.633  1.00  0.00     0.066 A 
ATOM     82  N   UNL A   1      30.668  24.499  24.927  1.00  0.00    -0.270 NA
ATOM     83  C   UNL A   1      32.512  20.938  23.693  1.00  0.00     0.001 A 
ATOM     84  C   UNL A   1      31.666  22.278  25.584  1.00  0.00     0.028 A 
ATOM     85  C   UNL A   1      32.319  21.197  25.108  1.00  0.00     0.002 A 
BRANCH  75  86
ATOM     86  C   UNL A   1      30.022  27.748  23.122  1.00  0.00     0.012 A 
ATOM     87  C   UNL A   1      30.496  28.888  22.424  1.00  0.00     0.010 A 
ATOM     88  C   UNL A   1      28.657  27.664  23.392  1.00  0.00     0.010 A 
ATOM     89  C   UNL A   1      29.637  29.875  21.955  1.00  0.00     0.001 A 
ATOM     90  C   UNL A   1      27.791  28.666  22.925  1.00  0.00     0.001 A 
ATOM     91  C   UNL A   1      28.276  29.755  22.194  1.00  0.00     0.000 A 
ENDBRANCH  75  86
ENDBRANCH  68  71
ENDBRANCH  66  67
ENDBRANCH  65  66
ENDBRANCH  64  65
ENDBRANCH   1  64
TORSDOF 14
ENDMDL
MODEL 3
REMARK VINA RESULT:     -13.1      1.654      6.158
REMARK SMILES O=C(NCCCCCCNC(=O)[C@H]1CC2=c3ccccc3=N[C@H]2[C@@H](c2ccccc2)[NH2+]1)c1ccc(-c2c3nc(c(-c4c(F)cccc4F)c4ccc([nH]4)c(-c4c(F)cccc4F)c4nc(c(-c5c(F)cccc5F)c5ccc2[nH]5)C=C4)C=C3)cc1
REMARK SMILES IDX 6 1 5 2 4 3 3 4 1 5 2 6 32 8 33 9 85 10 34 11 84 12 35 13
REMARK SMILES IDX 36 14 37 15 78 16 38 17 83 18 77 19 79 20 39 21 82 22 76 23
REMARK SMILES IDX 75 24 40 26 66 27 49 28 65 29 50 30 53 31 64 32 80 33 51 34
REMARK SMILES IDX 52 35 63 37 81 38 54 39 41 40 42 41 47 42 43 43 44 44 46 45
REMARK SMILES IDX 48 46 45 47 67 48 68 49 73 50 69 51 70 52 72 53 74 54 71 55
REMARK SMILES IDX 55 56 56 57 61 58 57 59 58 60 60 61 62 62 59 63 7 64 8 65
REMARK SMILES IDX 9 66 10 67 11 68 12 70 13 71 14 72 31 73 15 74 24 75 16 78
REMARK SMILES IDX 23 79 17 80 21 81 22 82 18 83 20 84 19 85 25 86 26 87 30 88
REMARK SMILES IDX 27 89 29 90 28 91
REMARK H PARENT 3 7 79 25 53 36 10 69 31 76 31 77
REMARK Flexibility Score: inf
ROOT
ATOM      1  C   UNL A   1      31.778  28.771  25.639  1.00  0.00     0.002 C 
ENDROOT
BRANCH   1   2
ATOM      2  C   UNL A   1      33.237  29.202  25.824  1.00  0.00     0.021 C 
BRANCH   2   3
ATOM      3  C   UNL A   1      33.805  29.037  27.232  1.00  0.00     0.116 C 
BRANCH   3   4
ATOM      4  N   UNL A   1      33.810  30.283  27.986  1.00  0.00    -0.352 N 
ATOM      5  O   UNL A   1      34.525  31.844  29.440  1.00  0.00    -0.269 OA
ATOM      6  C   UNL A   1      34.794  30.850  28.751  1.00  0.00     0.251 C 
ATOM      7  H   UNL A   1      32.972  30.799  27.938  1.00  0.00     0.163 HD
BRANCH   6   8
ATOM      8  C   UNL A   1      36.170  30.304  28.786  1.00  0.00     0.039 A 
ATOM      9  C   UNL A   1      36.634  29.718  29.970  1.00  0.00     0.014 A 
ATOM     10  C   UNL A   1      37.038  30.427  27.696  1.00  0.00     0.014 A 
ATOM     11  C   UNL A   1      37.944  29.235  30.054  1.00  0.00     0.010 A 
ATOM     12  C   UNL A   1      38.319  29.876  27.755  1.00  0.00     0.010 A 
ATOM     13  C   UNL A   1      38.798  29.299  28.941  1.00  0.00    -0.014 A 
BRANCH  13  14
ATOM     14  C   UNL A   1      40.214  28.848  29.024  1.00  0.00     0.031 A 
ATOM     15  C   UNL A   1      41.265  29.788  29.560  1.00  0.00     0.074 A 
ATOM     16  C   UNL A   1      40.570  27.618  28.607  1.00  0.00     0.049 A 
ATOM     17  N   UNL A   1      42.561  29.626  29.644  1.00  0.00    -0.248 NA
ATOM     18  C   UNL A   1      40.792  31.093  30.050  1.00  0.00     0.031 C 
ATOM     19  C   UNL A   1      39.660  26.607  28.070  1.00  0.00     0.029 A 
ATOM     20  N   UNL A   1      41.801  27.010  28.572  1.00  0.00    -0.354 N 
ATOM     21  C   UNL A   1      43.056  30.807  30.183  1.00  0.00     0.074 A 
ATOM     22  C   UNL A   1      41.930  31.700  30.348  1.00  0.00     0.031 C 
ATOM     23  C   UNL A   1      40.357  25.494  27.787  1.00  0.00     0.029 A 
ATOM     24  C   UNL A   1      41.769  25.727  28.079  1.00  0.00     0.049 A 
ATOM     25  H   UNL A   1      42.629  27.451  28.870  1.00  0.00     0.167 HD
ATOM     26  C   UNL A   1      44.326  31.116  30.540  1.00  0.00     0.037 A 
ATOM     27  C   UNL A   1      42.766  24.844  27.880  1.00  0.00     0.037 A 
ATOM     28  C   UNL A   1      45.449  30.226  30.394  1.00  0.00     0.049 A 
ATOM     29  C   UNL A   1      44.181  25.238  28.216  1.00  0.00     0.074 A 
ATOM     30  C   UNL A   1      46.772  30.439  30.742  1.00  0.00     0.029 A 
ATOM     31  N   UNL A   1      45.378  28.950  29.856  1.00  0.00    -0.354 N 
ATOM     32  N   UNL A   1      44.630  26.350  28.745  1.00  0.00    -0.248 NA
ATOM     33  C   UNL A   1      45.228  24.250  27.919  1.00  0.00     0.031 C 
ATOM     34  C   UNL A   1      47.509  29.309  30.374  1.00  0.00     0.029 A 
ATOM     35  C   UNL A   1      46.637  28.372  29.845  1.00  0.00     0.049 A 
ATOM     36  H   UNL A   1      44.555  28.519  29.530  1.00  0.00     0.167 HD
ATOM     37  C   UNL A   1      46.004  26.182  28.875  1.00  0.00     0.074 A 
ATOM     38  C   UNL A   1      46.311  24.855  28.384  1.00  0.00     0.031 C 
ATOM     39  C   UNL A   1      46.928  27.048  29.357  1.00  0.00     0.037 A 
BRANCH  26  40
ATOM     40  C   UNL A   1      44.564  32.478  31.128  1.00  0.00     0.057 A 
ATOM     41  C   UNL A   1      44.889  33.567  30.310  1.00  0.00     0.134 A 
ATOM     42  C   UNL A   1      44.483  32.710  32.508  1.00  0.00     0.134 A 
ATOM     43  F   UNL A   1      44.990  33.415  28.981  1.00  0.00    -0.206 F 
ATOM     44  C   UNL A   1      45.120  34.837  30.842  1.00  0.00     0.040 A 
ATOM     45  C   UNL A   1      44.681  33.981  33.049  1.00  0.00     0.040 A 
ATOM     46  F   UNL A   1      44.162  31.712  33.347  1.00  0.00    -0.206 F 
ATOM     47  C   UNL A   1      45.007  35.048  32.216  1.00  0.00     0.006 A 
ENDBRANCH  26  40
BRANCH  27  48
ATOM     48  C   UNL A   1      42.478  23.488  27.346  1.00  0.00     0.057 A 
ATOM     49  C   UNL A   1      42.617  23.186  25.987  1.00  0.00     0.134 A 
ATOM     50  C   UNL A   1      42.099  22.445  28.202  1.00  0.00     0.134 A 
ATOM     51  F   UNL A   1      42.978  24.138  25.114  1.00  0.00    -0.206 F 
ATOM     52  C   UNL A   1      42.390  21.899  25.497  1.00  0.00     0.040 A 
ATOM     53  C   UNL A   1      41.894  21.148  27.731  1.00  0.00     0.040 A 
ATOM     54  F   UNL A   1      41.973  22.667  29.519  1.00  0.00    -0.206 F 
ATOM     55  C   UNL A   1      42.038  20.873  26.372  1.00  0.00     0.006 A 
ENDBRANCH  27  48
BRANCH  39  56
ATOM     56  C   UNL A   1      48.352  26.571  29.413  1.00  0.00     0.057 A 
ATOM     57  C   UNL A   1      49.219  26.789  28.335  1.00  0.00     0.134 A 
ATOM     58  C   UNL A   1      48.858  25.877  30.520  1.00  0.00     0.134 A 
ATOM     59  F   UNL A   1      48.796  27.438  27.239  1.00  0.00    -0.206 F 
ATOM     60  C   UNL A   1      50.539  26.334  28.355  1.00  0.00     0.040 A 
ATOM     61  C   UNL A   1      50.185  25.444  30.563  1.00  0.00     0.040 A 
ATOM     62  F   UNL A   1      48.084  25.648  31.591  1.00  0.00    -0.206 F 
ATOM     63  C   UNL A   1      51.027  25.668  29.476  1.00  0.00     0.006 A 
ENDBRANCH  39  56
ENDBRANCH  13  14
ENDBRANCH   6   8
ENDBRANCH   3   4
ENDBRANCH   2   3
ENDBRANCH   1   2
BRANCH   1  64
ATOM     64  C   UNL A   1      31.362  27.459  26.323  1.00  0.00     0.002 C 
BRANCH  64  65
ATOM     65  C   UNL A   1      30.725  26.402  25.410  1.00  0.00     0.021 C 
BRANCH  65  66
ATOM     66  C   UNL A   1      30.211  25.149  26.136  1.00  0.00     0.116 C 
BRANCH  66  67
ATOM     67  N   UNL A   1      31.309  24.397  26.743  1.00  0.00    -0.351 N 
ATOM     68  C   UNL A   1      31.642  23.069  26.767  1.00  0.00     0.278 C 
ATOM     69  H   UNL A   1      31.942  24.966  27.238  1.00  0.00     0.163 HD
ATOM     70  O   UNL A   1      32.338  22.721  27.733  1.00  0.00    -0.268 OA
BRANCH  68  71
ATOM     71  C   UNL A   1      31.383  22.045  25.618  1.00  0.00     0.277 C 
ATOM     72  C   UNL A   1      31.598  22.609  24.160  1.00  0.00     0.109 C 
ATOM     73  N   UNL A   1      31.940  20.706  25.842  1.00  0.00    -0.327 N 
ATOM     74  C   UNL A   1      33.048  22.504  23.668  1.00  0.00    -0.024 C 
ATOM     75  C   UNL A   1      32.996  20.382  24.879  1.00  0.00     0.243 C 
ATOM     76  H   UNL A   1      31.191  20.019  25.754  1.00  0.00     0.347 HD
ATOM     77  H   UNL A   1      32.350  20.688  26.776  1.00  0.00     0.347 HD
ATOM     78  C   UNL A   1      33.758  23.598  23.410  1.00  0.00     0.002 A 
ATOM     79  C   UNL A   1      33.932  21.554  24.439  1.00  0.00     0.196 C 
ATOM     80  C   UNL A   1      33.422  24.771  22.672  1.00  0.00     0.010 A 
ATOM     81  C   UNL A   1      34.386  23.658  24.763  1.00  0.00     0.066 A 
ATOM     82  N   UNL A   1      34.528  22.523  25.420  1.00  0.00    -0.270 NA
ATOM     83  C   UNL A   1      33.687  25.976  23.189  1.00  0.00     0.001 A 
ATOM     84  C   UNL A   1      34.590  25.041  25.286  1.00  0.00     0.028 A 
ATOM     85  C   UNL A   1      34.220  26.099  24.533  1.00  0.00     0.002 A 
BRANCH  75  86
ATOM     86  C   UNL A   1      33.448  18.934  24.995  1.00  0.00     0.012 A 
ATOM     87  C   UNL A   1      32.519  18.037  25.581  1.00  0.00     0.010 A 
ATOM     88  C   UNL A   1      34.589  18.400  24.397  1.00  0.00     0.010 A 
ATOM     89  C   UNL A   1      32.684  16.659  25.517  1.00  0.00     0.001 A 
ATOM     90  C   UNL A   1      34.759  17.007  24.341  1.00  0.00     0.001 A 
ATOM     91  C   UNL A   1      33.802  16.142  24.881  1.00  0.00     0.000 A 
ENDBRANCH  75  86
ENDBRANCH  68  71
ENDBRANCH  66  67
ENDBRANCH  65  66
ENDBRANCH  64  65
ENDBRANCH   1  64
TORSDOF 14
ENDMDL
