MODEL 1
REMARK VINA RESULT:     -13.1      0.000      0.000
REMARK SMILES O=C(NCCCCCCNC(=O)[C@H]1Cc2c([nH]c3ccccc23)[C@H](c2c[nH]c3ccccc23)[NH2+]1)c1ccc(-c2c3nc(c(-c4c(F)cccc4F)c4ccc([nH]4)c(-c4c(F)cccc4F)c4nc(c(-c5c(F)cccc5F)c5ccc2[nH]5)C=C4)C=C3)cc1
REMARK SMILES IDX 6 1 5 2 4 3 3 4 1 5 2 6 35 8 36 9 88 10 37 11 87 12 38 13
REMARK SMILES IDX 39 14 40 15 81 16 41 17 86 18 80 19 82 20 42 21 85 22 79 23
REMARK SMILES IDX 78 24 43 26 69 27 52 28 68 29 53 30 56 31 67 32 83 33 54 34
REMARK SMILES IDX 55 35 66 37 84 38 57 39 44 40 45 41 50 42 46 43 47 44 49 45
REMARK SMILES IDX 51 46 48 47 70 48 71 49 76 50 72 51 73 52 75 53 77 54 74 55
REMARK SMILES IDX 58 56 59 57 64 58 60 59 61 60 63 61 65 62 62 63 7 64 8 65
REMARK SMILES IDX 9 66 10 67 11 68 12 70 13 71 14 72 34 73 15 74 24 75 16 78
REMARK SMILES IDX 23 79 17 80 18 81 22 82 19 84 21 85 20 86 25 87 26 88 33 89
REMARK SMILES IDX 27 90 28 91 32 92 29 94 31 95 30 96
REMARK H PARENT 3 7 82 25 56 36 10 69 34 76 34 77 17 83 27 93
REMARK Flexibility Score: inf
ROOT
ATOM      1  C   UNL A   1      34.357  33.702  28.927  1.00  0.00     0.002 C 
ENDROOT
BRANCH   1   2
ATOM      2  C   UNL A   1      33.111  34.590  28.962  1.00  0.00     0.021 C 
BRANCH   2   3
ATOM      3  C   UNL A   1      33.352  36.023  29.419  1.00  0.00     0.116 C 
BRANCH   3   4
ATOM      4  N   UNL A   1      32.543  36.375  30.573  1.00  0.00    -0.352 N 
ATOM      5  O   UNL A   1      31.734  36.179  32.668  1.00  0.00    -0.269 OA
ATOM      6  C   UNL A   1      32.626  35.920  31.860  1.00  0.00     0.251 C 
ATOM      7  H   UNL A   1      31.832  37.035  30.404  1.00  0.00     0.163 HD
BRANCH   6   8
ATOM      8  C   UNL A   1      33.780  35.101  32.278  1.00  0.00     0.039 A 
ATOM      9  C   UNL A   1      33.601  33.790  32.732  1.00  0.00     0.014 A 
ATOM     10  C   UNL A   1      35.060  35.650  32.188  1.00  0.00     0.014 A 
ATOM     11  C   UNL A   1      34.693  33.064  33.198  1.00  0.00     0.010 A 
ATOM     12  C   UNL A   1      36.161  34.895  32.587  1.00  0.00     0.010 A 
ATOM     13  C   UNL A   1      35.984  33.604  33.112  1.00  0.00    -0.014 A 
BRANCH  13  14
ATOM     14  C   UNL A   1      37.163  32.801  33.515  1.00  0.00     0.031 A 
ATOM     15  C   UNL A   1      37.896  33.104  34.787  1.00  0.00     0.074 A 
ATOM     16  C   UNL A   1      37.603  31.830  32.693  1.00  0.00     0.049 A 
ATOM     17  N   UNL A   1      39.012  32.594  35.241  1.00  0.00    -0.248 NA
ATOM     18  C   UNL A   1      37.301  34.127  35.661  1.00  0.00     0.031 C 
ATOM     19  C   UNL A   1      36.971  31.447  31.429  1.00  0.00     0.029 A 
ATOM     20  N   UNL A   1      38.695  31.005  32.786  1.00  0.00    -0.354 N 
ATOM     21  C   UNL A   1      39.270  33.251  36.437  1.00  0.00     0.074 A 
ATOM     22  C   UNL A   1      38.205  34.214  36.626  1.00  0.00     0.031 C 
ATOM     23  C   UNL A   1      37.685  30.463  30.864  1.00  0.00     0.029 A 
ATOM     24  C   UNL A   1      38.856  30.193  31.690  1.00  0.00     0.049 A 
ATOM     25  H   UNL A   1      39.302  30.996  33.560  1.00  0.00     0.167 HD
ATOM     26  C   UNL A   1      40.301  33.063  37.296  1.00  0.00     0.037 A 
ATOM     27  C   UNL A   1      39.857  29.356  31.363  1.00  0.00     0.037 A 
ATOM     28  C   UNL A   1      41.356  32.103  37.091  1.00  0.00     0.049 A 
ATOM     29  C   UNL A   1      41.016  29.199  32.303  1.00  0.00     0.074 A 
ATOM     30  C   UNL A   1      42.426  31.807  37.917  1.00  0.00     0.029 A 
ATOM     31  N   UNL A   1      41.484  31.296  35.968  1.00  0.00    -0.354 N 
ATOM     32  N   UNL A   1      41.232  29.795  33.450  1.00  0.00    -0.248 NA
ATOM     33  C   UNL A   1      42.069  28.255  31.907  1.00  0.00     0.031 C 
ATOM     34  C   UNL A   1      43.232  30.867  37.268  1.00  0.00     0.029 A 
ATOM     35  C   UNL A   1      42.630  30.525  36.067  1.00  0.00     0.049 A 
ATOM     36  H   UNL A   1      40.852  31.274  35.213  1.00  0.00     0.167 HD
ATOM     37  C   UNL A   1      42.428  29.277  33.929  1.00  0.00     0.074 A 
ATOM     38  C   UNL A   1      42.890  28.319  32.947  1.00  0.00     0.031 C 
ATOM     39  C   UNL A   1      43.074  29.564  35.086  1.00  0.00     0.037 A 
BRANCH  26  40
ATOM     40  C   UNL A   1      40.356  33.945  38.512  1.00  0.00     0.057 A 
ATOM     41  C   UNL A   1      41.069  35.153  38.528  1.00  0.00     0.134 A 
ATOM     42  C   UNL A   1      39.680  33.583  39.684  1.00  0.00     0.134 A 
ATOM     43  F   UNL A   1      41.746  35.558  37.443  1.00  0.00    -0.206 F 
ATOM     44  C   UNL A   1      41.141  35.943  39.677  1.00  0.00     0.040 A 
ATOM     45  C   UNL A   1      39.718  34.381  40.829  1.00  0.00     0.040 A 
ATOM     46  F   UNL A   1      38.968  32.447  39.737  1.00  0.00    -0.206 F 
ATOM     47  C   UNL A   1      40.461  35.560  40.831  1.00  0.00     0.006 A 
ENDBRANCH  26  40
BRANCH  27  48
ATOM     48  C   UNL A   1      39.794  28.620  30.077  1.00  0.00     0.057 A 
ATOM     49  C   UNL A   1      40.402  29.124  28.925  1.00  0.00     0.134 A 
ATOM     50  C   UNL A   1      39.172  27.367  29.987  1.00  0.00     0.134 A 
ATOM     51  F   UNL A   1      41.003  30.323  28.947  1.00  0.00    -0.206 F 
ATOM     52  C   UNL A   1      40.394  28.411  27.724  1.00  0.00     0.040 A 
ATOM     53  C   UNL A   1      39.179  26.632  28.801  1.00  0.00     0.040 A 
ATOM     54  F   UNL A   1      38.583  26.824  31.062  1.00  0.00    -0.206 F 
ATOM     55  C   UNL A   1      39.789  27.157  27.663  1.00  0.00     0.006 A 
ENDBRANCH  27  48
BRANCH  39  56
ATOM     56  C   UNL A   1      44.328  28.797  35.390  1.00  0.00     0.057 A 
ATOM     57  C   UNL A   1      44.306  27.563  36.049  1.00  0.00     0.134 A 
ATOM     58  C   UNL A   1      45.569  29.271  34.944  1.00  0.00     0.134 A 
ATOM     59  F   UNL A   1      43.152  27.059  36.515  1.00  0.00    -0.206 F 
ATOM     60  C   UNL A   1      45.476  26.829  36.259  1.00  0.00     0.040 A 
ATOM     61  C   UNL A   1      46.739  28.536  35.124  1.00  0.00     0.040 A 
ATOM     62  F   UNL A   1      45.657  30.445  34.300  1.00  0.00    -0.206 F 
ATOM     63  C   UNL A   1      46.695  27.310  35.786  1.00  0.00     0.006 A 
ENDBRANCH  39  56
ENDBRANCH  13  14
ENDBRANCH   6   8
ENDBRANCH   3   4
ENDBRANCH   2   3
ENDBRANCH   1   2
BRANCH   1  64
ATOM     64  C   UNL A   1      34.101  32.198  28.806  1.00  0.00     0.002 C 
BRANCH  64  65
ATOM     65  C   UNL A   1      34.891  31.476  27.717  1.00  0.00     0.021 C 
BRANCH  65  66
ATOM     66  C   UNL A   1      34.102  30.473  26.892  1.00  0.00     0.116 C 
BRANCH  66  67
ATOM     67  N   UNL A   1      33.408  29.493  27.704  1.00  0.00    -0.351 N 
ATOM     68  C   UNL A   1      32.482  28.558  27.341  1.00  0.00     0.278 C 
ATOM     69  H   UNL A   1      33.640  29.503  28.661  1.00  0.00     0.163 HD
ATOM     70  O   UNL A   1      32.047  27.818  28.232  1.00  0.00    -0.268 OA
BRANCH  68  71
ATOM     71  C   UNL A   1      31.941  28.445  25.903  1.00  0.00     0.277 C 
ATOM     72  C   UNL A   1      31.040  29.669  25.625  1.00  0.00     0.114 C 
ATOM     73  N   UNL A   1      33.042  28.251  24.926  1.00  0.00    -0.324 N 
ATOM     74  C   UNL A   1      30.705  29.721  24.177  1.00  0.00    -0.006 A 
ATOM     75  C   UNL A   1      32.650  28.157  23.525  1.00  0.00     0.264 C 
ATOM     76  H   UNL A   1      33.529  27.388  25.171  1.00  0.00     0.347 HD
ATOM     77  H   UNL A   1      33.620  29.090  24.994  1.00  0.00     0.347 HD
ATOM     78  C   UNL A   1      31.463  29.030  23.250  1.00  0.00     0.083 A 
ATOM     79  C   UNL A   1      29.676  30.410  23.482  1.00  0.00     0.003 A 
ATOM     80  N   UNL A   1      30.988  29.356  22.008  1.00  0.00    -0.353 N 
ATOM     81  C   UNL A   1      29.889  30.181  22.120  1.00  0.00     0.046 A 
ATOM     82  C   UNL A   1      28.589  31.217  23.869  1.00  0.00     0.010 A 
ATOM     83  H   UNL A   1      31.375  29.046  21.158  1.00  0.00     0.166 HD
ATOM     84  C   UNL A   1      29.077  30.737  21.124  1.00  0.00     0.026 A 
ATOM     85  C   UNL A   1      27.753  31.760  22.885  1.00  0.00     0.001 A 
ATOM     86  C   UNL A   1      28.000  31.528  21.534  1.00  0.00     0.002 A 
BRANCH  75  87
ATOM     87  C   UNL A   1      32.529  26.721  23.055  1.00  0.00     0.041 A 
ATOM     88  C   UNL A   1      31.629  26.321  22.073  1.00  0.00     0.093 A 
ATOM     89  C   UNL A   1      33.319  25.539  23.363  1.00  0.00     0.009 A 
ATOM     90  N   UNL A   1      31.805  24.995  21.813  1.00  0.00    -0.361 N 
ATOM     91  C   UNL A   1      32.844  24.498  22.558  1.00  0.00     0.046 A 
ATOM     92  C   UNL A   1      34.412  25.234  24.211  1.00  0.00     0.011 A 
ATOM     93  H   UNL A   1      31.264  24.468  21.182  1.00  0.00     0.166 HD
ATOM     94  C   UNL A   1      33.393  23.208  22.561  1.00  0.00     0.026 A 
ATOM     95  C   UNL A   1      34.980  23.954  24.221  1.00  0.00     0.001 A 
ATOM     96  C   UNL A   1      34.475  22.955  23.404  1.00  0.00     0.002 A 
ENDBRANCH  75  87
ENDBRANCH  68  71
ENDBRANCH  66  67
ENDBRANCH  65  66
ENDBRANCH  64  65
ENDBRANCH   1  64
TORSDOF 14
ENDMDL
MODEL 2
REMARK VINA RESULT:     -13.1      3.543      8.427
REMARK SMILES O=C(NCCCCCCNC(=O)[C@H]1Cc2c([nH]c3ccccc23)[C@H](c2c[nH]c3ccccc23)[NH2+]1)c1ccc(-c2c3nc(c(-c4c(F)cccc4F)c4ccc([nH]4)c(-c4c(F)cccc4F)c4nc(c(-c5c(F)cccc5F)c5ccc2[nH]5)C=C4)C=C3)cc1
REMARK SMILES IDX 6 1 5 2 4 3 3 4 1 5 2 6 35 8 36 9 88 10 37 11 87 12 38 13
REMARK SMILES IDX 39 14 40 15 81 16 41 17 86 18 80 19 82 20 42 21 85 22 79 23
REMARK SMILES IDX 78 24 43 26 69 27 52 28 68 29 53 30 56 31 67 32 83 33 54 34
REMARK SMILES IDX 55 35 66 37 84 38 57 39 44 40 45 41 50 42 46 43 47 44 49 45
REMARK SMILES IDX 51 46 48 47 70 48 71 49 76 50 72 51 73 52 75 53 77 54 74 55
REMARK SMILES IDX 58 56 59 57 64 58 60 59 61 60 63 61 65 62 62 63 7 64 8 65
REMARK SMILES IDX 9 66 10 67 11 68 12 70 13 71 14 72 34 73 15 74 24 75 16 78
REMARK SMILES IDX 23 79 17 80 18 81 22 82 19 84 21 85 20 86 25 87 26 88 33 89
REMARK SMILES IDX 27 90 28 91 32 92 29 94 31 95 30 96
REMARK H PARENT 3 7 82 25 56 36 10 69 34 76 34 77 17 83 27 93
REMARK Flexibility Score: inf
ROOT
ATOM      1  C   UNL A   1      34.331  23.639  25.232  1.00  0.00     0.002 C 
ENDROOT
BRANCH   1   2
ATOM      2  C   UNL A   1      35.569  23.484  26.118  1.00  0.00     0.021 C 
BRANCH   2   3
ATOM      3  C   UNL A   1      36.881  23.917  25.477  1.00  0.00     0.116 C 
BRANCH   3   4
ATOM      4  N   UNL A   1      37.925  22.920  25.634  1.00  0.00    -0.352 N 
ATOM      5  O   UNL A   1      40.007  22.150  26.026  1.00  0.00    -0.269 OA
ATOM      6  C   UNL A   1      39.185  23.058  26.148  1.00  0.00     0.251 C 
ATOM      7  H   UNL A   1      37.692  22.014  25.326  1.00  0.00     0.163 HD
BRANCH   6   8
ATOM      8  C   UNL A   1      39.566  24.306  26.836  1.00  0.00     0.039 A 
ATOM      9  C   UNL A   1      40.364  25.262  26.198  1.00  0.00     0.014 A 
ATOM     10  C   UNL A   1      39.094  24.530  28.130  1.00  0.00     0.014 A 
ATOM     11  C   UNL A   1      40.779  26.394  26.893  1.00  0.00     0.010 A 
ATOM     12  C   UNL A   1      39.451  25.699  28.800  1.00  0.00     0.010 A 
ATOM     13  C   UNL A   1      40.310  26.631  28.193  1.00  0.00    -0.014 A 
BRANCH  13  14
ATOM     14  C   UNL A   1      40.669  27.880  28.906  1.00  0.00     0.031 A 
ATOM     15  C   UNL A   1      41.996  28.017  29.588  1.00  0.00     0.074 A 
ATOM     16  C   UNL A   1      39.760  28.871  28.980  1.00  0.00     0.049 A 
ATOM     17  N   UNL A   1      42.435  28.980  30.358  1.00  0.00    -0.248 NA
ATOM     18  C   UNL A   1      42.955  26.920  29.389  1.00  0.00     0.031 C 
ATOM     19  C   UNL A   1      38.436  28.848  28.357  1.00  0.00     0.029 A 
ATOM     20  N   UNL A   1      39.804  30.078  29.630  1.00  0.00    -0.354 N 
ATOM     21  C   UNL A   1      43.707  28.595  30.759  1.00  0.00     0.074 A 
ATOM     22  C   UNL A   1      43.960  27.298  30.166  1.00  0.00     0.031 C 
ATOM     23  C   UNL A   1      37.793  29.986  28.654  1.00  0.00     0.029 A 
ATOM     24  C   UNL A   1      38.631  30.786  29.539  1.00  0.00     0.049 A 
ATOM     25  H   UNL A   1      40.597  30.404  30.114  1.00  0.00     0.167 HD
ATOM     26  C   UNL A   1      44.581  29.265  31.548  1.00  0.00     0.037 A 
ATOM     27  C   UNL A   1      38.253  31.931  30.138  1.00  0.00     0.037 A 
ATOM     28  C   UNL A   1      44.312  30.554  32.135  1.00  0.00     0.049 A 
ATOM     29  C   UNL A   1      39.216  32.633  31.049  1.00  0.00     0.074 A 
ATOM     30  C   UNL A   1      45.143  31.335  32.918  1.00  0.00     0.029 A 
ATOM     31  N   UNL A   1      43.111  31.241  32.018  1.00  0.00    -0.354 N 
ATOM     32  N   UNL A   1      40.431  32.281  31.391  1.00  0.00    -0.248 NA
ATOM     33  C   UNL A   1      38.759  33.889  31.656  1.00  0.00     0.031 C 
ATOM     34  C   UNL A   1      44.425  32.465  33.324  1.00  0.00     0.029 A 
ATOM     35  C   UNL A   1      43.170  32.422  32.738  1.00  0.00     0.049 A 
ATOM     36  H   UNL A   1      42.333  30.935  31.497  1.00  0.00     0.167 HD
ATOM     37  C   UNL A   1      40.898  33.285  32.228  1.00  0.00     0.074 A 
ATOM     38  C   UNL A   1      39.833  34.260  32.342  1.00  0.00     0.031 C 
ATOM     39  C   UNL A   1      42.105  33.392  32.835  1.00  0.00     0.037 A 
BRANCH  26  40
ATOM     40  C   UNL A   1      45.890  28.593  31.854  1.00  0.00     0.057 A 
ATOM     41  C   UNL A   1      46.066  27.777  32.981  1.00  0.00     0.134 A 
ATOM     42  C   UNL A   1      46.991  28.760  31.004  1.00  0.00     0.134 A 
ATOM     43  F   UNL A   1      45.058  27.580  33.842  1.00  0.00    -0.206 F 
ATOM     44  C   UNL A   1      47.300  27.190  33.272  1.00  0.00     0.040 A 
ATOM     45  C   UNL A   1      48.219  28.151  31.267  1.00  0.00     0.040 A 
ATOM     46  F   UNL A   1      46.891  29.516  29.900  1.00  0.00    -0.206 F 
ATOM     47  C   UNL A   1      48.380  27.373  32.411  1.00  0.00     0.006 A 
ENDBRANCH  26  40
BRANCH  27  48
ATOM     48  C   UNL A   1      36.890  32.460  29.889  1.00  0.00     0.057 A 
ATOM     49  C   UNL A   1      35.812  32.090  30.696  1.00  0.00     0.134 A 
ATOM     50  C   UNL A   1      36.648  33.395  28.873  1.00  0.00     0.134 A 
ATOM     51  F   UNL A   1      35.980  31.190  31.677  1.00  0.00    -0.206 F 
ATOM     52  C   UNL A   1      34.537  32.626  30.503  1.00  0.00     0.040 A 
ATOM     53  C   UNL A   1      35.386  33.959  28.686  1.00  0.00     0.040 A 
ATOM     54  F   UNL A   1      37.646  33.801  28.075  1.00  0.00    -0.206 F 
ATOM     55  C   UNL A   1      34.325  33.572  29.501  1.00  0.00     0.006 A 
ENDBRANCH  27  48
BRANCH  39  56
ATOM     56  C   UNL A   1      42.371  34.631  33.638  1.00  0.00     0.057 A 
ATOM     57  C   UNL A   1      42.161  34.683  35.021  1.00  0.00     0.134 A 
ATOM     58  C   UNL A   1      42.920  35.764  33.023  1.00  0.00     0.134 A 
ATOM     59  F   UNL A   1      41.624  33.638  35.668  1.00  0.00    -0.206 F 
ATOM     60  C   UNL A   1      42.482  35.821  35.764  1.00  0.00     0.040 A 
ATOM     61  C   UNL A   1      43.270  36.897  33.758  1.00  0.00     0.040 A 
ATOM     62  F   UNL A   1      43.152  35.777  31.702  1.00  0.00    -0.206 F 
ATOM     63  C   UNL A   1      43.049  36.928  35.134  1.00  0.00     0.006 A 
ENDBRANCH  39  56
ENDBRANCH  13  14
ENDBRANCH   6   8
ENDBRANCH   3   4
ENDBRANCH   2   3
ENDBRANCH   1   2
BRANCH   1  64
ATOM     64  C   UNL A   1      34.160  22.586  24.134  1.00  0.00     0.002 C 
BRANCH  64  65
ATOM     65  C   UNL A   1      32.722  22.293  23.715  1.00  0.00     0.021 C 
BRANCH  65  66
ATOM     66  C   UNL A   1      31.931  23.489  23.211  1.00  0.00     0.116 C 
BRANCH  66  67
ATOM     67  N   UNL A   1      32.475  24.053  21.992  1.00  0.00    -0.351 N 
ATOM     68  C   UNL A   1      32.663  25.360  21.644  1.00  0.00     0.278 C 
ATOM     69  H   UNL A   1      32.752  23.396  21.313  1.00  0.00     0.163 HD
ATOM     70  O   UNL A   1      33.168  25.584  20.537  1.00  0.00    -0.268 OA
BRANCH  68  71
ATOM     71  C   UNL A   1      32.220  26.528  22.547  1.00  0.00     0.277 C 
ATOM     72  C   UNL A   1      33.334  26.791  23.585  1.00  0.00     0.114 C 
ATOM     73  N   UNL A   1      31.831  27.714  21.742  1.00  0.00    -0.324 N 
ATOM     74  C   UNL A   1      33.053  28.060  24.305  1.00  0.00    -0.006 A 
ATOM     75  C   UNL A   1      31.418  28.893  22.494  1.00  0.00     0.264 C 
ATOM     76  H   UNL A   1      31.054  27.441  21.139  1.00  0.00     0.347 HD
ATOM     77  H   UNL A   1      32.674  27.991  21.237  1.00  0.00     0.347 HD
ATOM     78  C   UNL A   1      32.185  28.997  23.776  1.00  0.00     0.083 A 
ATOM     79  C   UNL A   1      33.550  28.564  25.537  1.00  0.00     0.003 A 
ATOM     80  N   UNL A   1      32.216  30.092  24.597  1.00  0.00    -0.353 N 
ATOM     81  C   UNL A   1      33.025  29.849  25.686  1.00  0.00     0.046 A 
ATOM     82  C   UNL A   1      34.405  28.063  26.538  1.00  0.00     0.010 A 
ATOM     83  H   UNL A   1      31.729  30.933  24.433  1.00  0.00     0.166 HD
ATOM     84  C   UNL A   1      33.329  30.667  26.781  1.00  0.00     0.026 A 
ATOM     85  C   UNL A   1      34.698  28.860  27.652  1.00  0.00     0.001 A 
ATOM     86  C   UNL A   1      34.172  30.145  27.766  1.00  0.00     0.002 A 
BRANCH  75  87
ATOM     87  C   UNL A   1      29.911  28.996  22.622  1.00  0.00     0.041 A 
ATOM     88  C   UNL A   1      29.164  29.977  21.980  1.00  0.00     0.093 A 
ATOM     89  C   UNL A   1      28.939  28.122  23.260  1.00  0.00     0.009 A 
ATOM     90  N   UNL A   1      27.839  29.767  22.224  1.00  0.00    -0.361 N 
ATOM     91  C   UNL A   1      27.668  28.631  22.972  1.00  0.00     0.046 A 
ATOM     92  C   UNL A   1      28.984  26.930  24.024  1.00  0.00     0.011 A 
ATOM     93  H   UNL A   1      27.110  30.348  21.909  1.00  0.00     0.166 HD
ATOM     94  C   UNL A   1      26.479  28.024  23.400  1.00  0.00     0.026 A 
ATOM     95  C   UNL A   1      27.807  26.304  24.452  1.00  0.00     0.001 A 
ATOM     96  C   UNL A   1      26.570  26.847  24.142  1.00  0.00     0.002 A 
ENDBRANCH  75  87
ENDBRANCH  68  71
ENDBRANCH  66  67
ENDBRANCH  65  66
ENDBRANCH  64  65
ENDBRANCH   1  64
TORSDOF 14
ENDMDL
MODEL 3
REMARK VINA RESULT:     -12.9      4.552      9.069
REMARK SMILES O=C(NCCCCCCNC(=O)[C@H]1Cc2c([nH]c3ccccc23)[C@H](c2c[nH]c3ccccc23)[NH2+]1)c1ccc(-c2c3nc(c(-c4c(F)cccc4F)c4ccc([nH]4)c(-c4c(F)cccc4F)c4nc(c(-c5c(F)cccc5F)c5ccc2[nH]5)C=C4)C=C3)cc1
REMARK SMILES IDX 6 1 5 2 4 3 3 4 1 5 2 6 35 8 36 9 88 10 37 11 87 12 38 13
REMARK SMILES IDX 39 14 40 15 81 16 41 17 86 18 80 19 82 20 42 21 85 22 79 23
REMARK SMILES IDX 78 24 43 26 69 27 52 28 68 29 53 30 56 31 67 32 83 33 54 34
REMARK SMILES IDX 55 35 66 37 84 38 57 39 44 40 45 41 50 42 46 43 47 44 49 45
REMARK SMILES IDX 51 46 48 47 70 48 71 49 76 50 72 51 73 52 75 53 77 54 74 55
REMARK SMILES IDX 58 56 59 57 64 58 60 59 61 60 63 61 65 62 62 63 7 64 8 65
REMARK SMILES IDX 9 66 10 67 11 68 12 70 13 71 14 72 34 73 15 74 24 75 16 78
REMARK SMILES IDX 23 79 17 80 18 81 22 82 19 84 21 85 20 86 25 87 26 88 33 89
REMARK SMILES IDX 27 90 28 91 32 92 29 94 31 95 30 96
REMARK H PARENT 3 7 82 25 56 36 10 69 34 76 34 77 17 83 27 93
REMARK Flexibility Score: inf
ROOT
ATOM      1  C   UNL A   1      34.038  23.379  25.621  1.00  0.00     0.002 C 
ENDROOT
BRANCH   1   2
ATOM      2  C   UNL A   1      35.250  22.929  26.439  1.00  0.00     0.021 C 
BRANCH   2   3
ATOM      3  C   UNL A   1      36.588  23.490  25.975  1.00  0.00     0.116 C 
BRANCH   3   4
ATOM      4  N   UNL A   1      37.667  22.529  26.120  1.00  0.00    -0.352 N 
ATOM      5  O   UNL A   1      39.801  21.831  26.328  1.00  0.00    -0.269 OA
ATOM      6  C   UNL A   1      38.980  22.742  26.439  1.00  0.00     0.251 C 
ATOM      7  H   UNL A   1      37.417  21.589  25.966  1.00  0.00     0.163 HD
BRANCH   6   8
ATOM      8  C   UNL A   1      39.418  24.072  26.902  1.00  0.00     0.039 A 
ATOM      9  C   UNL A   1      39.278  24.447  28.243  1.00  0.00     0.014 A 
ATOM     10  C   UNL A   1      40.001  24.945  25.982  1.00  0.00     0.014 A 
ATOM     11  C   UNL A   1      39.623  25.735  28.642  1.00  0.00     0.010 A 
ATOM     12  C   UNL A   1      40.414  26.209  26.399  1.00  0.00     0.010 A 
ATOM     13  C   UNL A   1      40.211  26.620  27.727  1.00  0.00    -0.014 A 
BRANCH  13  14
ATOM     14  C   UNL A   1      40.670  27.960  28.165  1.00  0.00     0.031 A 
ATOM     15  C   UNL A   1      42.133  28.263  28.289  1.00  0.00     0.074 A 
ATOM     16  C   UNL A   1      39.753  28.883  28.508  1.00  0.00     0.049 A 
ATOM     17  N   UNL A   1      42.718  29.330  28.770  1.00  0.00    -0.248 NA
ATOM     18  C   UNL A   1      43.063  27.225  27.820  1.00  0.00     0.031 C 
ATOM     19  C   UNL A   1      38.303  28.699  28.429  1.00  0.00     0.029 A 
ATOM     20  N   UNL A   1      39.903  30.150  29.009  1.00  0.00    -0.354 N 
ATOM     21  C   UNL A   1      44.082  29.083  28.689  1.00  0.00     0.074 A 
ATOM     22  C   UNL A   1      44.236  27.754  28.134  1.00  0.00     0.031 C 
ATOM     23  C   UNL A   1      37.696  29.811  28.868  1.00  0.00     0.029 A 
ATOM     24  C   UNL A   1      38.711  30.757  29.317  1.00  0.00     0.049 A 
ATOM     25  H   UNL A   1      40.779  30.582  29.136  1.00  0.00     0.167 HD
ATOM     26  C   UNL A   1      45.108  29.893  29.044  1.00  0.00     0.037 A 
ATOM     27  C   UNL A   1      38.459  31.927  29.934  1.00  0.00     0.037 A 
ATOM     28  C   UNL A   1      44.938  31.212  29.600  1.00  0.00     0.049 A 
ATOM     29  C   UNL A   1      39.609  32.788  30.367  1.00  0.00     0.074 A 
ATOM     30  C   UNL A   1      45.910  32.129  29.958  1.00  0.00     0.029 A 
ATOM     31  N   UNL A   1      43.712  31.794  29.895  1.00  0.00    -0.354 N 
ATOM     32  N   UNL A   1      40.894  32.563  30.251  1.00  0.00    -0.248 NA
ATOM     33  C   UNL A   1      39.276  34.064  31.014  1.00  0.00     0.031 C 
ATOM     34  C   UNL A   1      45.275  33.239  30.526  1.00  0.00     0.029 A 
ATOM     35  C   UNL A   1      43.905  33.044  30.459  1.00  0.00     0.049 A 
ATOM     36  H   UNL A   1      42.835  31.379  29.727  1.00  0.00     0.167 HD
ATOM     37  C   UNL A   1      41.526  33.681  30.780  1.00  0.00     0.074 A 
ATOM     38  C   UNL A   1      40.480  34.581  31.219  1.00  0.00     0.031 C 
ATOM     39  C   UNL A   1      42.853  33.938  30.881  1.00  0.00     0.037 A 
BRANCH  26  40
ATOM     40  C   UNL A   1      46.502  29.354  28.882  1.00  0.00     0.057 A 
ATOM     41  C   UNL A   1      47.148  28.634  29.897  1.00  0.00     0.134 A 
ATOM     42  C   UNL A   1      47.207  29.554  27.688  1.00  0.00     0.134 A 
ATOM     43  F   UNL A   1      46.536  28.412  31.069  1.00  0.00    -0.206 F 
ATOM     44  C   UNL A   1      48.458  28.172  29.745  1.00  0.00     0.040 A 
ATOM     45  C   UNL A   1      48.504  29.069  27.512  1.00  0.00     0.040 A 
ATOM     46  F   UNL A   1      46.646  30.224  26.669  1.00  0.00    -0.206 F 
ATOM     47  C   UNL A   1      49.137  28.385  28.548  1.00  0.00     0.006 A 
ENDBRANCH  26  40
BRANCH  27  48
ATOM     48  C   UNL A   1      37.052  32.327  30.179  1.00  0.00     0.057 A 
ATOM     49  C   UNL A   1      36.408  32.007  31.377  1.00  0.00     0.134 A 
ATOM     50  C   UNL A   1      36.339  33.089  29.243  1.00  0.00     0.134 A 
ATOM     51  F   UNL A   1      37.036  31.271  32.306  1.00  0.00    -0.206 F 
ATOM     52  C   UNL A   1      35.102  32.427  31.638  1.00  0.00     0.040 A 
ATOM     53  C   UNL A   1      35.044  33.538  29.502  1.00  0.00     0.040 A 
ATOM     54  F   UNL A   1      36.909  33.439  28.081  1.00  0.00    -0.206 F 
ATOM     55  C   UNL A   1      34.420  33.203  30.703  1.00  0.00     0.006 A 
ENDBRANCH  27  48
BRANCH  39  56
ATOM     56  C   UNL A   1      43.262  35.270  31.439  1.00  0.00     0.057 A 
ATOM     57  C   UNL A   1      43.421  35.486  32.813  1.00  0.00     0.134 A 
ATOM     58  C   UNL A   1      43.575  36.328  30.576  1.00  0.00     0.134 A 
ATOM     59  F   UNL A   1      43.123  34.518  33.694  1.00  0.00    -0.206 F 
ATOM     60  C   UNL A   1      43.872  36.711  33.309  1.00  0.00     0.040 A 
ATOM     61  C   UNL A   1      44.052  37.547  31.058  1.00  0.00     0.040 A 
ATOM     62  F   UNL A   1      43.450  36.184  29.249  1.00  0.00    -0.206 F 
ATOM     63  C   UNL A   1      44.200  37.742  32.430  1.00  0.00     0.006 A 
ENDBRANCH  39  56
ENDBRANCH  13  14
ENDBRANCH   6   8
ENDBRANCH   3   4
ENDBRANCH   2   3
ENDBRANCH   1   2
BRANCH   1  64
ATOM     64  C   UNL A   1      33.637  22.462  24.462  1.00  0.00     0.002 C 
BRANCH  64  65
ATOM     65  C   UNL A   1      32.137  22.318  24.220  1.00  0.00     0.021 C 
BRANCH  65  66
ATOM     66  C   UNL A   1      31.479  23.476  23.487  1.00  0.00     0.116 C 
BRANCH  66  67
ATOM     67  N   UNL A   1      32.228  23.908  22.324  1.00  0.00    -0.351 N 
ATOM     68  C   UNL A   1      32.625  25.163  21.959  1.00  0.00     0.278 C 
ATOM     69  H   UNL A   1      32.491  23.189  21.704  1.00  0.00     0.163 HD
ATOM     70  O   UNL A   1      33.277  25.267  20.914  1.00  0.00    -0.268 OA
BRANCH  68  71
ATOM     71  C   UNL A   1      32.240  26.419  22.765  1.00  0.00     0.277 C 
ATOM     72  C   UNL A   1      33.319  26.653  23.845  1.00  0.00     0.114 C 
ATOM     73  N   UNL A   1      31.997  27.579  21.870  1.00  0.00    -0.324 N 
ATOM     74  C   UNL A   1      33.113  27.986  24.472  1.00  0.00    -0.006 A 
ATOM     75  C   UNL A   1      31.650  28.834  22.526  1.00  0.00     0.264 C 
ATOM     76  H   UNL A   1      31.231  27.334  21.242  1.00  0.00     0.347 HD
ATOM     77  H   UNL A   1      32.884  27.752  21.397  1.00  0.00     0.347 HD
ATOM     78  C   UNL A   1      32.357  28.956  23.841  1.00  0.00     0.083 A 
ATOM     79  C   UNL A   1      33.589  28.524  25.697  1.00  0.00     0.003 A 
ATOM     80  N   UNL A   1      32.442  30.095  24.595  1.00  0.00    -0.353 N 
ATOM     81  C   UNL A   1      33.171  29.856  25.740  1.00  0.00     0.046 A 
ATOM     82  C   UNL A   1      34.345  28.018  26.773  1.00  0.00     0.010 A 
ATOM     83  H   UNL A   1      32.039  30.961  24.355  1.00  0.00     0.166 HD
ATOM     84  C   UNL A   1      33.489  30.714  26.800  1.00  0.00     0.026 A 
ATOM     85  C   UNL A   1      34.650  28.858  27.851  1.00  0.00     0.001 A 
ATOM     86  C   UNL A   1      34.232  30.187  27.859  1.00  0.00     0.002 A 
BRANCH  75  87
ATOM     87  C   UNL A   1      30.153  29.070  22.564  1.00  0.00     0.041 A 
ATOM     88  C   UNL A   1      29.536  30.112  21.879  1.00  0.00     0.093 A 
ATOM     89  C   UNL A   1      29.071  28.288  23.140  1.00  0.00     0.009 A 
ATOM     90  N   UNL A   1      28.185  30.020  22.043  1.00  0.00    -0.361 N 
ATOM     91  C   UNL A   1      27.869  28.907  22.778  1.00  0.00     0.046 A 
ATOM     92  C   UNL A   1      28.964  27.100  23.904  1.00  0.00     0.011 A 
ATOM     93  H   UNL A   1      27.531  30.663  21.685  1.00  0.00     0.166 HD
ATOM     94  C   UNL A   1      26.608  28.410  23.133  1.00  0.00     0.026 A 
ATOM     95  C   UNL A   1      27.713  26.582  24.260  1.00  0.00     0.001 A 
ATOM     96  C   UNL A   1      26.550  27.231  23.876  1.00  0.00     0.002 A 
ENDBRANCH  75  87
ENDBRANCH  68  71
ENDBRANCH  66  67
ENDBRANCH  65  66
ENDBRANCH  64  65
ENDBRANCH   1  64
TORSDOF 14
ENDMDL
