MODEL 1
REMARK VINA RESULT:      -8.9      0.000      0.000
REMARK SMILES COc1cc(/C=C2/SC(=O)N(c3ccc(O)cc3C)C2=O)ccc1OCC(=O)NCCCCCCNC(=O)c1ccc(-c2c3nc(c(-c4c(F)cccc4F)c4ccc([nH]4)c(-c4c(F)cccc4F)c4nc(c(-c5c(F)cccc5F)c5ccc2[nH]5)C=C4)C=C3)cc1
REMARK SMILES IDX 31 1 30 2 29 3 27 4 28 5 26 7 25 8 24 9 3 10 4 11 5 12 23 13
REMARK SMILES IDX 22 14 2 15 1 16 6 17 7 18 8 19 20 20 9 21 11 22 21 23 10 24
REMARK SMILES IDX 12 25 13 26 18 27 14 28 17 29 19 30 15 31 16 32 32 34 33 35
REMARK SMILES IDX 34 36 35 37 36 38 37 39 38 41 39 42 40 43 92 44 41 45 91 46
REMARK SMILES IDX 42 47 43 48 44 49 85 50 45 51 90 52 84 53 86 54 46 55 89 56
REMARK SMILES IDX 83 57 82 58 47 60 73 61 56 62 72 63 57 64 60 65 71 66 87 67
REMARK SMILES IDX 58 68 59 69 70 71 88 72 61 73 48 74 49 75 54 76 50 77 51 78
REMARK SMILES IDX 53 79 55 80 52 81 74 82 75 83 80 84 76 85 77 86 79 87 81 88
REMARK SMILES IDX 78 89 62 90 63 91 68 92 64 93 65 94 67 95 69 96 66 97
REMARK H PARENT 29 6 16 33 36 40 86 59 60 70
REMARK Flexibility Score: inf
ROOT
ATOM      1  C   UNL A   1      33.437  36.769  31.094  1.00  0.00     0.021 C 
ENDROOT
BRANCH   1   2
ATOM      2  C   UNL A   1      33.838  36.645  32.563  1.00  0.00     0.116 C 
BRANCH   2   3
ATOM      3  N   UNL A   1      33.744  35.285  33.052  1.00  0.00    -0.353 N 
ATOM      4  C   UNL A   1      34.749  34.385  33.272  1.00  0.00     0.257 C 
ATOM      5  O   UNL A   1      34.464  33.331  33.845  1.00  0.00    -0.271 OA
ATOM      6  H   UNL A   1      32.835  34.966  33.253  1.00  0.00     0.163 HD
BRANCH   4   7
ATOM      7  C   UNL A   1      36.186  34.741  32.880  1.00  0.00     0.329 C 
BRANCH   7   8
ATOM      8  O   UNL A   1      36.931  33.729  32.231  1.00  0.00    -0.480 OA
BRANCH   8   9
ATOM      9  C   UNL A   1      38.243  33.931  31.912  1.00  0.00     0.161 A 
ATOM     10  C   UNL A   1      39.336  34.103  32.769  1.00  0.00     0.161 A 
ATOM     11  C   UNL A   1      40.587  34.456  32.239  1.00  0.00     0.058 A 
ATOM     12  C   UNL A   1      40.759  34.608  30.858  1.00  0.00    -0.020 A 
ATOM     13  C   UNL A   1      38.445  34.020  30.528  1.00  0.00     0.051 A 
ATOM     14  C   UNL A   1      39.695  34.334  29.997  1.00  0.00     0.012 A 
BRANCH  10  15
ATOM     15  O   UNL A   1      39.167  34.091  34.127  1.00  0.00    -0.493 OA
ATOM     16  C   UNL A   1      39.658  35.276  34.755  1.00  0.00     0.278 C 
ENDBRANCH  10  15
BRANCH  12  17
ATOM     17  C   UNL A   1      41.950  35.285  30.335  1.00  0.00     0.029 C 
ATOM     18  C   UNL A   1      42.942  34.603  29.737  1.00  0.00     0.083 C 
ATOM     19  S   UNL A   1      44.394  35.323  29.161  1.00  0.00    -0.022 SA
ATOM     20  C   UNL A   1      42.986  33.126  29.505  1.00  0.00     0.272 C 
ATOM     21  C   UNL A   1      45.076  33.773  28.659  1.00  0.00     0.298 C 
ATOM     22  N   UNL A   1      44.201  32.754  28.959  1.00  0.00    -0.236 N 
ATOM     23  O   UNL A   1      42.075  32.367  29.808  1.00  0.00    -0.268 OA
ATOM     24  O   UNL A   1      46.154  33.715  28.090  1.00  0.00    -0.260 OA
BRANCH  22  25
ATOM     25  C   UNL A   1      44.475  31.379  28.704  1.00  0.00     0.056 A 
ATOM     26  C   UNL A   1      44.011  30.823  27.493  1.00  0.00     0.031 A 
ATOM     27  C   UNL A   1      45.101  30.531  29.642  1.00  0.00    -0.023 A 
ATOM     28  C   UNL A   1      44.157  29.467  27.208  1.00  0.00     0.048 A 
ATOM     29  C   UNL A   1      45.255  29.162  29.330  1.00  0.00     0.051 A 
ATOM     30  C   UNL A   1      45.563  30.966  31.007  1.00  0.00     0.047 C 
ATOM     31  C   UNL A   1      44.772  28.644  28.132  1.00  0.00     0.115 A 
BRANCH  31  32
ATOM     32  O   UNL A   1      44.864  27.318  27.837  1.00  0.00    -0.508 OA
ATOM     33  H   UNL A   1      45.500  26.784  28.271  1.00  0.00     0.293 HD
ENDBRANCH  31  32
ENDBRANCH  22  25
ENDBRANCH  12  17
ENDBRANCH   8   9
ENDBRANCH   7   8
ENDBRANCH   4   7
ENDBRANCH   2   3
ENDBRANCH   1   2
BRANCH   1  34
ATOM     34  C   UNL A   1      32.870  35.498  30.452  1.00  0.00     0.002 C 
BRANCH  34  35
ATOM     35  C   UNL A   1      33.601  34.984  29.210  1.00  0.00     0.002 C 
BRANCH  35  36
ATOM     36  C   UNL A   1      34.876  34.181  29.468  1.00  0.00     0.021 C 
BRANCH  36  37
ATOM     37  C   UNL A   1      35.386  33.366  28.288  1.00  0.00     0.116 C 
BRANCH  37  38
ATOM     38  N   UNL A   1      34.418  32.390  27.820  1.00  0.00    -0.352 N 
ATOM     39  C   UNL A   1      34.554  31.031  27.686  1.00  0.00     0.251 C 
ATOM     40  H   UNL A   1      33.540  32.756  27.563  1.00  0.00     0.163 HD
ATOM     41  O   UNL A   1      33.675  30.374  27.136  1.00  0.00    -0.269 OA
BRANCH  39  42
ATOM     42  C   UNL A   1      35.776  30.357  28.178  1.00  0.00     0.039 A 
ATOM     43  C   UNL A   1      36.917  30.361  27.371  1.00  0.00     0.014 A 
ATOM     44  C   UNL A   1      35.801  29.722  29.424  1.00  0.00     0.014 A 
ATOM     45  C   UNL A   1      38.100  29.783  27.838  1.00  0.00     0.010 A 
ATOM     46  C   UNL A   1      36.997  29.206  29.916  1.00  0.00     0.010 A 
ATOM     47  C   UNL A   1      38.157  29.228  29.127  1.00  0.00    -0.014 A 
BRANCH  47  48
ATOM     48  C   UNL A   1      39.421  28.663  29.664  1.00  0.00     0.031 A 
ATOM     49  C   UNL A   1      40.097  29.307  30.841  1.00  0.00     0.074 A 
ATOM     50  C   UNL A   1      39.994  27.611  29.051  1.00  0.00     0.049 A 
ATOM     51  N   UNL A   1      41.236  29.002  31.409  1.00  0.00    -0.248 NA
ATOM     52  C   UNL A   1      39.417  30.464  31.442  1.00  0.00     0.031 C 
ATOM     53  C   UNL A   1      39.465  26.926  27.870  1.00  0.00     0.029 A 
ATOM     54  N   UNL A   1      41.158  26.939  29.331  1.00  0.00    -0.354 N 
ATOM     55  C   UNL A   1      41.417  29.937  32.419  1.00  0.00     0.074 A 
ATOM     56  C   UNL A   1      40.295  30.849  32.357  1.00  0.00     0.031 C 
ATOM     57  C   UNL A   1      40.292  25.921  27.538  1.00  0.00     0.029 A 
ATOM     58  C   UNL A   1      41.422  25.909  28.461  1.00  0.00     0.049 A 
ATOM     59  H   UNL A   1      41.748  27.173  30.084  1.00  0.00     0.167 HD
ATOM     60  C   UNL A   1      42.417  30.019  33.330  1.00  0.00     0.037 A 
ATOM     61  C   UNL A   1      42.461  25.054  28.412  1.00  0.00     0.037 A 
ATOM     62  C   UNL A   1      43.516  29.095  33.412  1.00  0.00     0.049 A 
ATOM     63  C   UNL A   1      43.551  25.155  29.441  1.00  0.00     0.074 A 
ATOM     64  C   UNL A   1      44.540  29.053  34.344  1.00  0.00     0.029 A 
ATOM     65  N   UNL A   1      43.735  28.049  32.528  1.00  0.00    -0.354 N 
ATOM     66  N   UNL A   1      43.675  26.004  30.432  1.00  0.00    -0.248 NA
ATOM     67  C   UNL A   1      44.643  24.175  29.349  1.00  0.00     0.031 C 
ATOM     68  C   UNL A   1      45.399  28.001  34.001  1.00  0.00     0.029 A 
ATOM     69  C   UNL A   1      44.888  27.367  32.881  1.00  0.00     0.049 A 
ATOM     70  H   UNL A   1      43.157  27.825  31.764  1.00  0.00     0.167 HD
ATOM     71  C   UNL A   1      44.842  25.649  31.094  1.00  0.00     0.074 A 
ATOM     72  C   UNL A   1      45.384  24.499  30.399  1.00  0.00     0.031 C 
ATOM     73  C   UNL A   1      45.413  26.223  32.180  1.00  0.00     0.037 A 
BRANCH  60  74
ATOM     74  C   UNL A   1      42.360  31.151  34.314  1.00  0.00     0.057 A 
ATOM     75  C   UNL A   1      41.763  31.004  35.574  1.00  0.00     0.134 A 
ATOM     76  C   UNL A   1      42.925  32.394  34.007  1.00  0.00     0.134 A 
ATOM     77  F   UNL A   1      41.192  29.841  35.924  1.00  0.00    -0.206 F 
ATOM     78  C   UNL A   1      41.704  32.063  36.480  1.00  0.00     0.040 A 
ATOM     79  C   UNL A   1      42.895  33.453  34.917  1.00  0.00     0.040 A 
ATOM     80  F   UNL A   1      43.516  32.602  32.821  1.00  0.00    -0.206 F 
ATOM     81  C   UNL A   1      42.276  33.291  36.155  1.00  0.00     0.006 A 
ENDBRANCH  60  74
BRANCH  61  82
ATOM     82  C   UNL A   1      42.502  24.005  27.364  1.00  0.00     0.057 A 
ATOM     83  C   UNL A   1      42.032  22.712  27.622  1.00  0.00     0.134 A 
ATOM     84  C   UNL A   1      43.003  24.268  26.084  1.00  0.00     0.134 A 
ATOM     85  F   UNL A   1      41.558  22.396  28.835  1.00  0.00    -0.206 F 
ATOM     86  C   UNL A   1      42.069  21.714  26.646  1.00  0.00     0.040 A 
ATOM     87  C   UNL A   1      43.028  23.285  25.093  1.00  0.00     0.040 A 
ATOM     88  F   UNL A   1      43.462  25.489  25.775  1.00  0.00    -0.206 F 
ATOM     89  C   UNL A   1      42.564  22.002  25.376  1.00  0.00     0.006 A 
ENDBRANCH  61  82
BRANCH  73  90
ATOM     90  C   UNL A   1      46.675  25.601  32.699  1.00  0.00     0.057 A 
ATOM     91  C   UNL A   1      47.935  25.981  32.221  1.00  0.00     0.134 A 
ATOM     92  C   UNL A   1      46.631  24.637  33.714  1.00  0.00     0.134 A 
ATOM     93  F   UNL A   1      48.043  26.889  31.239  1.00  0.00    -0.206 F 
ATOM     94  C   UNL A   1      49.106  25.412  32.722  1.00  0.00     0.040 A 
ATOM     95  C   UNL A   1      47.795  24.077  34.238  1.00  0.00     0.040 A 
ATOM     96  F   UNL A   1      45.454  24.234  34.220  1.00  0.00    -0.206 F 
ATOM     97  C   UNL A   1      49.038  24.461  33.739  1.00  0.00     0.006 A 
ENDBRANCH  73  90
ENDBRANCH  47  48
ENDBRANCH  39  42
ENDBRANCH  37  38
ENDBRANCH  36  37
ENDBRANCH  35  36
ENDBRANCH  34  35
ENDBRANCH   1  34
TORSDOF 19
ENDMDL
MODEL 2
REMARK VINA RESULT:      -8.9      5.365     10.197
REMARK SMILES COc1cc(/C=C2/SC(=O)N(c3ccc(O)cc3C)C2=O)ccc1OCC(=O)NCCCCCCNC(=O)c1ccc(-c2c3nc(c(-c4c(F)cccc4F)c4ccc([nH]4)c(-c4c(F)cccc4F)c4nc(c(-c5c(F)cccc5F)c5ccc2[nH]5)C=C4)C=C3)cc1
REMARK SMILES IDX 31 1 30 2 29 3 27 4 28 5 26 7 25 8 24 9 3 10 4 11 5 12 23 13
REMARK SMILES IDX 22 14 2 15 1 16 6 17 7 18 8 19 20 20 9 21 11 22 21 23 10 24
REMARK SMILES IDX 12 25 13 26 18 27 14 28 17 29 19 30 15 31 16 32 32 34 33 35
REMARK SMILES IDX 34 36 35 37 36 38 37 39 38 41 39 42 40 43 92 44 41 45 91 46
REMARK SMILES IDX 42 47 43 48 44 49 85 50 45 51 90 52 84 53 86 54 46 55 89 56
REMARK SMILES IDX 83 57 82 58 47 60 73 61 56 62 72 63 57 64 60 65 71 66 87 67
REMARK SMILES IDX 58 68 59 69 70 71 88 72 61 73 48 74 49 75 54 76 50 77 51 78
REMARK SMILES IDX 53 79 55 80 52 81 74 82 75 83 80 84 76 85 77 86 79 87 81 88
REMARK SMILES IDX 78 89 62 90 63 91 68 92 64 93 65 94 67 95 69 96 66 97
REMARK H PARENT 29 6 16 33 36 40 86 59 60 70
REMARK Flexibility Score: inf
ROOT
ATOM      1  C   UNL A   1      35.508  22.611  26.139  1.00  0.00     0.021 C 
ENDROOT
BRANCH   1   2
ATOM      2  C   UNL A   1      34.330  23.262  26.862  1.00  0.00     0.116 C 
BRANCH   2   3
ATOM      3  N   UNL A   1      33.060  22.666  26.504  1.00  0.00    -0.353 N 
ATOM      4  C   UNL A   1      31.860  23.280  26.282  1.00  0.00     0.257 C 
ATOM      5  O   UNL A   1      30.938  22.599  25.829  1.00  0.00    -0.271 OA
ATOM      6  H   UNL A   1      33.062  21.687  26.407  1.00  0.00     0.163 HD
BRANCH   4   7
ATOM      7  C   UNL A   1      31.723  24.787  26.522  1.00  0.00     0.329 C 
BRANCH   7   8
ATOM      8  O   UNL A   1      32.191  25.634  25.490  1.00  0.00    -0.480 OA
BRANCH   8   9
ATOM      9  C   UNL A   1      32.199  26.989  25.656  1.00  0.00     0.161 A 
ATOM     10  C   UNL A   1      32.585  27.981  24.748  1.00  0.00     0.161 A 
ATOM     11  C   UNL A   1      32.668  29.317  25.169  1.00  0.00     0.058 A 
ATOM     12  C   UNL A   1      32.338  29.672  26.483  1.00  0.00    -0.020 A 
ATOM     13  C   UNL A   1      31.807  27.367  26.948  1.00  0.00     0.051 A 
ATOM     14  C   UNL A   1      31.852  28.699  27.358  1.00  0.00     0.012 A 
BRANCH  10  15
ATOM     15  O   UNL A   1      33.040  27.646  23.501  1.00  0.00    -0.493 OA
ATOM     16  C   UNL A   1      33.994  28.578  22.992  1.00  0.00     0.278 C 
ENDBRANCH  10  15
BRANCH  12  17
ATOM     17  C   UNL A   1      32.731  30.982  27.012  1.00  0.00     0.029 C 
ATOM     18  C   UNL A   1      33.950  31.193  27.536  1.00  0.00     0.083 C 
ATOM     19  S   UNL A   1      34.455  32.682  28.232  1.00  0.00    -0.022 SA
ATOM     20  C   UNL A   1      35.051  30.186  27.647  1.00  0.00     0.272 C 
ATOM     21  C   UNL A   1      36.034  32.040  28.695  1.00  0.00     0.298 C 
ATOM     22  N   UNL A   1      36.129  30.717  28.333  1.00  0.00    -0.236 N 
ATOM     23  O   UNL A   1      34.968  29.043  27.220  1.00  0.00    -0.268 OA
ATOM     24  O   UNL A   1      36.875  32.756  29.215  1.00  0.00    -0.260 OA
BRANCH  22  25
ATOM     25  C   UNL A   1      37.272  29.908  28.597  1.00  0.00     0.056 A 
ATOM     26  C   UNL A   1      38.163  29.650  27.533  1.00  0.00     0.031 A 
ATOM     27  C   UNL A   1      37.501  29.278  29.839  1.00  0.00    -0.023 A 
ATOM     28  C   UNL A   1      39.253  28.797  27.684  1.00  0.00     0.048 A 
ATOM     29  C   UNL A   1      38.620  28.428  29.979  1.00  0.00     0.051 A 
ATOM     30  C   UNL A   1      36.587  29.389  31.031  1.00  0.00     0.047 C 
ATOM     31  C   UNL A   1      39.470  28.185  28.904  1.00  0.00     0.115 A 
BRANCH  31  32
ATOM     32  O   UNL A   1      40.523  27.328  29.004  1.00  0.00    -0.508 OA
ATOM     33  H   UNL A   1      41.173  27.458  29.666  1.00  0.00     0.293 HD
ENDBRANCH  31  32
ENDBRANCH  22  25
ENDBRANCH  12  17
ENDBRANCH   8   9
ENDBRANCH   7   8
ENDBRANCH   4   7
ENDBRANCH   2   3
ENDBRANCH   1   2
BRANCH   1  34
ATOM     34  C   UNL A   1      36.540  23.578  25.549  1.00  0.00     0.002 C 
BRANCH  34  35
ATOM     35  C   UNL A   1      37.965  23.463  26.096  1.00  0.00     0.002 C 
BRANCH  35  36
ATOM     36  C   UNL A   1      38.529  24.718  26.764  1.00  0.00     0.021 C 
BRANCH  36  37
ATOM     37  C   UNL A   1      40.031  24.916  26.622  1.00  0.00     0.116 C 
BRANCH  37  38
ATOM     38  N   UNL A   1      40.747  23.663  26.452  1.00  0.00    -0.352 N 
ATOM     39  C   UNL A   1      42.086  23.454  26.231  1.00  0.00     0.251 C 
ATOM     40  H   UNL A   1      40.194  22.851  26.502  1.00  0.00     0.163 HD
ATOM     41  O   UNL A   1      42.500  22.330  25.967  1.00  0.00    -0.269 OA
BRANCH  39  42
ATOM     42  C   UNL A   1      43.032  24.592  26.282  1.00  0.00     0.039 A 
ATOM     43  C   UNL A   1      43.608  24.933  27.509  1.00  0.00     0.014 A 
ATOM     44  C   UNL A   1      43.348  25.321  25.132  1.00  0.00     0.014 A 
ATOM     45  C   UNL A   1      44.547  25.965  27.572  1.00  0.00     0.010 A 
ATOM     46  C   UNL A   1      44.333  26.304  25.183  1.00  0.00     0.010 A 
ATOM     47  C   UNL A   1      44.940  26.638  26.404  1.00  0.00    -0.014 A 
BRANCH  47  48
ATOM     48  C   UNL A   1      45.981  27.696  26.441  1.00  0.00     0.031 A 
ATOM     49  C   UNL A   1      45.588  29.138  26.602  1.00  0.00     0.074 A 
ATOM     50  C   UNL A   1      47.274  27.367  26.263  1.00  0.00     0.049 A 
ATOM     51  N   UNL A   1      46.344  30.206  26.590  1.00  0.00    -0.248 NA
ATOM     52  C   UNL A   1      44.154  29.416  26.771  1.00  0.00     0.031 C 
ATOM     53  C   UNL A   1      47.781  26.010  26.046  1.00  0.00     0.029 A 
ATOM     54  N   UNL A   1      48.399  28.152  26.223  1.00  0.00    -0.354 N 
ATOM     55  C   UNL A   1      45.478  31.283  26.731  1.00  0.00     0.074 A 
ATOM     56  C   UNL A   1      44.136  30.742  26.781  1.00  0.00     0.031 C 
ATOM     57  C   UNL A   1      49.117  26.056  25.916  1.00  0.00     0.029 A 
ATOM     58  C   UNL A   1      49.557  27.445  26.008  1.00  0.00     0.049 A 
ATOM     59  H   UNL A   1      48.379  29.130  26.339  1.00  0.00     0.167 HD
ATOM     60  C   UNL A   1      45.773  32.601  26.832  1.00  0.00     0.037 A 
ATOM     61  C   UNL A   1      50.830  27.869  25.893  1.00  0.00     0.037 A 
ATOM     62  C   UNL A   1      47.108  33.137  26.815  1.00  0.00     0.049 A 
ATOM     63  C   UNL A   1      51.134  29.334  26.022  1.00  0.00     0.074 A 
ATOM     64  C   UNL A   1      47.512  34.450  26.981  1.00  0.00     0.029 A 
ATOM     65  N   UNL A   1      48.257  32.385  26.620  1.00  0.00    -0.354 N 
ATOM     66  N   UNL A   1      50.311  30.335  26.222  1.00  0.00    -0.248 NA
ATOM     67  C   UNL A   1      52.546  29.730  25.914  1.00  0.00     0.031 C 
ATOM     68  C   UNL A   1      48.906  34.498  26.851  1.00  0.00     0.029 A 
ATOM     69  C   UNL A   1      49.369  33.210  26.642  1.00  0.00     0.049 A 
ATOM     70  H   UNL A   1      48.278  31.410  26.485  1.00  0.00     0.167 HD
ATOM     71  C   UNL A   1      51.103  31.473  26.288  1.00  0.00     0.074 A 
ATOM     72  C   UNL A   1      52.475  31.039  26.118  1.00  0.00     0.031 C 
ATOM     73  C   UNL A   1      50.728  32.761  26.473  1.00  0.00     0.037 A 
BRANCH  60  74
ATOM     74  C   UNL A   1      44.622  33.554  26.973  1.00  0.00     0.057 A 
ATOM     75  C   UNL A   1      44.097  33.897  28.227  1.00  0.00     0.134 A 
ATOM     76  C   UNL A   1      44.046  34.151  25.846  1.00  0.00     0.134 A 
ATOM     77  F   UNL A   1      44.597  33.349  29.345  1.00  0.00    -0.206 F 
ATOM     78  C   UNL A   1      43.021  34.776  28.351  1.00  0.00     0.040 A 
ATOM     79  C   UNL A   1      42.985  35.053  25.960  1.00  0.00     0.040 A 
ATOM     80  F   UNL A   1      44.503  33.872  24.616  1.00  0.00    -0.206 F 
ATOM     81  C   UNL A   1      42.465  35.361  27.215  1.00  0.00     0.006 A 
ENDBRANCH  60  74
BRANCH  61  82
ATOM     82  C   UNL A   1      51.917  26.885  25.672  1.00  0.00     0.057 A 
ATOM     83  C   UNL A   1      52.368  26.590  24.380  1.00  0.00     0.134 A 
ATOM     84  C   UNL A   1      52.535  26.224  26.740  1.00  0.00     0.134 A 
ATOM     85  F   UNL A   1      51.801  27.178  23.317  1.00  0.00    -0.206 F 
ATOM     86  C   UNL A   1      53.387  25.662  24.157  1.00  0.00     0.040 A 
ATOM     87  C   UNL A   1      53.568  25.309  26.533  1.00  0.00     0.040 A 
ATOM     88  F   UNL A   1      52.151  26.470  28.001  1.00  0.00    -0.206 F 
ATOM     89  C   UNL A   1      53.994  25.023  25.236  1.00  0.00     0.006 A 
ENDBRANCH  61  82
BRANCH  73  90
ATOM     90  C   UNL A   1      51.818  33.790  26.527  1.00  0.00     0.057 A 
ATOM     91  C   UNL A   1      52.418  34.167  27.735  1.00  0.00     0.134 A 
ATOM     92  C   UNL A   1      52.297  34.383  25.352  1.00  0.00     0.134 A 
ATOM     93  F   UNL A   1      51.994  33.645  28.895  1.00  0.00    -0.206 F 
ATOM     94  C   UNL A   1      53.444  35.111  27.774  1.00  0.00     0.040 A 
ATOM     95  C   UNL A   1      53.337  35.312  25.376  1.00  0.00     0.040 A 
ATOM     96  F   UNL A   1      51.769  34.060  24.161  1.00  0.00    -0.206 F 
ATOM     97  C   UNL A   1      53.912  35.682  26.591  1.00  0.00     0.006 A 
ENDBRANCH  73  90
ENDBRANCH  47  48
ENDBRANCH  39  42
ENDBRANCH  37  38
ENDBRANCH  36  37
ENDBRANCH  35  36
ENDBRANCH  34  35
ENDBRANCH   1  34
TORSDOF 19
ENDMDL
MODEL 3
REMARK VINA RESULT:      -8.7      5.246     11.095
REMARK SMILES COc1cc(/C=C2/SC(=O)N(c3ccc(O)cc3C)C2=O)ccc1OCC(=O)NCCCCCCNC(=O)c1ccc(-c2c3nc(c(-c4c(F)cccc4F)c4ccc([nH]4)c(-c4c(F)cccc4F)c4nc(c(-c5c(F)cccc5F)c5ccc2[nH]5)C=C4)C=C3)cc1
REMARK SMILES IDX 31 1 30 2 29 3 27 4 28 5 26 7 25 8 24 9 3 10 4 11 5 12 23 13
REMARK SMILES IDX 22 14 2 15 1 16 6 17 7 18 8 19 20 20 9 21 11 22 21 23 10 24
REMARK SMILES IDX 12 25 13 26 18 27 14 28 17 29 19 30 15 31 16 32 32 34 33 35
REMARK SMILES IDX 34 36 35 37 36 38 37 39 38 41 39 42 40 43 92 44 41 45 91 46
REMARK SMILES IDX 42 47 43 48 44 49 85 50 45 51 90 52 84 53 86 54 46 55 89 56
REMARK SMILES IDX 83 57 82 58 47 60 73 61 56 62 72 63 57 64 60 65 71 66 87 67
REMARK SMILES IDX 58 68 59 69 70 71 88 72 61 73 48 74 49 75 54 76 50 77 51 78
REMARK SMILES IDX 53 79 55 80 52 81 74 82 75 83 80 84 76 85 77 86 79 87 81 88
REMARK SMILES IDX 78 89 62 90 63 91 68 92 64 93 65 94 67 95 69 96 66 97
REMARK H PARENT 29 6 16 33 36 40 86 59 60 70
REMARK Flexibility Score: inf
ROOT
ATOM      1  C   UNL A   1      35.481  22.651  25.506  1.00  0.00     0.021 C 
ENDROOT
BRANCH   1   2
ATOM      2  C   UNL A   1      34.431  23.117  26.513  1.00  0.00     0.116 C 
BRANCH   2   3
ATOM      3  N   UNL A   1      33.103  22.633  26.196  1.00  0.00    -0.353 N 
ATOM      4  C   UNL A   1      31.936  23.338  26.103  1.00  0.00     0.257 C 
ATOM      5  O   UNL A   1      30.944  22.755  25.661  1.00  0.00    -0.271 OA
ATOM      6  H   UNL A   1      33.032  21.667  26.025  1.00  0.00     0.163 HD
BRANCH   4   7
ATOM      7  C   UNL A   1      31.918  24.826  26.466  1.00  0.00     0.329 C 
BRANCH   7   8
ATOM      8  O   UNL A   1      32.168  25.735  25.411  1.00  0.00    -0.480 OA
BRANCH   8   9
ATOM      9  C   UNL A   1      32.133  27.082  25.634  1.00  0.00     0.161 A 
ATOM     10  C   UNL A   1      32.332  28.126  24.723  1.00  0.00     0.161 A 
ATOM     11  C   UNL A   1      32.410  29.449  25.187  1.00  0.00     0.058 A 
ATOM     12  C   UNL A   1      32.261  29.736  26.549  1.00  0.00    -0.020 A 
ATOM     13  C   UNL A   1      31.919  27.390  26.984  1.00  0.00     0.051 A 
ATOM     14  C   UNL A   1      31.958  28.706  27.442  1.00  0.00     0.012 A 
BRANCH  10  15
ATOM     15  O   UNL A   1      32.613  27.862  23.410  1.00  0.00    -0.493 OA
ATOM     16  C   UNL A   1      33.956  28.191  23.055  1.00  0.00     0.278 C 
ENDBRANCH  10  15
BRANCH  12  17
ATOM     17  C   UNL A   1      32.663  31.045  27.072  1.00  0.00     0.029 C 
ATOM     18  C   UNL A   1      33.901  31.264  27.547  1.00  0.00     0.083 C 
ATOM     19  S   UNL A   1      34.419  32.753  28.235  1.00  0.00    -0.022 SA
ATOM     20  C   UNL A   1      35.015  30.268  27.605  1.00  0.00     0.272 C 
ATOM     21  C   UNL A   1      36.022  32.123  28.628  1.00  0.00     0.298 C 
ATOM     22  N   UNL A   1      36.114  30.803  28.251  1.00  0.00    -0.236 N 
ATOM     23  O   UNL A   1      34.924  29.127  27.172  1.00  0.00    -0.268 OA
ATOM     24  O   UNL A   1      36.877  32.842  29.119  1.00  0.00    -0.260 OA
BRANCH  22  25
ATOM     25  C   UNL A   1      37.275  30.003  28.461  1.00  0.00     0.056 A 
ATOM     26  C   UNL A   1      38.165  29.826  27.380  1.00  0.00     0.031 A 
ATOM     27  C   UNL A   1      37.524  29.307  29.663  1.00  0.00    -0.023 A 
ATOM     28  C   UNL A   1      39.272  28.988  27.475  1.00  0.00     0.048 A 
ATOM     29  C   UNL A   1      38.660  28.473  29.747  1.00  0.00     0.051 A 
ATOM     30  C   UNL A   1      36.616  29.329  30.864  1.00  0.00     0.047 C 
ATOM     31  C   UNL A   1      39.509  28.310  28.656  1.00  0.00     0.115 A 
BRANCH  31  32
ATOM     32  O   UNL A   1      40.579  27.469  28.700  1.00  0.00    -0.508 OA
ATOM     33  H   UNL A   1      40.453  26.559  28.881  1.00  0.00     0.293 HD
ENDBRANCH  31  32
ENDBRANCH  22  25
ENDBRANCH  12  17
ENDBRANCH   8   9
ENDBRANCH   7   8
ENDBRANCH   4   7
ENDBRANCH   2   3
ENDBRANCH   1   2
BRANCH   1  34
ATOM     34  C   UNL A   1      36.649  23.616  25.272  1.00  0.00     0.002 C 
BRANCH  34  35
ATOM     35  C   UNL A   1      37.954  23.285  25.999  1.00  0.00     0.002 C 
BRANCH  35  36
ATOM     36  C   UNL A   1      38.555  24.411  26.841  1.00  0.00     0.021 C 
BRANCH  36  37
ATOM     37  C   UNL A   1      40.033  24.689  26.603  1.00  0.00     0.116 C 
BRANCH  37  38
ATOM     38  N   UNL A   1      40.823  23.474  26.506  1.00  0.00    -0.352 N 
ATOM     39  C   UNL A   1      42.175  23.333  26.311  1.00  0.00     0.251 C 
ATOM     40  H   UNL A   1      40.318  22.634  26.591  1.00  0.00     0.163 HD
ATOM     41  O   UNL A   1      42.657  22.223  26.109  1.00  0.00    -0.269 OA
BRANCH  39  42
ATOM     42  C   UNL A   1      43.052  24.526  26.315  1.00  0.00     0.039 A 
ATOM     43  C   UNL A   1      43.590  24.961  27.528  1.00  0.00     0.014 A 
ATOM     44  C   UNL A   1      43.341  25.214  25.132  1.00  0.00     0.014 A 
ATOM     45  C   UNL A   1      44.466  26.048  27.549  1.00  0.00     0.010 A 
ATOM     46  C   UNL A   1      44.266  26.255  25.144  1.00  0.00     0.010 A 
ATOM     47  C   UNL A   1      44.836  26.684  26.353  1.00  0.00    -0.014 A 
BRANCH  47  48
ATOM     48  C   UNL A   1      45.813  27.803  26.347  1.00  0.00     0.031 A 
ATOM     49  C   UNL A   1      47.285  27.521  26.244  1.00  0.00     0.074 A 
ATOM     50  C   UNL A   1      45.378  29.068  26.502  1.00  0.00     0.049 A 
ATOM     51  N   UNL A   1      48.291  28.356  26.291  1.00  0.00    -0.248 NA
ATOM     52  C   UNL A   1      47.678  26.111  26.097  1.00  0.00     0.031 C 
ATOM     53  C   UNL A   1      43.979  29.470  26.663  1.00  0.00     0.029 A 
ATOM     54  N   UNL A   1      46.074  30.250  26.562  1.00  0.00    -0.354 N 
ATOM     55  C   UNL A   1      49.435  27.574  26.198  1.00  0.00     0.074 A 
ATOM     56  C   UNL A   1      49.001  26.195  26.139  1.00  0.00     0.031 C 
ATOM     57  C   UNL A   1      43.919  30.806  26.784  1.00  0.00     0.029 A 
ATOM     58  C   UNL A   1      45.272  31.351  26.742  1.00  0.00     0.049 A 
ATOM     59  H   UNL A   1      47.054  30.304  26.484  1.00  0.00     0.167 HD
ATOM     60  C   UNL A   1      50.730  27.969  26.145  1.00  0.00     0.037 A 
ATOM     61  C   UNL A   1      45.593  32.653  26.862  1.00  0.00     0.037 A 
ATOM     62  C   UNL A   1      51.161  29.341  26.171  1.00  0.00     0.049 A 
ATOM     63  C   UNL A   1      47.035  33.068  26.787  1.00  0.00     0.074 A 
ATOM     64  C   UNL A   1      52.445  29.844  26.052  1.00  0.00     0.029 A 
ATOM     65  N   UNL A   1      50.317  30.430  26.328  1.00  0.00    -0.354 N 
ATOM     66  N   UNL A   1      48.102  32.323  26.631  1.00  0.00    -0.248 NA
ATOM     67  C   UNL A   1      47.318  34.506  26.897  1.00  0.00     0.031 C 
ATOM     68  C   UNL A   1      52.382  31.238  26.173  1.00  0.00     0.029 A 
ATOM     69  C   UNL A   1      51.055  31.602  26.328  1.00  0.00     0.049 A 
ATOM     70  H   UNL A   1      49.339  30.377  26.426  1.00  0.00     0.167 HD
ATOM     71  C   UNL A   1      49.178  33.200  26.602  1.00  0.00     0.074 A 
ATOM     72  C   UNL A   1      48.634  34.535  26.744  1.00  0.00     0.031 C 
ATOM     73  C   UNL A   1      50.498  32.924  26.469  1.00  0.00     0.037 A 
BRANCH  60  74
ATOM     74  C   UNL A   1      51.773  26.894  26.049  1.00  0.00     0.057 A 
ATOM     75  C   UNL A   1      52.139  26.327  24.820  1.00  0.00     0.134 A 
ATOM     76  C   UNL A   1      52.432  26.434  27.195  1.00  0.00     0.134 A 
ATOM     77  F   UNL A   1      51.536  26.716  23.687  1.00  0.00    -0.206 F 
ATOM     78  C   UNL A   1      53.103  25.322  24.739  1.00  0.00     0.040 A 
ATOM     79  C   UNL A   1      53.417  25.446  27.122  1.00  0.00     0.040 A 
ATOM     80  F   UNL A   1      52.135  26.936  28.402  1.00  0.00    -0.206 F 
ATOM     81  C   UNL A   1      53.749  24.882  25.892  1.00  0.00     0.006 A 
ENDBRANCH  60  74
BRANCH  61  82
ATOM     82  C   UNL A   1      44.521  33.663  27.036  1.00  0.00     0.057 A 
ATOM     83  C   UNL A   1      43.927  34.279  25.929  1.00  0.00     0.134 A 
ATOM     84  C   UNL A   1      44.061  34.031  28.306  1.00  0.00     0.134 A 
ATOM     85  F   UNL A   1      44.339  33.980  24.689  1.00  0.00    -0.206 F 
ATOM     86  C   UNL A   1      42.920  35.235  26.078  1.00  0.00     0.040 A 
ATOM     87  C   UNL A   1      43.042  34.970  28.469  1.00  0.00     0.040 A 
ATOM     88  F   UNL A   1      44.588  33.471  29.405  1.00  0.00    -0.206 F 
ATOM     89  C   UNL A   1      42.472  35.579  27.352  1.00  0.00     0.006 A 
ENDBRANCH  61  82
BRANCH  73  90
ATOM     90  C   UNL A   1      51.442  34.089  26.445  1.00  0.00     0.057 A 
ATOM     91  C   UNL A   1      51.997  34.611  27.620  1.00  0.00     0.134 A 
ATOM     92  C   UNL A   1      51.827  34.670  25.231  1.00  0.00     0.134 A 
ATOM     93  F   UNL A   1      51.657  34.107  28.815  1.00  0.00    -0.206 F 
ATOM     94  C   UNL A   1      52.889  35.683  27.588  1.00  0.00     0.040 A 
ATOM     95  C   UNL A   1      52.735  35.727  25.185  1.00  0.00     0.040 A 
ATOM     96  F   UNL A   1      51.336  34.211  24.069  1.00  0.00    -0.206 F 
ATOM     97  C   UNL A   1      53.267  36.241  26.366  1.00  0.00     0.006 A 
ENDBRANCH  73  90
ENDBRANCH  47  48
ENDBRANCH  39  42
ENDBRANCH  37  38
ENDBRANCH  36  37
ENDBRANCH  35  36
ENDBRANCH  34  35
ENDBRANCH   1  34
TORSDOF 19
ENDMDL
