MODEL 1
REMARK VINA RESULT:     -12.2      0.000      0.000
REMARK SMILES Cc1c(CCC(=O)N[C@@H](C)C(=O)NCCCCCCNC(=O)c2ccc(-c3c4nc(c(-c5c(F)cccc5F)c5ccc([nH]5)c(-c5c(F)cccc5F)c5nc(c(-c6c(F)cccc6F)c6ccc3[nH]6)C=C5)C=C4)cc2)c(=O)oc2cc3oc4c(c3cc12)CCCC4
REMARK SMILES IDX 15 1 14 2 13 3 11 4 12 5 9 7 10 8 8 9 6 10 7 11 5 13 4 14
REMARK SMILES IDX 3 15 1 16 2 17 88 18 77 19 80 20 87 21 78 22 79 23 81 24
REMARK SMILES IDX 86 25 82 26 85 27 83 28 84 29 89 30 92 31 90 32 91 33 16 34
REMARK SMILES IDX 17 35 18 36 19 37 20 38 21 39 22 41 23 42 24 43 76 44 25 45
REMARK SMILES IDX 75 46 26 47 27 48 28 49 69 50 29 51 74 52 68 53 70 54 30 55
REMARK SMILES IDX 73 56 67 57 66 58 31 60 57 61 40 62 56 63 41 64 44 65 55 66
REMARK SMILES IDX 71 67 42 68 43 69 54 71 72 72 45 73 32 74 33 75 38 76 34 77
REMARK SMILES IDX 35 78 37 79 39 80 36 81 58 82 59 83 64 84 60 85 61 86 63 87
REMARK SMILES IDX 65 88 62 89 46 90 47 91 52 92 48 93 49 94 51 95 53 96 50 97
REMARK H PARENT 13 6 8 12 20 40 70 59 44 70
REMARK Flexibility Score: inf
ROOT
ATOM      1  C   UNL A   1      41.817  29.412  34.001  1.00  0.00     0.021 C 
ENDROOT
BRANCH   1   2
ATOM      2  C   UNL A   1      40.481  29.798  34.630  1.00  0.00     0.116 C 
BRANCH   2   3
ATOM      3  N   UNL A   1      39.385  29.201  33.873  1.00  0.00    -0.354 N 
ATOM      4  C   UNL A   1      38.132  29.614  33.523  1.00  0.00     0.242 C 
ATOM      5  O   UNL A   1      37.332  28.712  33.242  1.00  0.00    -0.273 OA
ATOM      6  H   UNL A   1      39.597  28.299  33.541  1.00  0.00     0.163 HD
BRANCH   4   7
ATOM      7  C   UNL A   1      37.715  31.097  33.339  1.00  0.00     0.168 C 
ATOM      8  C   UNL A   1      38.162  32.023  34.436  1.00  0.00     0.041 C 
BRANCH   7   9
ATOM      9  N   UNL A   1      36.274  31.316  33.204  1.00  0.00    -0.345 N 
ATOM     10  C   UNL A   1      35.733  32.508  32.785  1.00  0.00     0.220 C 
ATOM     11  O   UNL A   1      34.800  32.999  33.417  1.00  0.00    -0.275 OA
ATOM     12  H   UNL A   1      35.663  30.575  33.424  1.00  0.00     0.164 HD
BRANCH  10  13
ATOM     13  C   UNL A   1      36.266  33.145  31.508  1.00  0.00     0.105 C 
BRANCH  13  14
ATOM     14  C   UNL A   1      35.444  34.315  30.935  1.00  0.00     0.053 C 
BRANCH  14  15
ATOM     15  C   UNL A   1      34.620  33.952  29.716  1.00  0.00     0.042 A 
ATOM     16  C   UNL A   1      36.349  32.415  28.641  1.00  0.00     0.046 C 
ATOM     17  C   UNL A   1      34.986  33.047  28.789  1.00  0.00    -0.030 A 
ATOM     18  C   UNL A   1      33.898  32.507  27.966  1.00  0.00     0.022 A 
ATOM     19  C   UNL A   1      33.334  34.708  29.550  1.00  0.00     0.339 A 
ATOM     20  C   UNL A   1      32.748  33.258  27.730  1.00  0.00     0.142 A 
ATOM     21  C   UNL A   1      33.906  31.166  27.589  1.00  0.00     0.024 A 
ATOM     22  O   UNL A   1      32.983  35.552  30.369  1.00  0.00    -0.246 OA
ATOM     23  O   UNL A   1      32.597  34.488  28.388  1.00  0.00    -0.422 OA
ATOM     24  C   UNL A   1      31.688  32.814  26.919  1.00  0.00     0.095 A 
ATOM     25  C   UNL A   1      32.767  30.628  26.993  1.00  0.00     0.025 A 
ATOM     26  C   UNL A   1      31.784  31.485  26.520  1.00  0.00     0.138 A 
ATOM     27  C   UNL A   1      32.400  29.330  26.600  1.00  0.00     0.001 A 
ATOM     28  O   UNL A   1      31.059  30.826  25.555  1.00  0.00    -0.461 OA
ATOM     29  C   UNL A   1      31.607  29.577  25.502  1.00  0.00     0.108 A 
ATOM     30  C   UNL A   1      33.181  28.078  26.692  1.00  0.00     0.040 C 
ATOM     31  C   UNL A   1      31.935  28.920  24.200  1.00  0.00     0.076 C 
ATOM     32  C   UNL A   1      34.083  28.016  25.454  1.00  0.00     0.005 C 
ATOM     33  C   UNL A   1      33.497  28.763  24.209  1.00  0.00     0.008 C 
ENDBRANCH  14  15
ENDBRANCH  13  14
ENDBRANCH  10  13
ENDBRANCH   7   9
ENDBRANCH   4   7
ENDBRANCH   2   3
ENDBRANCH   1   2
BRANCH   1  34
ATOM     34  C   UNL A   1      42.529  28.321  34.805  1.00  0.00     0.002 C 
BRANCH  34  35
ATOM     35  C   UNL A   1      42.052  26.892  34.499  1.00  0.00     0.002 C 
BRANCH  35  36
ATOM     36  C   UNL A   1      42.023  25.950  35.707  1.00  0.00     0.021 C 
BRANCH  36  37
ATOM     37  C   UNL A   1      41.925  24.477  35.319  1.00  0.00     0.116 C 
BRANCH  37  38
ATOM     38  N   UNL A   1      42.991  23.683  35.906  1.00  0.00    -0.352 N 
ATOM     39  C   UNL A   1      44.256  23.449  35.409  1.00  0.00     0.251 C 
ATOM     40  H   UNL A   1      42.784  23.257  36.768  1.00  0.00     0.163 HD
ATOM     41  O   UNL A   1      44.998  22.632  35.917  1.00  0.00    -0.269 OA
BRANCH  39  42
ATOM     42  C   UNL A   1      44.670  24.193  34.204  1.00  0.00     0.039 A 
ATOM     43  C   UNL A   1      45.429  25.359  34.332  1.00  0.00     0.014 A 
ATOM     44  C   UNL A   1      44.239  23.748  32.953  1.00  0.00     0.014 A 
ATOM     45  C   UNL A   1      45.644  26.162  33.224  1.00  0.00     0.010 A 
ATOM     46  C   UNL A   1      44.505  24.526  31.831  1.00  0.00     0.010 A 
ATOM     47  C   UNL A   1      45.176  25.751  31.972  1.00  0.00    -0.014 A 
BRANCH  47  48
ATOM     48  C   UNL A   1      45.517  26.622  30.837  1.00  0.00     0.031 A 
ATOM     49  C   UNL A   1      45.558  25.883  29.542  1.00  0.00     0.074 A 
ATOM     50  C   UNL A   1      45.072  27.893  30.779  1.00  0.00     0.049 A 
ATOM     51  N   UNL A   1      44.499  25.583  28.851  1.00  0.00    -0.248 NA
ATOM     52  C   UNL A   1      46.774  25.196  29.110  1.00  0.00     0.031 C 
ATOM     53  C   UNL A   1      43.721  28.288  31.186  1.00  0.00     0.029 A 
ATOM     54  N   UNL A   1      45.562  28.975  30.079  1.00  0.00    -0.354 N 
ATOM     55  C   UNL A   1      44.879  24.615  27.943  1.00  0.00     0.074 A 
ATOM     56  C   UNL A   1      46.301  24.421  28.123  1.00  0.00     0.031 C 
ATOM     57  C   UNL A   1      43.420  29.445  30.573  1.00  0.00     0.029 A 
ATOM     58  C   UNL A   1      44.595  29.952  29.871  1.00  0.00     0.049 A 
ATOM     59  H   UNL A   1      46.492  29.049  29.763  1.00  0.00     0.167 HD
ATOM     60  C   UNL A   1      44.007  23.995  27.108  1.00  0.00     0.037 A 
ATOM     61  C   UNL A   1      44.569  30.826  28.830  1.00  0.00     0.037 A 
ATOM     62  C   UNL A   1      42.646  24.422  27.186  1.00  0.00     0.049 A 
ATOM     63  C   UNL A   1      43.843  29.990  27.808  1.00  0.00     0.074 A 
ATOM     64  C   UNL A   1      41.496  24.016  27.828  1.00  0.00     0.029 A 
ATOM     65  N   UNL A   1      42.294  25.574  26.523  1.00  0.00    -0.354 N 
ATOM     66  N   UNL A   1      42.558  29.751  27.776  1.00  0.00    -0.248 NA
ATOM     67  C   UNL A   1      44.657  29.049  27.035  1.00  0.00     0.031 C 
ATOM     68  C   UNL A   1      40.659  25.174  27.880  1.00  0.00     0.029 A 
ATOM     69  C   UNL A   1      41.377  26.224  27.311  1.00  0.00     0.049 A 
ATOM     70  H   UNL A   1      42.634  25.874  25.650  1.00  0.00     0.167 HD
ATOM     71  C   UNL A   1      42.441  28.459  27.257  1.00  0.00     0.074 A 
ATOM     72  C   UNL A   1      43.759  28.111  26.764  1.00  0.00     0.031 C 
ATOM     73  C   UNL A   1      41.351  27.663  27.459  1.00  0.00     0.037 A 
BRANCH  60  74
ATOM     74  C   UNL A   1      44.422  23.040  26.070  1.00  0.00     0.057 A 
ATOM     75  C   UNL A   1      45.145  23.518  24.972  1.00  0.00     0.134 A 
ATOM     76  C   UNL A   1      43.992  21.714  26.052  1.00  0.00     0.134 A 
ATOM     77  F   UNL A   1      45.572  24.792  24.950  1.00  0.00    -0.206 F 
ATOM     78  C   UNL A   1      45.404  22.714  23.867  1.00  0.00     0.040 A 
ATOM     79  C   UNL A   1      44.249  20.893  24.951  1.00  0.00     0.040 A 
ATOM     80  F   UNL A   1      43.292  21.208  27.077  1.00  0.00    -0.206 F 
ATOM     81  C   UNL A   1      44.945  21.398  23.850  1.00  0.00     0.006 A 
ENDBRANCH  60  74
BRANCH  61  82
ATOM     82  C   UNL A   1      45.819  31.600  28.560  1.00  0.00     0.057 A 
ATOM     83  C   UNL A   1      46.544  32.116  29.655  1.00  0.00     0.134 A 
ATOM     84  C   UNL A   1      46.344  31.890  27.297  1.00  0.00     0.134 A 
ATOM     85  F   UNL A   1      46.067  31.994  30.906  1.00  0.00    -0.206 F 
ATOM     86  C   UNL A   1      47.771  32.769  29.505  1.00  0.00     0.040 A 
ATOM     87  C   UNL A   1      47.584  32.521  27.131  1.00  0.00     0.040 A 
ATOM     88  F   UNL A   1      45.684  31.568  26.177  1.00  0.00    -0.206 F 
ATOM     89  C   UNL A   1      48.311  32.947  28.239  1.00  0.00     0.006 A 
ENDBRANCH  61  82
BRANCH  73  90
ATOM     90  C   UNL A   1      40.186  28.313  28.125  1.00  0.00     0.057 A 
ATOM     91  C   UNL A   1      39.318  29.130  27.397  1.00  0.00     0.134 A 
ATOM     92  C   UNL A   1      39.889  28.097  29.478  1.00  0.00     0.134 A 
ATOM     93  F   UNL A   1      39.542  29.375  26.097  1.00  0.00    -0.206 F 
ATOM     94  C   UNL A   1      38.181  29.690  27.984  1.00  0.00     0.040 A 
ATOM     95  C   UNL A   1      38.741  28.629  30.070  1.00  0.00     0.040 A 
ATOM     96  F   UNL A   1      40.692  27.349  30.253  1.00  0.00    -0.206 F 
ATOM     97  C   UNL A   1      37.882  29.427  29.320  1.00  0.00     0.006 A 
ENDBRANCH  73  90
ENDBRANCH  47  48
ENDBRANCH  39  42
ENDBRANCH  37  38
ENDBRANCH  36  37
ENDBRANCH  35  36
ENDBRANCH  34  35
ENDBRANCH   1  34
TORSDOF 17
ENDMDL
MODEL 2
REMARK VINA RESULT:     -12.0      2.754      5.003
REMARK SMILES Cc1c(CCC(=O)N[C@@H](C)C(=O)NCCCCCCNC(=O)c2ccc(-c3c4nc(c(-c5c(F)cccc5F)c5ccc([nH]5)c(-c5c(F)cccc5F)c5nc(c(-c6c(F)cccc6F)c6ccc3[nH]6)C=C5)C=C4)cc2)c(=O)oc2cc3oc4c(c3cc12)CCCC4
REMARK SMILES IDX 15 1 14 2 13 3 11 4 12 5 9 7 10 8 8 9 6 10 7 11 5 13 4 14
REMARK SMILES IDX 3 15 1 16 2 17 88 18 77 19 80 20 87 21 78 22 79 23 81 24
REMARK SMILES IDX 86 25 82 26 85 27 83 28 84 29 89 30 92 31 90 32 91 33 16 34
REMARK SMILES IDX 17 35 18 36 19 37 20 38 21 39 22 41 23 42 24 43 76 44 25 45
REMARK SMILES IDX 75 46 26 47 27 48 28 49 69 50 29 51 74 52 68 53 70 54 30 55
REMARK SMILES IDX 73 56 67 57 66 58 31 60 57 61 40 62 56 63 41 64 44 65 55 66
REMARK SMILES IDX 71 67 42 68 43 69 54 71 72 72 45 73 32 74 33 75 38 76 34 77
REMARK SMILES IDX 35 78 37 79 39 80 36 81 58 82 59 83 64 84 60 85 61 86 63 87
REMARK SMILES IDX 65 88 62 89 46 90 47 91 52 92 48 93 49 94 51 95 53 96 50 97
REMARK H PARENT 13 6 8 12 20 40 70 59 44 70
REMARK Flexibility Score: inf
ROOT
ATOM      1  C   UNL A   1      42.107  29.445  34.233  1.00  0.00     0.021 C 
ENDROOT
BRANCH   1   2
ATOM      2  C   UNL A   1      40.806  29.846  34.924  1.00  0.00     0.116 C 
BRANCH   2   3
ATOM      3  N   UNL A   1      39.667  29.486  34.084  1.00  0.00    -0.354 N 
ATOM      4  C   UNL A   1      38.394  29.959  33.951  1.00  0.00     0.242 C 
ATOM      5  O   UNL A   1      37.581  29.170  33.452  1.00  0.00    -0.273 OA
ATOM      6  H   UNL A   1      39.862  28.734  33.479  1.00  0.00     0.163 HD
BRANCH   4   7
ATOM      7  C   UNL A   1      37.962  31.417  34.256  1.00  0.00     0.168 C 
ATOM      8  C   UNL A   1      37.840  31.751  35.718  1.00  0.00     0.041 C 
BRANCH   7   9
ATOM      9  N   UNL A   1      36.689  31.818  33.656  1.00  0.00    -0.345 N 
ATOM     10  C   UNL A   1      36.113  33.048  33.870  1.00  0.00     0.220 C 
ATOM     11  O   UNL A   1      34.920  33.108  34.162  1.00  0.00    -0.275 OA
ATOM     12  H   UNL A   1      36.223  31.177  33.070  1.00  0.00     0.164 HD
BRANCH  10  13
ATOM     13  C   UNL A   1      36.959  34.298  33.669  1.00  0.00     0.105 C 
BRANCH  13  14
ATOM     14  C   UNL A   1      37.333  34.642  32.215  1.00  0.00     0.053 C 
BRANCH  14  15
ATOM     15  C   UNL A   1      38.796  34.429  31.885  1.00  0.00     0.042 A 
ATOM     16  C   UNL A   1      38.449  33.732  29.456  1.00  0.00     0.046 C 
ATOM     17  C   UNL A   1      39.267  34.137  30.659  1.00  0.00    -0.030 A 
ATOM     18  C   UNL A   1      40.691  34.416  30.444  1.00  0.00     0.022 A 
ATOM     19  C   UNL A   1      39.745  34.516  33.045  1.00  0.00     0.339 A 
ATOM     20  C   UNL A   1      41.586  34.394  31.511  1.00  0.00     0.142 A 
ATOM     21  C   UNL A   1      41.129  34.912  29.218  1.00  0.00     0.024 A 
ATOM     22  O   UNL A   1      39.344  34.762  34.178  1.00  0.00    -0.246 OA
ATOM     23  O   UNL A   1      41.086  34.218  32.809  1.00  0.00    -0.422 OA
ATOM     24  C   UNL A   1      42.968  34.614  31.365  1.00  0.00     0.095 A 
ATOM     25  C   UNL A   1      42.442  35.367  29.106  1.00  0.00     0.025 A 
ATOM     26  C   UNL A   1      43.354  35.046  30.101  1.00  0.00     0.138 A 
ATOM     27  C   UNL A   1      43.162  36.010  28.085  1.00  0.00     0.001 A 
ATOM     28  O   UNL A   1      44.621  35.120  29.570  1.00  0.00    -0.461 OA
ATOM     29  C   UNL A   1      44.433  35.519  28.279  1.00  0.00     0.108 A 
ATOM     30  C   UNL A   1      42.707  36.395  26.732  1.00  0.00     0.040 C 
ATOM     31  C   UNL A   1      45.143  34.856  27.142  1.00  0.00     0.076 C 
ATOM     32  C   UNL A   1      42.863  35.163  25.835  1.00  0.00     0.005 C 
ATOM     33  C   UNL A   1      44.005  34.193  26.288  1.00  0.00     0.008 C 
ENDBRANCH  14  15
ENDBRANCH  13  14
ENDBRANCH  10  13
ENDBRANCH   7   9
ENDBRANCH   4   7
ENDBRANCH   2   3
ENDBRANCH   1   2
BRANCH   1  34
ATOM     34  C   UNL A   1      42.765  28.243  34.917  1.00  0.00     0.002 C 
BRANCH  34  35
ATOM     35  C   UNL A   1      42.143  26.885  34.553  1.00  0.00     0.002 C 
BRANCH  35  36
ATOM     36  C   UNL A   1      42.010  25.903  35.721  1.00  0.00     0.021 C 
BRANCH  36  37
ATOM     37  C   UNL A   1      41.936  24.445  35.276  1.00  0.00     0.116 C 
BRANCH  37  38
ATOM     38  N   UNL A   1      43.006  23.643  35.842  1.00  0.00    -0.352 N 
ATOM     39  C   UNL A   1      44.256  23.392  35.317  1.00  0.00     0.251 C 
ATOM     40  H   UNL A   1      42.815  23.224  36.712  1.00  0.00     0.163 HD
ATOM     41  O   UNL A   1      45.002  22.570  35.812  1.00  0.00    -0.269 OA
BRANCH  39  42
ATOM     42  C   UNL A   1      44.649  24.125  34.098  1.00  0.00     0.039 A 
ATOM     43  C   UNL A   1      45.416  25.289  34.201  1.00  0.00     0.014 A 
ATOM     44  C   UNL A   1      44.192  23.672  32.859  1.00  0.00     0.014 A 
ATOM     45  C   UNL A   1      45.612  26.081  33.083  1.00  0.00     0.010 A 
ATOM     46  C   UNL A   1      44.439  24.440  31.726  1.00  0.00     0.010 A 
ATOM     47  C   UNL A   1      45.118  25.663  31.843  1.00  0.00    -0.014 A 
BRANCH  47  48
ATOM     48  C   UNL A   1      45.440  26.523  30.695  1.00  0.00     0.031 A 
ATOM     49  C   UNL A   1      45.367  25.793  29.397  1.00  0.00     0.074 A 
ATOM     50  C   UNL A   1      45.060  27.816  30.668  1.00  0.00     0.049 A 
ATOM     51  N   UNL A   1      44.255  25.555  28.766  1.00  0.00    -0.248 NA
ATOM     52  C   UNL A   1      46.517  25.045  28.892  1.00  0.00     0.031 C 
ATOM     53  C   UNL A   1      43.759  28.280  31.154  1.00  0.00     0.029 A 
ATOM     54  N   UNL A   1      45.567  28.877  29.946  1.00  0.00    -0.354 N 
ATOM     55  C   UNL A   1      44.530  24.576  27.832  1.00  0.00     0.074 A 
ATOM     56  C   UNL A   1      45.948  24.305  27.930  1.00  0.00     0.031 C 
ATOM     57  C   UNL A   1      43.486  29.456  30.565  1.00  0.00     0.029 A 
ATOM     58  C   UNL A   1      44.644  29.905  29.799  1.00  0.00     0.049 A 
ATOM     59  H   UNL A   1      46.480  28.902  29.578  1.00  0.00     0.167 HD
ATOM     60  C   UNL A   1      43.580  24.010  27.046  1.00  0.00     0.037 A 
ATOM     61  C   UNL A   1      44.606  30.787  28.765  1.00  0.00     0.037 A 
ATOM     62  C   UNL A   1      42.250  24.508  27.204  1.00  0.00     0.049 A 
ATOM     63  C   UNL A   1      43.778  29.999  27.783  1.00  0.00     0.074 A 
ATOM     64  C   UNL A   1      41.119  24.160  27.909  1.00  0.00     0.029 A 
ATOM     65  N   UNL A   1      41.923  25.683  26.569  1.00  0.00    -0.354 N 
ATOM     66  N   UNL A   1      42.483  29.830  27.824  1.00  0.00    -0.248 NA
ATOM     67  C   UNL A   1      44.495  29.022  26.960  1.00  0.00     0.031 C 
ATOM     68  C   UNL A   1      40.350  25.360  28.015  1.00  0.00     0.029 A 
ATOM     69  C   UNL A   1      41.090  26.375  27.410  1.00  0.00     0.049 A 
ATOM     70  H   UNL A   1      42.229  25.971  25.678  1.00  0.00     0.167 HD
ATOM     71  C   UNL A   1      42.267  28.549  27.306  1.00  0.00     0.074 A 
ATOM     72  C   UNL A   1      43.534  28.136  26.736  1.00  0.00     0.031 C 
ATOM     73  C   UNL A   1      41.149  27.812  27.567  1.00  0.00     0.037 A 
BRANCH  60  74
ATOM     74  C   UNL A   1      43.883  23.042  25.981  1.00  0.00     0.057 A 
ATOM     75  C   UNL A   1      43.585  21.693  26.201  1.00  0.00     0.134 A 
ATOM     76  C   UNL A   1      44.595  23.384  24.832  1.00  0.00     0.134 A 
ATOM     77  F   UNL A   1      42.905  21.323  27.299  1.00  0.00    -0.206 F 
ATOM     78  C   UNL A   1      44.015  20.702  25.323  1.00  0.00     0.040 A 
ATOM     79  C   UNL A   1      45.029  22.401  23.941  1.00  0.00     0.040 A 
ATOM     80  F   UNL A   1      44.909  24.662  24.578  1.00  0.00    -0.206 F 
ATOM     81  C   UNL A   1      44.750  21.056  24.193  1.00  0.00     0.006 A 
ENDBRANCH  60  74
BRANCH  61  82
ATOM     82  C   UNL A   1      45.878  31.495  28.428  1.00  0.00     0.057 A 
ATOM     83  C   UNL A   1      46.534  32.227  29.441  1.00  0.00     0.134 A 
ATOM     84  C   UNL A   1      46.488  31.524  27.170  1.00  0.00     0.134 A 
ATOM     85  F   UNL A   1      45.974  32.360  30.655  1.00  0.00    -0.206 F 
ATOM     86  C   UNL A   1      47.774  32.841  29.244  1.00  0.00     0.040 A 
ATOM     87  C   UNL A   1      47.743  32.114  26.963  1.00  0.00     0.040 A 
ATOM     88  F   UNL A   1      45.901  30.978  26.098  1.00  0.00    -0.206 F 
ATOM     89  C   UNL A   1      48.398  32.759  28.007  1.00  0.00     0.006 A 
ENDBRANCH  61  82
BRANCH  73  90
ATOM     90  C   UNL A   1      40.061  28.518  28.302  1.00  0.00     0.057 A 
ATOM     91  C   UNL A   1      39.946  28.396  29.689  1.00  0.00     0.134 A 
ATOM     92  C   UNL A   1      39.150  29.360  27.649  1.00  0.00     0.134 A 
ATOM     93  F   UNL A   1      40.789  27.608  30.376  1.00  0.00    -0.206 F 
ATOM     94  C   UNL A   1      38.979  29.105  30.405  1.00  0.00     0.040 A 
ATOM     95  C   UNL A   1      38.196  30.095  28.357  1.00  0.00     0.040 A 
ATOM     96  F   UNL A   1      39.176  29.505  26.314  1.00  0.00    -0.206 F 
ATOM     97  C   UNL A   1      38.111  29.970  29.740  1.00  0.00     0.006 A 
ENDBRANCH  73  90
ENDBRANCH  47  48
ENDBRANCH  39  42
ENDBRANCH  37  38
ENDBRANCH  36  37
ENDBRANCH  35  36
ENDBRANCH  34  35
ENDBRANCH   1  34
TORSDOF 17
ENDMDL
MODEL 3
REMARK VINA RESULT:     -12.0      7.656     12.790
REMARK SMILES Cc1c(CCC(=O)N[C@@H](C)C(=O)NCCCCCCNC(=O)c2ccc(-c3c4nc(c(-c5c(F)cccc5F)c5ccc([nH]5)c(-c5c(F)cccc5F)c5nc(c(-c6c(F)cccc6F)c6ccc3[nH]6)C=C5)C=C4)cc2)c(=O)oc2cc3oc4c(c3cc12)CCCC4
REMARK SMILES IDX 15 1 14 2 13 3 11 4 12 5 9 7 10 8 8 9 6 10 7 11 5 13 4 14
REMARK SMILES IDX 3 15 1 16 2 17 88 18 77 19 80 20 87 21 78 22 79 23 81 24
REMARK SMILES IDX 86 25 82 26 85 27 83 28 84 29 89 30 92 31 90 32 91 33 16 34
REMARK SMILES IDX 17 35 18 36 19 37 20 38 21 39 22 41 23 42 24 43 76 44 25 45
REMARK SMILES IDX 75 46 26 47 27 48 28 49 69 50 29 51 74 52 68 53 70 54 30 55
REMARK SMILES IDX 73 56 67 57 66 58 31 60 57 61 40 62 56 63 41 64 44 65 55 66
REMARK SMILES IDX 71 67 42 68 43 69 54 71 72 72 45 73 32 74 33 75 38 76 34 77
REMARK SMILES IDX 35 78 37 79 39 80 36 81 58 82 59 83 64 84 60 85 61 86 63 87
REMARK SMILES IDX 65 88 62 89 46 90 47 91 52 92 48 93 49 94 51 95 53 96 50 97
REMARK H PARENT 13 6 8 12 20 40 70 59 44 70
REMARK Flexibility Score: inf
ROOT
ATOM      1  C   UNL A   1      37.487  33.732  33.240  1.00  0.00     0.021 C 
ENDROOT
BRANCH   1   2
ATOM      2  C   UNL A   1      36.354  34.036  34.217  1.00  0.00     0.116 C 
BRANCH   2   3
ATOM      3  N   UNL A   1      35.126  33.386  33.769  1.00  0.00    -0.354 N 
ATOM      4  C   UNL A   1      33.995  33.817  33.136  1.00  0.00     0.242 C 
ATOM      5  O   UNL A   1      32.997  33.099  33.280  1.00  0.00    -0.273 OA
ATOM      6  H   UNL A   1      35.109  32.422  33.968  1.00  0.00     0.163 HD
BRANCH   4   7
ATOM      7  C   UNL A   1      33.935  35.036  32.179  1.00  0.00     0.168 C 
ATOM      8  C   UNL A   1      33.643  36.352  32.844  1.00  0.00     0.041 C 
BRANCH   7   9
ATOM      9  N   UNL A   1      32.956  34.918  31.097  1.00  0.00    -0.345 N 
ATOM     10  C   UNL A   1      33.306  34.654  29.794  1.00  0.00     0.220 C 
ATOM     11  O   UNL A   1      32.823  35.337  28.893  1.00  0.00    -0.275 OA
ATOM     12  H   UNL A   1      32.002  35.032  31.312  1.00  0.00     0.164 HD
BRANCH  10  13
ATOM     13  C   UNL A   1      34.229  33.477  29.508  1.00  0.00     0.105 C 
BRANCH  13  14
ATOM     14  C   UNL A   1      34.429  33.111  28.026  1.00  0.00     0.053 C 
BRANCH  14  15
ATOM     15  C   UNL A   1      34.070  31.678  27.689  1.00  0.00     0.042 A 
ATOM     16  C   UNL A   1      31.635  32.124  27.073  1.00  0.00     0.046 C 
ATOM     17  C   UNL A   1      32.887  31.287  27.178  1.00  0.00    -0.030 A 
ATOM     18  C   UNL A   1      32.886  29.984  26.505  1.00  0.00     0.022 A 
ATOM     19  C   UNL A   1      35.120  30.652  28.002  1.00  0.00     0.339 A 
ATOM     20  C   UNL A   1      33.798  28.997  26.873  1.00  0.00     0.142 A 
ATOM     21  C   UNL A   1      32.122  29.790  25.357  1.00  0.00     0.024 A 
ATOM     22  O   UNL A   1      36.200  30.974  28.485  1.00  0.00    -0.246 OA
ATOM     23  O   UNL A   1      34.792  29.310  27.812  1.00  0.00    -0.422 OA
ATOM     24  C   UNL A   1      33.824  27.714  26.296  1.00  0.00     0.095 A 
ATOM     25  C   UNL A   1      32.300  28.619  24.620  1.00  0.00     0.025 A 
ATOM     26  C   UNL A   1      32.992  27.561  25.191  1.00  0.00     0.138 A 
ATOM     27  C   UNL A   1      31.795  28.161  23.392  1.00  0.00     0.001 A 
ATOM     28  O   UNL A   1      32.612  26.401  24.559  1.00  0.00    -0.461 OA
ATOM     29  C   UNL A   1      31.727  26.802  23.600  1.00  0.00     0.108 A 
ATOM     30  C   UNL A   1      30.844  28.826  22.475  1.00  0.00     0.040 C 
ATOM     31  C   UNL A   1      30.428  26.092  23.386  1.00  0.00     0.076 C 
ATOM     32  C   UNL A   1      29.432  28.511  22.982  1.00  0.00     0.005 C 
ATOM     33  C   UNL A   1      29.327  27.150  23.750  1.00  0.00     0.008 C 
ENDBRANCH  14  15
ENDBRANCH  13  14
ENDBRANCH  10  13
ENDBRANCH   7   9
ENDBRANCH   4   7
ENDBRANCH   2   3
ENDBRANCH   1   2
BRANCH   1  34
ATOM     34  C   UNL A   1      37.134  34.156  31.812  1.00  0.00     0.002 C 
BRANCH  34  35
ATOM     35  C   UNL A   1      38.289  34.025  30.805  1.00  0.00     0.002 C 
BRANCH  35  36
ATOM     36  C   UNL A   1      39.562  33.385  31.367  1.00  0.00     0.021 C 
BRANCH  36  37
ATOM     37  C   UNL A   1      40.833  34.144  30.993  1.00  0.00     0.116 C 
BRANCH  37  38
ATOM     38  N   UNL A   1      41.827  33.282  30.377  1.00  0.00    -0.352 N 
ATOM     39  C   UNL A   1      42.749  33.601  29.403  1.00  0.00     0.251 C 
ATOM     40  H   UNL A   1      41.845  32.351  30.696  1.00  0.00     0.163 HD
ATOM     41  O   UNL A   1      43.417  32.746  28.855  1.00  0.00    -0.269 OA
BRANCH  39  42
ATOM     42  C   UNL A   1      42.872  35.017  29.009  1.00  0.00     0.039 A 
ATOM     43  C   UNL A   1      42.196  35.487  27.880  1.00  0.00     0.014 A 
ATOM     44  C   UNL A   1      43.716  35.852  29.742  1.00  0.00     0.014 A 
ATOM     45  C   UNL A   1      42.469  36.756  27.397  1.00  0.00     0.010 A 
ATOM     46  C   UNL A   1      43.946  37.148  29.288  1.00  0.00     0.010 A 
ATOM     47  C   UNL A   1      43.351  37.587  28.096  1.00  0.00    -0.014 A 
BRANCH  47  48
ATOM     48  C   UNL A   1      43.522  38.945  27.558  1.00  0.00     0.031 A 
ATOM     49  C   UNL A   1      43.221  40.000  28.568  1.00  0.00     0.074 A 
ATOM     50  C   UNL A   1      44.510  39.226  26.685  1.00  0.00     0.049 A 
ATOM     51  N   UNL A   1      44.060  40.377  29.487  1.00  0.00    -0.248 NA
ATOM     52  C   UNL A   1      41.854  40.478  28.768  1.00  0.00     0.031 C 
ATOM     53  C   UNL A   1      45.862  38.675  26.799  1.00  0.00     0.029 A 
ATOM     54  N   UNL A   1      44.622  40.253  25.770  1.00  0.00    -0.354 N 
ATOM     55  C   UNL A   1      43.329  41.076  30.428  1.00  0.00     0.074 A 
ATOM     56  C   UNL A   1      41.972  41.133  29.931  1.00  0.00     0.031 C 
ATOM     57  C   UNL A   1      46.702  39.483  26.131  1.00  0.00     0.029 A 
ATOM     58  C   UNL A   1      45.941  40.503  25.415  1.00  0.00     0.049 A 
ATOM     59  H   UNL A   1      43.853  40.751  25.409  1.00  0.00     0.167 HD
ATOM     60  C   UNL A   1      43.863  41.547  31.584  1.00  0.00     0.037 A 
ATOM     61  C   UNL A   1      46.433  41.701  25.003  1.00  0.00     0.037 A 
ATOM     62  C   UNL A   1      45.259  41.314  31.777  1.00  0.00     0.049 A 
ATOM     63  C   UNL A   1      46.749  42.325  26.337  1.00  0.00     0.074 A 
ATOM     64  C   UNL A   1      46.048  40.381  32.413  1.00  0.00     0.029 A 
ATOM     65  N   UNL A   1      46.145  42.158  31.150  1.00  0.00    -0.354 N 
ATOM     66  N   UNL A   1      47.775  42.047  27.098  1.00  0.00    -0.248 NA
ATOM     67  C   UNL A   1      45.639  42.986  27.029  1.00  0.00     0.031 C 
ATOM     68  C   UNL A   1      47.322  40.453  31.769  1.00  0.00     0.029 A 
ATOM     69  C   UNL A   1      47.209  41.392  30.745  1.00  0.00     0.049 A 
ATOM     70  H   UNL A   1      46.037  43.127  31.018  1.00  0.00     0.167 HD
ATOM     71  C   UNL A   1      47.310  42.199  28.407  1.00  0.00     0.074 A 
ATOM     72  C   UNL A   1      46.014  42.838  28.293  1.00  0.00     0.031 C 
ATOM     73  C   UNL A   1      47.891  41.600  29.486  1.00  0.00     0.037 A 
BRANCH  60  74
ATOM     74  C   UNL A   1      43.116  42.378  32.539  1.00  0.00     0.057 A 
ATOM     75  C   UNL A   1      42.876  43.717  32.215  1.00  0.00     0.134 A 
ATOM     76  C   UNL A   1      42.775  41.936  33.817  1.00  0.00     0.134 A 
ATOM     77  F   UNL A   1      43.195  44.183  30.995  1.00  0.00    -0.206 F 
ATOM     78  C   UNL A   1      42.347  44.607  33.145  1.00  0.00     0.040 A 
ATOM     79  C   UNL A   1      42.239  42.816  34.759  1.00  0.00     0.040 A 
ATOM     80  F   UNL A   1      42.989  40.663  34.179  1.00  0.00    -0.206 F 
ATOM     81  C   UNL A   1      42.037  44.158  34.427  1.00  0.00     0.006 A 
ENDBRANCH  60  74
BRANCH  61  82
ATOM     82  C   UNL A   1      45.704  42.390  23.895  1.00  0.00     0.057 A 
ATOM     83  C   UNL A   1      46.411  42.711  22.716  1.00  0.00     0.134 A 
ATOM     84  C   UNL A   1      44.361  42.780  23.919  1.00  0.00     0.134 A 
ATOM     85  F   UNL A   1      47.733  42.485  22.633  1.00  0.00    -0.206 F 
ATOM     86  C   UNL A   1      45.791  43.269  21.595  1.00  0.00     0.040 A 
ATOM     87  C   UNL A   1      43.720  43.317  22.794  1.00  0.00     0.040 A 
ATOM     88  F   UNL A   1      43.617  42.649  25.025  1.00  0.00    -0.206 F 
ATOM     89  C   UNL A   1      44.431  43.546  21.621  1.00  0.00     0.006 A 
ENDBRANCH  61  82
BRANCH  73  90
ATOM     90  C   UNL A   1      49.182  40.901  29.224  1.00  0.00     0.057 A 
ATOM     91  C   UNL A   1      49.205  39.530  28.956  1.00  0.00     0.134 A 
ATOM     92  C   UNL A   1      50.404  41.588  29.189  1.00  0.00     0.134 A 
ATOM     93  F   UNL A   1      48.071  38.814  28.969  1.00  0.00    -0.206 F 
ATOM     94  C   UNL A   1      50.395  38.870  28.637  1.00  0.00     0.040 A 
ATOM     95  C   UNL A   1      51.595  40.945  28.846  1.00  0.00     0.040 A 
ATOM     96  F   UNL A   1      50.469  42.900  29.467  1.00  0.00    -0.206 F 
ATOM     97  C   UNL A   1      51.591  39.582  28.566  1.00  0.00     0.006 A 
ENDBRANCH  73  90
ENDBRANCH  47  48
ENDBRANCH  39  42
ENDBRANCH  37  38
ENDBRANCH  36  37
ENDBRANCH  35  36
ENDBRANCH  34  35
ENDBRANCH   1  34
TORSDOF 17
ENDMDL
