MODEL 1
REMARK VINA RESULT:     -13.2      0.000      0.000
REMARK SMILES Cc1c(C(=O)NCCCCCCNC(=O)c2ccc(-c3c4nc(c(-c5c(F)cccc5F)c5ccc([nH]5)c(-c5c(F)cccc5F)c5nc(c(-c6c(F)cccc6F)c6ccc3[nH]6)C=C5)C=C4)cc2)cccc1-n1c(C)cc(/C=C2/C(=O)NC(=S)N=C2O)c1C
REMARK SMILES IDX 9 1 8 2 7 3 6 4 4 5 5 6 3 8 1 9 2 10 73 11 70 12 72 13 71 14
REMARK SMILES IDX 74 15 75 16 89 17 76 18 77 19 78 20 90 21 79 22 80 23 81 24
REMARK SMILES IDX 87 25 82 26 83 27 86 28 84 29 85 31 88 32 10 34 11 35 12 36
REMARK SMILES IDX 13 37 14 38 15 40 16 41 17 42 69 43 18 44 68 45 19 46 20 47
REMARK SMILES IDX 21 48 62 49 22 50 67 51 61 52 63 53 23 54 66 55 60 56 59 57
REMARK SMILES IDX 24 59 50 60 33 61 49 62 34 63 37 64 48 65 64 66 35 67 36 68
REMARK SMILES IDX 47 70 65 71 38 72 25 73 26 74 31 75 27 76 28 77 30 78 32 79
REMARK SMILES IDX 29 80 51 81 52 82 57 83 53 84 54 85 56 86 58 87 55 88 39 89
REMARK SMILES IDX 40 90 45 91 41 92 42 93 44 94 46 95 43 96
REMARK H PARENT 6 7 83 30 88 33 13 39 63 58 37 69
REMARK Flexibility Score: inf
ROOT
ATOM      1  C   UNL A   1      32.874  28.541  27.605  1.00  0.00     0.002 C 
ENDROOT
BRANCH   1   2
ATOM      2  C   UNL A   1      31.764  29.290  26.857  1.00  0.00     0.021 C 
BRANCH   2   3
ATOM      3  C   UNL A   1      32.239  30.306  25.803  1.00  0.00     0.116 C 
BRANCH   3   4
ATOM      4  N   UNL A   1      31.241  30.454  24.763  1.00  0.00    -0.352 N 
ATOM      5  C   UNL A   1      30.503  29.626  23.966  1.00  0.00     0.251 C 
ATOM      6  O   UNL A   1      29.714  30.207  23.210  1.00  0.00    -0.269 OA
ATOM      7  H   UNL A   1      31.041  31.401  24.584  1.00  0.00     0.163 HD
BRANCH   5   8
ATOM      8  C   UNL A   1      30.504  28.126  23.942  1.00  0.00     0.044 A 
ATOM      9  C   UNL A   1      33.019  27.699  23.684  1.00  0.00     0.047 C 
ATOM     10  C   UNL A   1      31.594  27.244  23.782  1.00  0.00    -0.014 A 
ATOM     11  C   UNL A   1      31.309  25.855  23.661  1.00  0.00     0.049 A 
ATOM     12  C   UNL A   1      29.192  27.583  23.906  1.00  0.00     0.014 A 
ATOM     13  C   UNL A   1      30.007  25.346  23.624  1.00  0.00     0.027 A 
ATOM     14  C   UNL A   1      28.942  26.219  23.737  1.00  0.00     0.003 A 
BRANCH  11  15
ATOM     15  N   UNL A   1      32.347  24.918  23.441  1.00  0.00    -0.318 N 
ATOM     16  C   UNL A   1      32.932  24.651  22.219  1.00  0.00     0.020 A 
ATOM     17  C   UNL A   1      32.882  24.077  24.411  1.00  0.00     0.027 A 
ATOM     18  C   UNL A   1      32.484  25.266  20.940  1.00  0.00     0.065 C 
ATOM     19  C   UNL A   1      33.937  23.731  22.442  1.00  0.00     0.031 A 
ATOM     20  C   UNL A   1      33.924  23.379  23.819  1.00  0.00    -0.003 A 
ATOM     21  C   UNL A   1      32.294  24.025  25.785  1.00  0.00     0.065 C 
BRANCH  20  22
ATOM     22  C   UNL A   1      34.748  22.343  24.357  1.00  0.00     0.029 C 
ATOM     23  C   UNL A   1      34.522  21.043  24.620  1.00  0.00     0.102 C 
ATOM     24  C   UNL A   1      35.713  20.246  25.015  1.00  0.00     0.262 C 
ATOM     25  C   UNL A   1      33.303  20.244  24.498  1.00  0.00     0.226 C 
ATOM     26  O   UNL A   1      36.775  20.726  25.393  1.00  0.00    -0.269 OA
ATOM     27  N   UNL A   1      35.546  18.895  24.871  1.00  0.00    -0.297 N 
ATOM     28  N   UNL A   1      33.225  18.965  24.434  1.00  0.00    -0.184 NA
ATOM     29  C   UNL A   1      34.388  18.248  24.517  1.00  0.00     0.203 C 
ATOM     30  H   UNL A   1      36.336  18.330  25.038  1.00  0.00     0.172 HD
ATOM     31  S   UNL A   1      34.471  16.593  24.268  1.00  0.00    -0.038 S 
BRANCH  25  32
ATOM     32  O   UNL A   1      32.149  20.914  24.528  1.00  0.00    -0.493 OA
ATOM     33  H   UNL A   1      31.485  20.676  25.145  1.00  0.00     0.295 HD
ENDBRANCH  25  32
ENDBRANCH  20  22
ENDBRANCH  11  15
ENDBRANCH   5   8
ENDBRANCH   3   4
ENDBRANCH   2   3
ENDBRANCH   1   2
BRANCH   1  34
ATOM     34  C   UNL A   1      34.314  28.884  27.199  1.00  0.00     0.002 C 
BRANCH  34  35
ATOM     35  C   UNL A   1      35.069  29.801  28.162  1.00  0.00     0.021 C 
BRANCH  35  36
ATOM     36  C   UNL A   1      35.311  31.201  27.611  1.00  0.00     0.116 C 
BRANCH  36  37
ATOM     37  N   UNL A   1      34.368  32.187  28.128  1.00  0.00    -0.352 N 
ATOM     38  C   UNL A   1      34.458  33.016  29.237  1.00  0.00     0.251 C 
ATOM     39  H   UNL A   1      33.537  32.279  27.608  1.00  0.00     0.163 HD
ATOM     40  O   UNL A   1      33.553  33.772  29.514  1.00  0.00    -0.269 OA
BRANCH  38  41
ATOM     41  C   UNL A   1      35.741  33.078  29.980  1.00  0.00     0.039 A 
ATOM     42  C   UNL A   1      36.790  33.781  29.376  1.00  0.00     0.014 A 
ATOM     43  C   UNL A   1      35.978  32.260  31.080  1.00  0.00     0.014 A 
ATOM     44  C   UNL A   1      38.100  33.435  29.682  1.00  0.00     0.010 A 
ATOM     45  C   UNL A   1      37.273  31.848  31.322  1.00  0.00     0.010 A 
ATOM     46  C   UNL A   1      38.318  32.372  30.554  1.00  0.00    -0.014 A 
BRANCH  46  47
ATOM     47  C   UNL A   1      39.579  31.644  30.607  1.00  0.00     0.031 A 
ATOM     48  C   UNL A   1      39.746  30.385  29.862  1.00  0.00     0.074 A 
ATOM     49  C   UNL A   1      40.615  32.189  31.283  1.00  0.00     0.049 A 
ATOM     50  N   UNL A   1      40.655  29.504  30.109  1.00  0.00    -0.248 NA
ATOM     51  C   UNL A   1      38.828  29.984  28.806  1.00  0.00     0.031 C 
ATOM     52  C   UNL A   1      42.019  31.795  31.226  1.00  0.00     0.029 A 
ATOM     53  N   UNL A   1      40.550  33.101  32.347  1.00  0.00    -0.354 N 
ATOM     54  C   UNL A   1      40.632  28.577  29.089  1.00  0.00     0.074 A 
ATOM     55  C   UNL A   1      39.412  28.863  28.375  1.00  0.00     0.031 C 
ATOM     56  C   UNL A   1      42.631  32.218  32.343  1.00  0.00     0.029 A 
ATOM     57  C   UNL A   1      41.605  32.758  33.218  1.00  0.00     0.049 A 
ATOM     58  H   UNL A   1      39.900  33.832  32.462  1.00  0.00     0.167 HD
ATOM     59  C   UNL A   1      41.727  27.784  28.903  1.00  0.00     0.037 A 
ATOM     60  C   UNL A   1      41.361  32.321  34.488  1.00  0.00     0.037 A 
ATOM     61  C   UNL A   1      42.665  27.928  30.023  1.00  0.00     0.049 A 
ATOM     62  C   UNL A   1      41.876  30.927  34.768  1.00  0.00     0.074 A 
ATOM     63  C   UNL A   1      43.842  28.643  30.184  1.00  0.00     0.029 A 
ATOM     64  N   UNL A   1      42.278  27.522  31.297  1.00  0.00    -0.354 N 
ATOM     65  N   UNL A   1      42.192  30.069  33.839  1.00  0.00    -0.248 NA
ATOM     66  C   UNL A   1      42.048  30.382  36.112  1.00  0.00     0.031 C 
ATOM     67  C   UNL A   1      44.117  28.731  31.573  1.00  0.00     0.029 A 
ATOM     68  C   UNL A   1      43.125  28.047  32.254  1.00  0.00     0.049 A 
ATOM     69  H   UNL A   1      41.507  26.942  31.490  1.00  0.00     0.167 HD
ATOM     70  C   UNL A   1      42.568  28.885  34.417  1.00  0.00     0.074 A 
ATOM     71  C   UNL A   1      42.485  29.139  35.843  1.00  0.00     0.031 C 
ATOM     72  C   UNL A   1      42.900  27.791  33.670  1.00  0.00     0.037 A 
BRANCH  59  73
ATOM     73  C   UNL A   1      42.102  27.124  27.581  1.00  0.00     0.057 A 
ATOM     74  C   UNL A   1      42.357  25.737  27.521  1.00  0.00     0.134 A 
ATOM     75  C   UNL A   1      42.329  27.784  26.359  1.00  0.00     0.134 A 
ATOM     76  F   UNL A   1      42.092  24.926  28.554  1.00  0.00    -0.206 F 
ATOM     77  C   UNL A   1      42.903  25.098  26.396  1.00  0.00     0.040 A 
ATOM     78  C   UNL A   1      42.905  27.168  25.236  1.00  0.00     0.040 A 
ATOM     79  F   UNL A   1      41.957  29.047  26.150  1.00  0.00    -0.206 F 
ATOM     80  C   UNL A   1      43.213  25.821  25.257  1.00  0.00     0.006 A 
ENDBRANCH  59  73
BRANCH  60  81
ATOM     81  C   UNL A   1      40.151  32.926  35.099  1.00  0.00     0.057 A 
ATOM     82  C   UNL A   1      38.950  32.194  35.077  1.00  0.00     0.134 A 
ATOM     83  C   UNL A   1      40.233  33.987  36.005  1.00  0.00     0.134 A 
ATOM     84  F   UNL A   1      38.806  31.162  34.230  1.00  0.00    -0.206 F 
ATOM     85  C   UNL A   1      37.921  32.434  35.990  1.00  0.00     0.040 A 
ATOM     86  C   UNL A   1      39.203  34.242  36.920  1.00  0.00     0.040 A 
ATOM     87  F   UNL A   1      41.353  34.716  36.102  1.00  0.00    -0.206 F 
ATOM     88  C   UNL A   1      38.062  33.440  36.940  1.00  0.00     0.006 A 
ENDBRANCH  60  81
BRANCH  72  89
ATOM     89  C   UNL A   1      43.117  26.396  34.200  1.00  0.00     0.057 A 
ATOM     90  C   UNL A   1      42.126  25.628  34.831  1.00  0.00     0.134 A 
ATOM     91  C   UNL A   1      44.328  25.715  33.942  1.00  0.00     0.134 A 
ATOM     92  F   UNL A   1      40.894  26.112  35.042  1.00  0.00    -0.206 F 
ATOM     93  C   UNL A   1      42.339  24.299  35.221  1.00  0.00     0.040 A 
ATOM     94  C   UNL A   1      44.534  24.374  34.280  1.00  0.00     0.040 A 
ATOM     95  F   UNL A   1      45.357  26.319  33.329  1.00  0.00    -0.206 F 
ATOM     96  C   UNL A   1      43.541  23.663  34.934  1.00  0.00     0.006 A 
ENDBRANCH  72  89
ENDBRANCH  46  47
ENDBRANCH  38  41
ENDBRANCH  36  37
ENDBRANCH  35  36
ENDBRANCH  34  35
ENDBRANCH   1  34
TORSDOF 16
ENDMDL
MODEL 2
REMARK VINA RESULT:     -12.5      4.184      9.953
REMARK SMILES Cc1c(C(=O)NCCCCCCNC(=O)c2ccc(-c3c4nc(c(-c5c(F)cccc5F)c5ccc([nH]5)c(-c5c(F)cccc5F)c5nc(c(-c6c(F)cccc6F)c6ccc3[nH]6)C=C5)C=C4)cc2)cccc1-n1c(C)cc(/C=C2/C(=O)NC(=S)N=C2O)c1C
REMARK SMILES IDX 9 1 8 2 7 3 6 4 4 5 5 6 3 8 1 9 2 10 73 11 70 12 72 13 71 14
REMARK SMILES IDX 74 15 75 16 89 17 76 18 77 19 78 20 90 21 79 22 80 23 81 24
REMARK SMILES IDX 87 25 82 26 83 27 86 28 84 29 85 31 88 32 10 34 11 35 12 36
REMARK SMILES IDX 13 37 14 38 15 40 16 41 17 42 69 43 18 44 68 45 19 46 20 47
REMARK SMILES IDX 21 48 62 49 22 50 67 51 61 52 63 53 23 54 66 55 60 56 59 57
REMARK SMILES IDX 24 59 50 60 33 61 49 62 34 63 37 64 48 65 64 66 35 67 36 68
REMARK SMILES IDX 47 70 65 71 38 72 25 73 26 74 31 75 27 76 28 77 30 78 32 79
REMARK SMILES IDX 29 80 51 81 52 82 57 83 53 84 54 85 56 86 58 87 55 88 39 89
REMARK SMILES IDX 40 90 45 91 41 92 42 93 44 94 46 95 43 96
REMARK H PARENT 6 7 83 30 88 33 13 39 63 58 37 69
REMARK Flexibility Score: inf
ROOT
ATOM      1  C   UNL A   1      38.332  22.838  25.829  1.00  0.00     0.002 C 
ENDROOT
BRANCH   1   2
ATOM      2  C   UNL A   1      36.980  22.125  25.696  1.00  0.00     0.021 C 
BRANCH   2   3
ATOM      3  C   UNL A   1      36.949  20.932  24.722  1.00  0.00     0.116 C 
BRANCH   3   4
ATOM      4  N   UNL A   1      35.872  20.029  25.071  1.00  0.00    -0.352 N 
ATOM      5  C   UNL A   1      34.508  20.031  24.999  1.00  0.00     0.251 C 
ATOM      6  O   UNL A   1      33.970  18.991  25.399  1.00  0.00    -0.269 OA
ATOM      7  H   UNL A   1      36.212  19.194  25.464  1.00  0.00     0.163 HD
BRANCH   5   8
ATOM      8  C   UNL A   1      33.614  21.104  24.452  1.00  0.00     0.044 A 
ATOM      9  C   UNL A   1      33.768  22.809  26.361  1.00  0.00     0.047 C 
ATOM     10  C   UNL A   1      33.236  22.329  25.045  1.00  0.00    -0.014 A 
ATOM     11  C   UNL A   1      32.263  23.118  24.371  1.00  0.00     0.049 A 
ATOM     12  C   UNL A   1      32.954  20.706  23.259  1.00  0.00     0.014 A 
ATOM     13  C   UNL A   1      31.624  22.700  23.198  1.00  0.00     0.027 A 
ATOM     14  C   UNL A   1      31.967  21.480  22.646  1.00  0.00     0.003 A 
BRANCH  11  15
ATOM     15  N   UNL A   1      31.795  24.328  24.933  1.00  0.00    -0.318 N 
ATOM     16  C   UNL A   1      30.834  24.429  25.920  1.00  0.00     0.020 A 
ATOM     17  C   UNL A   1      32.183  25.601  24.526  1.00  0.00     0.027 A 
ATOM     18  C   UNL A   1      30.095  23.260  26.471  1.00  0.00     0.065 C 
ATOM     19  C   UNL A   1      30.710  25.767  26.233  1.00  0.00     0.031 A 
ATOM     20  C   UNL A   1      31.566  26.508  25.374  1.00  0.00    -0.003 A 
ATOM     21  C   UNL A   1      33.073  25.785  23.339  1.00  0.00     0.065 C 
BRANCH  20  22
ATOM     22  C   UNL A   1      31.576  27.937  25.342  1.00  0.00     0.029 C 
ATOM     23  C   UNL A   1      30.948  28.834  24.559  1.00  0.00     0.102 C 
ATOM     24  C   UNL A   1      31.083  30.256  24.970  1.00  0.00     0.262 C 
ATOM     25  C   UNL A   1      30.068  28.643  23.407  1.00  0.00     0.226 C 
ATOM     26  O   UNL A   1      31.928  30.676  25.751  1.00  0.00    -0.269 OA
ATOM     27  N   UNL A   1      30.130  31.079  24.433  1.00  0.00    -0.297 N 
ATOM     28  N   UNL A   1      29.242  29.495  22.920  1.00  0.00    -0.184 NA
ATOM     29  C   UNL A   1      29.178  30.731  23.505  1.00  0.00     0.203 C 
ATOM     30  H   UNL A   1      30.126  32.015  24.742  1.00  0.00     0.172 HD
ATOM     31  S   UNL A   1      28.029  31.883  23.105  1.00  0.00    -0.038 S 
BRANCH  25  32
ATOM     32  O   UNL A   1      30.192  27.487  22.751  1.00  0.00    -0.493 OA
ATOM     33  H   UNL A   1      29.750  26.722  23.062  1.00  0.00     0.295 HD
ENDBRANCH  25  32
ENDBRANCH  20  22
ENDBRANCH  11  15
ENDBRANCH   5   8
ENDBRANCH   3   4
ENDBRANCH   2   3
ENDBRANCH   1   2
BRANCH   1  34
ATOM     34  C   UNL A   1      39.433  22.069  26.571  1.00  0.00     0.002 C 
BRANCH  34  35
ATOM     35  C   UNL A   1      40.863  22.359  26.111  1.00  0.00     0.021 C 
BRANCH  35  36
ATOM     36  C   UNL A   1      41.902  21.423  26.714  1.00  0.00     0.116 C 
BRANCH  36  37
ATOM     37  N   UNL A   1      42.677  20.706  25.707  1.00  0.00    -0.352 N 
ATOM     38  C   UNL A   1      43.808  21.096  25.003  1.00  0.00     0.251 C 
ATOM     39  H   UNL A   1      42.346  19.804  25.492  1.00  0.00     0.163 HD
ATOM     40  O   UNL A   1      44.309  20.356  24.187  1.00  0.00    -0.269 OA
BRANCH  38  41
ATOM     41  C   UNL A   1      44.483  22.363  25.381  1.00  0.00     0.039 A 
ATOM     42  C   UNL A   1      45.191  22.366  26.588  1.00  0.00     0.014 A 
ATOM     43  C   UNL A   1      44.205  23.554  24.719  1.00  0.00     0.014 A 
ATOM     44  C   UNL A   1      45.356  23.565  27.272  1.00  0.00     0.010 A 
ATOM     45  C   UNL A   1      44.283  24.732  25.433  1.00  0.00     0.010 A 
ATOM     46  C   UNL A   1      44.774  24.714  26.743  1.00  0.00    -0.014 A 
BRANCH  46  47
ATOM     47  C   UNL A   1      44.495  25.895  27.548  1.00  0.00     0.031 A 
ATOM     48  C   UNL A   1      43.134  26.456  27.603  1.00  0.00     0.074 A 
ATOM     49  C   UNL A   1      45.487  26.415  28.306  1.00  0.00     0.049 A 
ATOM     50  N   UNL A   1      42.853  27.657  27.979  1.00  0.00    -0.248 NA
ATOM     51  C   UNL A   1      41.970  25.707  27.156  1.00  0.00     0.031 C 
ATOM     52  C   UNL A   1      45.364  27.387  29.386  1.00  0.00     0.029 A 
ATOM     53  N   UNL A   1      46.868  26.306  28.087  1.00  0.00    -0.354 N 
ATOM     54  C   UNL A   1      41.484  27.752  28.099  1.00  0.00     0.074 A 
ATOM     55  C   UNL A   1      40.986  26.552  27.472  1.00  0.00     0.031 C 
ATOM     56  C   UNL A   1      46.549  27.994  29.558  1.00  0.00     0.029 A 
ATOM     57  C   UNL A   1      47.423  27.539  28.491  1.00  0.00     0.049 A 
ATOM     58  H   UNL A   1      47.352  25.528  27.725  1.00  0.00     0.167 HD
ATOM     59  C   UNL A   1      40.962  28.768  28.848  1.00  0.00     0.037 A 
ATOM     60  C   UNL A   1      48.046  28.362  27.597  1.00  0.00     0.037 A 
ATOM     61  C   UNL A   1      42.007  29.736  29.202  1.00  0.00     0.049 A 
ATOM     62  C   UNL A   1      47.402  29.722  27.460  1.00  0.00     0.074 A 
ATOM     63  C   UNL A   1      42.747  29.948  30.355  1.00  0.00     0.029 A 
ATOM     64  N   UNL A   1      42.636  30.465  28.195  1.00  0.00    -0.354 N 
ATOM     65  N   UNL A   1      46.188  29.994  27.850  1.00  0.00    -0.248 NA
ATOM     66  C   UNL A   1      48.062  30.874  26.851  1.00  0.00     0.031 C 
ATOM     67  C   UNL A   1      43.871  30.746  30.017  1.00  0.00     0.029 A 
ATOM     68  C   UNL A   1      43.800  31.043  28.667  1.00  0.00     0.049 A 
ATOM     69  H   UNL A   1      42.299  30.555  27.276  1.00  0.00     0.167 HD
ATOM     70  C   UNL A   1      45.885  31.293  27.536  1.00  0.00     0.074 A 
ATOM     71  C   UNL A   1      47.100  31.809  26.934  1.00  0.00     0.031 C 
ATOM     72  C   UNL A   1      44.653  31.827  27.785  1.00  0.00     0.037 A 
BRANCH  59  73
ATOM     73  C   UNL A   1      39.595  28.735  29.520  1.00  0.00     0.057 A 
ATOM     74  C   UNL A   1      38.440  29.136  28.814  1.00  0.00     0.134 A 
ATOM     75  C   UNL A   1      39.341  28.421  30.868  1.00  0.00     0.134 A 
ATOM     76  F   UNL A   1      38.465  29.367  27.495  1.00  0.00    -0.206 F 
ATOM     77  C   UNL A   1      37.189  29.327  29.422  1.00  0.00     0.040 A 
ATOM     78  C   UNL A   1      38.105  28.637  31.498  1.00  0.00     0.040 A 
ATOM     79  F   UNL A   1      40.249  27.832  31.648  1.00  0.00    -0.206 F 
ATOM     80  C   UNL A   1      37.025  29.111  30.779  1.00  0.00     0.006 A 
ENDBRANCH  59  73
BRANCH  60  81
ATOM     81  C   UNL A   1      48.744  27.631  26.508  1.00  0.00     0.057 A 
ATOM     82  C   UNL A   1      48.076  27.452  25.284  1.00  0.00     0.134 A 
ATOM     83  C   UNL A   1      50.130  27.454  26.509  1.00  0.00     0.134 A 
ATOM     84  F   UNL A   1      46.744  27.608  25.215  1.00  0.00    -0.206 F 
ATOM     85  C   UNL A   1      48.766  27.219  24.092  1.00  0.00     0.040 A 
ATOM     86  C   UNL A   1      50.832  27.210  25.321  1.00  0.00     0.040 A 
ATOM     87  F   UNL A   1      50.840  27.630  27.632  1.00  0.00    -0.206 F 
ATOM     88  C   UNL A   1      50.154  27.132  24.104  1.00  0.00     0.006 A 
ENDBRANCH  60  81
BRANCH  72  89
ATOM     89  C   UNL A   1      44.155  33.161  27.289  1.00  0.00     0.057 A 
ATOM     90  C   UNL A   1      44.099  34.323  28.073  1.00  0.00     0.134 A 
ATOM     91  C   UNL A   1      43.854  33.347  25.921  1.00  0.00     0.134 A 
ATOM     92  F   UNL A   1      44.462  34.317  29.363  1.00  0.00    -0.206 F 
ATOM     93  C   UNL A   1      43.723  35.568  27.547  1.00  0.00     0.040 A 
ATOM     94  C   UNL A   1      43.529  34.592  25.375  1.00  0.00     0.040 A 
ATOM     95  F   UNL A   1      43.885  32.326  25.050  1.00  0.00    -0.206 F 
ATOM     96  C   UNL A   1      43.450  35.708  26.192  1.00  0.00     0.006 A 
ENDBRANCH  72  89
ENDBRANCH  46  47
ENDBRANCH  38  41
ENDBRANCH  36  37
ENDBRANCH  35  36
ENDBRANCH  34  35
ENDBRANCH   1  34
TORSDOF 16
ENDMDL
MODEL 3
REMARK VINA RESULT:     -12.3      3.691      9.634
REMARK SMILES Cc1c(C(=O)NCCCCCCNC(=O)c2ccc(-c3c4nc(c(-c5c(F)cccc5F)c5ccc([nH]5)c(-c5c(F)cccc5F)c5nc(c(-c6c(F)cccc6F)c6ccc3[nH]6)C=C5)C=C4)cc2)cccc1-n1c(C)cc(/C=C2/C(=O)NC(=S)N=C2O)c1C
REMARK SMILES IDX 9 1 8 2 7 3 6 4 4 5 5 6 3 8 1 9 2 10 73 11 70 12 72 13 71 14
REMARK SMILES IDX 74 15 75 16 89 17 76 18 77 19 78 20 90 21 79 22 80 23 81 24
REMARK SMILES IDX 87 25 82 26 83 27 86 28 84 29 85 31 88 32 10 34 11 35 12 36
REMARK SMILES IDX 13 37 14 38 15 40 16 41 17 42 69 43 18 44 68 45 19 46 20 47
REMARK SMILES IDX 21 48 62 49 22 50 67 51 61 52 63 53 23 54 66 55 60 56 59 57
REMARK SMILES IDX 24 59 50 60 33 61 49 62 34 63 37 64 48 65 64 66 35 67 36 68
REMARK SMILES IDX 47 70 65 71 38 72 25 73 26 74 31 75 27 76 28 77 30 78 32 79
REMARK SMILES IDX 29 80 51 81 52 82 57 83 53 84 54 85 56 86 58 87 55 88 39 89
REMARK SMILES IDX 40 90 45 91 41 92 42 93 44 94 46 95 43 96
REMARK H PARENT 6 7 83 30 88 33 13 39 63 58 37 69
REMARK Flexibility Score: inf
ROOT
ATOM      1  C   UNL A   1      34.746  22.476  25.443  1.00  0.00     0.002 C 
ENDROOT
BRANCH   1   2
ATOM      2  C   UNL A   1      33.853  23.327  24.531  1.00  0.00     0.021 C 
BRANCH   2   3
ATOM      3  C   UNL A   1      34.595  24.212  23.512  1.00  0.00     0.116 C 
BRANCH   3   4
ATOM      4  N   UNL A   1      33.654  24.789  22.573  1.00  0.00    -0.352 N 
ATOM      5  C   UNL A   1      32.614  25.673  22.621  1.00  0.00     0.251 C 
ATOM      6  O   UNL A   1      32.090  25.912  21.526  1.00  0.00    -0.269 OA
ATOM      7  H   UNL A   1      33.804  24.457  21.659  1.00  0.00     0.163 HD
BRANCH   5   8
ATOM      8  C   UNL A   1      32.084  26.410  23.816  1.00  0.00     0.044 A 
ATOM      9  C   UNL A   1      33.281  28.656  23.503  1.00  0.00     0.047 C 
ATOM     10  C   UNL A   1      32.387  27.717  24.255  1.00  0.00    -0.014 A 
ATOM     11  C   UNL A   1      31.848  28.138  25.503  1.00  0.00     0.049 A 
ATOM     12  C   UNL A   1      31.318  25.576  24.673  1.00  0.00     0.014 A 
ATOM     13  C   UNL A   1      31.099  27.295  26.331  1.00  0.00     0.027 A 
ATOM     14  C   UNL A   1      30.842  26.002  25.915  1.00  0.00     0.003 A 
BRANCH  11  15
ATOM     15  N   UNL A   1      32.155  29.412  26.033  1.00  0.00    -0.318 N 
ATOM     16  C   UNL A   1      31.472  30.579  25.749  1.00  0.00     0.020 A 
ATOM     17  C   UNL A   1      33.235  29.693  26.865  1.00  0.00     0.027 A 
ATOM     18  C   UNL A   1      30.355  30.660  24.769  1.00  0.00     0.065 C 
ATOM     19  C   UNL A   1      32.040  31.579  26.511  1.00  0.00     0.031 A 
ATOM     20  C   UNL A   1      33.137  31.027  27.228  1.00  0.00    -0.003 A 
ATOM     21  C   UNL A   1      34.252  28.642  27.176  1.00  0.00     0.065 C 
BRANCH  20  22
ATOM     22  C   UNL A   1      34.029  31.827  28.006  1.00  0.00     0.029 C 
ATOM     23  C   UNL A   1      33.942  33.080  28.491  1.00  0.00     0.102 C 
ATOM     24  C   UNL A   1      35.026  33.489  29.422  1.00  0.00     0.262 C 
ATOM     25  C   UNL A   1      32.903  34.095  28.327  1.00  0.00     0.226 C 
ATOM     26  O   UNL A   1      36.099  32.907  29.538  1.00  0.00    -0.269 OA
ATOM     27  N   UNL A   1      34.707  34.568  30.201  1.00  0.00    -0.297 N 
ATOM     28  N   UNL A   1      32.708  35.123  29.069  1.00  0.00    -0.184 NA
ATOM     29  C   UNL A   1      33.567  35.330  30.115  1.00  0.00     0.203 C 
ATOM     30  H   UNL A   1      35.359  34.824  30.894  1.00  0.00     0.172 HD
ATOM     31  S   UNL A   1      33.338  36.516  31.276  1.00  0.00    -0.038 S 
BRANCH  25  32
ATOM     32  O   UNL A   1      32.123  33.977  27.250  1.00  0.00    -0.493 OA
ATOM     33  H   UNL A   1      32.470  33.624  26.456  1.00  0.00     0.295 HD
ENDBRANCH  25  32
ENDBRANCH  20  22
ENDBRANCH  11  15
ENDBRANCH   5   8
ENDBRANCH   3   4
ENDBRANCH   2   3
ENDBRANCH   1   2
BRANCH   1  34
ATOM     34  C   UNL A   1      35.362  21.221  24.809  1.00  0.00     0.002 C 
BRANCH  34  35
ATOM     35  C   UNL A   1      36.878  21.260  24.614  1.00  0.00     0.021 C 
BRANCH  35  36
ATOM     36  C   UNL A   1      37.570  22.365  25.403  1.00  0.00     0.116 C 
BRANCH  36  37
ATOM     37  N   UNL A   1      38.880  21.970  25.908  1.00  0.00    -0.352 N 
ATOM     38  C   UNL A   1      39.868  22.728  26.521  1.00  0.00     0.251 C 
ATOM     39  H   UNL A   1      39.099  21.017  25.796  1.00  0.00     0.163 HD
ATOM     40  O   UNL A   1      40.910  22.216  26.866  1.00  0.00    -0.269 OA
BRANCH  38  41
ATOM     41  C   UNL A   1      39.564  24.132  26.892  1.00  0.00     0.039 A 
ATOM     42  C   UNL A   1      40.138  25.134  26.099  1.00  0.00     0.014 A 
ATOM     43  C   UNL A   1      38.972  24.446  28.110  1.00  0.00     0.014 A 
ATOM     44  C   UNL A   1      40.380  26.383  26.659  1.00  0.00     0.010 A 
ATOM     45  C   UNL A   1      39.291  25.651  28.701  1.00  0.00     0.010 A 
ATOM     46  C   UNL A   1      40.074  26.577  28.003  1.00  0.00    -0.014 A 
BRANCH  46  47
ATOM     47  C   UNL A   1      40.667  27.643  28.798  1.00  0.00     0.031 A 
ATOM     48  C   UNL A   1      39.893  28.855  29.118  1.00  0.00     0.074 A 
ATOM     49  C   UNL A   1      41.907  27.463  29.306  1.00  0.00     0.049 A 
ATOM     50  N   UNL A   1      40.409  29.974  29.494  1.00  0.00    -0.248 NA
ATOM     51  C   UNL A   1      38.447  28.913  28.960  1.00  0.00     0.031 C 
ATOM     52  C   UNL A   1      42.564  28.246  30.346  1.00  0.00     0.029 A 
ATOM     53  N   UNL A   1      42.917  26.629  28.803  1.00  0.00    -0.354 N 
ATOM     54  C   UNL A   1      39.381  30.798  29.899  1.00  0.00     0.074 A 
ATOM     55  C   UNL A   1      38.187  30.130  29.442  1.00  0.00     0.031 C 
ATOM     56  C   UNL A   1      43.892  28.082  30.236  1.00  0.00     0.029 A 
ATOM     57  C   UNL A   1      44.131  27.312  29.028  1.00  0.00     0.049 A 
ATOM     58  H   UNL A   1      42.802  25.747  28.380  1.00  0.00     0.167 HD
ATOM     59  C   UNL A   1      39.676  31.866  30.697  1.00  0.00     0.037 A 
ATOM     60  C   UNL A   1      44.913  27.726  27.988  1.00  0.00     0.037 A 
ATOM     61  C   UNL A   1      41.128  32.063  30.781  1.00  0.00     0.049 A 
ATOM     62  C   UNL A   1      45.124  29.222  27.935  1.00  0.00     0.074 A 
ATOM     63  C   UNL A   1      42.072  31.734  31.740  1.00  0.00     0.029 A 
ATOM     64  N   UNL A   1      41.840  32.405  29.634  1.00  0.00    -0.354 N 
ATOM     65  N   UNL A   1      44.373  30.084  28.562  1.00  0.00    -0.248 NA
ATOM     66  C   UNL A   1      46.176  29.864  27.151  1.00  0.00     0.031 C 
ATOM     67  C   UNL A   1      43.355  31.804  31.138  1.00  0.00     0.029 A 
ATOM     68  C   UNL A   1      43.194  32.203  29.822  1.00  0.00     0.049 A 
ATOM     69  H   UNL A   1      41.435  32.744  28.804  1.00  0.00     0.167 HD
ATOM     70  C   UNL A   1      44.790  31.356  28.265  1.00  0.00     0.074 A 
ATOM     71  C   UNL A   1      45.937  31.165  27.398  1.00  0.00     0.031 C 
ATOM     72  C   UNL A   1      44.143  32.457  28.747  1.00  0.00     0.037 A 
BRANCH  59  73
ATOM     73  C   UNL A   1      38.688  32.536  31.645  1.00  0.00     0.057 A 
ATOM     74  C   UNL A   1      38.465  33.929  31.579  1.00  0.00     0.134 A 
ATOM     75  C   UNL A   1      38.000  31.912  32.702  1.00  0.00     0.134 A 
ATOM     76  F   UNL A   1      38.946  34.673  30.576  1.00  0.00    -0.206 F 
ATOM     77  C   UNL A   1      37.734  34.641  32.544  1.00  0.00     0.040 A 
ATOM     78  C   UNL A   1      37.293  32.613  33.693  1.00  0.00     0.040 A 
ATOM     79  F   UNL A   1      37.916  30.586  32.816  1.00  0.00    -0.206 F 
ATOM     80  C   UNL A   1      37.173  33.988  33.627  1.00  0.00     0.006 A 
ENDBRANCH  59  73
BRANCH  60  81
ATOM     81  C   UNL A   1      44.852  26.827  26.808  1.00  0.00     0.057 A 
ATOM     82  C   UNL A   1      45.540  25.601  26.860  1.00  0.00     0.134 A 
ATOM     83  C   UNL A   1      43.864  26.960  25.829  1.00  0.00     0.134 A 
ATOM     84  F   UNL A   1      46.502  25.409  27.778  1.00  0.00    -0.206 F 
ATOM     85  C   UNL A   1      45.186  24.519  26.053  1.00  0.00     0.040 A 
ATOM     86  C   UNL A   1      43.506  25.884  25.006  1.00  0.00     0.040 A 
ATOM     87  F   UNL A   1      43.148  28.089  25.731  1.00  0.00    -0.206 F 
ATOM     88  C   UNL A   1      44.140  24.649  25.144  1.00  0.00     0.006 A 
ENDBRANCH  60  81
BRANCH  72  89
ATOM     89  C   UNL A   1      44.385  33.881  28.313  1.00  0.00     0.057 A 
ATOM     90  C   UNL A   1      45.075  34.833  29.078  1.00  0.00     0.134 A 
ATOM     91  C   UNL A   1      44.049  34.295  27.004  1.00  0.00     0.134 A 
ATOM     92  F   UNL A   1      45.548  34.542  30.298  1.00  0.00    -0.206 F 
ATOM     93  C   UNL A   1      45.366  36.118  28.597  1.00  0.00     0.040 A 
ATOM     94  C   UNL A   1      44.379  35.554  26.496  1.00  0.00     0.040 A 
ATOM     95  F   UNL A   1      43.403  33.481  26.154  1.00  0.00    -0.206 F 
ATOM     96  C   UNL A   1      45.030  36.477  27.298  1.00  0.00     0.006 A 
ENDBRANCH  72  89
ENDBRANCH  46  47
ENDBRANCH  38  41
ENDBRANCH  36  37
ENDBRANCH  35  36
ENDBRANCH  34  35
ENDBRANCH   1  34
TORSDOF 16
ENDMDL
