MODEL 1
REMARK VINA RESULT:     -11.1      0.000      0.000
REMARK SMILES CCC1(CC)CCN(c2ccc(/C=C/C(=O)NCCCCCCNC(=O)c3ccc(-c4c5nc(c(-c6c(F)cccc6F)c6ccc([nH]6)c(-c6c(F)cccc6F)c6nc(c(-c7c(F)cccc7F)c7ccc4[nH]7)C=C6)C=C5)cc3)cc2F)C1
REMARK SMILES IDX 20 1 19 2 18 3 17 4 15 5 16 6 14 8 13 9 12 10 9 11 10 12
REMARK SMILES IDX 82 13 11 14 81 15 83 16 8 17 3 18 6 19 84 20 7 21 2 22 1 23
REMARK SMILES IDX 4 24 5 25 21 26 22 27 23 28 24 29 25 30 26 32 27 33 28 34
REMARK SMILES IDX 80 35 29 36 79 37 30 38 31 39 32 40 73 41 33 42 78 43 72 44
REMARK SMILES IDX 74 45 34 46 77 47 71 48 70 49 35 51 61 52 44 53 60 54 45 55
REMARK SMILES IDX 48 56 59 57 75 58 46 59 47 60 58 62 76 63 49 64 36 65 37 66
REMARK SMILES IDX 42 67 38 68 39 69 41 70 43 71 40 72 62 73 63 74 68 75 64 76
REMARK SMILES IDX 65 77 67 78 69 79 66 80 50 81 51 82 56 83 52 84 53 85 55 86
REMARK SMILES IDX 57 87 54 88
REMARK H PARENT 17 7 24 31 74 50 48 61
REMARK Flexibility Score: inf
ROOT
ATOM      1  C   UNL A   1      35.509  33.650  29.250  1.00  0.00     0.002 C 
ENDROOT
BRANCH   1   2
ATOM      2  C   UNL A   1      34.655  32.382  29.379  1.00  0.00     0.021 C 
BRANCH   2   3
ATOM      3  C   UNL A   1      34.507  31.625  28.058  1.00  0.00     0.116 C 
BRANCH   3   4
ATOM      4  N   UNL A   1      33.211  31.908  27.472  1.00  0.00    -0.353 N 
ATOM      5  C   UNL A   1      32.308  31.105  26.858  1.00  0.00     0.243 C 
ATOM      6  O   UNL A   1      31.254  31.583  26.446  1.00  0.00    -0.270 OA
ATOM      7  H   UNL A   1      32.938  32.852  27.533  1.00  0.00     0.163 HD
BRANCH   5   8
ATOM      8  C   UNL A   1      32.516  29.643  26.768  1.00  0.00     0.072 C 
ATOM      9  C   UNL A   1      31.772  28.784  26.055  1.00  0.00     0.014 C 
BRANCH   9  10
ATOM     10  C   UNL A   1      32.046  27.344  25.998  1.00  0.00    -0.022 A 
ATOM     11  C   UNL A   1      32.548  24.547  26.077  1.00  0.00     0.073 A 
ATOM     12  C   UNL A   1      33.578  25.470  25.843  1.00  0.00     0.029 A 
ATOM     13  C   UNL A   1      31.256  25.067  26.243  1.00  0.00     0.147 A 
ATOM     14  C   UNL A   1      33.336  26.846  25.804  1.00  0.00     0.010 A 
ATOM     15  C   UNL A   1      31.003  26.439  26.213  1.00  0.00     0.049 A 
ATOM     16  F   UNL A   1      30.223  24.254  26.521  1.00  0.00    -0.205 F 
BRANCH  11  17
ATOM     17  N   UNL A   1      32.879  23.213  26.226  1.00  0.00    -0.369 N 
ATOM     18  C   UNL A   1      34.190  21.285  25.717  1.00  0.00    -0.011 C 
ATOM     19  C   UNL A   1      34.321  21.638  27.218  1.00  0.00     0.030 C 
ATOM     20  C   UNL A   1      33.665  22.620  25.142  1.00  0.00     0.123 C 
ATOM     21  C   UNL A   1      33.147  22.574  27.507  1.00  0.00     0.117 C 
BRANCH  18  22
ATOM     22  C   UNL A   1      33.166  20.131  25.529  1.00  0.00     0.005 C 
ATOM     23  C   UNL A   1      32.444  20.101  24.185  1.00  0.00     0.004 C 
ENDBRANCH  18  22
BRANCH  18  24
ATOM     24  C   UNL A   1      35.576  20.961  25.105  1.00  0.00     0.005 C 
ATOM     25  C   UNL A   1      36.734  21.784  25.653  1.00  0.00     0.004 C 
ENDBRANCH  18  24
ENDBRANCH  11  17
ENDBRANCH   9  10
ENDBRANCH   5   8
ENDBRANCH   3   4
ENDBRANCH   2   3
ENDBRANCH   1   2
BRANCH   1  26
ATOM     26  C   UNL A   1      34.990  34.667  28.226  1.00  0.00     0.002 C 
BRANCH  26  27
ATOM     27  C   UNL A   1      33.968  35.662  28.779  1.00  0.00     0.021 C 
BRANCH  27  28
ATOM     28  C   UNL A   1      32.925  35.026  29.689  1.00  0.00     0.116 C 
BRANCH  28  29
ATOM     29  N   UNL A   1      32.472  35.956  30.712  1.00  0.00    -0.352 N 
ATOM     30  C   UNL A   1      32.810  36.002  32.042  1.00  0.00     0.251 C 
ATOM     31  H   UNL A   1      31.837  36.646  30.410  1.00  0.00     0.163 HD
ATOM     32  O   UNL A   1      32.170  36.685  32.830  1.00  0.00    -0.269 OA
BRANCH  30  33
ATOM     33  C   UNL A   1      33.959  35.203  32.510  1.00  0.00     0.039 A 
ATOM     34  C   UNL A   1      33.743  33.915  33.002  1.00  0.00     0.014 A 
ATOM     35  C   UNL A   1      35.251  35.732  32.441  1.00  0.00     0.014 A 
ATOM     36  C   UNL A   1      34.836  33.131  33.377  1.00  0.00     0.010 A 
ATOM     37  C   UNL A   1      36.340  34.924  32.739  1.00  0.00     0.010 A 
ATOM     38  C   UNL A   1      36.144  33.620  33.218  1.00  0.00    -0.014 A 
BRANCH  38  39
ATOM     39  C   UNL A   1      37.332  32.804  33.567  1.00  0.00     0.031 A 
ATOM     40  C   UNL A   1      38.080  33.093  34.838  1.00  0.00     0.074 A 
ATOM     41  C   UNL A   1      37.786  31.873  32.707  1.00  0.00     0.049 A 
ATOM     42  N   UNL A   1      39.218  32.603  35.256  1.00  0.00    -0.248 NA
ATOM     43  C   UNL A   1      37.481  34.085  35.747  1.00  0.00     0.031 C 
ATOM     44  C   UNL A   1      37.158  31.520  31.432  1.00  0.00     0.029 A 
ATOM     45  N   UNL A   1      38.892  31.063  32.767  1.00  0.00    -0.354 N 
ATOM     46  C   UNL A   1      39.479  33.240  36.463  1.00  0.00     0.074 A 
ATOM     47  C   UNL A   1      38.412  34.189  36.685  1.00  0.00     0.031 C 
ATOM     48  C   UNL A   1      37.877  30.552  30.842  1.00  0.00     0.029 A 
ATOM     49  C   UNL A   1      39.043  30.252  31.668  1.00  0.00     0.049 A 
ATOM     50  H   UNL A   1      39.518  31.063  33.527  1.00  0.00     0.167 HD
ATOM     51  C   UNL A   1      40.505  33.030  37.320  1.00  0.00     0.037 A 
ATOM     52  C   UNL A   1      40.020  29.379  31.355  1.00  0.00     0.037 A 
ATOM     53  C   UNL A   1      41.547  32.062  37.105  1.00  0.00     0.049 A 
ATOM     54  C   UNL A   1      41.168  29.187  32.308  1.00  0.00     0.074 A 
ATOM     55  C   UNL A   1      42.605  31.744  37.936  1.00  0.00     0.029 A 
ATOM     56  N   UNL A   1      41.658  31.256  35.983  1.00  0.00    -0.354 N 
ATOM     57  N   UNL A   1      41.385  29.769  33.463  1.00  0.00    -0.248 NA
ATOM     58  C   UNL A   1      42.206  28.223  31.918  1.00  0.00     0.031 C 
ATOM     59  C   UNL A   1      43.387  30.783  37.294  1.00  0.00     0.029 A 
ATOM     60  C   UNL A   1      42.781  30.455  36.091  1.00  0.00     0.049 A 
ATOM     61  H   UNL A   1      41.032  31.254  35.223  1.00  0.00     0.167 HD
ATOM     62  C   UNL A   1      42.562  29.217  33.954  1.00  0.00     0.074 A 
ATOM     63  C   UNL A   1      43.013  28.253  32.971  1.00  0.00     0.031 C 
ATOM     64  C   UNL A   1      43.206  29.483  35.115  1.00  0.00     0.037 A 
BRANCH  51  65
ATOM     65  C   UNL A   1      40.549  33.850  38.576  1.00  0.00     0.057 A 
ATOM     66  C   UNL A   1      39.806  33.474  39.702  1.00  0.00     0.134 A 
ATOM     67  C   UNL A   1      41.267  35.051  38.646  1.00  0.00     0.134 A 
ATOM     68  F   UNL A   1      39.091  32.339  39.700  1.00  0.00    -0.206 F 
ATOM     69  C   UNL A   1      39.763  34.271  40.847  1.00  0.00     0.040 A 
ATOM     70  C   UNL A   1      41.256  35.842  39.797  1.00  0.00     0.040 A 
ATOM     71  F   UNL A   1      42.009  35.463  37.608  1.00  0.00    -0.206 F 
ATOM     72  C   UNL A   1      40.492  35.458  40.897  1.00  0.00     0.006 A 
ENDBRANCH  51  65
BRANCH  52  73
ATOM     73  C   UNL A   1      39.933  28.601  30.093  1.00  0.00     0.057 A 
ATOM     74  C   UNL A   1      39.219  27.398  30.016  1.00  0.00     0.134 A 
ATOM     75  C   UNL A   1      40.590  29.033  28.936  1.00  0.00     0.134 A 
ATOM     76  F   UNL A   1      38.573  26.924  31.092  1.00  0.00    -0.206 F 
ATOM     77  C   UNL A   1      39.177  26.645  28.842  1.00  0.00     0.040 A 
ATOM     78  C   UNL A   1      40.536  28.303  27.746  1.00  0.00     0.040 A 
ATOM     79  F   UNL A   1      41.276  30.185  28.941  1.00  0.00    -0.206 F 
ATOM     80  C   UNL A   1      39.834  27.100  27.700  1.00  0.00     0.006 A 
ENDBRANCH  52  73
BRANCH  64  81
ATOM     81  C   UNL A   1      44.446  28.701  35.431  1.00  0.00     0.057 A 
ATOM     82  C   UNL A   1      45.690  29.122  34.941  1.00  0.00     0.134 A 
ATOM     83  C   UNL A   1      44.395  27.476  36.105  1.00  0.00     0.134 A 
ATOM     84  F   UNL A   1      45.803  30.282  34.275  1.00  0.00    -0.206 F 
ATOM     85  C   UNL A   1      46.834  28.338  35.086  1.00  0.00     0.040 A 
ATOM     86  C   UNL A   1      45.540  26.695  36.280  1.00  0.00     0.040 A 
ATOM     87  F   UNL A   1      43.237  27.022  36.604  1.00  0.00    -0.206 F 
ATOM     88  C   UNL A   1      46.760  27.119  35.757  1.00  0.00     0.006 A 
ENDBRANCH  64  81
ENDBRANCH  38  39
ENDBRANCH  30  33
ENDBRANCH  28  29
ENDBRANCH  27  28
ENDBRANCH  26  27
ENDBRANCH   1  26
TORSDOF 17
ENDMDL
MODEL 2
REMARK VINA RESULT:     -10.6      4.477      8.917
REMARK SMILES CCC1(CC)CCN(c2ccc(/C=C/C(=O)NCCCCCCNC(=O)c3ccc(-c4c5nc(c(-c6c(F)cccc6F)c6ccc([nH]6)c(-c6c(F)cccc6F)c6nc(c(-c7c(F)cccc7F)c7ccc4[nH]7)C=C6)C=C5)cc3)cc2F)C1
REMARK SMILES IDX 20 1 19 2 18 3 17 4 15 5 16 6 14 8 13 9 12 10 9 11 10 12
REMARK SMILES IDX 82 13 11 14 81 15 83 16 8 17 3 18 6 19 84 20 7 21 2 22 1 23
REMARK SMILES IDX 4 24 5 25 21 26 22 27 23 28 24 29 25 30 26 32 27 33 28 34
REMARK SMILES IDX 80 35 29 36 79 37 30 38 31 39 32 40 73 41 33 42 78 43 72 44
REMARK SMILES IDX 74 45 34 46 77 47 71 48 70 49 35 51 61 52 44 53 60 54 45 55
REMARK SMILES IDX 48 56 59 57 75 58 46 59 47 60 58 62 76 63 49 64 36 65 37 66
REMARK SMILES IDX 42 67 38 68 39 69 41 70 43 71 40 72 62 73 63 74 68 75 64 76
REMARK SMILES IDX 65 77 67 78 69 79 66 80 50 81 51 82 56 83 52 84 53 85 55 86
REMARK SMILES IDX 57 87 54 88
REMARK H PARENT 17 7 24 31 74 50 48 61
REMARK Flexibility Score: inf
ROOT
ATOM      1  C   UNL A   1      36.216  32.865  32.162  1.00  0.00     0.002 C 
ENDROOT
BRANCH   1   2
ATOM      2  C   UNL A   1      37.564  32.360  31.630  1.00  0.00     0.021 C 
BRANCH   2   3
ATOM      3  C   UNL A   1      38.648  33.439  31.629  1.00  0.00     0.116 C 
BRANCH   3   4
ATOM      4  N   UNL A   1      38.842  33.942  32.975  1.00  0.00    -0.353 N 
ATOM      5  C   UNL A   1      39.435  33.390  34.063  1.00  0.00     0.243 C 
ATOM      6  O   UNL A   1      39.488  34.029  35.111  1.00  0.00    -0.270 OA
ATOM      7  H   UNL A   1      38.481  34.845  33.125  1.00  0.00     0.163 HD
BRANCH   5   8
ATOM      8  C   UNL A   1      40.115  32.080  33.986  1.00  0.00     0.072 C 
ATOM      9  C   UNL A   1      40.464  31.311  35.028  1.00  0.00     0.014 C 
BRANCH   9  10
ATOM     10  C   UNL A   1      41.124  30.009  34.877  1.00  0.00    -0.022 A 
ATOM     11  C   UNL A   1      42.230  27.411  34.551  1.00  0.00     0.073 A 
ATOM     12  C   UNL A   1      42.172  28.030  35.809  1.00  0.00     0.029 A 
ATOM     13  C   UNL A   1      41.742  28.144  33.459  1.00  0.00     0.147 A 
ATOM     14  C   UNL A   1      41.629  29.307  35.974  1.00  0.00     0.010 A 
ATOM     15  C   UNL A   1      41.190  29.417  33.613  1.00  0.00     0.049 A 
ATOM     16  F   UNL A   1      41.715  27.603  32.230  1.00  0.00    -0.205 F 
BRANCH  11  17
ATOM     17  N   UNL A   1      42.666  26.101  34.481  1.00  0.00    -0.369 N 
ATOM     18  C   UNL A   1      44.372  24.433  34.464  1.00  0.00    -0.011 C 
ATOM     19  C   UNL A   1      43.417  24.207  35.660  1.00  0.00     0.030 C 
ATOM     20  C   UNL A   1      44.071  25.908  34.117  1.00  0.00     0.123 C 
ATOM     21  C   UNL A   1      42.169  25.026  35.330  1.00  0.00     0.117 C 
BRANCH  18  22
ATOM     22  C   UNL A   1      43.999  23.476  33.297  1.00  0.00     0.005 C 
ATOM     23  C   UNL A   1      44.369  23.964  31.899  1.00  0.00     0.004 C 
ENDBRANCH  18  22
BRANCH  18  24
ATOM     24  C   UNL A   1      45.850  24.290  34.905  1.00  0.00     0.005 C 
ATOM     25  C   UNL A   1      46.445  22.899  34.735  1.00  0.00     0.004 C 
ENDBRANCH  18  24
ENDBRANCH  11  17
ENDBRANCH   9  10
ENDBRANCH   5   8
ENDBRANCH   3   4
ENDBRANCH   2   3
ENDBRANCH   1   2
BRANCH   1  26
ATOM     26  C   UNL A   1      34.992  32.332  31.407  1.00  0.00     0.002 C 
BRANCH  26  27
ATOM     27  C   UNL A   1      34.557  33.191  30.218  1.00  0.00     0.021 C 
BRANCH  27  28
ATOM     28  C   UNL A   1      35.062  32.678  28.875  1.00  0.00     0.116 C 
BRANCH  28  29
ATOM     29  N   UNL A   1      34.318  31.506  28.438  1.00  0.00    -0.352 N 
ATOM     30  C   UNL A   1      34.796  30.270  28.081  1.00  0.00     0.251 C 
ATOM     31  H   UNL A   1      33.340  31.615  28.392  1.00  0.00     0.163 HD
ATOM     32  O   UNL A   1      34.079  29.461  27.507  1.00  0.00    -0.269 OA
BRANCH  30  33
ATOM     33  C   UNL A   1      36.198  29.932  28.395  1.00  0.00     0.039 A 
ATOM     34  C   UNL A   1      36.509  29.387  29.641  1.00  0.00     0.014 A 
ATOM     35  C   UNL A   1      37.197  30.141  27.439  1.00  0.00     0.014 A 
ATOM     36  C   UNL A   1      37.823  29.000  29.913  1.00  0.00     0.010 A 
ATOM     37  C   UNL A   1      38.484  29.683  27.681  1.00  0.00     0.010 A 
ATOM     38  C   UNL A   1      38.812  29.116  28.922  1.00  0.00    -0.014 A 
BRANCH  38  39
ATOM     39  C   UNL A   1      40.210  28.679  29.157  1.00  0.00     0.031 A 
ATOM     40  C   UNL A   1      41.191  29.637  29.774  1.00  0.00     0.074 A 
ATOM     41  C   UNL A   1      40.615  27.465  28.739  1.00  0.00     0.049 A 
ATOM     42  N   UNL A   1      42.483  29.510  29.929  1.00  0.00    -0.248 NA
ATOM     43  C   UNL A   1      40.650  30.920  30.255  1.00  0.00     0.031 C 
ATOM     44  C   UNL A   1      39.760  26.459  28.106  1.00  0.00     0.029 A 
ATOM     45  N   UNL A   1      41.854  26.877  28.769  1.00  0.00    -0.354 N 
ATOM     46  C   UNL A   1      42.909  30.699  30.507  1.00  0.00     0.074 A 
ATOM     47  C   UNL A   1      41.752  31.556  30.625  1.00  0.00     0.031 C 
ATOM     48  C   UNL A   1      40.496  25.372  27.827  1.00  0.00     0.029 A 
ATOM     49  C   UNL A   1      41.882  25.621  28.211  1.00  0.00     0.049 A 
ATOM     50  H   UNL A   1      42.649  27.313  29.154  1.00  0.00     0.167 HD
ATOM     51  C   UNL A   1      44.152  31.033  30.924  1.00  0.00     0.037 A 
ATOM     52  C   UNL A   1      42.913  24.775  28.017  1.00  0.00     0.037 A 
ATOM     53  C   UNL A   1      45.293  30.162  30.830  1.00  0.00     0.049 A 
ATOM     54  C   UNL A   1      44.292  25.182  28.459  1.00  0.00     0.074 A 
ATOM     55  C   UNL A   1      46.585  30.392  31.266  1.00  0.00     0.029 A 
ATOM     56  N   UNL A   1      45.277  28.895  30.266  1.00  0.00    -0.354 N 
ATOM     57  N   UNL A   1      44.677  26.295  29.036  1.00  0.00    -0.248 NA
ATOM     58  C   UNL A   1      45.380  24.222  28.223  1.00  0.00     0.031 C 
ATOM     59  C   UNL A   1      47.363  29.287  30.918  1.00  0.00     0.029 A 
ATOM     60  C   UNL A   1      46.543  28.341  30.323  1.00  0.00     0.049 A 
ATOM     61  H   UNL A   1      44.484  28.457  29.881  1.00  0.00     0.167 HD
ATOM     62  C   UNL A   1      46.040  26.155  29.266  1.00  0.00     0.074 A 
ATOM     63  C   UNL A   1      46.416  24.850  28.765  1.00  0.00     0.031 C 
ATOM     64  C   UNL A   1      46.898  27.029  29.842  1.00  0.00     0.037 A 
BRANCH  51  65
ATOM     65  C   UNL A   1      44.348  32.390  31.533  1.00  0.00     0.057 A 
ATOM     66  C   UNL A   1      44.786  33.468  30.753  1.00  0.00     0.134 A 
ATOM     67  C   UNL A   1      44.175  32.613  32.906  1.00  0.00     0.134 A 
ATOM     68  F   UNL A   1      44.977  33.322  29.434  1.00  0.00    -0.206 F 
ATOM     69  C   UNL A   1      45.061  34.714  31.319  1.00  0.00     0.040 A 
ATOM     70  C   UNL A   1      44.418  33.862  33.478  1.00  0.00     0.040 A 
ATOM     71  F   UNL A   1      43.746  31.627  33.707  1.00  0.00    -0.206 F 
ATOM     72  C   UNL A   1      44.874  34.914  32.685  1.00  0.00     0.006 A 
ENDBRANCH  51  65
BRANCH  52  73
ATOM     73  C   UNL A   1      42.667  23.447  27.399  1.00  0.00     0.057 A 
ATOM     74  C   UNL A   1      42.759  23.250  26.015  1.00  0.00     0.134 A 
ATOM     75  C   UNL A   1      42.305  22.345  28.182  1.00  0.00     0.134 A 
ATOM     76  F   UNL A   1      43.094  24.268  25.206  1.00  0.00    -0.206 F 
ATOM     77  C   UNL A   1      42.483  22.013  25.431  1.00  0.00     0.040 A 
ATOM     78  C   UNL A   1      42.051  21.095  27.614  1.00  0.00     0.040 A 
ATOM     79  F   UNL A   1      42.216  22.465  29.515  1.00  0.00    -0.206 F 
ATOM     80  C   UNL A   1      42.131  20.929  26.233  1.00  0.00     0.006 A 
ENDBRANCH  52  73
BRANCH  64  81
ATOM     81  C   UNL A   1      48.327  26.607  30.016  1.00  0.00     0.057 A 
ATOM     82  C   UNL A   1      48.732  25.951  31.187  1.00  0.00     0.134 A 
ATOM     83  C   UNL A   1      49.318  26.956  29.092  1.00  0.00     0.134 A 
ATOM     84  F   UNL A   1      47.831  25.600  32.117  1.00  0.00    -0.206 F 
ATOM     85  C   UNL A   1      50.076  25.683  31.445  1.00  0.00     0.040 A 
ATOM     86  C   UNL A   1      50.664  26.669  29.328  1.00  0.00     0.040 A 
ATOM     87  F   UNL A   1      48.994  27.577  27.949  1.00  0.00    -0.206 F 
ATOM     88  C   UNL A   1      51.047  26.044  30.514  1.00  0.00     0.006 A 
ENDBRANCH  64  81
ENDBRANCH  38  39
ENDBRANCH  30  33
ENDBRANCH  28  29
ENDBRANCH  27  28
ENDBRANCH  26  27
ENDBRANCH   1  26
TORSDOF 17
ENDMDL
MODEL 3
REMARK VINA RESULT:     -10.5      5.456      9.868
REMARK SMILES CCC1(CC)CCN(c2ccc(/C=C/C(=O)NCCCCCCNC(=O)c3ccc(-c4c5nc(c(-c6c(F)cccc6F)c6ccc([nH]6)c(-c6c(F)cccc6F)c6nc(c(-c7c(F)cccc7F)c7ccc4[nH]7)C=C6)C=C5)cc3)cc2F)C1
REMARK SMILES IDX 20 1 19 2 18 3 17 4 15 5 16 6 14 8 13 9 12 10 9 11 10 12
REMARK SMILES IDX 82 13 11 14 81 15 83 16 8 17 3 18 6 19 84 20 7 21 2 22 1 23
REMARK SMILES IDX 4 24 5 25 21 26 22 27 23 28 24 29 25 30 26 32 27 33 28 34
REMARK SMILES IDX 80 35 29 36 79 37 30 38 31 39 32 40 73 41 33 42 78 43 72 44
REMARK SMILES IDX 74 45 34 46 77 47 71 48 70 49 35 51 61 52 44 53 60 54 45 55
REMARK SMILES IDX 48 56 59 57 75 58 46 59 47 60 58 62 76 63 49 64 36 65 37 66
REMARK SMILES IDX 42 67 38 68 39 69 41 70 43 71 40 72 62 73 63 74 68 75 64 76
REMARK SMILES IDX 65 77 67 78 69 79 66 80 50 81 51 82 56 83 52 84 53 85 55 86
REMARK SMILES IDX 57 87 54 88
REMARK H PARENT 17 7 24 31 74 50 48 61
REMARK Flexibility Score: inf
ROOT
ATOM      1  C   UNL A   1      35.477  35.100  33.639  1.00  0.00     0.002 C 
ENDROOT
BRANCH   1   2
ATOM      2  C   UNL A   1      34.385  36.015  33.069  1.00  0.00     0.021 C 
BRANCH   2   3
ATOM      3  C   UNL A   1      33.698  35.428  31.835  1.00  0.00     0.116 C 
BRANCH   3   4
ATOM      4  N   UNL A   1      33.651  36.421  30.779  1.00  0.00    -0.353 N 
ATOM      5  C   UNL A   1      33.360  36.315  29.459  1.00  0.00     0.243 C 
ATOM      6  O   UNL A   1      33.376  37.322  28.754  1.00  0.00    -0.270 OA
ATOM      7  H   UNL A   1      33.868  37.334  31.074  1.00  0.00     0.163 HD
BRANCH   5   8
ATOM      8  C   UNL A   1      32.918  35.033  28.869  1.00  0.00     0.072 C 
ATOM      9  C   UNL A   1      33.719  34.059  28.412  1.00  0.00     0.014 C 
BRANCH   9  10
ATOM     10  C   UNL A   1      33.210  32.801  27.853  1.00  0.00    -0.022 A 
ATOM     11  C   UNL A   1      32.359  30.378  26.634  1.00  0.00     0.073 A 
ATOM     12  C   UNL A   1      31.582  31.544  26.567  1.00  0.00     0.029 A 
ATOM     13  C   UNL A   1      33.561  30.456  27.353  1.00  0.00     0.147 A 
ATOM     14  C   UNL A   1      31.997  32.739  27.164  1.00  0.00     0.010 A 
ATOM     15  C   UNL A   1      33.989  31.645  27.949  1.00  0.00     0.049 A 
ATOM     16  F   UNL A   1      34.385  29.399  27.423  1.00  0.00    -0.205 F 
BRANCH  11  17
ATOM     17  N   UNL A   1      31.948  29.270  25.917  1.00  0.00    -0.369 N 
ATOM     18  C   UNL A   1      32.113  27.752  24.083  1.00  0.00    -0.011 C 
ATOM     19  C   UNL A   1      32.314  26.998  25.419  1.00  0.00     0.030 C 
ATOM     20  C   UNL A   1      32.383  29.209  24.521  1.00  0.00     0.123 C 
ATOM     21  C   UNL A   1      31.771  27.943  26.492  1.00  0.00     0.117 C 
BRANCH  18  22
ATOM     22  C   UNL A   1      30.655  27.560  23.578  1.00  0.00     0.005 C 
ATOM     23  C   UNL A   1      30.219  28.493  22.451  1.00  0.00     0.004 C 
ENDBRANCH  18  22
BRANCH  18  24
ATOM     24  C   UNL A   1      33.171  27.314  23.039  1.00  0.00     0.005 C 
ATOM     25  C   UNL A   1      34.026  28.439  22.474  1.00  0.00     0.004 C 
ENDBRANCH  18  24
ENDBRANCH  11  17
ENDBRANCH   9  10
ENDBRANCH   5   8
ENDBRANCH   3   4
ENDBRANCH   2   3
ENDBRANCH   1   2
BRANCH   1  26
ATOM     26  C   UNL A   1      36.267  34.316  32.585  1.00  0.00     0.002 C 
BRANCH  26  27
ATOM     27  C   UNL A   1      37.538  33.647  33.111  1.00  0.00     0.021 C 
BRANCH  27  28
ATOM     28  C   UNL A   1      37.986  32.446  32.287  1.00  0.00     0.116 C 
BRANCH  28  29
ATOM     29  N   UNL A   1      36.894  31.507  32.080  1.00  0.00    -0.352 N 
ATOM     30  C   UNL A   1      36.839  30.427  31.233  1.00  0.00     0.251 C 
ATOM     31  H   UNL A   1      36.086  31.666  32.619  1.00  0.00     0.163 HD
ATOM     32  O   UNL A   1      35.776  29.874  30.989  1.00  0.00    -0.269 OA
BRANCH  30  33
ATOM     33  C   UNL A   1      38.089  29.947  30.612  1.00  0.00     0.039 A 
ATOM     34  C   UNL A   1      38.312  30.179  29.254  1.00  0.00     0.014 A 
ATOM     35  C   UNL A   1      39.044  29.284  31.388  1.00  0.00     0.014 A 
ATOM     36  C   UNL A   1      39.525  29.790  28.681  1.00  0.00     0.010 A 
ATOM     37  C   UNL A   1      40.279  28.971  30.837  1.00  0.00     0.010 A 
ATOM     38  C   UNL A   1      40.529  29.212  29.477  1.00  0.00    -0.014 A 
BRANCH  38  39
ATOM     39  C   UNL A   1      41.845  28.822  28.916  1.00  0.00     0.031 A 
ATOM     40  C   UNL A   1      42.067  27.405  28.467  1.00  0.00     0.074 A 
ATOM     41  C   UNL A   1      42.857  29.711  28.892  1.00  0.00     0.049 A 
ATOM     42  N   UNL A   1      43.175  26.823  28.088  1.00  0.00    -0.248 NA
ATOM     43  C   UNL A   1      40.892  26.517  28.472  1.00  0.00     0.031 C 
ATOM     44  C   UNL A   1      42.767  31.107  29.323  1.00  0.00     0.029 A 
ATOM     45  N   UNL A   1      44.164  29.566  28.504  1.00  0.00    -0.354 N 
ATOM     46  C   UNL A   1      42.834  25.502  27.829  1.00  0.00     0.074 A 
ATOM     47  C   UNL A   1      41.431  25.352  28.144  1.00  0.00     0.031 C 
ATOM     48  C   UNL A   1      43.963  31.695  29.156  1.00  0.00     0.029 A 
ATOM     49  C   UNL A   1      44.914  30.707  28.657  1.00  0.00     0.049 A 
ATOM     50  H   UNL A   1      44.531  28.723  28.149  1.00  0.00     0.167 HD
ATOM     51  C   UNL A   1      43.618  24.511  27.346  1.00  0.00     0.037 A 
ATOM     52  C   UNL A   1      46.226  30.926  28.436  1.00  0.00     0.037 A 
ATOM     53  C   UNL A   1      45.006  24.676  27.006  1.00  0.00     0.049 A 
ATOM     54  C   UNL A   1      47.084  29.799  27.930  1.00  0.00     0.074 A 
ATOM     55  C   UNL A   1      45.873  23.743  26.468  1.00  0.00     0.029 A 
ATOM     56  N   UNL A   1      45.725  25.850  27.169  1.00  0.00    -0.354 N 
ATOM     57  N   UNL A   1      46.743  28.563  27.654  1.00  0.00    -0.248 NA
ATOM     58  C   UNL A   1      48.508  30.092  27.706  1.00  0.00     0.031 C 
ATOM     59  C   UNL A   1      47.131  24.336  26.353  1.00  0.00     0.029 A 
ATOM     60  C   UNL A   1      47.033  25.657  26.760  1.00  0.00     0.049 A 
ATOM     61  H   UNL A   1      45.361  26.693  27.522  1.00  0.00     0.167 HD
ATOM     62  C   UNL A   1      47.896  27.942  27.191  1.00  0.00     0.074 A 
ATOM     63  C   UNL A   1      48.948  28.937  27.223  1.00  0.00     0.031 C 
ATOM     64  C   UNL A   1      48.064  26.665  26.775  1.00  0.00     0.037 A 
BRANCH  51  65
ATOM     65  C   UNL A   1      42.996  23.160  27.141  1.00  0.00     0.057 A 
ATOM     66  C   UNL A   1      42.524  22.774  25.880  1.00  0.00     0.134 A 
ATOM     67  C   UNL A   1      42.795  22.272  28.206  1.00  0.00     0.134 A 
ATOM     68  F   UNL A   1      42.679  23.579  24.818  1.00  0.00    -0.206 F 
ATOM     69  C   UNL A   1      41.862  21.561  25.689  1.00  0.00     0.040 A 
ATOM     70  C   UNL A   1      42.160  21.043  28.022  1.00  0.00     0.040 A 
ATOM     71  F   UNL A   1      43.233  22.576  29.437  1.00  0.00    -0.206 F 
ATOM     72  C   UNL A   1      41.680  20.690  26.761  1.00  0.00     0.006 A 
ENDBRANCH  51  65
BRANCH  52  73
ATOM     73  C   UNL A   1      46.794  32.279  28.666  1.00  0.00     0.057 A 
ATOM     74  C   UNL A   1      47.204  32.699  29.938  1.00  0.00     0.134 A 
ATOM     75  C   UNL A   1      46.915  33.196  27.616  1.00  0.00     0.134 A 
ATOM     76  F   UNL A   1      47.107  31.871  30.989  1.00  0.00    -0.206 F 
ATOM     77  C   UNL A   1      47.695  33.986  30.160  1.00  0.00     0.040 A 
ATOM     78  C   UNL A   1      47.429  34.479  27.819  1.00  0.00     0.040 A 
ATOM     79  F   UNL A   1      46.556  32.847  26.371  1.00  0.00    -0.206 F 
ATOM     80  C   UNL A   1      47.812  34.879  29.097  1.00  0.00     0.006 A 
ENDBRANCH  52  73
BRANCH  64  81
ATOM     81  C   UNL A   1      49.418  26.258  26.271  1.00  0.00     0.057 A 
ATOM     82  C   UNL A   1      50.314  25.588  27.116  1.00  0.00     0.134 A 
ATOM     83  C   UNL A   1      49.879  26.636  25.006  1.00  0.00     0.134 A 
ATOM     84  F   UNL A   1      49.936  25.210  28.347  1.00  0.00    -0.206 F 
ATOM     85  C   UNL A   1      51.629  25.334  26.729  1.00  0.00     0.040 A 
ATOM     86  C   UNL A   1      51.186  26.362  24.597  1.00  0.00     0.040 A 
ATOM     87  F   UNL A   1      49.068  27.272  24.148  1.00  0.00    -0.206 F 
ATOM     88  C   UNL A   1      52.068  25.723  25.466  1.00  0.00     0.006 A 
ENDBRANCH  64  81
ENDBRANCH  38  39
ENDBRANCH  30  33
ENDBRANCH  28  29
ENDBRANCH  27  28
ENDBRANCH  26  27
ENDBRANCH   1  26
TORSDOF 17
ENDMDL
