MODEL 1
REMARK VINA RESULT:     -12.1      0.000      0.000
REMARK SMILES CN(C(=O)C[C@@H]1SC(=O)N(c2ccccc2)C1=O)c1ccccc1C(=O)NCCCCCCNC(=O)c1ccc(-c2c3nc(c(-c4c(F)cccc4F)c4ccc([nH]4)c(-c4c(F)cccc4F)c4nc(c(-c5c(F)cccc5F)c5ccc2[nH]5)C=C4)C=C3)cc1
REMARK SMILES IDX 29 1 28 2 27 3 25 4 26 5 24 7 19 8 20 9 21 10 23 11 22 12
REMARK SMILES IDX 2 13 1 14 3 15 4 16 5 17 6 18 7 19 17 20 8 21 10 22 18 23
REMARK SMILES IDX 9 24 11 25 12 26 16 27 13 28 15 29 14 30 30 31 31 32 32 33
REMARK SMILES IDX 33 34 34 35 35 36 36 38 37 39 38 40 90 41 39 42 89 43 40 44
REMARK SMILES IDX 41 45 42 46 83 47 43 48 88 49 82 50 84 51 44 52 87 53 81 54
REMARK SMILES IDX 80 55 45 57 71 58 54 59 70 60 55 61 58 62 69 63 85 64 56 65
REMARK SMILES IDX 57 66 68 68 86 69 59 70 46 71 47 72 52 73 48 74 49 75 51 76
REMARK SMILES IDX 53 77 50 78 72 79 73 80 78 81 74 82 75 83 77 84 79 85 76 86
REMARK SMILES IDX 60 87 61 88 66 89 62 90 63 91 65 92 67 93 64 94
REMARK H PARENT 27 6 34 37 84 56 58 67
REMARK Flexibility Score: inf
ROOT
ATOM      1  C   UNL A   1      33.644  29.707  27.219  1.00  0.00     0.021 C 
ENDROOT
BRANCH   1   2
ATOM      2  C   UNL A   1      34.282  28.518  26.504  1.00  0.00     0.116 C 
BRANCH   2   3
ATOM      3  N   UNL A   1      34.077  28.641  25.083  1.00  0.00    -0.352 N 
ATOM      4  C   UNL A   1      33.159  28.299  24.139  1.00  0.00     0.253 C 
ATOM      5  O   UNL A   1      33.481  28.714  23.015  1.00  0.00    -0.269 OA
ATOM      6  H   UNL A   1      34.832  29.118  24.669  1.00  0.00     0.163 HD
BRANCH   4   7
ATOM      7  C   UNL A   1      31.836  27.593  24.257  1.00  0.00     0.063 A 
ATOM      8  C   UNL A   1      31.440  26.384  24.873  1.00  0.00     0.056 A 
ATOM      9  C   UNL A   1      30.106  25.923  24.682  1.00  0.00     0.027 A 
ATOM     10  C   UNL A   1      29.193  26.571  23.857  1.00  0.00     0.002 A 
ATOM     11  C   UNL A   1      30.852  28.246  23.454  1.00  0.00     0.016 A 
ATOM     12  C   UNL A   1      29.568  27.743  23.236  1.00  0.00     0.001 A 
BRANCH   8  13
ATOM     13  N   UNL A   1      32.285  25.526  25.667  1.00  0.00    -0.315 N 
ATOM     14  C   UNL A   1      31.506  24.590  26.486  1.00  0.00     0.153 C 
BRANCH  13  15
ATOM     15  C   UNL A   1      33.412  24.947  25.026  1.00  0.00     0.228 C 
ATOM     16  O   UNL A   1      34.582  25.292  25.201  1.00  0.00    -0.274 OA
BRANCH  15  17
ATOM     17  C   UNL A   1      33.149  23.744  24.143  1.00  0.00     0.125 C 
BRANCH  17  18
ATOM     18  C   UNL A   1      33.807  22.488  24.698  1.00  0.00     0.156 C 
ATOM     19  S   UNL A   1      35.587  22.260  24.517  1.00  0.00    -0.050 SA
ATOM     20  C   UNL A   1      33.221  21.163  24.249  1.00  0.00     0.248 C 
ATOM     21  C   UNL A   1      35.424  20.544  24.800  1.00  0.00     0.293 C 
ATOM     22  N   UNL A   1      34.124  20.143  24.557  1.00  0.00    -0.240 N 
ATOM     23  O   UNL A   1      32.059  21.060  23.870  1.00  0.00    -0.273 OA
ATOM     24  O   UNL A   1      36.392  19.884  25.146  1.00  0.00    -0.261 OA
BRANCH  22  25
ATOM     25  C   UNL A   1      33.740  18.773  24.663  1.00  0.00     0.053 A 
ATOM     26  C   UNL A   1      32.911  18.315  25.695  1.00  0.00     0.027 A 
ATOM     27  C   UNL A   1      34.200  17.833  23.724  1.00  0.00     0.027 A 
ATOM     28  C   UNL A   1      32.524  16.972  25.759  1.00  0.00     0.002 A 
ATOM     29  C   UNL A   1      33.832  16.489  23.799  1.00  0.00     0.002 A 
ATOM     30  C   UNL A   1      32.984  16.060  24.811  1.00  0.00     0.000 A 
ENDBRANCH  22  25
ENDBRANCH  17  18
ENDBRANCH  15  17
ENDBRANCH  13  15
ENDBRANCH   8  13
ENDBRANCH   4   7
ENDBRANCH   2   3
ENDBRANCH   1   2
BRANCH   1  31
ATOM     31  C   UNL A   1      32.117  29.741  27.228  1.00  0.00     0.002 C 
BRANCH  31  32
ATOM     32  C   UNL A   1      31.510  30.775  26.278  1.00  0.00     0.002 C 
BRANCH  32  33
ATOM     33  C   UNL A   1      31.385  32.201  26.834  1.00  0.00     0.021 C 
BRANCH  33  34
ATOM     34  C   UNL A   1      32.672  33.027  26.860  1.00  0.00     0.116 C 
BRANCH  34  35
ATOM     35  N   UNL A   1      32.519  34.269  27.594  1.00  0.00    -0.352 N 
ATOM     36  C   UNL A   1      33.133  34.720  28.733  1.00  0.00     0.251 C 
ATOM     37  H   UNL A   1      31.862  34.893  27.207  1.00  0.00     0.163 HD
ATOM     38  O   UNL A   1      32.706  35.732  29.283  1.00  0.00    -0.269 OA
BRANCH  36  39
ATOM     39  C   UNL A   1      34.285  34.003  29.328  1.00  0.00     0.039 A 
ATOM     40  C   UNL A   1      35.574  34.420  28.979  1.00  0.00     0.014 A 
ATOM     41  C   UNL A   1      34.117  32.895  30.162  1.00  0.00     0.014 A 
ATOM     42  C   UNL A   1      36.690  33.762  29.501  1.00  0.00     0.010 A 
ATOM     43  C   UNL A   1      35.231  32.276  30.733  1.00  0.00     0.010 A 
ATOM     44  C   UNL A   1      36.529  32.700  30.405  1.00  0.00    -0.014 A 
BRANCH  44  45
ATOM     45  C   UNL A   1      37.710  32.036  31.013  1.00  0.00     0.031 A 
ATOM     46  C   UNL A   1      38.436  30.941  30.283  1.00  0.00     0.074 A 
ATOM     47  C   UNL A   1      38.102  32.385  32.254  1.00  0.00     0.049 A 
ATOM     48  N   UNL A   1      39.461  30.225  30.673  1.00  0.00    -0.248 NA
ATOM     49  C   UNL A   1      37.928  30.588  28.949  1.00  0.00     0.031 C 
ATOM     50  C   UNL A   1      37.453  33.395  33.089  1.00  0.00     0.029 A 
ATOM     51  N   UNL A   1      39.129  31.915  33.033  1.00  0.00    -0.354 N 
ATOM     52  C   UNL A   1      39.713  29.330  29.641  1.00  0.00     0.074 A 
ATOM     53  C   UNL A   1      38.704  29.563  28.629  1.00  0.00     0.031 C 
ATOM     54  C   UNL A   1      38.101  33.475  34.262  1.00  0.00     0.029 A 
ATOM     55  C   UNL A   1      39.191  32.503  34.272  1.00  0.00     0.049 A 
ATOM     56  H   UNL A   1      39.761  31.222  32.732  1.00  0.00     0.167 HD
ATOM     57  C   UNL A   1      40.703  28.412  29.536  1.00  0.00     0.037 A 
ATOM     58  C   UNL A   1      40.025  32.281  35.305  1.00  0.00     0.037 A 
ATOM     59  C   UNL A   1      41.716  28.190  30.537  1.00  0.00     0.049 A 
ATOM     60  C   UNL A   1      41.122  31.265  35.167  1.00  0.00     0.074 A 
ATOM     61  C   UNL A   1      42.802  27.334  30.491  1.00  0.00     0.029 A 
ATOM     62  N   UNL A   1      41.761  28.824  31.770  1.00  0.00    -0.354 N 
ATOM     63  N   UNL A   1      41.397  30.482  34.153  1.00  0.00    -0.248 NA
ATOM     64  C   UNL A   1      42.029  31.109  36.313  1.00  0.00     0.031 C 
ATOM     65  C   UNL A   1      43.479  27.416  31.714  1.00  0.00     0.029 A 
ATOM     66  C   UNL A   1      42.839  28.357  32.505  1.00  0.00     0.049 A 
ATOM     67  H   UNL A   1      41.120  29.505  32.078  1.00  0.00     0.167 HD
ATOM     68  C   UNL A   1      42.517  29.752  34.529  1.00  0.00     0.074 A 
ATOM     69  C   UNL A   1      42.879  30.198  35.860  1.00  0.00     0.031 C 
ATOM     70  C   UNL A   1      43.185  28.800  33.832  1.00  0.00     0.037 A 
BRANCH  57  71
ATOM     71  C   UNL A   1      40.729  27.570  28.293  1.00  0.00     0.057 A 
ATOM     72  C   UNL A   1      41.458  27.947  27.158  1.00  0.00     0.134 A 
ATOM     73  C   UNL A   1      40.019  26.364  28.232  1.00  0.00     0.134 A 
ATOM     74  F   UNL A   1      42.152  29.096  27.148  1.00  0.00    -0.206 F 
ATOM     75  C   UNL A   1      41.451  27.176  25.994  1.00  0.00     0.040 A 
ATOM     76  C   UNL A   1      40.026  25.570  27.084  1.00  0.00     0.040 A 
ATOM     77  F   UNL A   1      39.306  25.938  29.286  1.00  0.00    -0.206 F 
ATOM     78  C   UNL A   1      40.735  25.981  25.957  1.00  0.00     0.006 A 
ENDBRANCH  57  71
BRANCH  58  79
ATOM     79  C   UNL A   1      39.854  33.059  36.557  1.00  0.00     0.057 A 
ATOM     80  C   UNL A   1      40.587  34.228  36.788  1.00  0.00     0.134 A 
ATOM     81  C   UNL A   1      38.927  32.672  37.533  1.00  0.00     0.134 A 
ATOM     82  F   UNL A   1      41.500  34.639  35.896  1.00  0.00    -0.206 F 
ATOM     83  C   UNL A   1      40.411  34.983  37.948  1.00  0.00     0.040 A 
ATOM     84  C   UNL A   1      38.726  33.428  38.688  1.00  0.00     0.040 A 
ATOM     85  F   UNL A   1      38.188  31.567  37.363  1.00  0.00    -0.206 F 
ATOM     86  C   UNL A   1      39.471  34.586  38.899  1.00  0.00     0.006 A 
ENDBRANCH  58  79
BRANCH  70  87
ATOM     87  C   UNL A   1      44.383  28.182  34.491  1.00  0.00     0.057 A 
ATOM     88  C   UNL A   1      44.285  27.004  35.243  1.00  0.00     0.134 A 
ATOM     89  C   UNL A   1      45.654  28.752  34.344  1.00  0.00     0.134 A 
ATOM     90  F   UNL A   1      43.095  26.416  35.435  1.00  0.00    -0.206 F 
ATOM     91  C   UNL A   1      45.407  26.424  35.839  1.00  0.00     0.040 A 
ATOM     92  C   UNL A   1      46.786  28.169  34.915  1.00  0.00     0.040 A 
ATOM     93  F   UNL A   1      45.817  29.877  33.631  1.00  0.00    -0.206 F 
ATOM     94  C   UNL A   1      46.663  27.004  35.670  1.00  0.00     0.006 A 
ENDBRANCH  70  87
ENDBRANCH  44  45
ENDBRANCH  36  39
ENDBRANCH  34  35
ENDBRANCH  33  34
ENDBRANCH  32  33
ENDBRANCH  31  32
ENDBRANCH   1  31
TORSDOF 18
ENDMDL
MODEL 2
REMARK VINA RESULT:     -12.0      0.953      6.105
REMARK SMILES CN(C(=O)C[C@@H]1SC(=O)N(c2ccccc2)C1=O)c1ccccc1C(=O)NCCCCCCNC(=O)c1ccc(-c2c3nc(c(-c4c(F)cccc4F)c4ccc([nH]4)c(-c4c(F)cccc4F)c4nc(c(-c5c(F)cccc5F)c5ccc2[nH]5)C=C4)C=C3)cc1
REMARK SMILES IDX 29 1 28 2 27 3 25 4 26 5 24 7 19 8 20 9 21 10 23 11 22 12
REMARK SMILES IDX 2 13 1 14 3 15 4 16 5 17 6 18 7 19 17 20 8 21 10 22 18 23
REMARK SMILES IDX 9 24 11 25 12 26 16 27 13 28 15 29 14 30 30 31 31 32 32 33
REMARK SMILES IDX 33 34 34 35 35 36 36 38 37 39 38 40 90 41 39 42 89 43 40 44
REMARK SMILES IDX 41 45 42 46 83 47 43 48 88 49 82 50 84 51 44 52 87 53 81 54
REMARK SMILES IDX 80 55 45 57 71 58 54 59 70 60 55 61 58 62 69 63 85 64 56 65
REMARK SMILES IDX 57 66 68 68 86 69 59 70 46 71 47 72 52 73 48 74 49 75 51 76
REMARK SMILES IDX 53 77 50 78 72 79 73 80 78 81 74 82 75 83 77 84 79 85 76 86
REMARK SMILES IDX 60 87 61 88 66 89 62 90 63 91 65 92 67 93 64 94
REMARK H PARENT 27 6 34 37 84 56 58 67
REMARK Flexibility Score: inf
ROOT
ATOM      1  C   UNL A   1      32.882  28.508  26.459  1.00  0.00     0.021 C 
ENDROOT
BRANCH   1   2
ATOM      2  C   UNL A   1      33.964  29.196  25.629  1.00  0.00     0.116 C 
BRANCH   2   3
ATOM      3  N   UNL A   1      33.960  28.662  24.290  1.00  0.00    -0.352 N 
ATOM      4  C   UNL A   1      33.072  28.272  23.337  1.00  0.00     0.253 C 
ATOM      5  O   UNL A   1      33.645  27.916  22.296  1.00  0.00    -0.269 OA
ATOM      6  H   UNL A   1      34.882  28.545  23.967  1.00  0.00     0.163 HD
BRANCH   4   7
ATOM      7  C   UNL A   1      31.567  28.277  23.326  1.00  0.00     0.063 A 
ATOM      8  C   UNL A   1      30.597  27.364  23.799  1.00  0.00     0.056 A 
ATOM      9  C   UNL A   1      29.226  27.611  23.506  1.00  0.00     0.027 A 
ATOM     10  C   UNL A   1      28.801  28.672  22.712  1.00  0.00     0.002 A 
ATOM     11  C   UNL A   1      31.081  29.375  22.553  1.00  0.00     0.016 A 
ATOM     12  C   UNL A   1      29.736  29.562  22.230  1.00  0.00     0.001 A 
BRANCH   8  13
ATOM     13  N   UNL A   1      30.866  26.154  24.536  1.00  0.00    -0.315 N 
ATOM     14  C   UNL A   1      29.887  25.932  25.606  1.00  0.00     0.153 C 
BRANCH  13  15
ATOM     15  C   UNL A   1      31.189  24.992  23.786  1.00  0.00     0.228 C 
ATOM     16  O   UNL A   1      30.404  24.371  23.068  1.00  0.00    -0.274 OA
BRANCH  15  17
ATOM     17  C   UNL A   1      32.640  24.558  23.795  1.00  0.00     0.125 C 
BRANCH  17  18
ATOM     18  C   UNL A   1      32.870  23.391  24.746  1.00  0.00     0.156 C 
ATOM     19  S   UNL A   1      34.088  23.544  26.068  1.00  0.00    -0.050 SA
ATOM     20  C   UNL A   1      33.187  22.052  24.109  1.00  0.00     0.248 C 
ATOM     21  C   UNL A   1      34.164  21.808  26.237  1.00  0.00     0.293 C 
ATOM     22  N   UNL A   1      33.698  21.197  25.088  1.00  0.00    -0.240 N 
ATOM     23  O   UNL A   1      32.841  21.776  22.966  1.00  0.00    -0.273 OA
ATOM     24  O   UNL A   1      34.600  21.309  27.264  1.00  0.00    -0.261 OA
BRANCH  22  25
ATOM     25  C   UNL A   1      33.707  19.777  24.949  1.00  0.00     0.053 A 
ATOM     26  C   UNL A   1      34.862  19.078  24.576  1.00  0.00     0.027 A 
ATOM     27  C   UNL A   1      32.535  19.035  25.177  1.00  0.00     0.027 A 
ATOM     28  C   UNL A   1      34.852  17.682  24.476  1.00  0.00     0.002 A 
ATOM     29  C   UNL A   1      32.518  17.645  25.057  1.00  0.00     0.002 A 
ATOM     30  C   UNL A   1      33.681  16.966  24.717  1.00  0.00     0.000 A 
ENDBRANCH  22  25
ENDBRANCH  17  18
ENDBRANCH  15  17
ENDBRANCH  13  15
ENDBRANCH   8  13
ENDBRANCH   4   7
ENDBRANCH   2   3
ENDBRANCH   1   2
BRANCH   1  31
ATOM     31  C   UNL A   1      31.766  29.411  26.981  1.00  0.00     0.002 C 
BRANCH  31  32
ATOM     32  C   UNL A   1      31.478  30.624  26.096  1.00  0.00     0.002 C 
BRANCH  32  33
ATOM     33  C   UNL A   1      31.403  31.976  26.819  1.00  0.00     0.021 C 
BRANCH  33  34
ATOM     34  C   UNL A   1      32.710  32.767  26.901  1.00  0.00     0.116 C 
BRANCH  34  35
ATOM     35  N   UNL A   1      32.553  34.024  27.609  1.00  0.00    -0.352 N 
ATOM     36  C   UNL A   1      33.200  34.521  28.710  1.00  0.00     0.251 C 
ATOM     37  H   UNL A   1      31.866  34.621  27.233  1.00  0.00     0.163 HD
ATOM     38  O   UNL A   1      32.769  35.536  29.251  1.00  0.00    -0.269 OA
BRANCH  36  39
ATOM     39  C   UNL A   1      34.393  33.849  29.276  1.00  0.00     0.039 A 
ATOM     40  C   UNL A   1      34.196  32.862  30.247  1.00  0.00     0.014 A 
ATOM     41  C   UNL A   1      35.692  34.220  28.918  1.00  0.00     0.014 A 
ATOM     42  C   UNL A   1      35.292  32.213  30.822  1.00  0.00     0.010 A 
ATOM     43  C   UNL A   1      36.785  33.529  29.447  1.00  0.00     0.010 A 
ATOM     44  C   UNL A   1      36.596  32.522  30.407  1.00  0.00    -0.014 A 
BRANCH  44  45
ATOM     45  C   UNL A   1      37.763  31.795  30.968  1.00  0.00     0.031 A 
ATOM     46  C   UNL A   1      38.291  32.126  32.336  1.00  0.00     0.074 A 
ATOM     47  C   UNL A   1      38.386  30.863  30.221  1.00  0.00     0.049 A 
ATOM     48  N   UNL A   1      39.319  31.622  32.971  1.00  0.00    -0.248 NA
ATOM     49  C   UNL A   1      37.584  33.180  33.077  1.00  0.00     0.031 C 
ATOM     50  C   UNL A   1      38.006  30.482  28.860  1.00  0.00     0.029 A 
ATOM     51  N   UNL A   1      39.479  30.079  30.495  1.00  0.00    -0.354 N 
ATOM     52  C   UNL A   1      39.391  32.303  34.178  1.00  0.00     0.074 A 
ATOM     53  C   UNL A   1      38.330  33.289  34.167  1.00  0.00     0.031 C 
ATOM     54  C   UNL A   1      38.847  29.534  28.419  1.00  0.00     0.029 A 
ATOM     55  C   UNL A   1      39.841  29.261  29.454  1.00  0.00     0.049 A 
ATOM     56  H   UNL A   1      39.957  30.103  31.355  1.00  0.00     0.167 HD
ATOM     57  C   UNL A   1      40.248  32.115  35.210  1.00  0.00     0.037 A 
ATOM     58  C   UNL A   1      40.864  28.392  29.339  1.00  0.00     0.037 A 
ATOM     59  C   UNL A   1      41.294  31.124  35.228  1.00  0.00     0.049 A 
ATOM     60  C   UNL A   1      41.798  28.191  30.496  1.00  0.00     0.074 A 
ATOM     61  C   UNL A   1      42.167  30.809  36.255  1.00  0.00     0.029 A 
ATOM     62  N   UNL A   1      41.616  30.295  34.163  1.00  0.00    -0.354 N 
ATOM     63  N   UNL A   1      41.805  28.786  31.664  1.00  0.00    -0.248 NA
ATOM     64  C   UNL A   1      42.861  27.191  30.324  1.00  0.00     0.031 C 
ATOM     65  C   UNL A   1      43.045  29.819  35.796  1.00  0.00     0.029 A 
ATOM     66  C   UNL A   1      42.691  29.488  34.498  1.00  0.00     0.049 A 
ATOM     67  H   UNL A   1      41.149  30.283  33.297  1.00  0.00     0.167 HD
ATOM     68  C   UNL A   1      42.859  28.224  32.372  1.00  0.00     0.074 A 
ATOM     69  C   UNL A   1      43.459  27.227  31.508  1.00  0.00     0.031 C 
ATOM     70  C   UNL A   1      43.288  28.507  33.627  1.00  0.00     0.037 A 
BRANCH  57  71
ATOM     71  C   UNL A   1      40.091  33.012  36.404  1.00  0.00     0.057 A 
ATOM     72  C   UNL A   1      39.154  32.748  37.410  1.00  0.00     0.134 A 
ATOM     73  C   UNL A   1      40.893  34.152  36.552  1.00  0.00     0.134 A 
ATOM     74  F   UNL A   1      38.348  31.678  37.325  1.00  0.00    -0.206 F 
ATOM     75  C   UNL A   1      38.991  33.605  38.501  1.00  0.00     0.040 A 
ATOM     76  C   UNL A   1      40.758  35.001  37.652  1.00  0.00     0.040 A 
ATOM     77  F   UNL A   1      41.817  34.460  35.630  1.00  0.00    -0.206 F 
ATOM     78  C   UNL A   1      39.797  34.734  38.625  1.00  0.00     0.006 A 
ENDBRANCH  57  71
BRANCH  58  79
ATOM     79  C   UNL A   1      41.036  27.636  28.074  1.00  0.00     0.057 A 
ATOM     80  C   UNL A   1      40.448  26.380  27.896  1.00  0.00     0.134 A 
ATOM     81  C   UNL A   1      41.763  28.170  27.002  1.00  0.00     0.134 A 
ATOM     82  F   UNL A   1      39.754  25.813  28.893  1.00  0.00    -0.206 F 
ATOM     83  C   UNL A   1      40.579  25.676  26.698  1.00  0.00     0.040 A 
ATOM     84  C   UNL A   1      41.885  27.486  25.792  1.00  0.00     0.040 A 
ATOM     85  F   UNL A   1      42.341  29.374  27.109  1.00  0.00    -0.206 F 
ATOM     86  C   UNL A   1      41.294  26.233  25.639  1.00  0.00     0.006 A 
ENDBRANCH  58  79
BRANCH  70  87
ATOM     87  C   UNL A   1      44.457  27.722  34.145  1.00  0.00     0.057 A 
ATOM     88  C   UNL A   1      45.770  28.195  34.033  1.00  0.00     0.134 A 
ATOM     89  C   UNL A   1      44.264  26.496  34.795  1.00  0.00     0.134 A 
ATOM     90  F   UNL A   1      46.024  29.355  33.410  1.00  0.00    -0.206 F 
ATOM     91  C   UNL A   1      46.852  27.468  34.533  1.00  0.00     0.040 A 
ATOM     92  C   UNL A   1      45.334  25.771  35.319  1.00  0.00     0.040 A 
ATOM     93  F   UNL A   1      43.029  25.989  34.940  1.00  0.00    -0.206 F 
ATOM     94  C   UNL A   1      46.635  26.255  35.185  1.00  0.00     0.006 A 
ENDBRANCH  70  87
ENDBRANCH  44  45
ENDBRANCH  36  39
ENDBRANCH  34  35
ENDBRANCH  33  34
ENDBRANCH  32  33
ENDBRANCH  31  32
ENDBRANCH   1  31
TORSDOF 18
ENDMDL
MODEL 3
REMARK VINA RESULT:     -11.9      1.902      2.787
REMARK SMILES CN(C(=O)C[C@@H]1SC(=O)N(c2ccccc2)C1=O)c1ccccc1C(=O)NCCCCCCNC(=O)c1ccc(-c2c3nc(c(-c4c(F)cccc4F)c4ccc([nH]4)c(-c4c(F)cccc4F)c4nc(c(-c5c(F)cccc5F)c5ccc2[nH]5)C=C4)C=C3)cc1
REMARK SMILES IDX 29 1 28 2 27 3 25 4 26 5 24 7 19 8 20 9 21 10 23 11 22 12
REMARK SMILES IDX 2 13 1 14 3 15 4 16 5 17 6 18 7 19 17 20 8 21 10 22 18 23
REMARK SMILES IDX 9 24 11 25 12 26 16 27 13 28 15 29 14 30 30 31 31 32 32 33
REMARK SMILES IDX 33 34 34 35 35 36 36 38 37 39 38 40 90 41 39 42 89 43 40 44
REMARK SMILES IDX 41 45 42 46 83 47 43 48 88 49 82 50 84 51 44 52 87 53 81 54
REMARK SMILES IDX 80 55 45 57 71 58 54 59 70 60 55 61 58 62 69 63 85 64 56 65
REMARK SMILES IDX 57 66 68 68 86 69 59 70 46 71 47 72 52 73 48 74 49 75 51 76
REMARK SMILES IDX 53 77 50 78 72 79 73 80 78 81 74 82 75 83 77 84 79 85 76 86
REMARK SMILES IDX 60 87 61 88 66 89 62 90 63 91 65 92 67 93 64 94
REMARK H PARENT 27 6 34 37 84 56 58 67
REMARK Flexibility Score: inf
ROOT
ATOM      1  C   UNL A   1      32.873  28.477  26.470  1.00  0.00     0.021 C 
ENDROOT
BRANCH   1   2
ATOM      2  C   UNL A   1      33.972  29.168  25.666  1.00  0.00     0.116 C 
BRANCH   2   3
ATOM      3  N   UNL A   1      33.977  28.662  24.317  1.00  0.00    -0.352 N 
ATOM      4  C   UNL A   1      33.095  28.276  23.356  1.00  0.00     0.253 C 
ATOM      5  O   UNL A   1      33.673  27.952  22.307  1.00  0.00    -0.269 OA
ATOM      6  H   UNL A   1      34.901  28.568  23.990  1.00  0.00     0.163 HD
BRANCH   4   7
ATOM      7  C   UNL A   1      31.590  28.254  23.346  1.00  0.00     0.063 A 
ATOM      8  C   UNL A   1      30.637  27.313  23.796  1.00  0.00     0.056 A 
ATOM      9  C   UNL A   1      29.261  27.543  23.510  1.00  0.00     0.027 A 
ATOM     10  C   UNL A   1      28.817  28.616  22.744  1.00  0.00     0.002 A 
ATOM     11  C   UNL A   1      31.084  29.363  22.602  1.00  0.00     0.016 A 
ATOM     12  C   UNL A   1      29.735  29.534  22.285  1.00  0.00     0.001 A 
BRANCH   8  13
ATOM     13  N   UNL A   1      30.928  26.089  24.502  1.00  0.00    -0.315 N 
ATOM     14  C   UNL A   1      30.005  25.866  25.621  1.00  0.00     0.153 C 
BRANCH  13  15
ATOM     15  C   UNL A   1      31.193  24.934  23.721  1.00  0.00     0.228 C 
ATOM     16  O   UNL A   1      30.335  24.205  23.220  1.00  0.00    -0.274 OA
BRANCH  15  17
ATOM     17  C   UNL A   1      32.646  24.650  23.397  1.00  0.00     0.125 C 
BRANCH  17  18
ATOM     18  C   UNL A   1      33.217  23.562  24.295  1.00  0.00     0.156 C 
ATOM     19  S   UNL A   1      32.925  23.629  26.073  1.00  0.00    -0.050 SA
ATOM     20  C   UNL A   1      34.707  23.302  24.178  1.00  0.00     0.248 C 
ATOM     21  C   UNL A   1      34.263  22.545  26.363  1.00  0.00     0.293 C 
ATOM     22  N   UNL A   1      35.121  22.547  25.278  1.00  0.00    -0.240 N 
ATOM     23  O   UNL A   1      35.338  23.570  23.161  1.00  0.00    -0.273 OA
ATOM     24  O   UNL A   1      34.341  21.933  27.417  1.00  0.00    -0.261 OA
BRANCH  22  25
ATOM     25  C   UNL A   1      36.326  21.784  25.286  1.00  0.00     0.053 A 
ATOM     26  C   UNL A   1      37.555  22.347  25.652  1.00  0.00     0.027 A 
ATOM     27  C   UNL A   1      36.309  20.430  24.909  1.00  0.00     0.027 A 
ATOM     28  C   UNL A   1      38.718  21.568  25.681  1.00  0.00     0.002 A 
ATOM     29  C   UNL A   1      37.472  19.658  24.917  1.00  0.00     0.002 A 
ATOM     30  C   UNL A   1      38.676  20.225  25.314  1.00  0.00     0.000 A 
ENDBRANCH  22  25
ENDBRANCH  17  18
ENDBRANCH  15  17
ENDBRANCH  13  15
ENDBRANCH   8  13
ENDBRANCH   4   7
ENDBRANCH   2   3
ENDBRANCH   1   2
BRANCH   1  31
ATOM     31  C   UNL A   1      31.753  29.380  26.984  1.00  0.00     0.002 C 
BRANCH  31  32
ATOM     32  C   UNL A   1      31.471  30.593  26.096  1.00  0.00     0.002 C 
BRANCH  32  33
ATOM     33  C   UNL A   1      31.360  31.941  26.822  1.00  0.00     0.021 C 
BRANCH  33  34
ATOM     34  C   UNL A   1      32.634  32.787  26.866  1.00  0.00     0.116 C 
BRANCH  34  35
ATOM     35  N   UNL A   1      32.455  34.020  27.609  1.00  0.00    -0.352 N 
ATOM     36  C   UNL A   1      33.145  34.533  28.677  1.00  0.00     0.251 C 
ATOM     37  H   UNL A   1      31.712  34.584  27.292  1.00  0.00     0.163 HD
ATOM     38  O   UNL A   1      32.694  35.511  29.268  1.00  0.00    -0.269 OA
BRANCH  36  39
ATOM     39  C   UNL A   1      34.407  33.919  29.150  1.00  0.00     0.039 A 
ATOM     40  C   UNL A   1      35.594  34.260  28.492  1.00  0.00     0.014 A 
ATOM     41  C   UNL A   1      34.431  32.970  30.176  1.00  0.00     0.014 A 
ATOM     42  C   UNL A   1      36.806  33.694  28.892  1.00  0.00     0.010 A 
ATOM     43  C   UNL A   1      35.651  32.450  30.615  1.00  0.00     0.010 A 
ATOM     44  C   UNL A   1      36.850  32.802  29.976  1.00  0.00    -0.014 A 
BRANCH  44  45
ATOM     45  C   UNL A   1      38.142  32.243  30.446  1.00  0.00     0.031 A 
ATOM     46  C   UNL A   1      38.681  30.964  29.870  1.00  0.00     0.074 A 
ATOM     47  C   UNL A   1      38.812  32.862  31.437  1.00  0.00     0.049 A 
ATOM     48  N   UNL A   1      39.772  30.310  30.183  1.00  0.00    -0.248 NA
ATOM     49  C   UNL A   1      37.877  30.324  28.819  1.00  0.00     0.031 C 
ATOM     50  C   UNL A   1      38.373  34.081  32.117  1.00  0.00     0.029 A 
ATOM     51  N   UNL A   1      39.995  32.541  32.055  1.00  0.00    -0.354 N 
ATOM     52  C   UNL A   1      39.778  29.177  29.380  1.00  0.00     0.074 A 
ATOM     53  C   UNL A   1      38.560  29.210  28.598  1.00  0.00     0.031 C 
ATOM     54  C   UNL A   1      39.277  34.410  33.053  1.00  0.00     0.029 A 
ATOM     55  C   UNL A   1      40.342  33.411  33.059  1.00  0.00     0.049 A 
ATOM     56  H   UNL A   1      40.541  31.762  31.803  1.00  0.00     0.167 HD
ATOM     57  C   UNL A   1      40.720  28.208  29.287  1.00  0.00     0.037 A 
ATOM     58  C   UNL A   1      41.396  33.403  33.898  1.00  0.00     0.037 A 
ATOM     59  C   UNL A   1      41.939  28.182  30.054  1.00  0.00     0.049 A 
ATOM     60  C   UNL A   1      42.433  32.325  33.774  1.00  0.00     0.074 A 
ATOM     61  C   UNL A   1      42.987  27.281  29.979  1.00  0.00     0.029 A 
ATOM     62  N   UNL A   1      42.269  29.095  31.045  1.00  0.00    -0.354 N 
ATOM     63  N   UNL A   1      42.467  31.303  32.954  1.00  0.00    -0.248 NA
ATOM     64  C   UNL A   1      43.583  32.404  34.685  1.00  0.00     0.031 C 
ATOM     65  C   UNL A   1      43.931  27.623  30.956  1.00  0.00     0.029 A 
ATOM     66  C   UNL A   1      43.491  28.763  31.609  1.00  0.00     0.049 A 
ATOM     67  H   UNL A   1      41.715  29.864  31.310  1.00  0.00     0.167 HD
ATOM     68  C   UNL A   1      43.646  30.627  33.237  1.00  0.00     0.074 A 
ATOM     69  C   UNL A   1      44.308  31.364  34.295  1.00  0.00     0.031 C 
ATOM     70  C   UNL A   1      44.136  29.497  32.668  1.00  0.00     0.037 A 
BRANCH  57  71
ATOM     71  C   UNL A   1      40.457  27.086  28.323  1.00  0.00     0.057 A 
ATOM     72  C   UNL A   1      39.596  26.027  28.637  1.00  0.00     0.134 A 
ATOM     73  C   UNL A   1      41.067  27.069  27.062  1.00  0.00     0.134 A 
ATOM     74  F   UNL A   1      38.987  25.978  29.832  1.00  0.00    -0.206 F 
ATOM     75  C   UNL A   1      39.382  24.971  27.749  1.00  0.00     0.040 A 
ATOM     76  C   UNL A   1      40.840  26.033  26.155  1.00  0.00     0.040 A 
ATOM     77  F   UNL A   1      41.897  28.057  26.693  1.00  0.00    -0.206 F 
ATOM     78  C   UNL A   1      40.002  24.975  26.502  1.00  0.00     0.006 A 
ENDBRANCH  57  71
BRANCH  58  79
ATOM     79  C   UNL A   1      41.519  34.472  34.919  1.00  0.00     0.057 A 
ATOM     80  C   UNL A   1      41.043  34.287  36.221  1.00  0.00     0.134 A 
ATOM     81  C   UNL A   1      42.147  35.689  34.624  1.00  0.00     0.134 A 
ATOM     82  F   UNL A   1      40.420  33.149  36.556  1.00  0.00    -0.206 F 
ATOM     83  C   UNL A   1      41.182  35.277  37.196  1.00  0.00     0.040 A 
ATOM     84  C   UNL A   1      42.311  36.678  35.595  1.00  0.00     0.040 A 
ATOM     85  F   UNL A   1      42.632  35.920  33.396  1.00  0.00    -0.206 F 
ATOM     86  C   UNL A   1      41.825  36.474  36.885  1.00  0.00     0.006 A 
ENDBRANCH  58  79
BRANCH  70  87
ATOM     87  C   UNL A   1      45.457  28.994  33.172  1.00  0.00     0.057 A 
ATOM     88  C   UNL A   1      46.669  29.434  32.628  1.00  0.00     0.134 A 
ATOM     89  C   UNL A   1      45.517  28.084  34.236  1.00  0.00     0.134 A 
ATOM     90  F   UNL A   1      46.681  30.293  31.598  1.00  0.00    -0.206 F 
ATOM     91  C   UNL A   1      47.896  28.975  33.113  1.00  0.00     0.040 A 
ATOM     92  C   UNL A   1      46.736  27.636  34.745  1.00  0.00     0.040 A 
ATOM     93  F   UNL A   1      44.391  27.627  34.806  1.00  0.00    -0.206 F 
ATOM     94  C   UNL A   1      47.931  28.078  34.180  1.00  0.00     0.006 A 
ENDBRANCH  70  87
ENDBRANCH  44  45
ENDBRANCH  36  39
ENDBRANCH  34  35
ENDBRANCH  33  34
ENDBRANCH  32  33
ENDBRANCH  31  32
ENDBRANCH   1  31
TORSDOF 18
ENDMDL
