MODEL 1
REMARK VINA RESULT:     -12.5      0.000      0.000
REMARK SMILES COc1cc2c(CC(=O)NCCCCCCNC(=O)c3ccc(-c4c5nc(c(-c6c(F)cccc6F)c6ccc([nH]6)c(-c6c(F)cccc6F)c6nc(c(-c7c(F)cccc7F)c7ccc4[nH]7)C=C6)C=C5)cc3)c(C)n(C(=O)c3ccc(Cl)cc3)c2cc1Cl
REMARK SMILES IDX 13 1 12 2 11 3 10 4 8 5 9 6 7 8 6 9 3 10 4 11 88 12 5 13
REMARK SMILES IDX 87 14 89 15 86 16 74 17 76 18 75 19 2 20 1 21 77 22 78 23
REMARK SMILES IDX 79 24 80 25 85 26 81 27 84 28 82 29 83 30 14 31 15 32 16 33
REMARK SMILES IDX 17 34 18 35 19 37 20 38 21 39 73 40 22 41 72 42 23 43 24 44
REMARK SMILES IDX 25 45 66 46 26 47 71 48 65 49 67 50 27 51 70 52 64 53 63 54
REMARK SMILES IDX 28 56 54 57 37 58 53 59 38 60 41 61 52 62 68 63 39 64 40 65
REMARK SMILES IDX 51 67 69 68 42 69 29 70 30 71 35 72 31 73 32 74 34 75 36 76
REMARK SMILES IDX 33 77 55 78 56 79 61 80 57 81 58 82 60 83 62 84 59 85 43 86
REMARK SMILES IDX 44 87 49 88 45 89 46 90 48 91 50 92 47 93
REMARK H PARENT 10 7 17 36 67 55 41 66
REMARK Flexibility Score: inf
ROOT
ATOM      1  C   UNL A   1      31.659  27.401  26.758  1.00  0.00     0.002 C 
ENDROOT
BRANCH   1   2
ATOM      2  C   UNL A   1      30.990  27.077  25.416  1.00  0.00     0.021 C 
BRANCH   2   3
ATOM      3  C   UNL A   1      29.955  25.956  25.503  1.00  0.00     0.116 C 
BRANCH   3   4
ATOM      4  N   UNL A   1      30.347  24.954  26.474  1.00  0.00    -0.356 N 
ATOM      5  C   UNL A   1      30.886  23.718  26.254  1.00  0.00     0.224 C 
ATOM      6  O   UNL A   1      31.088  22.987  27.226  1.00  0.00    -0.275 OA
ATOM      7  H   UNL A   1      30.207  25.196  27.417  1.00  0.00     0.163 HD
BRANCH   5   8
ATOM      8  C   UNL A   1      31.286  23.296  24.850  1.00  0.00     0.138 C 
BRANCH   8   9
ATOM      9  C   UNL A   1      32.669  22.712  24.750  1.00  0.00    -0.009 A 
ATOM     10  C   UNL A   1      32.851  18.880  24.686  1.00  0.00     0.138 A 
ATOM     11  C   UNL A   1      32.235  20.139  24.690  1.00  0.00     0.058 A 
ATOM     12  C   UNL A   1      34.240  18.801  24.731  1.00  0.00     0.085 A 
ATOM     13  C   UNL A   1      33.003  21.327  24.702  1.00  0.00     0.008 A 
ATOM     14  C   UNL A   1      35.015  19.966  24.788  1.00  0.00     0.051 A 
ATOM     15  Cl  UNL A   1      35.120  17.316  24.615  1.00  0.00    -0.080 Cl
ATOM     16  C   UNL A   1      34.397  21.230  24.697  1.00  0.00     0.058 A 
ATOM     17  C   UNL A   1      33.866  23.421  24.758  1.00  0.00     0.028 A 
ATOM     18  N   UNL A   1      34.915  22.523  24.526  1.00  0.00    -0.280 N 
ATOM     19  C   UNL A   1      34.053  24.897  24.923  1.00  0.00     0.065 C 
BRANCH  10  20
ATOM     20  O   UNL A   1      31.987  17.825  24.547  1.00  0.00    -0.495 OA
ATOM     21  C   UNL A   1      32.150  16.781  25.501  1.00  0.00     0.278 C 
ENDBRANCH  10  20
BRANCH  18  22
ATOM     22  C   UNL A   1      36.247  22.868  24.146  1.00  0.00     0.262 C 
ATOM     23  O   UNL A   1      36.451  23.333  23.033  1.00  0.00    -0.268 OA
BRANCH  22  24
ATOM     24  C   UNL A   1      37.437  22.681  24.998  1.00  0.00     0.040 A 
ATOM     25  C   UNL A   1      38.124  21.460  25.007  1.00  0.00     0.015 A 
ATOM     26  C   UNL A   1      37.824  23.730  25.838  1.00  0.00     0.015 A 
ATOM     27  C   UNL A   1      39.156  21.265  25.928  1.00  0.00     0.021 A 
ATOM     28  C   UNL A   1      38.863  23.531  26.749  1.00  0.00     0.021 A 
ATOM     29  C   UNL A   1      39.510  22.296  26.803  1.00  0.00     0.041 A 
ATOM     30  Cl  UNL A   1      40.742  22.032  27.974  1.00  0.00    -0.084 Cl
ENDBRANCH  22  24
ENDBRANCH  18  22
ENDBRANCH   8   9
ENDBRANCH   5   8
ENDBRANCH   3   4
ENDBRANCH   2   3
ENDBRANCH   1   2
BRANCH   1  31
ATOM     31  C   UNL A   1      32.646  28.573  26.722  1.00  0.00     0.002 C 
BRANCH  31  32
ATOM     32  C   UNL A   1      34.127  28.182  26.739  1.00  0.00     0.021 C 
BRANCH  32  33
ATOM     33  C   UNL A   1      35.087  29.347  26.997  1.00  0.00     0.116 C 
BRANCH  33  34
ATOM     34  N   UNL A   1      35.181  29.724  28.391  1.00  0.00    -0.352 N 
ATOM     35  C   UNL A   1      36.187  29.758  29.317  1.00  0.00     0.251 C 
ATOM     36  H   UNL A   1      34.319  30.026  28.760  1.00  0.00     0.163 HD
ATOM     37  O   UNL A   1      35.888  30.208  30.426  1.00  0.00    -0.269 OA
BRANCH  35  38
ATOM     38  C   UNL A   1      37.574  29.259  29.100  1.00  0.00     0.039 A 
ATOM     39  C   UNL A   1      38.212  28.275  29.852  1.00  0.00     0.014 A 
ATOM     40  C   UNL A   1      38.295  29.870  28.055  1.00  0.00     0.014 A 
ATOM     41  C   UNL A   1      39.551  27.969  29.628  1.00  0.00     0.010 A 
ATOM     42  C   UNL A   1      39.627  29.545  27.805  1.00  0.00     0.010 A 
ATOM     43  C   UNL A   1      40.268  28.620  28.621  1.00  0.00    -0.014 A 
BRANCH  43  44
ATOM     44  C   UNL A   1      41.662  28.223  28.427  1.00  0.00     0.031 A 
ATOM     45  C   UNL A   1      41.865  26.934  27.710  1.00  0.00     0.074 A 
ATOM     46  C   UNL A   1      42.721  28.973  28.788  1.00  0.00     0.049 A 
ATOM     47  N   UNL A   1      42.416  25.853  28.158  1.00  0.00    -0.248 NA
ATOM     48  C   UNL A   1      41.318  26.811  26.352  1.00  0.00     0.031 C 
ATOM     49  C   UNL A   1      42.709  30.368  29.232  1.00  0.00     0.029 A 
ATOM     50  N   UNL A   1      44.055  28.665  28.750  1.00  0.00    -0.354 N 
ATOM     51  C   UNL A   1      42.454  24.968  27.080  1.00  0.00     0.074 A 
ATOM     52  C   UNL A   1      41.656  25.560  26.038  1.00  0.00     0.031 C 
ATOM     53  C   UNL A   1      43.971  30.847  29.225  1.00  0.00     0.029 A 
ATOM     54  C   UNL A   1      44.887  29.759  28.922  1.00  0.00     0.049 A 
ATOM     55  H   UNL A   1      44.392  27.749  28.614  1.00  0.00     0.167 HD
ATOM     56  C   UNL A   1      43.332  23.929  27.052  1.00  0.00     0.037 A 
ATOM     57  C   UNL A   1      46.235  29.802  28.808  1.00  0.00     0.037 A 
ATOM     58  C   UNL A   1      43.885  23.667  28.354  1.00  0.00     0.049 A 
ATOM     59  C   UNL A   1      46.778  28.440  28.991  1.00  0.00     0.074 A 
ATOM     60  C   UNL A   1      43.495  23.043  29.516  1.00  0.00     0.029 A 
ATOM     61  N   UNL A   1      45.015  24.383  28.633  1.00  0.00    -0.354 N 
ATOM     62  N   UNL A   1      46.773  27.802  30.128  1.00  0.00    -0.248 NA
ATOM     63  C   UNL A   1      47.115  27.628  27.825  1.00  0.00     0.031 C 
ATOM     64  C   UNL A   1      44.328  23.570  30.550  1.00  0.00     0.029 A 
ATOM     65  C   UNL A   1      45.197  24.500  29.983  1.00  0.00     0.049 A 
ATOM     66  H   UNL A   1      45.619  24.761  27.953  1.00  0.00     0.167 HD
ATOM     67  C   UNL A   1      46.676  26.472  29.772  1.00  0.00     0.074 A 
ATOM     68  C   UNL A   1      47.089  26.413  28.379  1.00  0.00     0.031 C 
ATOM     69  C   UNL A   1      45.954  25.601  30.531  1.00  0.00     0.037 A 
BRANCH  56  70
ATOM     70  C   UNL A   1      44.067  23.452  25.814  1.00  0.00     0.057 A 
ATOM     71  C   UNL A   1      45.135  24.148  25.215  1.00  0.00     0.134 A 
ATOM     72  C   UNL A   1      43.951  22.098  25.435  1.00  0.00     0.134 A 
ATOM     73  F   UNL A   1      45.419  25.420  25.514  1.00  0.00    -0.206 F 
ATOM     74  C   UNL A   1      46.046  23.535  24.346  1.00  0.00     0.040 A 
ATOM     75  C   UNL A   1      44.886  21.465  24.605  1.00  0.00     0.040 A 
ATOM     76  F   UNL A   1      42.974  21.324  25.932  1.00  0.00    -0.206 F 
ATOM     77  C   UNL A   1      45.947  22.181  24.069  1.00  0.00     0.006 A 
ENDBRANCH  56  70
BRANCH  57  78
ATOM     78  C   UNL A   1      47.086  30.942  28.418  1.00  0.00     0.057 A 
ATOM     79  C   UNL A   1      47.664  31.774  29.394  1.00  0.00     0.134 A 
ATOM     80  C   UNL A   1      47.157  31.394  27.095  1.00  0.00     0.134 A 
ATOM     81  F   UNL A   1      47.580  31.470  30.697  1.00  0.00    -0.206 F 
ATOM     82  C   UNL A   1      48.272  32.990  29.073  1.00  0.00     0.040 A 
ATOM     83  C   UNL A   1      47.756  32.614  26.760  1.00  0.00     0.040 A 
ATOM     84  F   UNL A   1      46.599  30.687  26.102  1.00  0.00    -0.206 F 
ATOM     85  C   UNL A   1      48.308  33.420  27.752  1.00  0.00     0.006 A 
ENDBRANCH  57  78
BRANCH  69  86
ATOM     86  C   UNL A   1      45.760  25.955  31.971  1.00  0.00     0.057 A 
ATOM     87  C   UNL A   1      44.583  26.611  32.344  1.00  0.00     0.134 A 
ATOM     88  C   UNL A   1      46.706  25.710  32.973  1.00  0.00     0.134 A 
ATOM     89  F   UNL A   1      43.657  26.917  31.422  1.00  0.00    -0.206 F 
ATOM     90  C   UNL A   1      44.342  26.989  33.665  1.00  0.00     0.040 A 
ATOM     91  C   UNL A   1      46.463  26.054  34.305  1.00  0.00     0.040 A 
ATOM     92  F   UNL A   1      47.896  25.162  32.685  1.00  0.00    -0.206 F 
ATOM     93  C   UNL A   1      45.277  26.696  34.654  1.00  0.00     0.006 A 
ENDBRANCH  69  86
ENDBRANCH  43  44
ENDBRANCH  35  38
ENDBRANCH  33  34
ENDBRANCH  32  33
ENDBRANCH  31  32
ENDBRANCH   1  31
TORSDOF 17
ENDMDL
MODEL 2
REMARK VINA RESULT:     -11.8      3.810      7.930
REMARK SMILES COc1cc2c(CC(=O)NCCCCCCNC(=O)c3ccc(-c4c5nc(c(-c6c(F)cccc6F)c6ccc([nH]6)c(-c6c(F)cccc6F)c6nc(c(-c7c(F)cccc7F)c7ccc4[nH]7)C=C6)C=C5)cc3)c(C)n(C(=O)c3ccc(Cl)cc3)c2cc1Cl
REMARK SMILES IDX 13 1 12 2 11 3 10 4 8 5 9 6 7 8 6 9 3 10 4 11 88 12 5 13
REMARK SMILES IDX 87 14 89 15 86 16 74 17 76 18 75 19 2 20 1 21 77 22 78 23
REMARK SMILES IDX 79 24 80 25 85 26 81 27 84 28 82 29 83 30 14 31 15 32 16 33
REMARK SMILES IDX 17 34 18 35 19 37 20 38 21 39 73 40 22 41 72 42 23 43 24 44
REMARK SMILES IDX 25 45 66 46 26 47 71 48 65 49 67 50 27 51 70 52 64 53 63 54
REMARK SMILES IDX 28 56 54 57 37 58 53 59 38 60 41 61 52 62 68 63 39 64 40 65
REMARK SMILES IDX 51 67 69 68 42 69 29 70 30 71 35 72 31 73 32 74 34 75 36 76
REMARK SMILES IDX 33 77 55 78 56 79 61 80 57 81 58 82 60 83 62 84 59 85 43 86
REMARK SMILES IDX 44 87 49 88 45 89 46 90 48 91 50 92 47 93
REMARK H PARENT 10 7 17 36 67 55 41 66
REMARK Flexibility Score: inf
ROOT
ATOM      1  C   UNL A   1      35.067  23.583  23.354  1.00  0.00     0.002 C 
ENDROOT
BRANCH   1   2
ATOM      2  C   UNL A   1      33.911  22.581  23.252  1.00  0.00     0.021 C 
BRANCH   2   3
ATOM      3  C   UNL A   1      32.895  22.928  22.164  1.00  0.00     0.116 C 
BRANCH   3   4
ATOM      4  N   UNL A   1      31.623  23.317  22.739  1.00  0.00    -0.356 N 
ATOM      5  C   UNL A   1      31.180  24.568  23.064  1.00  0.00     0.224 C 
ATOM      6  O   UNL A   1      30.079  24.675  23.609  1.00  0.00    -0.275 OA
ATOM      7  H   UNL A   1      30.994  22.582  22.919  1.00  0.00     0.163 HD
BRANCH   5   8
ATOM      8  C   UNL A   1      32.002  25.791  22.693  1.00  0.00     0.138 C 
BRANCH   8   9
ATOM      9  C   UNL A   1      31.819  26.963  23.621  1.00  0.00    -0.009 A 
ATOM     10  C   UNL A   1      29.244  29.577  22.503  1.00  0.00     0.138 A 
ATOM     11  C   UNL A   1      29.965  28.376  22.449  1.00  0.00     0.058 A 
ATOM     12  C   UNL A   1      29.504  30.483  23.527  1.00  0.00     0.085 A 
ATOM     13  C   UNL A   1      30.925  28.056  23.438  1.00  0.00     0.008 A 
ATOM     14  C   UNL A   1      30.482  30.203  24.490  1.00  0.00     0.051 A 
ATOM     15  Cl  UNL A   1      28.605  31.941  23.770  1.00  0.00    -0.080 Cl
ATOM     16  C   UNL A   1      31.138  28.954  24.487  1.00  0.00     0.058 A 
ATOM     17  C   UNL A   1      32.541  27.215  24.782  1.00  0.00     0.028 A 
ATOM     18  N   UNL A   1      31.987  28.333  25.416  1.00  0.00    -0.280 N 
ATOM     19  C   UNL A   1      33.686  26.425  25.337  1.00  0.00     0.065 C 
BRANCH  10  20
ATOM     20  O   UNL A   1      28.263  29.694  21.552  1.00  0.00    -0.495 OA
ATOM     21  C   UNL A   1      28.235  30.940  20.864  1.00  0.00     0.278 C 
ENDBRANCH  10  20
BRANCH  18  22
ATOM     22  C   UNL A   1      32.216  28.733  26.767  1.00  0.00     0.262 C 
ATOM     23  O   UNL A   1      31.638  28.146  27.672  1.00  0.00    -0.268 OA
BRANCH  22  24
ATOM     24  C   UNL A   1      33.096  29.844  27.175  1.00  0.00     0.040 A 
ATOM     25  C   UNL A   1      32.588  31.141  27.322  1.00  0.00     0.015 A 
ATOM     26  C   UNL A   1      34.459  29.582  27.351  1.00  0.00     0.015 A 
ATOM     27  C   UNL A   1      33.471  32.196  27.567  1.00  0.00     0.021 A 
ATOM     28  C   UNL A   1      35.333  30.640  27.605  1.00  0.00     0.021 A 
ATOM     29  C   UNL A   1      34.839  31.942  27.693  1.00  0.00     0.041 A 
ATOM     30  Cl  UNL A   1      35.929  33.251  27.936  1.00  0.00    -0.084 Cl
ENDBRANCH  22  24
ENDBRANCH  18  22
ENDBRANCH   8   9
ENDBRANCH   5   8
ENDBRANCH   3   4
ENDBRANCH   2   3
ENDBRANCH   1   2
BRANCH   1  31
ATOM     31  C   UNL A   1      36.460  22.953  23.473  1.00  0.00     0.002 C 
BRANCH  31  32
ATOM     32  C   UNL A   1      36.560  21.762  24.430  1.00  0.00     0.021 C 
BRANCH  32  33
ATOM     33  C   UNL A   1      37.279  22.064  25.747  1.00  0.00     0.116 C 
BRANCH  33  34
ATOM     34  N   UNL A   1      38.625  21.533  25.808  1.00  0.00    -0.352 N 
ATOM     35  C   UNL A   1      39.812  21.967  26.331  1.00  0.00     0.251 C 
ATOM     36  H   UNL A   1      38.705  20.655  25.370  1.00  0.00     0.163 HD
ATOM     37  O   UNL A   1      40.763  21.188  26.234  1.00  0.00    -0.269 OA
BRANCH  35  38
ATOM     38  C   UNL A   1      40.041  23.299  26.956  1.00  0.00     0.039 A 
ATOM     39  C   UNL A   1      39.304  24.454  26.704  1.00  0.00     0.014 A 
ATOM     40  C   UNL A   1      41.122  23.384  27.856  1.00  0.00     0.014 A 
ATOM     41  C   UNL A   1      39.680  25.672  27.263  1.00  0.00     0.010 A 
ATOM     42  C   UNL A   1      41.485  24.594  28.443  1.00  0.00     0.010 A 
ATOM     43  C   UNL A   1      40.786  25.750  28.114  1.00  0.00    -0.014 A 
BRANCH  43  44
ATOM     44  C   UNL A   1      41.101  27.058  28.685  1.00  0.00     0.031 A 
ATOM     45  C   UNL A   1      42.257  27.763  28.066  1.00  0.00     0.074 A 
ATOM     46  C   UNL A   1      40.380  27.657  29.653  1.00  0.00     0.049 A 
ATOM     47  N   UNL A   1      43.376  28.099  28.623  1.00  0.00    -0.248 NA
ATOM     48  C   UNL A   1      42.189  28.063  26.630  1.00  0.00     0.031 C 
ATOM     49  C   UNL A   1      39.071  27.247  30.165  1.00  0.00     0.029 A 
ATOM     50  N   UNL A   1      40.634  28.820  30.330  1.00  0.00    -0.354 N 
ATOM     51  C   UNL A   1      44.083  28.817  27.660  1.00  0.00     0.074 A 
ATOM     52  C   UNL A   1      43.365  28.656  26.423  1.00  0.00     0.031 C 
ATOM     53  C   UNL A   1      38.554  28.245  30.912  1.00  0.00     0.029 A 
ATOM     54  C   UNL A   1      39.552  29.294  31.053  1.00  0.00     0.049 A 
ATOM     55  H   UNL A   1      41.506  29.277  30.304  1.00  0.00     0.167 HD
ATOM     56  C   UNL A   1      45.075  29.679  28.011  1.00  0.00     0.037 A 
ATOM     57  C   UNL A   1      39.448  30.471  31.712  1.00  0.00     0.037 A 
ATOM     58  C   UNL A   1      45.515  29.459  29.363  1.00  0.00     0.049 A 
ATOM     59  C   UNL A   1      40.803  30.976  32.017  1.00  0.00     0.074 A 
ATOM     60  C   UNL A   1      46.323  28.571  30.036  1.00  0.00     0.029 A 
ATOM     61  N   UNL A   1      44.813  30.164  30.299  1.00  0.00    -0.354 N 
ATOM     62  N   UNL A   1      41.607  30.424  32.881  1.00  0.00    -0.248 NA
ATOM     63  C   UNL A   1      41.414  31.983  31.154  1.00  0.00     0.031 C 
ATOM     64  C   UNL A   1      45.933  28.640  31.408  1.00  0.00     0.029 A 
ATOM     65  C   UNL A   1      44.898  29.566  31.525  1.00  0.00     0.049 A 
ATOM     66  H   UNL A   1      44.315  30.994  30.116  1.00  0.00     0.167 HD
ATOM     67  C   UNL A   1      42.869  30.687  32.389  1.00  0.00     0.074 A 
ATOM     68  C   UNL A   1      42.700  31.796  31.463  1.00  0.00     0.031 C 
ATOM     69  C   UNL A   1      43.870  29.772  32.518  1.00  0.00     0.037 A 
BRANCH  56  70
ATOM     70  C   UNL A   1      45.332  31.019  27.348  1.00  0.00     0.057 A 
ATOM     71  C   UNL A   1      44.541  32.165  27.554  1.00  0.00     0.134 A 
ATOM     72  C   UNL A   1      46.602  31.265  26.785  1.00  0.00     0.134 A 
ATOM     73  F   UNL A   1      43.336  32.110  28.134  1.00  0.00    -0.206 F 
ATOM     74  C   UNL A   1      44.993  33.459  27.272  1.00  0.00     0.040 A 
ATOM     75  C   UNL A   1      47.082  32.560  26.545  1.00  0.00     0.040 A 
ATOM     76  F   UNL A   1      47.453  30.259  26.535  1.00  0.00    -0.206 F 
ATOM     77  C   UNL A   1      46.280  33.664  26.802  1.00  0.00     0.006 A 
ENDBRANCH  56  70
BRANCH  57  78
ATOM     78  C   UNL A   1      38.233  31.262  31.989  1.00  0.00     0.057 A 
ATOM     79  C   UNL A   1      37.745  31.395  33.301  1.00  0.00     0.134 A 
ATOM     80  C   UNL A   1      37.386  31.699  30.964  1.00  0.00     0.134 A 
ATOM     81  F   UNL A   1      38.446  30.936  34.347  1.00  0.00    -0.206 F 
ATOM     82  C   UNL A   1      36.483  31.927  33.578  1.00  0.00     0.040 A 
ATOM     83  C   UNL A   1      36.115  32.226  31.226  1.00  0.00     0.040 A 
ATOM     84  F   UNL A   1      37.750  31.575  29.679  1.00  0.00    -0.206 F 
ATOM     85  C   UNL A   1      35.658  32.333  32.537  1.00  0.00     0.006 A 
ENDBRANCH  57  78
BRANCH  69  86
ATOM     86  C   UNL A   1      43.748  28.786  33.635  1.00  0.00     0.057 A 
ATOM     87  C   UNL A   1      44.450  29.029  34.820  1.00  0.00     0.134 A 
ATOM     88  C   UNL A   1      43.005  27.602  33.558  1.00  0.00     0.134 A 
ATOM     89  F   UNL A   1      45.218  30.122  34.939  1.00  0.00    -0.206 F 
ATOM     90  C   UNL A   1      44.399  28.144  35.897  1.00  0.00     0.040 A 
ATOM     91  C   UNL A   1      42.919  26.724  34.642  1.00  0.00     0.040 A 
ATOM     92  F   UNL A   1      42.371  27.252  32.430  1.00  0.00    -0.206 F 
ATOM     93  C   UNL A   1      43.617  26.993  35.815  1.00  0.00     0.006 A 
ENDBRANCH  69  86
ENDBRANCH  43  44
ENDBRANCH  35  38
ENDBRANCH  33  34
ENDBRANCH  32  33
ENDBRANCH  31  32
ENDBRANCH   1  31
TORSDOF 17
ENDMDL
MODEL 3
REMARK VINA RESULT:     -11.7      3.905      8.738
REMARK SMILES COc1cc2c(CC(=O)NCCCCCCNC(=O)c3ccc(-c4c5nc(c(-c6c(F)cccc6F)c6ccc([nH]6)c(-c6c(F)cccc6F)c6nc(c(-c7c(F)cccc7F)c7ccc4[nH]7)C=C6)C=C5)cc3)c(C)n(C(=O)c3ccc(Cl)cc3)c2cc1Cl
REMARK SMILES IDX 13 1 12 2 11 3 10 4 8 5 9 6 7 8 6 9 3 10 4 11 88 12 5 13
REMARK SMILES IDX 87 14 89 15 86 16 74 17 76 18 75 19 2 20 1 21 77 22 78 23
REMARK SMILES IDX 79 24 80 25 85 26 81 27 84 28 82 29 83 30 14 31 15 32 16 33
REMARK SMILES IDX 17 34 18 35 19 37 20 38 21 39 73 40 22 41 72 42 23 43 24 44
REMARK SMILES IDX 25 45 66 46 26 47 71 48 65 49 67 50 27 51 70 52 64 53 63 54
REMARK SMILES IDX 28 56 54 57 37 58 53 59 38 60 41 61 52 62 68 63 39 64 40 65
REMARK SMILES IDX 51 67 69 68 42 69 29 70 30 71 35 72 31 73 32 74 34 75 36 76
REMARK SMILES IDX 33 77 55 78 56 79 61 80 57 81 58 82 60 83 62 84 59 85 43 86
REMARK SMILES IDX 44 87 49 88 45 89 46 90 48 91 50 92 47 93
REMARK H PARENT 10 7 17 36 67 55 41 66
REMARK Flexibility Score: inf
ROOT
ATOM      1  C   UNL A   1      36.125  20.722  25.016  1.00  0.00     0.002 C 
ENDROOT
BRANCH   1   2
ATOM      2  C   UNL A   1      35.164  21.613  25.812  1.00  0.00     0.021 C 
BRANCH   2   3
ATOM      3  C   UNL A   1      33.884  21.962  25.053  1.00  0.00     0.116 C 
BRANCH   3   4
ATOM      4  N   UNL A   1      34.168  22.790  23.898  1.00  0.00    -0.356 N 
ATOM      5  C   UNL A   1      34.207  24.153  23.813  1.00  0.00     0.224 C 
ATOM      6  O   UNL A   1      34.404  24.665  22.710  1.00  0.00    -0.275 OA
ATOM      7  H   UNL A   1      34.359  22.306  23.063  1.00  0.00     0.163 HD
BRANCH   5   8
ATOM      8  C   UNL A   1      34.076  25.002  25.067  1.00  0.00     0.138 C 
BRANCH   8   9
ATOM      9  C   UNL A   1      32.908  25.951  25.053  1.00  0.00    -0.009 A 
ATOM     10  C   UNL A   1      33.586  29.438  26.502  1.00  0.00     0.138 A 
ATOM     11  C   UNL A   1      33.897  28.139  26.073  1.00  0.00     0.058 A 
ATOM     12  C   UNL A   1      32.272  29.887  26.417  1.00  0.00     0.085 A 
ATOM     13  C   UNL A   1      32.904  27.296  25.523  1.00  0.00     0.008 A 
ATOM     14  C   UNL A   1      31.267  29.050  25.917  1.00  0.00     0.051 A 
ATOM     15  Cl  UNL A   1      31.784  31.501  26.805  1.00  0.00    -0.080 Cl
ATOM     16  C   UNL A   1      31.599  27.781  25.399  1.00  0.00     0.058 A 
ATOM     17  C   UNL A   1      31.612  25.657  24.641  1.00  0.00     0.028 A 
ATOM     18  N   UNL A   1      30.860  26.837  24.669  1.00  0.00    -0.280 N 
ATOM     19  C   UNL A   1      31.076  24.337  24.181  1.00  0.00     0.065 C 
BRANCH  10  20
ATOM     20  O   UNL A   1      34.670  30.180  26.895  1.00  0.00    -0.495 OA
ATOM     21  C   UNL A   1      35.585  29.506  27.752  1.00  0.00     0.278 C 
ENDBRANCH  10  20
BRANCH  18  22
ATOM     22  C   UNL A   1      29.597  27.044  24.035  1.00  0.00     0.262 C 
ATOM     23  O   UNL A   1      28.696  26.237  24.218  1.00  0.00    -0.268 OA
BRANCH  22  24
ATOM     24  C   UNL A   1      29.288  28.165  23.128  1.00  0.00     0.040 A 
ATOM     25  C   UNL A   1      30.308  28.811  22.418  1.00  0.00     0.015 A 
ATOM     26  C   UNL A   1      27.962  28.604  23.043  1.00  0.00     0.015 A 
ATOM     27  C   UNL A   1      30.004  29.959  21.681  1.00  0.00     0.021 A 
ATOM     28  C   UNL A   1      27.666  29.747  22.298  1.00  0.00     0.021 A 
ATOM     29  C   UNL A   1      28.689  30.428  21.636  1.00  0.00     0.041 A 
ATOM     30  Cl  UNL A   1      28.329  31.874  20.777  1.00  0.00    -0.084 Cl
ENDBRANCH  22  24
ENDBRANCH  18  22
ENDBRANCH   8   9
ENDBRANCH   5   8
ENDBRANCH   3   4
ENDBRANCH   2   3
ENDBRANCH   1   2
BRANCH   1  31
ATOM     31  C   UNL A   1      37.383  21.429  24.499  1.00  0.00     0.002 C 
BRANCH  31  32
ATOM     32  C   UNL A   1      37.880  22.594  25.361  1.00  0.00     0.021 C 
BRANCH  32  33
ATOM     33  C   UNL A   1      38.900  22.201  26.432  1.00  0.00     0.116 C 
BRANCH  33  34
ATOM     34  N   UNL A   1      40.258  22.114  25.936  1.00  0.00    -0.352 N 
ATOM     35  C   UNL A   1      41.379  22.889  26.047  1.00  0.00     0.251 C 
ATOM     36  H   UNL A   1      40.410  21.308  25.391  1.00  0.00     0.163 HD
ATOM     37  O   UNL A   1      42.400  22.446  25.515  1.00  0.00    -0.269 OA
BRANCH  35  38
ATOM     38  C   UNL A   1      41.441  24.222  26.710  1.00  0.00     0.039 A 
ATOM     39  C   UNL A   1      42.049  24.495  27.933  1.00  0.00     0.014 A 
ATOM     40  C   UNL A   1      40.798  25.280  26.037  1.00  0.00     0.014 A 
ATOM     41  C   UNL A   1      41.948  25.758  28.510  1.00  0.00     0.010 A 
ATOM     42  C   UNL A   1      40.720  26.554  26.593  1.00  0.00     0.010 A 
ATOM     43  C   UNL A   1      41.263  26.783  27.853  1.00  0.00    -0.014 A 
BRANCH  43  44
ATOM     44  C   UNL A   1      41.225  28.090  28.508  1.00  0.00     0.031 A 
ATOM     45  C   UNL A   1      42.371  28.990  28.205  1.00  0.00     0.074 A 
ATOM     46  C   UNL A   1      40.208  28.522  29.280  1.00  0.00     0.049 A 
ATOM     47  N   UNL A   1      43.257  29.455  29.025  1.00  0.00    -0.248 NA
ATOM     48  C   UNL A   1      42.603  29.356  26.801  1.00  0.00     0.031 C 
ATOM     49  C   UNL A   1      38.895  27.897  29.447  1.00  0.00     0.029 A 
ATOM     50  N   UNL A   1      40.108  29.671  30.020  1.00  0.00    -0.354 N 
ATOM     51  C   UNL A   1      44.054  30.321  28.278  1.00  0.00     0.074 A 
ATOM     52  C   UNL A   1      43.688  30.126  26.900  1.00  0.00     0.031 C 
ATOM     53  C   UNL A   1      38.065  28.765  30.063  1.00  0.00     0.029 A 
ATOM     54  C   UNL A   1      38.824  29.940  30.464  1.00  0.00     0.049 A 
ATOM     55  H   UNL A   1      40.879  30.251  30.217  1.00  0.00     0.167 HD
ATOM     56  C   UNL A   1      44.786  31.298  28.878  1.00  0.00     0.037 A 
ATOM     57  C   UNL A   1      38.383  31.051  31.098  1.00  0.00     0.037 A 
ATOM     58  C   UNL A   1      44.918  31.070  30.292  1.00  0.00     0.049 A 
ATOM     59  C   UNL A   1      39.529  31.731  31.735  1.00  0.00     0.074 A 
ATOM     60  C   UNL A   1      45.669  30.274  31.127  1.00  0.00     0.029 A 
ATOM     61  N   UNL A   1      43.911  31.612  31.040  1.00  0.00    -0.354 N 
ATOM     62  N   UNL A   1      40.179  31.255  32.760  1.00  0.00    -0.248 NA
ATOM     63  C   UNL A   1      40.165  32.863  31.067  1.00  0.00     0.031 C 
ATOM     64  C   UNL A   1      44.955  30.209  32.362  1.00  0.00     0.029 A 
ATOM     65  C   UNL A   1      43.792  30.965  32.239  1.00  0.00     0.049 A 
ATOM     66  H   UNL A   1      43.348  32.369  30.755  1.00  0.00     0.167 HD
ATOM     67  C   UNL A   1      41.465  31.728  32.598  1.00  0.00     0.074 A 
ATOM     68  C   UNL A   1      41.352  32.850  31.679  1.00  0.00     0.031 C 
ATOM     69  C   UNL A   1      42.536  30.963  32.952  1.00  0.00     0.037 A 
BRANCH  56  70
ATOM     70  C   UNL A   1      44.983  32.696  28.322  1.00  0.00     0.057 A 
ATOM     71  C   UNL A   1      46.127  33.108  27.613  1.00  0.00     0.134 A 
ATOM     72  C   UNL A   1      43.856  33.532  28.173  1.00  0.00     0.134 A 
ATOM     73  F   UNL A   1      47.258  32.394  27.599  1.00  0.00    -0.206 F 
ATOM     74  C   UNL A   1      46.138  34.233  26.780  1.00  0.00     0.040 A 
ATOM     75  C   UNL A   1      43.844  34.632  27.305  1.00  0.00     0.040 A 
ATOM     76  F   UNL A   1      42.703  33.254  28.799  1.00  0.00    -0.206 F 
ATOM     77  C   UNL A   1      44.984  34.977  26.593  1.00  0.00     0.006 A 
ENDBRANCH  56  70
BRANCH  57  78
ATOM     78  C   UNL A   1      37.029  31.638  31.082  1.00  0.00     0.057 A 
ATOM     79  C   UNL A   1      36.572  32.360  29.965  1.00  0.00     0.134 A 
ATOM     80  C   UNL A   1      36.246  31.722  32.239  1.00  0.00     0.134 A 
ATOM     81  F   UNL A   1      37.289  32.407  28.833  1.00  0.00    -0.206 F 
ATOM     82  C   UNL A   1      35.405  33.126  29.998  1.00  0.00     0.040 A 
ATOM     83  C   UNL A   1      35.079  32.494  32.290  1.00  0.00     0.040 A 
ATOM     84  F   UNL A   1      36.624  31.101  33.365  1.00  0.00    -0.206 F 
ATOM     85  C   UNL A   1      34.660  33.206  31.169  1.00  0.00     0.006 A 
ENDBRANCH  57  78
BRANCH  69  86
ATOM     86  C   UNL A   1      42.304  29.909  33.987  1.00  0.00     0.057 A 
ATOM     87  C   UNL A   1      41.968  28.620  33.563  1.00  0.00     0.134 A 
ATOM     88  C   UNL A   1      42.359  30.140  35.367  1.00  0.00     0.134 A 
ATOM     89  F   UNL A   1      41.852  28.346  32.255  1.00  0.00    -0.206 F 
ATOM     90  C   UNL A   1      41.719  27.591  34.472  1.00  0.00     0.040 A 
ATOM     91  C   UNL A   1      42.145  29.110  36.287  1.00  0.00     0.040 A 
ATOM     92  F   UNL A   1      42.592  31.366  35.857  1.00  0.00    -0.206 F 
ATOM     93  C   UNL A   1      41.823  27.832  35.840  1.00  0.00     0.006 A 
ENDBRANCH  69  86
ENDBRANCH  43  44
ENDBRANCH  35  38
ENDBRANCH  33  34
ENDBRANCH  32  33
ENDBRANCH  31  32
ENDBRANCH   1  31
TORSDOF 17
ENDMDL
