MODEL 1
REMARK VINA RESULT:     -11.3      0.000      0.000
REMARK SMILES COc1ccccc1-c1ccc(C(=O)NCCCCCCNC(=O)c2ccc(-c3c4nc(c(-c5c(F)cccc5F)c5ccc([nH]5)c(-c5c(F)cccc5F)c5nc(c(-c6c(F)cccc6F)c6ccc3[nH]6)C=C5)C=C4)cc2)c(O)c1
REMARK SMILES IDX 18 1 17 2 16 3 15 4 13 5 14 6 12 8 9 9 10 10 81 11 11 12
REMARK SMILES IDX 79 13 8 14 3 15 4 16 5 17 7 18 6 19 2 20 1 21 80 22 19 24
REMARK SMILES IDX 20 25 21 26 22 27 23 28 24 30 25 31 26 32 78 33 27 34 77 35
REMARK SMILES IDX 28 36 29 37 30 38 71 39 31 40 76 41 70 42 72 43 32 44 75 45
REMARK SMILES IDX 69 46 68 47 33 49 59 50 42 51 58 52 43 53 46 54 57 55 73 56
REMARK SMILES IDX 44 57 45 58 56 60 74 61 47 62 34 63 35 64 40 65 36 66 37 67
REMARK SMILES IDX 39 68 41 69 38 70 60 71 61 72 66 73 62 74 63 75 65 76 67 77
REMARK SMILES IDX 64 78 48 79 49 80 54 81 50 82 51 83 53 84 55 85 52 86
REMARK H PARENT 15 7 80 23 22 29 72 48 46 59
REMARK Flexibility Score: inf
ROOT
ATOM      1  C   UNL A   1      31.038  29.447  24.585  1.00  0.00     0.002 C 
ENDROOT
BRANCH   1   2
ATOM      2  C   UNL A   1      30.777  27.973  24.263  1.00  0.00     0.021 C 
BRANCH   2   3
ATOM      3  C   UNL A   1      30.733  27.678  22.760  1.00  0.00     0.116 C 
BRANCH   3   4
ATOM      4  N   UNL A   1      32.033  27.936  22.182  1.00  0.00    -0.352 N 
ATOM      5  C   UNL A   1      33.177  27.182  22.156  1.00  0.00     0.255 C 
ATOM      6  O   UNL A   1      34.190  27.713  21.694  1.00  0.00    -0.269 OA
ATOM      7  H   UNL A   1      32.110  28.806  21.725  1.00  0.00     0.163 HD
BRANCH   5   8
ATOM      8  C   UNL A   1      33.232  25.741  22.530  1.00  0.00     0.081 A 
ATOM      9  C   UNL A   1      33.464  23.108  23.552  1.00  0.00    -0.011 A 
ATOM     10  C   UNL A   1      33.483  24.203  24.418  1.00  0.00     0.010 A 
ATOM     11  C   UNL A   1      33.272  23.339  22.183  1.00  0.00     0.055 A 
ATOM     12  C   UNL A   1      33.380  25.501  23.911  1.00  0.00     0.018 A 
ATOM     13  C   UNL A   1      33.125  24.635  21.682  1.00  0.00     0.128 A 
BRANCH   9  14
ATOM     14  C   UNL A   1      33.614  21.734  24.034  1.00  0.00     0.024 A 
ATOM     15  C   UNL A   1      34.818  21.243  24.580  1.00  0.00     0.126 A 
ATOM     16  C   UNL A   1      34.961  19.883  24.869  1.00  0.00     0.047 A 
ATOM     17  C   UNL A   1      33.903  19.000  24.650  1.00  0.00     0.004 A 
ATOM     18  C   UNL A   1      32.555  20.829  23.837  1.00  0.00     0.012 A 
ATOM     19  C   UNL A   1      32.699  19.474  24.137  1.00  0.00     0.001 A 
BRANCH  15  20
ATOM     20  O   UNL A   1      35.952  22.001  24.746  1.00  0.00    -0.496 OA
ATOM     21  C   UNL A   1      37.154  21.233  24.725  1.00  0.00     0.278 C 
ENDBRANCH  15  20
ENDBRANCH   9  14
BRANCH  13  22
ATOM     22  O   UNL A   1      32.826  24.751  20.356  1.00  0.00    -0.507 OA
ATOM     23  H   UNL A   1      32.180  24.191  19.972  1.00  0.00     0.293 HD
ENDBRANCH  13  22
ENDBRANCH   5   8
ENDBRANCH   3   4
ENDBRANCH   2   3
ENDBRANCH   1   2
BRANCH   1  24
ATOM     24  C   UNL A   1      32.269  29.691  25.461  1.00  0.00     0.002 C 
BRANCH  24  25
ATOM     25  C   UNL A   1      32.951  28.420  25.973  1.00  0.00     0.021 C 
BRANCH  25  26
ATOM     26  C   UNL A   1      33.944  28.661  27.105  1.00  0.00     0.116 C 
BRANCH  26  27
ATOM     27  N   UNL A   1      33.833  30.015  27.627  1.00  0.00    -0.352 N 
ATOM     28  C   UNL A   1      34.710  30.710  28.419  1.00  0.00     0.251 C 
ATOM     29  H   UNL A   1      33.013  30.499  27.378  1.00  0.00     0.163 HD
ATOM     30  O   UNL A   1      34.354  31.733  28.993  1.00  0.00    -0.269 OA
BRANCH  28  31
ATOM     31  C   UNL A   1      36.093  30.216  28.579  1.00  0.00     0.039 A 
ATOM     32  C   UNL A   1      36.991  30.355  27.518  1.00  0.00     0.014 A 
ATOM     33  C   UNL A   1      36.491  29.596  29.767  1.00  0.00     0.014 A 
ATOM     34  C   UNL A   1      38.305  29.909  27.667  1.00  0.00     0.010 A 
ATOM     35  C   UNL A   1      37.818  29.224  29.940  1.00  0.00     0.010 A 
ATOM     36  C   UNL A   1      38.735  29.362  28.888  1.00  0.00    -0.014 A 
BRANCH  36  37
ATOM     37  C   UNL A   1      40.134  28.904  29.076  1.00  0.00     0.031 A 
ATOM     38  C   UNL A   1      41.158  29.841  29.654  1.00  0.00     0.074 A 
ATOM     39  C   UNL A   1      40.492  27.671  28.672  1.00  0.00     0.049 A 
ATOM     40  N   UNL A   1      42.441  29.657  29.831  1.00  0.00    -0.248 NA
ATOM     41  C   UNL A   1      40.683  31.173  30.061  1.00  0.00     0.031 C 
ATOM     42  C   UNL A   1      39.599  26.687  28.058  1.00  0.00     0.029 A 
ATOM     43  N   UNL A   1      41.708  27.038  28.709  1.00  0.00    -0.354 N 
ATOM     44  C   UNL A   1      42.925  30.849  30.355  1.00  0.00     0.074 A 
ATOM     45  C   UNL A   1      41.811  31.770  30.411  1.00  0.00     0.031 C 
ATOM     46  C   UNL A   1      40.292  25.568  27.797  1.00  0.00     0.029 A 
ATOM     47  C   UNL A   1      41.683  25.767  28.188  1.00  0.00     0.049 A 
ATOM     48  H   UNL A   1      42.523  27.455  29.074  1.00  0.00     0.167 HD
ATOM     49  C   UNL A   1      44.179  31.143  30.773  1.00  0.00     0.037 A 
ATOM     50  C   UNL A   1      42.674  24.867  28.038  1.00  0.00     0.037 A 
ATOM     51  C   UNL A   1      45.279  30.214  30.736  1.00  0.00     0.049 A 
ATOM     52  C   UNL A   1      44.061  25.221  28.502  1.00  0.00     0.074 A 
ATOM     53  C   UNL A   1      46.575  30.395  31.185  1.00  0.00     0.029 A 
ATOM     54  N   UNL A   1      45.209  28.929  30.218  1.00  0.00    -0.354 N 
ATOM     55  N   UNL A   1      44.491  26.331  29.053  1.00  0.00    -0.248 NA
ATOM     56  C   UNL A   1      45.097  24.195  28.330  1.00  0.00     0.031 C 
ATOM     57  C   UNL A   1      47.303  29.237  30.895  1.00  0.00     0.029 A 
ATOM     58  C   UNL A   1      46.446  28.314  30.317  1.00  0.00     0.049 A 
ATOM     59  H   UNL A   1      44.402  28.517  29.837  1.00  0.00     0.167 HD
ATOM     60  C   UNL A   1      45.837  26.123  29.325  1.00  0.00     0.074 A 
ATOM     61  C   UNL A   1      46.148  24.778  28.888  1.00  0.00     0.031 C 
ATOM     62  C   UNL A   1      46.735  26.968  29.887  1.00  0.00     0.037 A 
BRANCH  49  63
ATOM     63  C   UNL A   1      44.425  32.524  31.310  1.00  0.00     0.057 A 
ATOM     64  C   UNL A   1      44.271  32.827  32.670  1.00  0.00     0.134 A 
ATOM     65  C   UNL A   1      44.850  33.555  30.464  1.00  0.00     0.134 A 
ATOM     66  F   UNL A   1      43.855  31.889  33.534  1.00  0.00    -0.206 F 
ATOM     67  C   UNL A   1      44.500  34.113  33.162  1.00  0.00     0.040 A 
ATOM     68  C   UNL A   1      45.112  34.837  30.949  1.00  0.00     0.040 A 
ATOM     69  F   UNL A   1      45.025  33.334  29.153  1.00  0.00    -0.206 F 
ATOM     70  C   UNL A   1      44.930  35.121  32.302  1.00  0.00     0.006 A 
ENDBRANCH  49  63
BRANCH  50  71
ATOM     71  C   UNL A   1      42.388  23.537  27.445  1.00  0.00     0.057 A 
ATOM     72  C   UNL A   1      42.459  23.333  26.062  1.00  0.00     0.134 A 
ATOM     73  C   UNL A   1      42.031  22.442  28.240  1.00  0.00     0.134 A 
ATOM     74  F   UNL A   1      42.781  24.348  25.246  1.00  0.00    -0.206 F 
ATOM     75  C   UNL A   1      42.160  22.095  25.488  1.00  0.00     0.040 A 
ATOM     76  C   UNL A   1      41.755  21.192  27.683  1.00  0.00     0.040 A 
ATOM     77  F   UNL A   1      41.954  22.568  29.573  1.00  0.00    -0.206 F 
ATOM     78  C   UNL A   1      41.811  21.020  26.301  1.00  0.00     0.006 A 
ENDBRANCH  50  71
BRANCH  62  79
ATOM     79  C   UNL A   1      48.126  26.449  30.106  1.00  0.00     0.057 A 
ATOM     80  C   UNL A   1      49.138  26.607  29.150  1.00  0.00     0.134 A 
ATOM     81  C   UNL A   1      48.466  25.818  31.310  1.00  0.00     0.134 A 
ATOM     82  F   UNL A   1      48.874  27.192  27.972  1.00  0.00    -0.206 F 
ATOM     83  C   UNL A   1      50.431  26.132  29.374  1.00  0.00     0.040 A 
ATOM     84  C   UNL A   1      49.762  25.366  31.556  1.00  0.00     0.040 A 
ATOM     85  F   UNL A   1      47.548  25.643  32.272  1.00  0.00    -0.206 F 
ATOM     86  C   UNL A   1      50.748  25.516  30.582  1.00  0.00     0.006 A 
ENDBRANCH  62  79
ENDBRANCH  36  37
ENDBRANCH  28  31
ENDBRANCH  26  27
ENDBRANCH  25  26
ENDBRANCH  24  25
ENDBRANCH   1  24
TORSDOF 16
ENDMDL
MODEL 2
REMARK VINA RESULT:     -11.1      3.453      8.746
REMARK SMILES COc1ccccc1-c1ccc(C(=O)NCCCCCCNC(=O)c2ccc(-c3c4nc(c(-c5c(F)cccc5F)c5ccc([nH]5)c(-c5c(F)cccc5F)c5nc(c(-c6c(F)cccc6F)c6ccc3[nH]6)C=C5)C=C4)cc2)c(O)c1
REMARK SMILES IDX 18 1 17 2 16 3 15 4 13 5 14 6 12 8 9 9 10 10 81 11 11 12
REMARK SMILES IDX 79 13 8 14 3 15 4 16 5 17 7 18 6 19 2 20 1 21 80 22 19 24
REMARK SMILES IDX 20 25 21 26 22 27 23 28 24 30 25 31 26 32 78 33 27 34 77 35
REMARK SMILES IDX 28 36 29 37 30 38 71 39 31 40 76 41 70 42 72 43 32 44 75 45
REMARK SMILES IDX 69 46 68 47 33 49 59 50 42 51 58 52 43 53 46 54 57 55 73 56
REMARK SMILES IDX 44 57 45 58 56 60 74 61 47 62 34 63 35 64 40 65 36 66 37 67
REMARK SMILES IDX 39 68 41 69 38 70 60 71 61 72 66 73 62 74 63 75 65 76 67 77
REMARK SMILES IDX 64 78 48 79 49 80 54 81 50 82 51 83 53 84 55 85 52 86
REMARK H PARENT 15 7 80 23 22 29 72 48 46 59
REMARK Flexibility Score: inf
ROOT
ATOM      1  C   UNL A   1      41.218  21.401  26.624  1.00  0.00     0.002 C 
ENDROOT
BRANCH   1   2
ATOM      2  C   UNL A   1      40.339  22.420  27.356  1.00  0.00     0.021 C 
BRANCH   2   3
ATOM      3  C   UNL A   1      39.200  22.971  26.492  1.00  0.00     0.116 C 
BRANCH   3   4
ATOM      4  N   UNL A   1      38.664  21.908  25.670  1.00  0.00    -0.352 N 
ATOM      5  C   UNL A   1      37.378  21.610  25.304  1.00  0.00     0.255 C 
ATOM      6  O   UNL A   1      37.199  20.556  24.689  1.00  0.00    -0.269 OA
ATOM      7  H   UNL A   1      39.343  21.293  25.308  1.00  0.00     0.163 HD
BRANCH   5   8
ATOM      8  C   UNL A   1      36.223  22.532  25.491  1.00  0.00     0.081 A 
ATOM      9  C   UNL A   1      34.196  24.507  25.630  1.00  0.00    -0.011 A 
ATOM     10  C   UNL A   1      35.136  24.534  24.597  1.00  0.00     0.010 A 
ATOM     11  C   UNL A   1      34.246  23.456  26.554  1.00  0.00     0.055 A 
ATOM     12  C   UNL A   1      36.141  23.567  24.538  1.00  0.00     0.018 A 
ATOM     13  C   UNL A   1      35.226  22.463  26.468  1.00  0.00     0.128 A 
BRANCH   9  14
ATOM     14  C   UNL A   1      33.152  25.526  25.757  1.00  0.00     0.024 A 
ATOM     15  C   UNL A   1      31.787  25.253  25.533  1.00  0.00     0.126 A 
ATOM     16  C   UNL A   1      30.854  26.294  25.503  1.00  0.00     0.047 A 
ATOM     17  C   UNL A   1      31.257  27.610  25.726  1.00  0.00     0.004 A 
ATOM     18  C   UNL A   1      33.535  26.859  25.996  1.00  0.00     0.012 A 
ATOM     19  C   UNL A   1      32.598  27.892  25.976  1.00  0.00     0.001 A 
BRANCH  15  20
ATOM     20  O   UNL A   1      31.294  24.013  25.209  1.00  0.00    -0.496 OA
ATOM     21  C   UNL A   1      31.046  23.850  23.813  1.00  0.00     0.278 C 
ENDBRANCH  15  20
ENDBRANCH   9  14
BRANCH  13  22
ATOM     22  O   UNL A   1      35.122  21.419  27.341  1.00  0.00    -0.507 OA
ATOM     23  H   UNL A   1      34.405  21.383  27.943  1.00  0.00     0.293 HD
ENDBRANCH  13  22
ENDBRANCH   5   8
ENDBRANCH   3   4
ENDBRANCH   2   3
ENDBRANCH   1   2
BRANCH   1  24
ATOM     24  C   UNL A   1      41.989  20.456  27.548  1.00  0.00     0.002 C 
BRANCH  24  25
ATOM     25  C   UNL A   1      42.520  19.191  26.869  1.00  0.00     0.021 C 
BRANCH  25  26
ATOM     26  C   UNL A   1      42.476  19.239  25.346  1.00  0.00     0.116 C 
BRANCH  26  27
ATOM     27  N   UNL A   1      43.740  18.812  24.766  1.00  0.00    -0.352 N 
ATOM     28  C   UNL A   1      44.813  19.571  24.377  1.00  0.00     0.251 C 
ATOM     29  H   UNL A   1      43.838  17.842  24.634  1.00  0.00     0.163 HD
ATOM     30  O   UNL A   1      45.688  19.093  23.664  1.00  0.00    -0.269 OA
BRANCH  28  31
ATOM     31  C   UNL A   1      44.909  20.976  24.824  1.00  0.00     0.039 A 
ATOM     32  C   UNL A   1      45.342  21.249  26.124  1.00  0.00     0.014 A 
ATOM     33  C   UNL A   1      44.548  22.019  23.966  1.00  0.00     0.014 A 
ATOM     34  C   UNL A   1      45.454  22.573  26.549  1.00  0.00     0.010 A 
ATOM     35  C   UNL A   1      44.734  23.337  24.364  1.00  0.00     0.010 A 
ATOM     36  C   UNL A   1      45.174  23.628  25.664  1.00  0.00    -0.014 A 
BRANCH  36  37
ATOM     37  C   UNL A   1      45.311  25.043  26.086  1.00  0.00     0.031 A 
ATOM     38  C   UNL A   1      46.652  25.720  26.021  1.00  0.00     0.074 A 
ATOM     39  C   UNL A   1      44.244  25.697  26.583  1.00  0.00     0.049 A 
ATOM     40  N   UNL A   1      46.992  26.922  26.408  1.00  0.00    -0.248 NA
ATOM     41  C   UNL A   1      47.767  24.930  25.473  1.00  0.00     0.031 C 
ATOM     42  C   UNL A   1      42.901  25.134  26.736  1.00  0.00     0.029 A 
ATOM     43  N   UNL A   1      44.124  26.978  27.060  1.00  0.00    -0.354 N 
ATOM     44  C   UNL A   1      48.356  27.026  26.165  1.00  0.00     0.074 A 
ATOM     45  C   UNL A   1      48.793  25.746  25.653  1.00  0.00     0.031 C 
ATOM     46  C   UNL A   1      42.088  26.072  27.249  1.00  0.00     0.029 A 
ATOM     47  C   UNL A   1      42.859  27.286  27.497  1.00  0.00     0.049 A 
ATOM     48  H   UNL A   1      44.874  27.615  27.088  1.00  0.00     0.167 HD
ATOM     49  C   UNL A   1      49.166  28.098  26.330  1.00  0.00     0.037 A 
ATOM     50  C   UNL A   1      42.377  28.419  28.041  1.00  0.00     0.037 A 
ATOM     51  C   UNL A   1      48.721  29.376  26.820  1.00  0.00     0.049 A 
ATOM     52  C   UNL A   1      43.300  29.593  28.225  1.00  0.00     0.074 A 
ATOM     53  C   UNL A   1      49.450  30.542  26.975  1.00  0.00     0.029 A 
ATOM     54  N   UNL A   1      47.427  29.655  27.235  1.00  0.00    -0.354 N 
ATOM     55  N   UNL A   1      44.574  29.698  27.932  1.00  0.00    -0.248 NA
ATOM     56  C   UNL A   1      42.716  30.809  28.807  1.00  0.00     0.031 C 
ATOM     57  C   UNL A   1      48.610  31.513  27.528  1.00  0.00     0.029 A 
ATOM     58  C   UNL A   1      47.343  30.969  27.665  1.00  0.00     0.049 A 
ATOM     59  H   UNL A   1      46.681  29.015  27.225  1.00  0.00     0.167 HD
ATOM     60  C   UNL A   1      44.935  30.998  28.261  1.00  0.00     0.074 A 
ATOM     61  C   UNL A   1      43.742  31.647  28.765  1.00  0.00     0.031 C 
ATOM     62  C   UNL A   1      46.143  31.602  28.153  1.00  0.00     0.037 A 
BRANCH  49  63
ATOM     63  C   UNL A   1      50.617  27.932  25.976  1.00  0.00     0.057 A 
ATOM     64  C   UNL A   1      51.075  28.055  24.657  1.00  0.00     0.134 A 
ATOM     65  C   UNL A   1      51.571  27.675  26.968  1.00  0.00     0.134 A 
ATOM     66  F   UNL A   1      50.212  28.289  23.656  1.00  0.00    -0.206 F 
ATOM     67  C   UNL A   1      52.424  27.899  24.335  1.00  0.00     0.040 A 
ATOM     68  C   UNL A   1      52.927  27.547  26.663  1.00  0.00     0.040 A 
ATOM     69  F   UNL A   1      51.204  27.551  28.253  1.00  0.00    -0.206 F 
ATOM     70  C   UNL A   1      53.356  27.652  25.340  1.00  0.00     0.006 A 
ENDBRANCH  49  63
BRANCH  50  71
ATOM     71  C   UNL A   1      40.948  28.510  28.430  1.00  0.00     0.057 A 
ATOM     72  C   UNL A   1      39.976  28.935  27.516  1.00  0.00     0.134 A 
ATOM     73  C   UNL A   1      40.518  28.185  29.723  1.00  0.00     0.134 A 
ATOM     74  F   UNL A   1      40.329  29.276  26.268  1.00  0.00    -0.206 F 
ATOM     75  C   UNL A   1      38.633  29.058  27.879  1.00  0.00     0.040 A 
ATOM     76  C   UNL A   1      39.174  28.278  30.091  1.00  0.00     0.040 A 
ATOM     77  F   UNL A   1      41.397  27.763  30.643  1.00  0.00    -0.206 F 
ATOM     78  C   UNL A   1      38.230  28.724  29.169  1.00  0.00     0.006 A 
ENDBRANCH  50  71
BRANCH  62  79
ATOM     79  C   UNL A   1      46.226  33.049  28.544  1.00  0.00     0.057 A 
ATOM     80  C   UNL A   1      46.562  33.451  29.843  1.00  0.00     0.134 A 
ATOM     81  C   UNL A   1      46.007  34.054  27.593  1.00  0.00     0.134 A 
ATOM     82  F   UNL A   1      46.773  32.538  30.804  1.00  0.00    -0.206 F 
ATOM     83  C   UNL A   1      46.651  34.800  30.188  1.00  0.00     0.040 A 
ATOM     84  C   UNL A   1      46.122  35.405  27.919  1.00  0.00     0.040 A 
ATOM     85  F   UNL A   1      45.692  33.739  26.327  1.00  0.00    -0.206 F 
ATOM     86  C   UNL A   1      46.438  35.781  29.223  1.00  0.00     0.006 A 
ENDBRANCH  62  79
ENDBRANCH  36  37
ENDBRANCH  28  31
ENDBRANCH  26  27
ENDBRANCH  25  26
ENDBRANCH  24  25
ENDBRANCH   1  24
TORSDOF 16
ENDMDL
MODEL 3
REMARK VINA RESULT:     -11.0      1.368      2.221
REMARK SMILES COc1ccccc1-c1ccc(C(=O)NCCCCCCNC(=O)c2ccc(-c3c4nc(c(-c5c(F)cccc5F)c5ccc([nH]5)c(-c5c(F)cccc5F)c5nc(c(-c6c(F)cccc6F)c6ccc3[nH]6)C=C5)C=C4)cc2)c(O)c1
REMARK SMILES IDX 18 1 17 2 16 3 15 4 13 5 14 6 12 8 9 9 10 10 81 11 11 12
REMARK SMILES IDX 79 13 8 14 3 15 4 16 5 17 7 18 6 19 2 20 1 21 80 22 19 24
REMARK SMILES IDX 20 25 21 26 22 27 23 28 24 30 25 31 26 32 78 33 27 34 77 35
REMARK SMILES IDX 28 36 29 37 30 38 71 39 31 40 76 41 70 42 72 43 32 44 75 45
REMARK SMILES IDX 69 46 68 47 33 49 59 50 42 51 58 52 43 53 46 54 57 55 73 56
REMARK SMILES IDX 44 57 45 58 56 60 74 61 47 62 34 63 35 64 40 65 36 66 37 67
REMARK SMILES IDX 39 68 41 69 38 70 60 71 61 72 66 73 62 74 63 75 65 76 67 77
REMARK SMILES IDX 64 78 48 79 49 80 54 81 50 82 51 83 53 84 55 85 52 86
REMARK H PARENT 15 7 80 23 22 29 72 48 46 59
REMARK Flexibility Score: inf
ROOT
ATOM      1  C   UNL A   1      32.311  28.995  23.539  1.00  0.00     0.002 C 
ENDROOT
BRANCH   1   2
ATOM      2  C   UNL A   1      30.857  28.719  23.931  1.00  0.00     0.021 C 
BRANCH   2   3
ATOM      3  C   UNL A   1      30.422  27.273  23.673  1.00  0.00     0.116 C 
BRANCH   3   4
ATOM      4  N   UNL A   1      29.855  26.720  24.883  1.00  0.00    -0.352 N 
ATOM      5  C   UNL A   1      30.104  25.544  25.542  1.00  0.00     0.255 C 
ATOM      6  O   UNL A   1      29.372  25.269  26.496  1.00  0.00    -0.269 OA
ATOM      7  H   UNL A   1      29.173  27.287  25.309  1.00  0.00     0.163 HD
BRANCH   5   8
ATOM      8  C   UNL A   1      31.268  24.659  25.255  1.00  0.00     0.081 A 
ATOM      9  C   UNL A   1      33.644  23.141  24.975  1.00  0.00    -0.011 A 
ATOM     10  C   UNL A   1      33.398  23.854  26.151  1.00  0.00     0.010 A 
ATOM     11  C   UNL A   1      32.668  23.149  23.970  1.00  0.00     0.055 A 
ATOM     12  C   UNL A   1      32.232  24.611  26.282  1.00  0.00     0.018 A 
ATOM     13  C   UNL A   1      31.481  23.871  24.121  1.00  0.00     0.128 A 
BRANCH   9  14
ATOM     14  C   UNL A   1      34.873  22.370  24.777  1.00  0.00     0.024 A 
ATOM     15  C   UNL A   1      34.960  20.989  25.045  1.00  0.00     0.126 A 
ATOM     16  C   UNL A   1      36.196  20.337  25.000  1.00  0.00     0.047 A 
ATOM     17  C   UNL A   1      37.352  21.038  24.658  1.00  0.00     0.004 A 
ATOM     18  C   UNL A   1      36.048  23.055  24.417  1.00  0.00     0.012 A 
ATOM     19  C   UNL A   1      37.278  22.397  24.363  1.00  0.00     0.001 A 
BRANCH  15  20
ATOM     20  O   UNL A   1      33.908  20.223  25.484  1.00  0.00    -0.496 OA
ATOM     21  C   UNL A   1      33.336  19.408  24.462  1.00  0.00     0.278 C 
ENDBRANCH  15  20
ENDBRANCH   9  14
BRANCH  13  22
ATOM     22  O   UNL A   1      30.544  23.724  23.140  1.00  0.00    -0.507 OA
ATOM     23  H   UNL A   1      30.494  22.922  22.658  1.00  0.00     0.293 HD
ENDBRANCH  13  22
ENDBRANCH   5   8
ENDBRANCH   3   4
ENDBRANCH   2   3
ENDBRANCH   1   2
BRANCH   1  24
ATOM     24  C   UNL A   1      33.244  29.255  24.724  1.00  0.00     0.002 C 
BRANCH  24  25
ATOM     25  C   UNL A   1      33.562  28.019  25.570  1.00  0.00     0.021 C 
BRANCH  25  26
ATOM     26  C   UNL A   1      33.749  28.315  27.054  1.00  0.00     0.116 C 
BRANCH  26  27
ATOM     27  N   UNL A   1      33.634  29.739  27.329  1.00  0.00    -0.352 N 
ATOM     28  C   UNL A   1      34.499  30.561  28.005  1.00  0.00     0.251 C 
ATOM     29  H   UNL A   1      32.822  30.173  26.982  1.00  0.00     0.163 HD
ATOM     30  O   UNL A   1      34.136  31.669  28.383  1.00  0.00    -0.269 OA
BRANCH  28  31
ATOM     31  C   UNL A   1      35.875  30.100  28.278  1.00  0.00     0.039 A 
ATOM     32  C   UNL A   1      36.840  30.206  27.273  1.00  0.00     0.014 A 
ATOM     33  C   UNL A   1      36.203  29.543  29.518  1.00  0.00     0.014 A 
ATOM     34  C   UNL A   1      38.148  29.792  27.528  1.00  0.00     0.010 A 
ATOM     35  C   UNL A   1      37.522  29.203  29.794  1.00  0.00     0.010 A 
ATOM     36  C   UNL A   1      38.504  29.310  28.798  1.00  0.00    -0.014 A 
BRANCH  36  37
ATOM     37  C   UNL A   1      39.894  28.887  29.099  1.00  0.00     0.031 A 
ATOM     38  C   UNL A   1      40.824  29.823  29.820  1.00  0.00     0.074 A 
ATOM     39  C   UNL A   1      40.335  27.689  28.670  1.00  0.00     0.049 A 
ATOM     40  N   UNL A   1      42.090  29.670  30.113  1.00  0.00    -0.248 NA
ATOM     41  C   UNL A   1      40.263  31.116  30.246  1.00  0.00     0.031 C 
ATOM     42  C   UNL A   1      39.541  26.712  27.923  1.00  0.00     0.029 A 
ATOM     43  N   UNL A   1      41.564  27.093  28.794  1.00  0.00    -0.354 N 
ATOM     44  C   UNL A   1      42.477  30.847  30.740  1.00  0.00     0.074 A 
ATOM     45  C   UNL A   1      41.331  31.728  30.733  1.00  0.00     0.031 C 
ATOM     46  C   UNL A   1      40.296  25.630  27.675  1.00  0.00     0.029 A 
ATOM     47  C   UNL A   1      41.635  25.852  28.209  1.00  0.00     0.049 A 
ATOM     48  H   UNL A   1      42.324  27.515  29.257  1.00  0.00     0.167 HD
ATOM     49  C   UNL A   1      43.674  31.157  31.293  1.00  0.00     0.037 A 
ATOM     50  C   UNL A   1      42.668  24.993  28.111  1.00  0.00     0.037 A 
ATOM     51  C   UNL A   1      44.805  30.267  31.316  1.00  0.00     0.049 A 
ATOM     52  C   UNL A   1      43.990  25.365  28.725  1.00  0.00     0.074 A 
ATOM     53  C   UNL A   1      46.046  30.464  31.898  1.00  0.00     0.029 A 
ATOM     54  N   UNL A   1      44.833  29.010  30.730  1.00  0.00    -0.354 N 
ATOM     55  N   UNL A   1      44.325  26.456  29.371  1.00  0.00    -0.248 NA
ATOM     56  C   UNL A   1      45.075  24.383  28.604  1.00  0.00     0.031 C 
ATOM     57  C   UNL A   1      46.840  29.346  31.623  1.00  0.00     0.029 A 
ATOM     58  C   UNL A   1      46.076  28.429  30.918  1.00  0.00     0.049 A 
ATOM     59  H   UNL A   1      44.081  28.594  30.251  1.00  0.00     0.167 HD
ATOM     60  C   UNL A   1      45.646  26.277  29.762  1.00  0.00     0.074 A 
ATOM     61  C   UNL A   1      46.046  24.968  29.290  1.00  0.00     0.031 C 
ATOM     62  C   UNL A   1      46.454  27.119  30.451  1.00  0.00     0.037 A 
BRANCH  49  63
ATOM     63  C   UNL A   1      43.817  32.514  31.921  1.00  0.00     0.057 A 
ATOM     64  C   UNL A   1      43.522  32.739  33.272  1.00  0.00     0.134 A 
ATOM     65  C   UNL A   1      44.283  33.602  31.173  1.00  0.00     0.134 A 
ATOM     66  F   UNL A   1      43.060  31.743  34.043  1.00  0.00    -0.206 F 
ATOM     67  C   UNL A   1      43.656  34.003  33.849  1.00  0.00     0.040 A 
ATOM     68  C   UNL A   1      44.451  34.864  31.745  1.00  0.00     0.040 A 
ATOM     69  F   UNL A   1      44.590  33.457  29.875  1.00  0.00    -0.206 F 
ATOM     70  C   UNL A   1      44.130  35.069  33.087  1.00  0.00     0.006 A 
ENDBRANCH  49  63
BRANCH  50  71
ATOM     71  C   UNL A   1      42.489  23.688  27.427  1.00  0.00     0.057 A 
ATOM     72  C   UNL A   1      42.142  22.538  28.145  1.00  0.00     0.134 A 
ATOM     73  C   UNL A   1      42.669  23.555  26.045  1.00  0.00     0.134 A 
ATOM     74  F   UNL A   1      41.972  22.599  29.475  1.00  0.00    -0.206 F 
ATOM     75  C   UNL A   1      42.004  21.298  27.519  1.00  0.00     0.040 A 
ATOM     76  C   UNL A   1      42.508  22.326  25.402  1.00  0.00     0.040 A 
ATOM     77  F   UNL A   1      42.993  24.620  25.298  1.00  0.00    -0.206 F 
ATOM     78  C   UNL A   1      42.184  21.191  26.142  1.00  0.00     0.006 A 
ENDBRANCH  50  71
BRANCH  62  79
ATOM     79  C   UNL A   1      47.836  26.632  30.778  1.00  0.00     0.057 A 
ATOM     80  C   UNL A   1      48.108  25.890  31.934  1.00  0.00     0.134 A 
ATOM     81  C   UNL A   1      48.900  26.877  29.901  1.00  0.00     0.134 A 
ATOM     82  F   UNL A   1      47.135  25.631  32.822  1.00  0.00    -0.206 F 
ATOM     83  C   UNL A   1      49.395  25.430  32.219  1.00  0.00     0.040 A 
ATOM     84  C   UNL A   1      50.184  26.397  30.160  1.00  0.00     0.040 A 
ATOM     85  F   UNL A   1      48.706  27.572  28.771  1.00  0.00    -0.206 F 
ATOM     86  C   UNL A   1      50.436  25.678  31.326  1.00  0.00     0.006 A 
ENDBRANCH  62  79
ENDBRANCH  36  37
ENDBRANCH  28  31
ENDBRANCH  26  27
ENDBRANCH  25  26
ENDBRANCH  24  25
ENDBRANCH   1  24
TORSDOF 16
ENDMDL
