MODEL 1
REMARK VINA RESULT:     -11.3      0.000      0.000
REMARK SMILES CCOc1cccc2c(SCC(=O)NCCCCCCNC(=O)c3ccc(-c4c5nc(c(-c6c(F)cccc6F)c6ccc([nH]6)c(-c6c(F)cccc6F)c6nc(c(-c7c(F)cccc7F)c7ccc4[nH]7)C=C6)C=C5)cc3)cc(C)nc12
REMARK SMILES IDX 16 1 15 2 14 3 12 4 13 5 11 7 10 8 9 9 4 10 5 11 82 12 6 13
REMARK SMILES IDX 8 14 81 15 7 16 79 17 78 18 80 19 3 20 2 21 1 22 17 23 18 24
REMARK SMILES IDX 19 25 20 26 21 27 22 28 23 30 24 31 25 32 77 33 26 34 76 35
REMARK SMILES IDX 27 36 28 37 29 38 70 39 30 40 75 41 69 42 71 43 31 44 74 45
REMARK SMILES IDX 68 46 67 47 32 49 58 50 41 51 57 52 42 53 45 54 56 55 72 56
REMARK SMILES IDX 43 57 44 58 55 60 73 61 46 62 33 63 34 64 39 65 35 66 36 67
REMARK SMILES IDX 38 68 40 69 37 70 59 71 60 72 65 73 61 74 62 75 64 76 66 77
REMARK SMILES IDX 63 78 47 79 48 80 53 81 49 82 50 83 52 84 54 85 51 86
REMARK H PARENT 14 6 21 29 71 48 45 59
REMARK Flexibility Score: inf
ROOT
ATOM      1  C   UNL A   1      31.413  28.122  26.833  1.00  0.00     0.021 C 
ENDROOT
BRANCH   1   2
ATOM      2  C   UNL A   1      32.287  26.873  26.702  1.00  0.00     0.116 C 
BRANCH   2   3
ATOM      3  N   UNL A   1      31.559  25.693  27.125  1.00  0.00    -0.355 N 
ATOM      4  C   UNL A   1      31.617  24.421  26.646  1.00  0.00     0.230 C 
ATOM      5  O   UNL A   1      30.829  23.597  27.117  1.00  0.00    -0.274 OA
ATOM      6  H   UNL A   1      30.929  25.834  27.867  1.00  0.00     0.163 HD
BRANCH   4   7
ATOM      7  C   UNL A   1      32.678  24.001  25.646  1.00  0.00     0.174 C 
BRANCH   7   8
ATOM      8  S   UNL A   1      32.169  24.074  23.897  1.00  0.00    -0.115 SA
BRANCH   8   9
ATOM      9  C   UNL A   1      32.062  25.823  23.469  1.00  0.00     0.019 A 
ATOM     10  C   UNL A   1      29.544  28.534  23.196  1.00  0.00     0.145 A 
ATOM     11  C   UNL A   1      28.341  27.898  23.507  1.00  0.00     0.049 A 
ATOM     12  C   UNL A   1      30.769  27.853  23.179  1.00  0.00     0.114 A 
ATOM     13  C   UNL A   1      28.340  26.539  23.777  1.00  0.00     0.005 A 
ATOM     14  C   UNL A   1      30.788  26.473  23.473  1.00  0.00     0.018 A 
ATOM     15  N   UNL A   1      31.892  28.529  22.884  1.00  0.00    -0.249 NA
ATOM     16  C   UNL A   1      29.546  25.837  23.761  1.00  0.00     0.012 A 
ATOM     17  C   UNL A   1      33.077  27.897  22.842  1.00  0.00     0.039 A 
ATOM     18  C   UNL A   1      33.205  26.561  23.162  1.00  0.00     0.039 A 
ATOM     19  C   UNL A   1      34.244  28.712  22.381  1.00  0.00     0.067 C 
BRANCH  10  20
ATOM     20  O   UNL A   1      29.490  29.904  23.034  1.00  0.00    -0.492 OA
BRANCH  20  21
ATOM     21  C   UNL A   1      28.212  30.361  22.577  1.00  0.00     0.226 C 
ATOM     22  C   UNL A   1      27.703  31.547  23.383  1.00  0.00     0.049 C 
ENDBRANCH  20  21
ENDBRANCH  10  20
ENDBRANCH   8   9
ENDBRANCH   7   8
ENDBRANCH   4   7
ENDBRANCH   2   3
ENDBRANCH   1   2
BRANCH   1  23
ATOM     23  C   UNL A   1      32.205  29.437  26.841  1.00  0.00     0.002 C 
BRANCH  23  24
ATOM     24  C   UNL A   1      31.686  30.515  25.883  1.00  0.00     0.002 C 
BRANCH  24  25
ATOM     25  C   UNL A   1      31.434  31.881  26.525  1.00  0.00     0.021 C 
BRANCH  25  26
ATOM     26  C   UNL A   1      32.636  32.461  27.264  1.00  0.00     0.116 C 
BRANCH  26  27
ATOM     27  N   UNL A   1      32.469  33.876  27.554  1.00  0.00    -0.352 N 
ATOM     28  C   UNL A   1      33.108  34.657  28.488  1.00  0.00     0.251 C 
ATOM     29  H   UNL A   1      31.802  34.343  27.002  1.00  0.00     0.163 HD
ATOM     30  O   UNL A   1      32.706  35.786  28.735  1.00  0.00    -0.269 OA
BRANCH  28  31
ATOM     31  C   UNL A   1      34.274  34.111  29.217  1.00  0.00     0.039 A 
ATOM     32  C   UNL A   1      34.067  33.487  30.449  1.00  0.00     0.014 A 
ATOM     33  C   UNL A   1      35.558  34.193  28.674  1.00  0.00     0.014 A 
ATOM     34  C   UNL A   1      35.139  32.870  31.098  1.00  0.00     0.010 A 
ATOM     35  C   UNL A   1      36.610  33.516  29.284  1.00  0.00     0.010 A 
ATOM     36  C   UNL A   1      36.408  32.835  30.495  1.00  0.00    -0.014 A 
BRANCH  36  37
ATOM     37  C   UNL A   1      37.520  32.050  31.086  1.00  0.00     0.031 A 
ATOM     38  C   UNL A   1      38.041  32.378  32.456  1.00  0.00     0.074 A 
ATOM     39  C   UNL A   1      38.116  31.092  30.348  1.00  0.00     0.049 A 
ATOM     40  N   UNL A   1      39.060  31.863  33.097  1.00  0.00    -0.248 NA
ATOM     41  C   UNL A   1      37.340  33.439  33.195  1.00  0.00     0.031 C 
ATOM     42  C   UNL A   1      37.729  30.709  28.989  1.00  0.00     0.029 A 
ATOM     43  N   UNL A   1      39.182  30.275  30.632  1.00  0.00    -0.354 N 
ATOM     44  C   UNL A   1      39.127  32.541  34.307  1.00  0.00     0.074 A 
ATOM     45  C   UNL A   1      38.078  33.537  34.292  1.00  0.00     0.031 C 
ATOM     46  C   UNL A   1      38.533  29.721  28.564  1.00  0.00     0.029 A 
ATOM     47  C   UNL A   1      39.522  29.435  29.598  1.00  0.00     0.049 A 
ATOM     48  H   UNL A   1      39.659  30.291  31.493  1.00  0.00     0.167 HD
ATOM     49  C   UNL A   1      39.973  32.336  35.345  1.00  0.00     0.037 A 
ATOM     50  C   UNL A   1      40.529  28.547  29.488  1.00  0.00     0.037 A 
ATOM     51  C   UNL A   1      41.009  31.335  35.359  1.00  0.00     0.049 A 
ATOM     52  C   UNL A   1      41.481  28.370  30.638  1.00  0.00     0.074 A 
ATOM     53  C   UNL A   1      41.877  31.009  36.387  1.00  0.00     0.029 A 
ATOM     54  N   UNL A   1      41.325  30.508  34.292  1.00  0.00    -0.354 N 
ATOM     55  N   UNL A   1      41.485  28.964  31.806  1.00  0.00    -0.248 NA
ATOM     56  C   UNL A   1      42.571  27.401  30.453  1.00  0.00     0.031 C 
ATOM     57  C   UNL A   1      42.756  30.026  35.923  1.00  0.00     0.029 A 
ATOM     58  C   UNL A   1      42.401  29.699  34.624  1.00  0.00     0.049 A 
ATOM     59  H   UNL A   1      40.855  30.496  33.428  1.00  0.00     0.167 HD
ATOM     60  C   UNL A   1      42.560  28.428  32.502  1.00  0.00     0.074 A 
ATOM     61  C   UNL A   1      43.173  27.445  31.633  1.00  0.00     0.031 C 
ATOM     62  C   UNL A   1      43.003  28.725  33.748  1.00  0.00     0.037 A 
BRANCH  49  63
ATOM     63  C   UNL A   1      39.819  33.214  36.553  1.00  0.00     0.057 A 
ATOM     64  C   UNL A   1      40.572  34.384  36.718  1.00  0.00     0.134 A 
ATOM     65  C   UNL A   1      38.873  32.911  37.541  1.00  0.00     0.134 A 
ATOM     66  F   UNL A   1      41.501  34.728  35.814  1.00  0.00    -0.206 F 
ATOM     67  C   UNL A   1      40.407  35.207  37.833  1.00  0.00     0.040 A 
ATOM     68  C   UNL A   1      38.679  33.742  38.646  1.00  0.00     0.040 A 
ATOM     69  F   UNL A   1      38.112  31.810  37.442  1.00  0.00    -0.206 F 
ATOM     70  C   UNL A   1      39.452  34.891  38.798  1.00  0.00     0.006 A 
ENDBRANCH  49  63
BRANCH  50  71
ATOM     71  C   UNL A   1      40.691  27.758  28.240  1.00  0.00     0.057 A 
ATOM     72  C   UNL A   1      41.439  28.251  27.165  1.00  0.00     0.134 A 
ATOM     73  C   UNL A   1      40.093  26.500  28.085  1.00  0.00     0.134 A 
ATOM     74  F   UNL A   1      42.021  29.456  27.245  1.00  0.00    -0.206 F 
ATOM     75  C   UNL A   1      41.571  27.534  25.975  1.00  0.00     0.040 A 
ATOM     76  C   UNL A   1      40.240  25.760  26.911  1.00  0.00     0.040 A 
ATOM     77  F   UNL A   1      39.367  25.967  29.079  1.00  0.00    -0.206 F 
ATOM     78  C   UNL A   1      40.975  26.280  25.848  1.00  0.00     0.006 A 
ENDBRANCH  50  71
BRANCH  62  79
ATOM     79  C   UNL A   1      44.197  27.970  34.255  1.00  0.00     0.057 A 
ATOM     80  C   UNL A   1      44.070  26.722  34.881  1.00  0.00     0.134 A 
ATOM     81  C   UNL A   1      45.491  28.471  34.070  1.00  0.00     0.134 A 
ATOM     82  F   UNL A   1      42.857  26.192  35.101  1.00  0.00    -0.206 F 
ATOM     83  C   UNL A   1      45.187  26.011  35.320  1.00  0.00     0.040 A 
ATOM     84  C   UNL A   1      46.617  27.755  34.479  1.00  0.00     0.040 A 
ATOM     85  F   UNL A   1      45.685  29.656  33.471  1.00  0.00    -0.206 F 
ATOM     86  C   UNL A   1      46.466  26.523  35.111  1.00  0.00     0.006 A 
ENDBRANCH  62  79
ENDBRANCH  36  37
ENDBRANCH  28  31
ENDBRANCH  26  27
ENDBRANCH  25  26
ENDBRANCH  24  25
ENDBRANCH  23  24
ENDBRANCH   1  23
TORSDOF 17
ENDMDL
MODEL 2
REMARK VINA RESULT:     -11.3      0.865      6.162
REMARK SMILES CCOc1cccc2c(SCC(=O)NCCCCCCNC(=O)c3ccc(-c4c5nc(c(-c6c(F)cccc6F)c6ccc([nH]6)c(-c6c(F)cccc6F)c6nc(c(-c7c(F)cccc7F)c7ccc4[nH]7)C=C6)C=C5)cc3)cc(C)nc12
REMARK SMILES IDX 16 1 15 2 14 3 12 4 13 5 11 7 10 8 9 9 4 10 5 11 82 12 6 13
REMARK SMILES IDX 8 14 81 15 7 16 79 17 78 18 80 19 3 20 2 21 1 22 17 23 18 24
REMARK SMILES IDX 19 25 20 26 21 27 22 28 23 30 24 31 25 32 77 33 26 34 76 35
REMARK SMILES IDX 27 36 28 37 29 38 70 39 30 40 75 41 69 42 71 43 31 44 74 45
REMARK SMILES IDX 68 46 67 47 32 49 58 50 41 51 57 52 42 53 45 54 56 55 72 56
REMARK SMILES IDX 43 57 44 58 55 60 73 61 46 62 33 63 34 64 39 65 35 66 36 67
REMARK SMILES IDX 38 68 40 69 37 70 59 71 60 72 65 73 61 74 62 75 64 76 66 77
REMARK SMILES IDX 63 78 47 79 48 80 53 81 49 82 50 83 52 84 54 85 51 86
REMARK H PARENT 14 6 21 29 71 48 45 59
REMARK Flexibility Score: inf
ROOT
ATOM      1  C   UNL A   1      31.411  28.102  26.872  1.00  0.00     0.021 C 
ENDROOT
BRANCH   1   2
ATOM      2  C   UNL A   1      32.197  26.832  26.541  1.00  0.00     0.116 C 
BRANCH   2   3
ATOM      3  N   UNL A   1      31.548  25.667  27.107  1.00  0.00    -0.355 N 
ATOM      4  C   UNL A   1      31.355  24.433  26.565  1.00  0.00     0.230 C 
ATOM      5  O   UNL A   1      30.692  23.621  27.215  1.00  0.00    -0.274 OA
ATOM      6  H   UNL A   1      31.193  25.785  28.017  1.00  0.00     0.163 HD
BRANCH   4   7
ATOM      7  C   UNL A   1      32.016  24.032  25.259  1.00  0.00     0.174 C 
BRANCH   7   8
ATOM      8  S   UNL A   1      31.020  24.327  23.762  1.00  0.00    -0.115 SA
BRANCH   8   9
ATOM      9  C   UNL A   1      31.277  26.055  23.310  1.00  0.00     0.019 A 
ATOM     10  C   UNL A   1      29.367  29.217  22.970  1.00  0.00     0.145 A 
ATOM     11  C   UNL A   1      28.057  28.845  23.274  1.00  0.00     0.049 A 
ATOM     12  C   UNL A   1      30.428  28.301  22.978  1.00  0.00     0.114 A 
ATOM     13  C   UNL A   1      27.776  27.519  23.561  1.00  0.00     0.005 A 
ATOM     14  C   UNL A   1      30.162  26.951  23.289  1.00  0.00     0.018 A 
ATOM     15  N   UNL A   1      31.668  28.729  22.688  1.00  0.00    -0.249 NA
ATOM     16  C   UNL A   1      28.814  26.586  23.569  1.00  0.00     0.012 A 
ATOM     17  C   UNL A   1      32.699  27.868  22.670  1.00  0.00     0.039 A 
ATOM     18  C   UNL A   1      32.549  26.539  23.008  1.00  0.00     0.039 A 
ATOM     19  C   UNL A   1      34.013  28.421  22.214  1.00  0.00     0.067 C 
BRANCH  10  20
ATOM     20  O   UNL A   1      29.596  30.567  22.790  1.00  0.00    -0.492 OA
BRANCH  20  21
ATOM     21  C   UNL A   1      28.787  31.136  21.754  1.00  0.00     0.226 C 
ATOM     22  C   UNL A   1      28.407  32.580  22.047  1.00  0.00     0.049 C 
ENDBRANCH  20  21
ENDBRANCH  10  20
ENDBRANCH   8   9
ENDBRANCH   7   8
ENDBRANCH   4   7
ENDBRANCH   2   3
ENDBRANCH   1   2
BRANCH   1  23
ATOM     23  C   UNL A   1      32.280  29.363  26.978  1.00  0.00     0.002 C 
BRANCH  23  24
ATOM     24  C   UNL A   1      31.911  30.490  26.007  1.00  0.00     0.002 C 
BRANCH  24  25
ATOM     25  C   UNL A   1      31.515  31.810  26.673  1.00  0.00     0.021 C 
BRANCH  25  26
ATOM     26  C   UNL A   1      32.672  32.554  27.332  1.00  0.00     0.116 C 
BRANCH  26  27
ATOM     27  N   UNL A   1      32.361  33.956  27.560  1.00  0.00    -0.352 N 
ATOM     28  C   UNL A   1      32.924  34.842  28.449  1.00  0.00     0.251 C 
ATOM     29  H   UNL A   1      31.643  34.326  26.998  1.00  0.00     0.163 HD
ATOM     30  O   UNL A   1      32.408  35.933  28.651  1.00  0.00    -0.269 OA
BRANCH  28  31
ATOM     31  C   UNL A   1      34.147  34.454  29.184  1.00  0.00     0.039 A 
ATOM     32  C   UNL A   1      34.024  33.949  30.480  1.00  0.00     0.014 A 
ATOM     33  C   UNL A   1      35.405  34.568  28.588  1.00  0.00     0.014 A 
ATOM     34  C   UNL A   1      35.156  33.476  31.147  1.00  0.00     0.010 A 
ATOM     35  C   UNL A   1      36.521  34.031  29.223  1.00  0.00     0.010 A 
ATOM     36  C   UNL A   1      36.406  33.466  30.502  1.00  0.00    -0.014 A 
BRANCH  36  37
ATOM     37  C   UNL A   1      37.589  32.824  31.127  1.00  0.00     0.031 A 
ATOM     38  C   UNL A   1      38.206  31.599  30.513  1.00  0.00     0.074 A 
ATOM     39  C   UNL A   1      38.056  33.300  32.298  1.00  0.00     0.049 A 
ATOM     40  N   UNL A   1      39.182  30.852  30.963  1.00  0.00    -0.248 NA
ATOM     41  C   UNL A   1      37.636  31.140  29.237  1.00  0.00     0.031 C 
ATOM     42  C   UNL A   1      37.517  34.457  33.016  1.00  0.00     0.029 A 
ATOM     43  N   UNL A   1      39.082  32.862  33.099  1.00  0.00    -0.354 N 
ATOM     44  C   UNL A   1      39.338  29.833  30.032  1.00  0.00     0.074 A 
ATOM     45  C   UNL A   1      38.324  30.028  29.019  1.00  0.00     0.031 C 
ATOM     46  C   UNL A   1      38.227  34.648  34.140  1.00  0.00     0.029 A 
ATOM     47  C   UNL A   1      39.237  33.600  34.248  1.00  0.00     0.049 A 
ATOM     48  H   UNL A   1      39.651  32.092  32.873  1.00  0.00     0.167 HD
ATOM     49  C   UNL A   1      40.257  28.838  30.015  1.00  0.00     0.037 A 
ATOM     50  C   UNL A   1      40.084  33.442  35.283  1.00  0.00     0.037 A 
ATOM     51  C   UNL A   1      41.271  28.655  31.021  1.00  0.00     0.049 A 
ATOM     52  C   UNL A   1      41.065  32.302  35.260  1.00  0.00     0.074 A 
ATOM     53  C   UNL A   1      42.286  27.714  31.059  1.00  0.00     0.029 A 
ATOM     54  N   UNL A   1      41.392  29.420  32.172  1.00  0.00    -0.354 N 
ATOM     55  N   UNL A   1      41.252  31.392  34.336  1.00  0.00    -0.248 NA
ATOM     56  C   UNL A   1      41.952  32.167  36.424  1.00  0.00     0.031 C 
ATOM     57  C   UNL A   1      42.984  27.872  32.260  1.00  0.00     0.029 A 
ATOM     58  C   UNL A   1      42.440  28.947  32.945  1.00  0.00     0.049 A 
ATOM     59  H   UNL A   1      40.819  30.186  32.404  1.00  0.00     0.167 HD
ATOM     60  C   UNL A   1      42.288  30.589  34.795  1.00  0.00     0.074 A 
ATOM     61  C   UNL A   1      42.704  31.134  36.071  1.00  0.00     0.031 C 
ATOM     62  C   UNL A   1      42.843  29.498  34.215  1.00  0.00     0.037 A 
BRANCH  49  63
ATOM     63  C   UNL A   1      40.207  27.865  28.873  1.00  0.00     0.057 A 
ATOM     64  C   UNL A   1      40.894  28.096  27.674  1.00  0.00     0.134 A 
ATOM     65  C   UNL A   1      39.503  26.660  28.991  1.00  0.00     0.134 A 
ATOM     66  F   UNL A   1      41.580  29.234  27.492  1.00  0.00    -0.206 F 
ATOM     67  C   UNL A   1      40.861  27.176  26.624  1.00  0.00     0.040 A 
ATOM     68  C   UNL A   1      39.487  25.719  27.959  1.00  0.00     0.040 A 
ATOM     69  F   UNL A   1      38.830  26.370  30.115  1.00  0.00    -0.206 F 
ATOM     70  C   UNL A   1      40.162  25.979  26.769  1.00  0.00     0.006 A 
ENDBRANCH  49  63
BRANCH  50  71
ATOM     71  C   UNL A   1      40.042  34.383  36.431  1.00  0.00     0.057 A 
ATOM     72  C   UNL A   1      39.267  34.107  37.563  1.00  0.00     0.134 A 
ATOM     73  C   UNL A   1      40.762  35.585  36.421  1.00  0.00     0.134 A 
ATOM     74  F   UNL A   1      38.540  32.982  37.625  1.00  0.00    -0.206 F 
ATOM     75  C   UNL A   1      39.192  34.999  38.634  1.00  0.00     0.040 A 
ATOM     76  C   UNL A   1      40.719  36.472  37.497  1.00  0.00     0.040 A 
ATOM     77  F   UNL A   1      41.530  35.906  35.369  1.00  0.00    -0.206 F 
ATOM     78  C   UNL A   1      39.925  36.185  38.605  1.00  0.00     0.006 A 
ENDBRANCH  50  71
BRANCH  62  79
ATOM     79  C   UNL A   1      43.971  28.827  34.944  1.00  0.00     0.057 A 
ATOM     80  C   UNL A   1      43.750  27.755  35.819  1.00  0.00     0.134 A 
ATOM     81  C   UNL A   1      45.296  29.226  34.732  1.00  0.00     0.134 A 
ATOM     82  F   UNL A   1      42.503  27.333  36.077  1.00  0.00    -0.206 F 
ATOM     83  C   UNL A   1      44.807  27.115  36.468  1.00  0.00     0.040 A 
ATOM     84  C   UNL A   1      46.363  28.575  35.354  1.00  0.00     0.040 A 
ATOM     85  F   UNL A   1      45.579  30.241  33.901  1.00  0.00    -0.206 F 
ATOM     86  C   UNL A   1      46.119  27.520  36.229  1.00  0.00     0.006 A 
ENDBRANCH  62  79
ENDBRANCH  36  37
ENDBRANCH  28  31
ENDBRANCH  26  27
ENDBRANCH  25  26
ENDBRANCH  24  25
ENDBRANCH  23  24
ENDBRANCH   1  23
TORSDOF 17
ENDMDL
MODEL 3
REMARK VINA RESULT:     -11.1      2.401      7.516
REMARK SMILES CCOc1cccc2c(SCC(=O)NCCCCCCNC(=O)c3ccc(-c4c5nc(c(-c6c(F)cccc6F)c6ccc([nH]6)c(-c6c(F)cccc6F)c6nc(c(-c7c(F)cccc7F)c7ccc4[nH]7)C=C6)C=C5)cc3)cc(C)nc12
REMARK SMILES IDX 16 1 15 2 14 3 12 4 13 5 11 7 10 8 9 9 4 10 5 11 82 12 6 13
REMARK SMILES IDX 8 14 81 15 7 16 79 17 78 18 80 19 3 20 2 21 1 22 17 23 18 24
REMARK SMILES IDX 19 25 20 26 21 27 22 28 23 30 24 31 25 32 77 33 26 34 76 35
REMARK SMILES IDX 27 36 28 37 29 38 70 39 30 40 75 41 69 42 71 43 31 44 74 45
REMARK SMILES IDX 68 46 67 47 32 49 58 50 41 51 57 52 42 53 45 54 56 55 72 56
REMARK SMILES IDX 43 57 44 58 55 60 73 61 46 62 33 63 34 64 39 65 35 66 36 67
REMARK SMILES IDX 38 68 40 69 37 70 59 71 60 72 65 73 61 74 62 75 64 76 66 77
REMARK SMILES IDX 63 78 47 79 48 80 53 81 49 82 50 83 52 84 54 85 51 86
REMARK H PARENT 14 6 21 29 71 48 45 59
REMARK Flexibility Score: inf
ROOT
ATOM      1  C   UNL A   1      31.366  26.777  26.508  1.00  0.00     0.021 C 
ENDROOT
BRANCH   1   2
ATOM      2  C   UNL A   1      30.405  25.901  25.701  1.00  0.00     0.116 C 
BRANCH   2   3
ATOM      3  N   UNL A   1      29.794  24.898  26.549  1.00  0.00    -0.355 N 
ATOM      4  C   UNL A   1      30.235  23.651  26.872  1.00  0.00     0.230 C 
ATOM      5  O   UNL A   1      29.489  22.940  27.552  1.00  0.00    -0.274 OA
ATOM      6  H   UNL A   1      28.932  25.155  26.949  1.00  0.00     0.163 HD
BRANCH   4   7
ATOM      7  C   UNL A   1      31.631  23.187  26.503  1.00  0.00     0.174 C 
BRANCH   7   8
ATOM      8  S   UNL A   1      31.816  22.561  24.801  1.00  0.00    -0.115 SA
BRANCH   8   9
ATOM      9  C   UNL A   1      33.292  21.525  24.795  1.00  0.00     0.019 A 
ATOM     10  C   UNL A   1      36.967  21.814  25.216  1.00  0.00     0.145 A 
ATOM     11  C   UNL A   1      37.171  23.183  25.396  1.00  0.00     0.049 A 
ATOM     12  C   UNL A   1      35.693  21.266  25.015  1.00  0.00     0.114 A 
ATOM     13  C   UNL A   1      36.088  24.045  25.342  1.00  0.00     0.005 A 
ATOM     14  C   UNL A   1      34.577  22.128  24.978  1.00  0.00     0.018 A 
ATOM     15  N   UNL A   1      35.566  19.937  24.861  1.00  0.00    -0.249 NA
ATOM     16  C   UNL A   1      34.809  23.525  25.136  1.00  0.00     0.012 A 
ATOM     17  C   UNL A   1      34.358  19.389  24.648  1.00  0.00     0.039 A 
ATOM     18  C   UNL A   1      33.202  20.142  24.644  1.00  0.00     0.039 A 
ATOM     19  C   UNL A   1      34.342  17.919  24.365  1.00  0.00     0.067 C 
BRANCH  10  20
ATOM     20  O   UNL A   1      38.072  21.002  25.380  1.00  0.00    -0.492 OA
BRANCH  20  21
ATOM     21  C   UNL A   1      39.188  21.689  25.956  1.00  0.00     0.226 C 
ATOM     22  C   UNL A   1      40.255  20.731  26.465  1.00  0.00     0.049 C 
ENDBRANCH  20  21
ENDBRANCH  10  20
ENDBRANCH   8   9
ENDBRANCH   7   8
ENDBRANCH   4   7
ENDBRANCH   2   3
ENDBRANCH   1   2
BRANCH   1  23
ATOM     23  C   UNL A   1      31.456  28.226  26.009  1.00  0.00     0.002 C 
BRANCH  23  24
ATOM     24  C   UNL A   1      31.847  29.257  27.074  1.00  0.00     0.002 C 
BRANCH  24  25
ATOM     25  C   UNL A   1      31.720  30.717  26.634  1.00  0.00     0.021 C 
BRANCH  25  26
ATOM     26  C   UNL A   1      32.900  31.599  27.029  1.00  0.00     0.116 C 
BRANCH  26  27
ATOM     27  N   UNL A   1      32.490  32.962  27.325  1.00  0.00    -0.352 N 
ATOM     28  C   UNL A   1      33.051  33.876  28.186  1.00  0.00     0.251 C 
ATOM     29  H   UNL A   1      31.695  33.278  26.838  1.00  0.00     0.163 HD
ATOM     30  O   UNL A   1      32.462  34.912  28.463  1.00  0.00    -0.269 OA
BRANCH  28  31
ATOM     31  C   UNL A   1      34.365  33.584  28.800  1.00  0.00     0.039 A 
ATOM     32  C   UNL A   1      34.404  32.884  30.007  1.00  0.00     0.014 A 
ATOM     33  C   UNL A   1      35.549  33.979  28.173  1.00  0.00     0.014 A 
ATOM     34  C   UNL A   1      35.636  32.504  30.544  1.00  0.00     0.010 A 
ATOM     35  C   UNL A   1      36.772  33.538  28.670  1.00  0.00     0.010 A 
ATOM     36  C   UNL A   1      36.827  32.784  29.852  1.00  0.00    -0.014 A 
BRANCH  36  37
ATOM     37  C   UNL A   1      38.132  32.252  30.320  1.00  0.00     0.031 A 
ATOM     38  C   UNL A   1      38.705  30.999  29.721  1.00  0.00     0.074 A 
ATOM     39  C   UNL A   1      38.761  32.858  31.347  1.00  0.00     0.049 A 
ATOM     40  N   UNL A   1      39.782  30.339  30.062  1.00  0.00    -0.248 NA
ATOM     41  C   UNL A   1      37.957  30.396  28.607  1.00  0.00     0.031 C 
ATOM     42  C   UNL A   1      38.286  34.057  32.041  1.00  0.00     0.029 A 
ATOM     43  N   UNL A   1      39.929  32.541  31.996  1.00  0.00    -0.354 N 
ATOM     44  C   UNL A   1      39.837  29.241  29.213  1.00  0.00     0.074 A 
ATOM     45  C   UNL A   1      38.659  29.297  28.374  1.00  0.00     0.031 C 
ATOM     46  C   UNL A   1      39.161  34.384  33.004  1.00  0.00     0.029 A 
ATOM     47  C   UNL A   1      40.231  33.393  33.031  1.00  0.00     0.049 A 
ATOM     48  H   UNL A   1      40.494  31.776  31.745  1.00  0.00     0.167 HD
ATOM     49  C   UNL A   1      40.794  28.287  29.127  1.00  0.00     0.037 A 
ATOM     50  C   UNL A   1      41.247  33.369  33.915  1.00  0.00     0.037 A 
ATOM     51  C   UNL A   1      41.971  28.242  29.957  1.00  0.00     0.049 A 
ATOM     52  C   UNL A   1      42.272  32.273  33.826  1.00  0.00     0.074 A 
ATOM     53  C   UNL A   1      43.028  27.351  29.904  1.00  0.00     0.029 A 
ATOM     54  N   UNL A   1      42.239  29.120  30.997  1.00  0.00    -0.354 N 
ATOM     55  N   UNL A   1      42.352  31.285  32.969  1.00  0.00    -0.248 NA
ATOM     56  C   UNL A   1      43.347  32.286  34.829  1.00  0.00     0.031 C 
ATOM     57  C   UNL A   1      43.907  27.652  30.949  1.00  0.00     0.029 A 
ATOM     58  C   UNL A   1      43.426  28.766  31.618  1.00  0.00     0.049 A 
ATOM     59  H   UNL A   1      41.671  29.881  31.255  1.00  0.00     0.167 HD
ATOM     60  C   UNL A   1      43.493  30.573  33.314  1.00  0.00     0.074 A 
ATOM     61  C   UNL A   1      44.085  31.255  34.446  1.00  0.00     0.031 C 
ATOM     62  C   UNL A   1      44.004  29.453  32.746  1.00  0.00     0.037 A 
BRANCH  49  63
ATOM     63  C   UNL A   1      40.609  27.206  28.101  1.00  0.00     0.057 A 
ATOM     64  C   UNL A   1      41.284  27.227  26.874  1.00  0.00     0.134 A 
ATOM     65  C   UNL A   1      39.781  26.106  28.363  1.00  0.00     0.134 A 
ATOM     66  F   UNL A   1      42.085  28.255  26.556  1.00  0.00    -0.206 F 
ATOM     67  C   UNL A   1      41.124  26.207  25.934  1.00  0.00     0.040 A 
ATOM     68  C   UNL A   1      39.636  25.066  27.442  1.00  0.00     0.040 A 
ATOM     69  F   UNL A   1      39.111  26.017  29.522  1.00  0.00    -0.206 F 
ATOM     70  C   UNL A   1      40.303  25.118  26.221  1.00  0.00     0.006 A 
ENDBRANCH  49  63
BRANCH  50  71
ATOM     71  C   UNL A   1      41.345  34.415  34.965  1.00  0.00     0.057 A 
ATOM     72  C   UNL A   1      40.743  34.241  36.217  1.00  0.00     0.134 A 
ATOM     73  C   UNL A   1      42.028  35.618  34.741  1.00  0.00     0.134 A 
ATOM     74  F   UNL A   1      40.059  33.120  36.487  1.00  0.00    -0.206 F 
ATOM     75  C   UNL A   1      40.799  35.230  37.200  1.00  0.00     0.040 A 
ATOM     76  C   UNL A   1      42.115  36.603  35.725  1.00  0.00     0.040 A 
ATOM     77  F   UNL A   1      42.632  35.845  33.566  1.00  0.00    -0.206 F 
ATOM     78  C   UNL A   1      41.492  36.415  36.957  1.00  0.00     0.006 A 
ENDBRANCH  50  71
BRANCH  62  79
ATOM     79  C   UNL A   1      45.273  28.902  33.328  1.00  0.00     0.057 A 
ATOM     80  C   UNL A   1      46.533  29.338  32.898  1.00  0.00     0.134 A 
ATOM     81  C   UNL A   1      45.234  27.961  34.365  1.00  0.00     0.134 A 
ATOM     82  F   UNL A   1      46.640  30.227  31.899  1.00  0.00    -0.206 F 
ATOM     83  C   UNL A   1      47.708  28.845  33.466  1.00  0.00     0.040 A 
ATOM     84  C   UNL A   1      46.402  27.482  34.960  1.00  0.00     0.040 A 
ATOM     85  F   UNL A   1      44.061  27.506  34.831  1.00  0.00    -0.206 F 
ATOM     86  C   UNL A   1      47.644  27.920  34.507  1.00  0.00     0.006 A 
ENDBRANCH  62  79
ENDBRANCH  36  37
ENDBRANCH  28  31
ENDBRANCH  26  27
ENDBRANCH  25  26
ENDBRANCH  24  25
ENDBRANCH  23  24
ENDBRANCH   1  23
TORSDOF 17
ENDMDL
