MODEL 1
REMARK VINA RESULT:     -12.1      0.000      0.000
REMARK SMILES CC(C)(C)c1cc2c(cc1Cl)C=C(C(=O)NCCCCCCNC(=O)c1ccc(-c3c4nc(c(-c5c(F)cccc5F)c5ccc([nH]5)c(-c5c(F)cccc5F)c5nc(c(-c6c(F)cccc6F)c6ccc3[nH]6)C=C5)C=C4)cc1)[C@@H](C(F)(F)F)O2
REMARK SMILES IDX 20 1 19 2 18 3 17 4 16 5 14 6 15 7 13 9 5 10 6 11 10 12 7 13
REMARK SMILES IDX 9 14 11 15 8 16 85 17 12 18 80 19 2 20 1 21 3 22 4 23 81 24
REMARK SMILES IDX 82 25 83 26 84 27 21 28 22 29 23 30 24 31 25 33 26 34 27 35
REMARK SMILES IDX 79 36 28 37 78 38 29 39 30 40 31 41 72 42 32 43 77 44 71 45
REMARK SMILES IDX 73 46 33 47 76 48 70 49 69 50 34 52 60 53 43 54 59 55 44 56
REMARK SMILES IDX 47 57 58 58 74 59 45 60 46 61 57 63 75 64 48 65 35 66 36 67
REMARK SMILES IDX 41 68 37 69 38 70 40 71 42 72 39 73 61 74 62 75 67 76 63 77
REMARK SMILES IDX 64 78 66 79 68 80 65 81 49 82 50 83 55 84 51 85 52 86 54 87
REMARK SMILES IDX 56 88 53 89
REMARK H PARENT 16 8 23 32 73 51 47 62
REMARK Flexibility Score: inf
ROOT
ATOM      1  C   UNL A   1      37.876  23.529  25.753  1.00  0.00     0.002 C 
ENDROOT
BRANCH   1   2
ATOM      2  C   UNL A   1      36.781  23.082  24.775  1.00  0.00     0.002 C 
BRANCH   2   3
ATOM      3  C   UNL A   1      36.845  21.618  24.329  1.00  0.00     0.021 C 
BRANCH   3   4
ATOM      4  C   UNL A   1      36.013  20.665  25.183  1.00  0.00     0.116 C 
BRANCH   4   5
ATOM      5  N   UNL A   1      34.700  20.427  24.611  1.00  0.00    -0.352 N 
ATOM      6  C   UNL A   1      33.527  21.092  24.501  1.00  0.00     0.251 C 
ATOM      7  O   UNL A   1      32.644  20.495  23.877  1.00  0.00    -0.270 OA
ATOM      8  H   UNL A   1      34.650  19.539  24.188  1.00  0.00     0.163 HD
BRANCH   6   9
ATOM      9  C   UNL A   1      33.241  22.446  25.064  1.00  0.00     0.067 C 
ATOM     10  C   UNL A   1      32.716  27.480  25.688  1.00  0.00    -0.020 A 
ATOM     11  C   UNL A   1      32.300  26.314  26.371  1.00  0.00     0.053 A 
ATOM     12  C   UNL A   1      33.502  27.263  24.533  1.00  0.00     0.045 A 
ATOM     13  C   UNL A   1      32.594  25.029  25.914  1.00  0.00     0.128 A 
ATOM     14  C   UNL A   1      33.772  25.961  24.063  1.00  0.00     0.032 A 
ATOM     15  Cl  UNL A   1      34.260  28.512  23.612  1.00  0.00    -0.084 Cl
ATOM     16  C   UNL A   1      33.312  24.839  24.746  1.00  0.00     0.019 A 
ATOM     17  O   UNL A   1      32.101  24.002  26.660  1.00  0.00    -0.475 OA
ATOM     18  C   UNL A   1      33.546  23.485  24.264  1.00  0.00     0.025 C 
ATOM     19  C   UNL A   1      32.687  22.692  26.440  1.00  0.00     0.314 C 
BRANCH  10  20
ATOM     20  C   UNL A   1      32.328  28.849  26.303  1.00  0.00    -0.012 C 
ATOM     21  C   UNL A   1      33.629  29.575  26.699  1.00  0.00     0.016 C 
ATOM     22  C   UNL A   1      31.461  28.682  27.586  1.00  0.00     0.016 C 
ATOM     23  C   UNL A   1      31.496  29.781  25.393  1.00  0.00     0.016 C 
ENDBRANCH  10  20
BRANCH  19  24
ATOM     24  C   UNL A   1      33.713  22.413  27.552  1.00  0.00     0.429 C 
ATOM     25  F   UNL A   1      33.227  22.809  28.757  1.00  0.00    -0.167 F 
ATOM     26  F   UNL A   1      34.005  21.098  27.675  1.00  0.00    -0.167 F 
ATOM     27  F   UNL A   1      34.882  23.062  27.355  1.00  0.00    -0.167 F 
ENDBRANCH  19  24
ENDBRANCH   6   9
ENDBRANCH   4   5
ENDBRANCH   3   4
ENDBRANCH   2   3
ENDBRANCH   1   2
BRANCH   1  28
ATOM     28  C   UNL A   1      38.881  22.451  26.165  1.00  0.00     0.021 C 
BRANCH  28  29
ATOM     29  C   UNL A   1      40.071  22.953  26.972  1.00  0.00     0.116 C 
BRANCH  29  30
ATOM     30  N   UNL A   1      41.197  23.335  26.135  1.00  0.00    -0.352 N 
ATOM     31  C   UNL A   1      41.844  24.545  26.055  1.00  0.00     0.251 C 
ATOM     32  H   UNL A   1      41.543  22.629  25.543  1.00  0.00     0.163 HD
ATOM     33  O   UNL A   1      42.691  24.741  25.190  1.00  0.00    -0.269 OA
BRANCH  31  34
ATOM     34  C   UNL A   1      41.487  25.625  26.999  1.00  0.00     0.039 A 
ATOM     35  C   UNL A   1      42.125  26.866  26.934  1.00  0.00     0.014 A 
ATOM     36  C   UNL A   1      40.522  25.380  27.979  1.00  0.00     0.014 A 
ATOM     37  C   UNL A   1      41.914  27.800  27.942  1.00  0.00     0.010 A 
ATOM     38  C   UNL A   1      40.254  26.351  28.947  1.00  0.00     0.010 A 
ATOM     39  C   UNL A   1      40.983  27.551  28.964  1.00  0.00    -0.014 A 
BRANCH  39  40
ATOM     40  C   UNL A   1      40.802  28.552  30.046  1.00  0.00     0.031 A 
ATOM     41  C   UNL A   1      39.701  29.576  29.970  1.00  0.00     0.074 A 
ATOM     42  C   UNL A   1      41.600  28.501  31.131  1.00  0.00     0.049 A 
ATOM     43  N   UNL A   1      39.383  30.512  30.828  1.00  0.00    -0.248 NA
ATOM     44  C   UNL A   1      38.847  29.548  28.773  1.00  0.00     0.031 C 
ATOM     45  C   UNL A   1      42.696  27.550  31.327  1.00  0.00     0.029 A 
ATOM     46  N   UNL A   1      41.598  29.249  32.279  1.00  0.00    -0.354 N 
ATOM     47  C   UNL A   1      38.308  31.193  30.270  1.00  0.00     0.074 A 
ATOM     48  C   UNL A   1      38.045  30.581  28.985  1.00  0.00     0.031 C 
ATOM     49  C   UNL A   1      43.228  27.740  32.543  1.00  0.00     0.029 A 
ATOM     50  C   UNL A   1      42.552  28.860  33.188  1.00  0.00     0.049 A 
ATOM     51  H   UNL A   1      40.973  29.993  32.438  1.00  0.00     0.167 HD
ATOM     52  C   UNL A   1      37.597  32.225  30.786  1.00  0.00     0.037 A 
ATOM     53  C   UNL A   1      42.857  29.360  34.399  1.00  0.00     0.037 A 
ATOM     54  C   UNL A   1      37.847  32.822  32.072  1.00  0.00     0.049 A 
ATOM     55  C   UNL A   1      42.083  30.534  34.923  1.00  0.00     0.074 A 
ATOM     56  C   UNL A   1      37.164  33.854  32.693  1.00  0.00     0.029 A 
ATOM     57  N   UNL A   1      38.861  32.439  32.936  1.00  0.00    -0.354 N 
ATOM     58  N   UNL A   1      41.062  31.158  34.389  1.00  0.00    -0.248 NA
ATOM     59  C   UNL A   1      42.515  31.081  36.217  1.00  0.00     0.031 C 
ATOM     60  C   UNL A   1      37.789  34.120  33.917  1.00  0.00     0.029 A 
ATOM     61  C   UNL A   1      38.837  33.229  34.075  1.00  0.00     0.049 A 
ATOM     62  H   UNL A   1      39.504  31.713  32.766  1.00  0.00     0.167 HD
ATOM     63  C   UNL A   1      40.725  32.166  35.281  1.00  0.00     0.074 A 
ATOM     64  C   UNL A   1      41.632  32.052  36.404  1.00  0.00     0.031 C 
ATOM     65  C   UNL A   1      39.756  33.108  35.177  1.00  0.00     0.037 A 
BRANCH  52  66
ATOM     66  C   UNL A   1      36.486  32.785  29.946  1.00  0.00     0.057 A 
ATOM     67  C   UNL A   1      36.761  33.660  28.888  1.00  0.00     0.134 A 
ATOM     68  C   UNL A   1      35.142  32.483  30.202  1.00  0.00     0.134 A 
ATOM     69  F   UNL A   1      38.026  33.996  28.594  1.00  0.00    -0.206 F 
ATOM     70  C   UNL A   1      35.740  34.214  28.113  1.00  0.00     0.040 A 
ATOM     71  C   UNL A   1      34.114  33.012  29.419  1.00  0.00     0.040 A 
ATOM     72  F   UNL A   1      34.812  31.640  31.192  1.00  0.00    -0.206 F 
ATOM     73  C   UNL A   1      34.411  33.885  28.374  1.00  0.00     0.006 A 
ENDBRANCH  52  66
BRANCH  53  74
ATOM     74  C   UNL A   1      43.957  28.761  35.194  1.00  0.00     0.057 A 
ATOM     75  C   UNL A   1      43.707  27.777  36.159  1.00  0.00     0.134 A 
ATOM     76  C   UNL A   1      45.285  29.151  34.997  1.00  0.00     0.134 A 
ATOM     77  F   UNL A   1      42.453  27.365  36.395  1.00  0.00    -0.206 F 
ATOM     78  C   UNL A   1      44.738  27.208  36.905  1.00  0.00     0.040 A 
ATOM     79  C   UNL A   1      46.330  28.572  35.719  1.00  0.00     0.040 A 
ATOM     80  F   UNL A   1      45.588  30.075  34.073  1.00  0.00    -0.206 F 
ATOM     81  C   UNL A   1      46.057  27.602  36.680  1.00  0.00     0.006 A 
ENDBRANCH  53  74
BRANCH  65  82
ATOM     82  C   UNL A   1      39.633  34.076  36.315  1.00  0.00     0.057 A 
ATOM     83  C   UNL A   1      38.906  33.743  37.464  1.00  0.00     0.134 A 
ATOM     84  C   UNL A   1      40.233  35.341  36.269  1.00  0.00     0.134 A 
ATOM     85  F   UNL A   1      38.304  32.549  37.568  1.00  0.00    -0.206 F 
ATOM     86  C   UNL A   1      38.784  34.634  38.531  1.00  0.00     0.040 A 
ATOM     87  C   UNL A   1      40.138  36.231  37.339  1.00  0.00     0.040 A 
ATOM     88  F   UNL A   1      40.958  35.711  35.202  1.00  0.00    -0.206 F 
ATOM     89  C   UNL A   1      39.408  35.879  38.473  1.00  0.00     0.006 A 
ENDBRANCH  65  82
ENDBRANCH  39  40
ENDBRANCH  31  34
ENDBRANCH  29  30
ENDBRANCH  28  29
ENDBRANCH   1  28
TORSDOF 15
ENDMDL
MODEL 2
REMARK VINA RESULT:     -12.0      2.867      8.238
REMARK SMILES CC(C)(C)c1cc2c(cc1Cl)C=C(C(=O)NCCCCCCNC(=O)c1ccc(-c3c4nc(c(-c5c(F)cccc5F)c5ccc([nH]5)c(-c5c(F)cccc5F)c5nc(c(-c6c(F)cccc6F)c6ccc3[nH]6)C=C5)C=C4)cc1)[C@@H](C(F)(F)F)O2
REMARK SMILES IDX 20 1 19 2 18 3 17 4 16 5 14 6 15 7 13 9 5 10 6 11 10 12 7 13
REMARK SMILES IDX 9 14 11 15 8 16 85 17 12 18 80 19 2 20 1 21 3 22 4 23 81 24
REMARK SMILES IDX 82 25 83 26 84 27 21 28 22 29 23 30 24 31 25 33 26 34 27 35
REMARK SMILES IDX 79 36 28 37 78 38 29 39 30 40 31 41 72 42 32 43 77 44 71 45
REMARK SMILES IDX 73 46 33 47 76 48 70 49 69 50 34 52 60 53 43 54 59 55 44 56
REMARK SMILES IDX 47 57 58 58 74 59 45 60 46 61 57 63 75 64 48 65 35 66 36 67
REMARK SMILES IDX 41 68 37 69 38 70 40 71 42 72 39 73 61 74 62 75 67 76 63 77
REMARK SMILES IDX 64 78 66 79 68 80 65 81 49 82 50 83 55 84 51 85 52 86 54 87
REMARK SMILES IDX 56 88 53 89
REMARK H PARENT 16 8 23 32 73 51 47 62
REMARK Flexibility Score: inf
ROOT
ATOM      1  C   UNL A   1      31.695  30.520  26.164  1.00  0.00     0.002 C 
ENDROOT
BRANCH   1   2
ATOM      2  C   UNL A   1      32.323  29.558  27.181  1.00  0.00     0.002 C 
BRANCH   2   3
ATOM      3  C   UNL A   1      31.433  28.396  27.634  1.00  0.00     0.021 C 
BRANCH   3   4
ATOM      4  C   UNL A   1      31.663  27.095  26.870  1.00  0.00     0.116 C 
BRANCH   4   5
ATOM      5  N   UNL A   1      32.746  27.211  25.910  1.00  0.00    -0.352 N 
ATOM      6  C   UNL A   1      33.418  26.396  25.064  1.00  0.00     0.251 C 
ATOM      7  O   UNL A   1      34.283  26.953  24.379  1.00  0.00    -0.270 OA
ATOM      8  H   UNL A   1      33.083  28.136  25.861  1.00  0.00     0.163 HD
BRANCH   6   9
ATOM      9  C   UNL A   1      33.193  24.928  24.912  1.00  0.00     0.067 C 
ATOM     10  C   UNL A   1      33.814  19.868  24.764  1.00  0.00    -0.020 A 
ATOM     11  C   UNL A   1      32.723  20.767  24.751  1.00  0.00     0.053 A 
ATOM     12  C   UNL A   1      35.095  20.464  24.810  1.00  0.00     0.045 A 
ATOM     13  C   UNL A   1      32.887  22.150  24.832  1.00  0.00     0.128 A 
ATOM     14  C   UNL A   1      35.252  21.861  24.920  1.00  0.00     0.032 A 
ATOM     15  Cl  UNL A   1      36.586  19.599  24.681  1.00  0.00    -0.084 Cl
ATOM     16  C   UNL A   1      34.149  22.709  24.940  1.00  0.00     0.019 A 
ATOM     17  O   UNL A   1      31.743  22.888  24.840  1.00  0.00    -0.475 OA
ATOM     18  C   UNL A   1      34.281  24.152  25.088  1.00  0.00     0.025 C 
ATOM     19  C   UNL A   1      31.876  24.304  24.547  1.00  0.00     0.314 C 
BRANCH  10  20
ATOM     20  C   UNL A   1      33.498  18.353  24.662  1.00  0.00    -0.012 C 
ATOM     21  C   UNL A   1      32.655  18.131  23.391  1.00  0.00     0.016 C 
ATOM     22  C   UNL A   1      32.669  17.853  25.882  1.00  0.00     0.016 C 
ATOM     23  C   UNL A   1      34.724  17.415  24.616  1.00  0.00     0.016 C 
ENDBRANCH  10  20
BRANCH  19  24
ATOM     24  C   UNL A   1      31.489  24.547  23.077  1.00  0.00     0.429 C 
ATOM     25  F   UNL A   1      32.452  24.070  22.248  1.00  0.00    -0.167 F 
ATOM     26  F   UNL A   1      30.343  23.917  22.728  1.00  0.00    -0.167 F 
ATOM     27  F   UNL A   1      31.323  25.858  22.794  1.00  0.00    -0.167 F 
ENDBRANCH  19  24
ENDBRANCH   6   9
ENDBRANCH   4   5
ENDBRANCH   3   4
ENDBRANCH   2   3
ENDBRANCH   1   2
BRANCH   1  28
ATOM     28  C   UNL A   1      31.407  31.934  26.674  1.00  0.00     0.021 C 
BRANCH  28  29
ATOM     29  C   UNL A   1      32.608  32.665  27.261  1.00  0.00     0.116 C 
BRANCH  29  30
ATOM     30  N   UNL A   1      32.311  34.045  27.609  1.00  0.00    -0.352 N 
ATOM     31  C   UNL A   1      32.948  34.866  28.509  1.00  0.00     0.251 C 
ATOM     32  H   UNL A   1      31.548  34.446  27.135  1.00  0.00     0.163 HD
ATOM     33  O   UNL A   1      32.480  35.965  28.786  1.00  0.00    -0.269 OA
BRANCH  31  34
ATOM     34  C   UNL A   1      34.185  34.400  29.171  1.00  0.00     0.039 A 
ATOM     35  C   UNL A   1      35.431  34.600  28.572  1.00  0.00     0.014 A 
ATOM     36  C   UNL A   1      34.091  33.728  30.392  1.00  0.00     0.014 A 
ATOM     37  C   UNL A   1      36.558  33.992  29.112  1.00  0.00     0.010 A 
ATOM     38  C   UNL A   1      35.238  33.184  30.974  1.00  0.00     0.010 A 
ATOM     39  C   UNL A   1      36.474  33.271  30.315  1.00  0.00    -0.014 A 
BRANCH  39  40
ATOM     40  C   UNL A   1      37.688  32.603  30.852  1.00  0.00     0.031 A 
ATOM     41  C   UNL A   1      38.318  33.073  32.136  1.00  0.00     0.074 A 
ATOM     42  C   UNL A   1      38.191  31.533  30.207  1.00  0.00     0.049 A 
ATOM     43  N   UNL A   1      39.366  32.600  32.763  1.00  0.00    -0.248 NA
ATOM     44  C   UNL A   1      37.692  34.225  32.803  1.00  0.00     0.031 C 
ATOM     45  C   UNL A   1      37.664  30.976  28.959  1.00  0.00     0.029 A 
ATOM     46  N   UNL A   1      39.240  30.709  30.523  1.00  0.00    -0.354 N 
ATOM     47  C   UNL A   1      39.535  33.404  33.884  1.00  0.00     0.074 A 
ATOM     48  C   UNL A   1      38.499  34.413  33.837  1.00  0.00     0.031 C 
ATOM     49  C   UNL A   1      38.361  29.875  28.642  1.00  0.00     0.029 A 
ATOM     50  C   UNL A   1      39.418  29.682  29.629  1.00  0.00     0.049 A 
ATOM     51  H   UNL A   1      39.810  30.841  31.314  1.00  0.00     0.167 HD
ATOM     52  C   UNL A   1      40.461  33.302  34.868  1.00  0.00     0.037 A 
ATOM     53  C   UNL A   1      40.339  28.701  29.601  1.00  0.00     0.037 A 
ATOM     54  C   UNL A   1      41.480  32.287  34.924  1.00  0.00     0.049 A 
ATOM     55  C   UNL A   1      41.380  28.643  30.678  1.00  0.00     0.074 A 
ATOM     56  C   UNL A   1      42.447  32.085  35.894  1.00  0.00     0.029 A 
ATOM     57  N   UNL A   1      41.665  31.301  33.968  1.00  0.00    -0.354 N 
ATOM     58  N   UNL A   1      41.519  29.403  31.738  1.00  0.00    -0.248 NA
ATOM     59  C   UNL A   1      42.403  27.596  30.549  1.00  0.00     0.031 C 
ATOM     60  C   UNL A   1      43.240  31.000  35.506  1.00  0.00     0.029 A 
ATOM     61  C   UNL A   1      42.743  30.501  34.313  1.00  0.00     0.049 A 
ATOM     62  H   UNL A   1      41.112  31.185  33.162  1.00  0.00     0.167 HD
ATOM     63  C   UNL A   1      42.639  28.924  32.403  1.00  0.00     0.074 A 
ATOM     64  C   UNL A   1      43.125  27.789  31.643  1.00  0.00     0.031 C 
ATOM     65  C   UNL A   1      43.219  29.385  33.538  1.00  0.00     0.037 A 
BRANCH  52  66
ATOM     66  C   UNL A   1      40.422  34.331  35.961  1.00  0.00     0.057 A 
ATOM     67  C   UNL A   1      39.722  34.085  37.148  1.00  0.00     0.134 A 
ATOM     68  C   UNL A   1      41.052  35.575  35.827  1.00  0.00     0.134 A 
ATOM     69  F   UNL A   1      39.091  32.917  37.338  1.00  0.00    -0.206 F 
ATOM     70  C   UNL A   1      39.651  35.039  38.166  1.00  0.00     0.040 A 
ATOM     71  C   UNL A   1      41.007  36.528  36.846  1.00  0.00     0.040 A 
ATOM     72  F   UNL A   1      41.750  35.867  34.720  1.00  0.00    -0.206 F 
ATOM     73  C   UNL A   1      40.300  36.264  38.018  1.00  0.00     0.006 A 
ENDBRANCH  52  66
BRANCH  53  74
ATOM     74  C   UNL A   1      40.326  27.702  28.504  1.00  0.00     0.057 A 
ATOM     75  C   UNL A   1      41.021  27.924  27.308  1.00  0.00     0.134 A 
ATOM     76  C   UNL A   1      39.629  26.497  28.632  1.00  0.00     0.134 A 
ATOM     77  F   UNL A   1      41.706  29.062  27.125  1.00  0.00    -0.206 F 
ATOM     78  C   UNL A   1      41.016  26.987  26.276  1.00  0.00     0.040 A 
ATOM     79  C   UNL A   1      39.635  25.539  27.618  1.00  0.00     0.040 A 
ATOM     80  F   UNL A   1      38.960  26.221  29.762  1.00  0.00    -0.206 F 
ATOM     81  C   UNL A   1      40.326  25.785  26.433  1.00  0.00     0.006 A 
ENDBRANCH  53  74
BRANCH  65  82
ATOM     82  C   UNL A   1      44.435  28.652  34.019  1.00  0.00     0.057 A 
ATOM     83  C   UNL A   1      44.316  27.542  34.864  1.00  0.00     0.134 A 
ATOM     84  C   UNL A   1      45.725  29.049  33.645  1.00  0.00     0.134 A 
ATOM     85  F   UNL A   1      43.108  27.114  35.261  1.00  0.00    -0.206 F 
ATOM     86  C   UNL A   1      45.439  26.850  35.319  1.00  0.00     0.040 A 
ATOM     87  C   UNL A   1      46.854  28.350  34.075  1.00  0.00     0.040 A 
ATOM     88  F   UNL A   1      45.904  30.094  32.823  1.00  0.00    -0.206 F 
ATOM     89  C   UNL A   1      46.713  27.249  34.917  1.00  0.00     0.006 A 
ENDBRANCH  65  82
ENDBRANCH  39  40
ENDBRANCH  31  34
ENDBRANCH  29  30
ENDBRANCH  28  29
ENDBRANCH   1  28
TORSDOF 15
ENDMDL
MODEL 3
REMARK VINA RESULT:     -11.9      2.969      8.131
REMARK SMILES CC(C)(C)c1cc2c(cc1Cl)C=C(C(=O)NCCCCCCNC(=O)c1ccc(-c3c4nc(c(-c5c(F)cccc5F)c5ccc([nH]5)c(-c5c(F)cccc5F)c5nc(c(-c6c(F)cccc6F)c6ccc3[nH]6)C=C5)C=C4)cc1)[C@@H](C(F)(F)F)O2
REMARK SMILES IDX 20 1 19 2 18 3 17 4 16 5 14 6 15 7 13 9 5 10 6 11 10 12 7 13
REMARK SMILES IDX 9 14 11 15 8 16 85 17 12 18 80 19 2 20 1 21 3 22 4 23 81 24
REMARK SMILES IDX 82 25 83 26 84 27 21 28 22 29 23 30 24 31 25 33 26 34 27 35
REMARK SMILES IDX 79 36 28 37 78 38 29 39 30 40 31 41 72 42 32 43 77 44 71 45
REMARK SMILES IDX 73 46 33 47 76 48 70 49 69 50 34 52 60 53 43 54 59 55 44 56
REMARK SMILES IDX 47 57 58 58 74 59 45 60 46 61 57 63 75 64 48 65 35 66 36 67
REMARK SMILES IDX 41 68 37 69 38 70 40 71 42 72 39 73 61 74 62 75 67 76 63 77
REMARK SMILES IDX 64 78 66 79 68 80 65 81 49 82 50 83 55 84 51 85 52 86 54 87
REMARK SMILES IDX 56 88 53 89
REMARK H PARENT 16 8 23 32 73 51 47 62
REMARK Flexibility Score: inf
ROOT
ATOM      1  C   UNL A   1      30.660  31.255  24.982  1.00  0.00     0.002 C 
ENDROOT
BRANCH   1   2
ATOM      2  C   UNL A   1      29.333  31.431  24.234  1.00  0.00     0.002 C 
BRANCH   2   3
ATOM      3  C   UNL A   1      29.251  30.761  22.858  1.00  0.00     0.021 C 
BRANCH   3   4
ATOM      4  C   UNL A   1      30.011  29.441  22.757  1.00  0.00     0.116 C 
BRANCH   4   5
ATOM      5  N   UNL A   1      29.205  28.314  23.188  1.00  0.00    -0.352 N 
ATOM      6  C   UNL A   1      29.410  27.098  23.744  1.00  0.00     0.251 C 
ATOM      7  O   UNL A   1      28.384  26.452  23.982  1.00  0.00    -0.270 OA
ATOM      8  H   UNL A   1      28.246  28.480  23.033  1.00  0.00     0.163 HD
BRANCH   6   9
ATOM      9  C   UNL A   1      30.742  26.508  24.074  1.00  0.00     0.067 C 
ATOM     10  C   UNL A   1      34.719  23.351  24.546  1.00  0.00    -0.020 A 
ATOM     11  C   UNL A   1      34.485  24.735  24.711  1.00  0.00     0.053 A 
ATOM     12  C   UNL A   1      33.594  22.582  24.171  1.00  0.00     0.045 A 
ATOM     13  C   UNL A   1      33.242  25.322  24.471  1.00  0.00     0.128 A 
ATOM     14  C   UNL A   1      32.348  23.186  23.903  1.00  0.00     0.032 A 
ATOM     15  Cl  UNL A   1      33.576  20.858  24.055  1.00  0.00    -0.084 Cl
ATOM     16  C   UNL A   1      32.169  24.560  24.044  1.00  0.00     0.019 A 
ATOM     17  O   UNL A   1      33.175  26.671  24.642  1.00  0.00    -0.475 OA
ATOM     18  C   UNL A   1      30.904  25.213  23.740  1.00  0.00     0.025 C 
ATOM     19  C   UNL A   1      31.849  27.249  24.769  1.00  0.00     0.314 C 
BRANCH  10  20
ATOM     20  C   UNL A   1      36.145  22.822  24.850  1.00  0.00    -0.012 C 
ATOM     21  C   UNL A   1      36.811  22.459  23.508  1.00  0.00     0.016 C 
ATOM     22  C   UNL A   1      36.109  21.539  25.732  1.00  0.00     0.016 C 
ATOM     23  C   UNL A   1      37.069  23.793  25.618  1.00  0.00     0.016 C 
ENDBRANCH  10  20
BRANCH  19  24
ATOM     24  C   UNL A   1      31.556  27.498  26.259  1.00  0.00     0.429 C 
ATOM     25  F   UNL A   1      31.188  28.788  26.463  1.00  0.00    -0.167 F 
ATOM     26  F   UNL A   1      30.539  26.736  26.725  1.00  0.00    -0.167 F 
ATOM     27  F   UNL A   1      32.627  27.253  27.047  1.00  0.00    -0.167 F 
ENDBRANCH  19  24
ENDBRANCH   6   9
ENDBRANCH   4   5
ENDBRANCH   3   4
ENDBRANCH   2   3
ENDBRANCH   1   2
BRANCH   1  28
ATOM     28  C   UNL A   1      30.769  31.980  26.326  1.00  0.00     0.021 C 
BRANCH  28  29
ATOM     29  C   UNL A   1      32.167  32.468  26.684  1.00  0.00     0.116 C 
BRANCH  29  30
ATOM     30  N   UNL A   1      32.165  33.796  27.276  1.00  0.00    -0.352 N 
ATOM     31  C   UNL A   1      33.023  34.329  28.208  1.00  0.00     0.251 C 
ATOM     32  H   UNL A   1      31.450  34.396  26.966  1.00  0.00     0.163 HD
ATOM     33  O   UNL A   1      32.795  35.425  28.707  1.00  0.00    -0.269 OA
BRANCH  31  34
ATOM     34  C   UNL A   1      34.207  33.554  28.634  1.00  0.00     0.039 A 
ATOM     35  C   UNL A   1      34.058  32.346  29.322  1.00  0.00     0.014 A 
ATOM     36  C   UNL A   1      35.482  34.059  28.369  1.00  0.00     0.014 A 
ATOM     37  C   UNL A   1      35.174  31.730  29.878  1.00  0.00     0.010 A 
ATOM     38  C   UNL A   1      36.608  33.396  28.863  1.00  0.00     0.010 A 
ATOM     39  C   UNL A   1      36.460  32.252  29.662  1.00  0.00    -0.014 A 
BRANCH  39  40
ATOM     40  C   UNL A   1      37.631  31.593  30.296  1.00  0.00     0.031 A 
ATOM     41  C   UNL A   1      37.980  31.866  31.734  1.00  0.00     0.074 A 
ATOM     42  C   UNL A   1      38.348  30.700  29.586  1.00  0.00     0.049 A 
ATOM     43  N   UNL A   1      38.953  31.369  32.457  1.00  0.00    -0.248 NA
ATOM     44  C   UNL A   1      37.130  32.825  32.456  1.00  0.00     0.031 C 
ATOM     45  C   UNL A   1      38.103  30.342  28.188  1.00  0.00     0.029 A 
ATOM     46  N   UNL A   1      39.412  29.916  29.949  1.00  0.00    -0.354 N 
ATOM     47  C   UNL A   1      38.843  31.964  33.707  1.00  0.00     0.074 A 
ATOM     48  C   UNL A   1      37.726  32.882  33.639  1.00  0.00     0.031 C 
ATOM     49  C   UNL A   1      38.959  29.376  27.826  1.00  0.00     0.029 A 
ATOM     50  C   UNL A   1      39.849  29.086  28.946  1.00  0.00     0.049 A 
ATOM     51  H   UNL A   1      39.823  29.944  30.843  1.00  0.00     0.167 HD
ATOM     52  C   UNL A   1      39.594  31.756  34.815  1.00  0.00     0.037 A 
ATOM     53  C   UNL A   1      40.862  28.202  28.926  1.00  0.00     0.037 A 
ATOM     54  C   UNL A   1      40.694  30.829  34.890  1.00  0.00     0.049 A 
ATOM     55  C   UNL A   1      41.707  28.027  30.153  1.00  0.00     0.074 A 
ATOM     56  C   UNL A   1      41.499  30.529  35.975  1.00  0.00     0.029 A 
ATOM     57  N   UNL A   1      41.143  30.052  33.833  1.00  0.00    -0.354 N 
ATOM     58  N   UNL A   1      41.582  28.589  31.331  1.00  0.00    -0.248 NA
ATOM     59  C   UNL A   1      42.845  27.104  30.042  1.00  0.00     0.031 C 
ATOM     60  C   UNL A   1      42.459  29.597  35.565  1.00  0.00     0.029 A 
ATOM     61  C   UNL A   1      42.228  29.288  34.234  1.00  0.00     0.049 A 
ATOM     62  H   UNL A   1      40.750  30.043  32.931  1.00  0.00     0.167 HD
ATOM     63  C   UNL A   1      42.619  28.084  32.103  1.00  0.00     0.074 A 
ATOM     64  C   UNL A   1      43.346  27.149  31.268  1.00  0.00     0.031 C 
ATOM     65  C   UNL A   1      42.946  28.373  33.386  1.00  0.00     0.037 A 
BRANCH  52  66
ATOM     66  C   UNL A   1      39.260  32.561  36.038  1.00  0.00     0.057 A 
ATOM     67  C   UNL A   1      38.362  32.070  36.993  1.00  0.00     0.134 A 
ATOM     68  C   UNL A   1      39.805  33.834  36.256  1.00  0.00     0.134 A 
ATOM     69  F   UNL A   1      37.800  30.861  36.841  1.00  0.00    -0.206 F 
ATOM     70  C   UNL A   1      38.017  32.815  38.122  1.00  0.00     0.040 A 
ATOM     71  C   UNL A   1      39.485  34.578  37.393  1.00  0.00     0.040 A 
ATOM     72  F   UNL A   1      40.682  34.355  35.386  1.00  0.00    -0.206 F 
ATOM     73  C   UNL A   1      38.584  34.071  38.328  1.00  0.00     0.006 A 
ENDBRANCH  52  66
BRANCH  53  74
ATOM     74  C   UNL A   1      41.143  27.422  27.695  1.00  0.00     0.057 A 
ATOM     75  C   UNL A   1      41.979  27.925  26.690  1.00  0.00     0.134 A 
ATOM     76  C   UNL A   1      40.592  26.152  27.503  1.00  0.00     0.134 A 
ATOM     77  F   UNL A   1      42.535  29.138  26.815  1.00  0.00    -0.206 F 
ATOM     78  C   UNL A   1      42.250  27.195  25.533  1.00  0.00     0.040 A 
ATOM     79  C   UNL A   1      40.874  25.399  26.362  1.00  0.00     0.040 A 
ATOM     80  F   UNL A   1      39.799  25.611  28.440  1.00  0.00    -0.206 F 
ATOM     81  C   UNL A   1      41.701  25.923  25.370  1.00  0.00     0.006 A 
ENDBRANCH  53  74
BRANCH  65  82
ATOM     82  C   UNL A   1      44.135  27.660  33.955  1.00  0.00     0.057 A 
ATOM     83  C   UNL A   1      43.996  26.410  34.570  1.00  0.00     0.134 A 
ATOM     84  C   UNL A   1      45.420  28.215  33.895  1.00  0.00     0.134 A 
ATOM     85  F   UNL A   1      42.792  25.827  34.663  1.00  0.00    -0.206 F 
ATOM     86  C   UNL A   1      45.095  25.735  35.104  1.00  0.00     0.040 A 
ATOM     87  C   UNL A   1      46.530  27.538  34.403  1.00  0.00     0.040 A 
ATOM     88  F   UNL A   1      45.621  29.401  33.302  1.00  0.00    -0.206 F 
ATOM     89  C   UNL A   1      46.368  26.296  35.013  1.00  0.00     0.006 A 
ENDBRANCH  65  82
ENDBRANCH  39  40
ENDBRANCH  31  34
ENDBRANCH  29  30
ENDBRANCH  28  29
ENDBRANCH   1  28
TORSDOF 15
ENDMDL
