MODEL 1
REMARK VINA RESULT:     -11.3      0.000      0.000
REMARK SMILES O=C(NCCCCCCNC(=O)c1cnc(-c2ccccc2Cl)nc1)c1ccc(-c2c3nc(c(-c4c(F)cccc4F)c4ccc([nH]4)c(-c4c(F)cccc4F)c4nc(c(-c5c(F)cccc5F)c5ccc2[nH]5)C=C4)C=C3)cc1
REMARK SMILES IDX 6 1 5 2 4 3 3 4 1 5 2 6 26 8 27 9 79 10 28 11 78 12 29 13
REMARK SMILES IDX 30 14 31 15 72 16 32 17 77 18 71 19 73 20 33 21 76 22 70 23
REMARK SMILES IDX 69 24 34 26 60 27 43 28 59 29 44 30 47 31 58 32 74 33 45 34
REMARK SMILES IDX 46 35 57 37 75 38 48 39 35 40 36 41 41 42 37 43 38 44 40 45
REMARK SMILES IDX 42 46 39 47 61 48 62 49 67 50 63 51 64 52 66 53 68 54 65 55
REMARK SMILES IDX 49 56 50 57 55 58 51 59 52 60 54 61 56 62 53 63 7 64 8 65
REMARK SMILES IDX 9 66 10 67 11 68 12 70 13 71 14 72 25 73 15 74 24 75 16 76
REMARK SMILES IDX 17 77 18 78 22 79 19 80 21 81 23 82 20 83
REMARK H PARENT 3 7 73 25 47 36 10 69
REMARK Flexibility Score: inf
ROOT
ATOM      1  C   UNL A   1      36.619  20.731  24.693  1.00  0.00     0.002 C 
ENDROOT
BRANCH   1   2
ATOM      2  C   UNL A   1      37.718  19.704  24.958  1.00  0.00     0.021 C 
BRANCH   2   3
ATOM      3  C   UNL A   1      38.899  20.233  25.759  1.00  0.00     0.116 C 
BRANCH   3   4
ATOM      4  N   UNL A   1      40.025  19.311  25.768  1.00  0.00    -0.352 N 
ATOM      5  O   UNL A   1      42.199  18.704  25.855  1.00  0.00    -0.269 OA
ATOM      6  C   UNL A   1      41.344  19.560  26.058  1.00  0.00     0.251 C 
ATOM      7  H   UNL A   1      39.811  18.380  25.533  1.00  0.00     0.163 HD
BRANCH   6   8
ATOM      8  C   UNL A   1      41.732  20.880  26.597  1.00  0.00     0.039 A 
ATOM      9  C   UNL A   1      41.655  21.131  27.968  1.00  0.00     0.014 A 
ATOM     10  C   UNL A   1      42.165  21.879  25.722  1.00  0.00     0.014 A 
ATOM     11  C   UNL A   1      41.859  22.420  28.445  1.00  0.00     0.010 A 
ATOM     12  C   UNL A   1      42.471  23.150  26.218  1.00  0.00     0.010 A 
ATOM     13  C   UNL A   1      42.294  23.438  27.581  1.00  0.00    -0.014 A 
BRANCH  13  14
ATOM     14  C   UNL A   1      42.633  24.767  28.147  1.00  0.00     0.031 A 
ATOM     15  C   UNL A   1      44.043  25.122  28.529  1.00  0.00     0.074 A 
ATOM     16  C   UNL A   1      41.644  25.671  28.293  1.00  0.00     0.049 A 
ATOM     17  N   UNL A   1      44.502  26.244  29.025  1.00  0.00    -0.248 NA
ATOM     18  C   UNL A   1      45.070  24.086  28.338  1.00  0.00     0.031 C 
ATOM     19  C   UNL A   1      40.234  25.432  27.968  1.00  0.00     0.029 A 
ATOM     20  N   UNL A   1      41.668  26.967  28.733  1.00  0.00    -0.354 N 
ATOM     21  C   UNL A   1      45.863  26.046  29.223  1.00  0.00     0.074 A 
ATOM     22  C   UNL A   1      46.151  24.686  28.818  1.00  0.00     0.031 C 
ATOM     23  C   UNL A   1      39.538  26.558  28.179  1.00  0.00     0.029 A 
ATOM     24  C   UNL A   1      40.434  27.572  28.720  1.00  0.00     0.049 A 
ATOM     25  H   UNL A   1      42.489  27.422  29.030  1.00  0.00     0.167 HD
ATOM     26  C   UNL A   1      46.783  26.923  29.692  1.00  0.00     0.037 A 
ATOM     27  C   UNL A   1      40.056  28.797  29.123  1.00  0.00     0.037 A 
ATOM     28  C   UNL A   1      46.485  28.277  30.088  1.00  0.00     0.049 A 
ATOM     29  C   UNL A   1      41.092  29.733  29.671  1.00  0.00     0.074 A 
ATOM     30  C   UNL A   1      47.355  29.254  30.541  1.00  0.00     0.029 A 
ATOM     31  N   UNL A   1      45.218  28.844  30.087  1.00  0.00    -0.354 N 
ATOM     32  N   UNL A   1      42.381  29.546  29.812  1.00  0.00    -0.248 NA
ATOM     33  C   UNL A   1      40.621  31.051  30.116  1.00  0.00     0.031 C 
ATOM     34  C   UNL A   1      46.609  30.390  30.870  1.00  0.00     0.029 A 
ATOM     35  C   UNL A   1      45.281  30.145  30.560  1.00  0.00     0.049 A 
ATOM     36  H   UNL A   1      44.396  28.388  29.794  1.00  0.00     0.167 HD
ATOM     37  C   UNL A   1      42.880  30.728  30.343  1.00  0.00     0.074 A 
ATOM     38  C   UNL A   1      41.755  31.632  30.476  1.00  0.00     0.031 C 
ATOM     39  C   UNL A   1      44.154  31.035  30.689  1.00  0.00     0.037 A 
BRANCH  26  40
ATOM     40  C   UNL A   1      48.201  26.443  29.828  1.00  0.00     0.057 A 
ATOM     41  C   UNL A   1      48.662  25.799  30.984  1.00  0.00     0.134 A 
ATOM     42  C   UNL A   1      49.103  26.576  28.764  1.00  0.00     0.134 A 
ATOM     43  F   UNL A   1      47.854  25.645  32.044  1.00  0.00    -0.206 F 
ATOM     44  C   UNL A   1      49.972  25.324  31.084  1.00  0.00     0.040 A 
ATOM     45  C   UNL A   1      50.407  26.081  28.841  1.00  0.00     0.040 A 
ATOM     46  F   UNL A   1      48.728  27.174  27.623  1.00  0.00    -0.206 F 
ATOM     47  C   UNL A   1      50.846  25.457  30.006  1.00  0.00     0.006 A 
ENDBRANCH  26  40
BRANCH  27  48
ATOM     48  C   UNL A   1      38.629  29.195  29.035  1.00  0.00     0.057 A 
ATOM     49  C   UNL A   1      38.076  29.664  27.839  1.00  0.00     0.134 A 
ATOM     50  C   UNL A   1      37.780  29.105  30.147  1.00  0.00     0.134 A 
ATOM     51  F   UNL A   1      38.840  29.785  26.744  1.00  0.00    -0.206 F 
ATOM     52  C   UNL A   1      36.737  30.047  27.754  1.00  0.00     0.040 A 
ATOM     53  C   UNL A   1      36.432  29.456  30.068  1.00  0.00     0.040 A 
ATOM     54  F   UNL A   1      38.246  28.652  31.320  1.00  0.00    -0.206 F 
ATOM     55  C   UNL A   1      35.909  29.937  28.871  1.00  0.00     0.006 A 
ENDBRANCH  27  48
BRANCH  39  56
ATOM     56  C   UNL A   1      44.402  32.421  31.212  1.00  0.00     0.057 A 
ATOM     57  C   UNL A   1      44.749  33.483  30.367  1.00  0.00     0.134 A 
ATOM     58  C   UNL A   1      44.269  32.700  32.578  1.00  0.00     0.134 A 
ATOM     59  F   UNL A   1      44.908  33.280  29.049  1.00  0.00    -0.206 F 
ATOM     60  C   UNL A   1      44.984  34.765  30.866  1.00  0.00     0.040 A 
ATOM     61  C   UNL A   1      44.470  33.984  33.084  1.00  0.00     0.040 A 
ATOM     62  F   UNL A   1      43.930  31.730  33.442  1.00  0.00    -0.206 F 
ATOM     63  C   UNL A   1      44.838  35.019  32.228  1.00  0.00     0.006 A 
ENDBRANCH  39  56
ENDBRANCH  13  14
ENDBRANCH   6   8
ENDBRANCH   3   4
ENDBRANCH   2   3
ENDBRANCH   1   2
BRANCH   1  64
ATOM     64  C   UNL A   1      35.196  20.252  24.997  1.00  0.00     0.002 C 
BRANCH  64  65
ATOM     65  C   UNL A   1      34.073  21.124  24.426  1.00  0.00     0.021 C 
BRANCH  65  66
ATOM     66  C   UNL A   1      32.719  20.952  25.111  1.00  0.00     0.116 C 
BRANCH  66  67
ATOM     67  N   UNL A   1      32.808  21.182  26.546  1.00  0.00    -0.352 N 
ATOM     68  C   UNL A   1      32.737  22.364  27.234  1.00  0.00     0.254 C 
ATOM     69  H   UNL A   1      32.936  20.376  27.097  1.00  0.00     0.163 HD
ATOM     70  O   UNL A   1      33.044  22.422  28.420  1.00  0.00    -0.269 OA
BRANCH  68  71
ATOM     71  C   UNL A   1      32.304  23.575  26.544  1.00  0.00     0.076 A 
ATOM     72  C   UNL A   1      33.173  24.378  25.842  1.00  0.00     0.129 A 
ATOM     73  C   UNL A   1      30.990  23.971  26.557  1.00  0.00     0.129 A 
ATOM     74  N   UNL A   1      32.806  25.541  25.267  1.00  0.00    -0.236 NA
ATOM     75  N   UNL A   1      30.566  25.125  25.997  1.00  0.00    -0.236 NA
ATOM     76  C   UNL A   1      31.507  25.888  25.402  1.00  0.00     0.160 A 
BRANCH  76  77
ATOM     77  C   UNL A   1      31.101  27.174  24.836  1.00  0.00     0.038 A 
ATOM     78  C   UNL A   1      30.302  27.191  23.674  1.00  0.00     0.013 A 
ATOM     79  C   UNL A   1      31.489  28.411  25.380  1.00  0.00     0.052 A 
ATOM     80  C   UNL A   1      29.886  28.390  23.092  1.00  0.00     0.001 A 
ATOM     81  C   UNL A   1      31.068  29.614  24.797  1.00  0.00     0.021 A 
ATOM     82  Cl  UNL A   1      32.552  28.541  26.743  1.00  0.00    -0.084 Cl
ATOM     83  C   UNL A   1      30.265  29.602  23.657  1.00  0.00     0.002 A 
ENDBRANCH  76  77
ENDBRANCH  68  71
ENDBRANCH  66  67
ENDBRANCH  65  66
ENDBRANCH  64  65
ENDBRANCH   1  64
TORSDOF 14
ENDMDL
MODEL 2
REMARK VINA RESULT:     -11.3      5.209     10.329
REMARK SMILES O=C(NCCCCCCNC(=O)c1cnc(-c2ccccc2Cl)nc1)c1ccc(-c2c3nc(c(-c4c(F)cccc4F)c4ccc([nH]4)c(-c4c(F)cccc4F)c4nc(c(-c5c(F)cccc5F)c5ccc2[nH]5)C=C4)C=C3)cc1
REMARK SMILES IDX 6 1 5 2 4 3 3 4 1 5 2 6 26 8 27 9 79 10 28 11 78 12 29 13
REMARK SMILES IDX 30 14 31 15 72 16 32 17 77 18 71 19 73 20 33 21 76 22 70 23
REMARK SMILES IDX 69 24 34 26 60 27 43 28 59 29 44 30 47 31 58 32 74 33 45 34
REMARK SMILES IDX 46 35 57 37 75 38 48 39 35 40 36 41 41 42 37 43 38 44 40 45
REMARK SMILES IDX 42 46 39 47 61 48 62 49 67 50 63 51 64 52 66 53 68 54 65 55
REMARK SMILES IDX 49 56 50 57 55 58 51 59 52 60 54 61 56 62 53 63 7 64 8 65
REMARK SMILES IDX 9 66 10 67 11 68 12 70 13 71 14 72 25 73 15 74 24 75 16 76
REMARK SMILES IDX 17 77 18 78 22 79 19 80 21 81 23 82 20 83
REMARK H PARENT 3 7 73 25 47 36 10 69
REMARK Flexibility Score: inf
ROOT
ATOM      1  C   UNL A   1      34.623  33.989  29.063  1.00  0.00     0.002 C 
ENDROOT
BRANCH   1   2
ATOM      2  C   UNL A   1      33.315  34.776  29.025  1.00  0.00     0.021 C 
BRANCH   2   3
ATOM      3  C   UNL A   1      33.380  36.146  29.686  1.00  0.00     0.116 C 
BRANCH   3   4
ATOM      4  N   UNL A   1      32.454  36.272  30.801  1.00  0.00    -0.352 N 
ATOM      5  O   UNL A   1      31.577  35.784  32.825  1.00  0.00    -0.269 OA
ATOM      6  C   UNL A   1      32.529  35.715  32.054  1.00  0.00     0.251 C 
ATOM      7  H   UNL A   1      31.663  36.833  30.633  1.00  0.00     0.163 HD
BRANCH   6   8
ATOM      8  C   UNL A   1      33.761  35.008  32.461  1.00  0.00     0.039 A 
ATOM      9  C   UNL A   1      34.996  35.657  32.404  1.00  0.00     0.014 A 
ATOM     10  C   UNL A   1      33.682  33.682  32.894  1.00  0.00     0.014 A 
ATOM     11  C   UNL A   1      36.163  34.937  32.627  1.00  0.00     0.010 A 
ATOM     12  C   UNL A   1      34.852  32.988  33.218  1.00  0.00     0.010 A 
ATOM     13  C   UNL A   1      36.104  33.602  33.061  1.00  0.00    -0.014 A 
BRANCH  13  14
ATOM     14  C   UNL A   1      37.364  32.906  33.420  1.00  0.00     0.031 A 
ATOM     15  C   UNL A   1      38.080  33.191  34.710  1.00  0.00     0.074 A 
ATOM     16  C   UNL A   1      37.849  31.982  32.567  1.00  0.00     0.049 A 
ATOM     17  N   UNL A   1      39.183  32.659  35.173  1.00  0.00    -0.248 NA
ATOM     18  C   UNL A   1      37.489  34.209  35.593  1.00  0.00     0.031 C 
ATOM     19  C   UNL A   1      37.246  31.631  31.277  1.00  0.00     0.029 A 
ATOM     20  N   UNL A   1      38.943  31.162  32.654  1.00  0.00    -0.354 N 
ATOM     21  C   UNL A   1      39.430  33.286  36.388  1.00  0.00     0.074 A 
ATOM     22  C   UNL A   1      38.375  34.259  36.579  1.00  0.00     0.031 C 
ATOM     23  C   UNL A   1      37.952  30.639  30.717  1.00  0.00     0.029 A 
ATOM     24  C   UNL A   1      39.094  30.334  31.569  1.00  0.00     0.049 A 
ATOM     25  H   UNL A   1      39.561  31.166  33.421  1.00  0.00     0.167 HD
ATOM     26  C   UNL A   1      40.441  33.062  37.263  1.00  0.00     0.037 A 
ATOM     27  C   UNL A   1      40.059  29.446  31.274  1.00  0.00     0.037 A 
ATOM     28  C   UNL A   1      41.484  32.086  37.064  1.00  0.00     0.049 A 
ATOM     29  C   UNL A   1      41.184  29.246  32.246  1.00  0.00     0.074 A 
ATOM     30  C   UNL A   1      42.530  31.759  37.910  1.00  0.00     0.029 A 
ATOM     31  N   UNL A   1      41.619  31.286  35.939  1.00  0.00    -0.354 N 
ATOM     32  N   UNL A   1      41.380  29.815  33.409  1.00  0.00    -0.248 NA
ATOM     33  C   UNL A   1      42.221  28.279  31.864  1.00  0.00     0.031 C 
ATOM     34  C   UNL A   1      43.330  30.807  37.272  1.00  0.00     0.029 A 
ATOM     35  C   UNL A   1      42.748  30.490  36.055  1.00  0.00     0.049 A 
ATOM     36  H   UNL A   1      41.004  31.286  35.170  1.00  0.00     0.167 HD
ATOM     37  C   UNL A   1      42.551  29.262  33.909  1.00  0.00     0.074 A 
ATOM     38  C   UNL A   1      43.007  28.296  32.930  1.00  0.00     0.031 C 
ATOM     39  C   UNL A   1      43.192  29.533  35.073  1.00  0.00     0.037 A 
BRANCH  26  40
ATOM     40  C   UNL A   1      40.487  33.901  38.509  1.00  0.00     0.057 A 
ATOM     41  C   UNL A   1      39.816  33.531  39.683  1.00  0.00     0.134 A 
ATOM     42  C   UNL A   1      41.262  35.068  38.553  1.00  0.00     0.134 A 
ATOM     43  F   UNL A   1      39.050  32.430  39.709  1.00  0.00    -0.206 F 
ATOM     44  C   UNL A   1      39.897  34.301  40.845  1.00  0.00     0.040 A 
ATOM     45  C   UNL A   1      41.373  35.831  39.717  1.00  0.00     0.040 A 
ATOM     46  F   UNL A   1      41.939  35.478  37.469  1.00  0.00    -0.206 F 
ATOM     47  C   UNL A   1      40.685  35.451  40.866  1.00  0.00     0.006 A 
ENDBRANCH  26  40
BRANCH  27  48
ATOM     48  C   UNL A   1      40.005  28.696  29.994  1.00  0.00     0.057 A 
ATOM     49  C   UNL A   1      40.679  29.150  28.856  1.00  0.00     0.134 A 
ATOM     50  C   UNL A   1      39.284  27.499  29.883  1.00  0.00     0.134 A 
ATOM     51  F   UNL A   1      41.375  30.296  28.896  1.00  0.00    -0.206 F 
ATOM     52  C   UNL A   1      40.624  28.453  27.648  1.00  0.00     0.040 A 
ATOM     53  C   UNL A   1      39.247  26.776  28.691  1.00  0.00     0.040 A 
ATOM     54  F   UNL A   1      38.626  27.004  30.941  1.00  0.00    -0.206 F 
ATOM     55  C   UNL A   1      39.911  27.258  27.566  1.00  0.00     0.006 A 
ENDBRANCH  27  48
BRANCH  39  56
ATOM     56  C   UNL A   1      44.435  28.743  35.365  1.00  0.00     0.057 A 
ATOM     57  C   UNL A   1      45.707  29.194  34.990  1.00  0.00     0.134 A 
ATOM     58  C   UNL A   1      44.358  27.525  36.053  1.00  0.00     0.134 A 
ATOM     59  F   UNL A   1      45.848  30.346  34.315  1.00  0.00    -0.206 F 
ATOM     60  C   UNL A   1      46.854  28.447  35.260  1.00  0.00     0.040 A 
ATOM     61  C   UNL A   1      45.502  26.785  36.356  1.00  0.00     0.040 A 
ATOM     62  F   UNL A   1      43.172  27.039  36.449  1.00  0.00    -0.206 F 
ATOM     63  C   UNL A   1      46.753  27.242  35.952  1.00  0.00     0.006 A 
ENDBRANCH  39  56
ENDBRANCH  13  14
ENDBRANCH   6   8
ENDBRANCH   3   4
ENDBRANCH   2   3
ENDBRANCH   1   2
BRANCH   1  64
ATOM     64  C   UNL A   1      34.468  32.477  29.249  1.00  0.00     0.002 C 
BRANCH  64  65
ATOM     65  C   UNL A   1      35.143  31.610  28.181  1.00  0.00     0.021 C 
BRANCH  65  66
ATOM     66  C   UNL A   1      34.219  30.610  27.491  1.00  0.00     0.116 C 
BRANCH  66  67
ATOM     67  N   UNL A   1      32.978  31.233  27.055  1.00  0.00    -0.352 N 
ATOM     68  C   UNL A   1      31.910  30.667  26.410  1.00  0.00     0.254 C 
ATOM     69  H   UNL A   1      32.895  32.195  27.249  1.00  0.00     0.163 HD
ATOM     70  O   UNL A   1      31.030  31.364  25.916  1.00  0.00    -0.269 OA
BRANCH  68  71
ATOM     71  C   UNL A   1      31.824  29.214  26.298  1.00  0.00     0.076 A 
ATOM     72  C   UNL A   1      31.469  28.409  27.355  1.00  0.00     0.129 A 
ATOM     73  C   UNL A   1      32.089  28.575  25.112  1.00  0.00     0.129 A 
ATOM     74  N   UNL A   1      31.463  27.062  27.291  1.00  0.00    -0.236 NA
ATOM     75  N   UNL A   1      32.095  27.229  24.990  1.00  0.00    -0.236 NA
ATOM     76  C   UNL A   1      31.816  26.521  26.104  1.00  0.00     0.160 A 
BRANCH  76  77
ATOM     77  C   UNL A   1      31.873  25.062  26.031  1.00  0.00     0.038 A 
ATOM     78  C   UNL A   1      30.698  24.317  26.269  1.00  0.00     0.013 A 
ATOM     79  C   UNL A   1      33.053  24.349  25.756  1.00  0.00     0.052 A 
ATOM     80  C   UNL A   1      30.695  22.922  26.212  1.00  0.00     0.001 A 
ATOM     81  C   UNL A   1      33.048  22.949  25.696  1.00  0.00     0.021 A 
ATOM     82  Cl  UNL A   1      34.587  25.128  25.546  1.00  0.00    -0.084 Cl
ATOM     83  C   UNL A   1      31.870  22.238  25.920  1.00  0.00     0.002 A 
ENDBRANCH  76  77
ENDBRANCH  68  71
ENDBRANCH  66  67
ENDBRANCH  65  66
ENDBRANCH  64  65
ENDBRANCH   1  64
TORSDOF 14
ENDMDL
MODEL 3
REMARK VINA RESULT:     -11.3      0.928      6.386
REMARK SMILES O=C(NCCCCCCNC(=O)c1cnc(-c2ccccc2Cl)nc1)c1ccc(-c2c3nc(c(-c4c(F)cccc4F)c4ccc([nH]4)c(-c4c(F)cccc4F)c4nc(c(-c5c(F)cccc5F)c5ccc2[nH]5)C=C4)C=C3)cc1
REMARK SMILES IDX 6 1 5 2 4 3 3 4 1 5 2 6 26 8 27 9 79 10 28 11 78 12 29 13
REMARK SMILES IDX 30 14 31 15 72 16 32 17 77 18 71 19 73 20 33 21 76 22 70 23
REMARK SMILES IDX 69 24 34 26 60 27 43 28 59 29 44 30 47 31 58 32 74 33 45 34
REMARK SMILES IDX 46 35 57 37 75 38 48 39 35 40 36 41 41 42 37 43 38 44 40 45
REMARK SMILES IDX 42 46 39 47 61 48 62 49 67 50 63 51 64 52 66 53 68 54 65 55
REMARK SMILES IDX 49 56 50 57 55 58 51 59 52 60 54 61 56 62 53 63 7 64 8 65
REMARK SMILES IDX 9 66 10 67 11 68 12 70 13 71 14 72 25 73 15 74 24 75 16 76
REMARK SMILES IDX 17 77 18 78 22 79 19 80 21 81 23 82 20 83
REMARK H PARENT 3 7 73 25 47 36 10 69
REMARK Flexibility Score: inf
ROOT
ATOM      1  C   UNL A   1      36.331  20.041  24.989  1.00  0.00     0.002 C 
ENDROOT
BRANCH   1   2
ATOM      2  C   UNL A   1      37.760  19.586  24.697  1.00  0.00     0.021 C 
BRANCH   2   3
ATOM      3  C   UNL A   1      38.797  20.076  25.696  1.00  0.00     0.116 C 
BRANCH   3   4
ATOM      4  N   UNL A   1      39.971  19.218  25.747  1.00  0.00    -0.352 N 
ATOM      5  O   UNL A   1      42.173  18.735  25.894  1.00  0.00    -0.269 OA
ATOM      6  C   UNL A   1      41.268  19.544  26.062  1.00  0.00     0.251 C 
ATOM      7  H   UNL A   1      39.815  18.273  25.523  1.00  0.00     0.163 HD
BRANCH   6   8
ATOM      8  C   UNL A   1      41.569  20.893  26.586  1.00  0.00     0.039 A 
ATOM      9  C   UNL A   1      41.956  21.916  25.718  1.00  0.00     0.014 A 
ATOM     10  C   UNL A   1      41.474  21.133  27.959  1.00  0.00     0.014 A 
ATOM     11  C   UNL A   1      42.398  23.127  26.234  1.00  0.00     0.010 A 
ATOM     12  C   UNL A   1      41.821  22.389  28.468  1.00  0.00     0.010 A 
ATOM     13  C   UNL A   1      42.312  23.387  27.612  1.00  0.00    -0.014 A 
BRANCH  13  14
ATOM     14  C   UNL A   1      42.664  24.739  28.113  1.00  0.00     0.031 A 
ATOM     15  C   UNL A   1      41.615  25.790  28.343  1.00  0.00     0.074 A 
ATOM     16  C   UNL A   1      43.957  25.003  28.384  1.00  0.00     0.049 A 
ATOM     17  N   UNL A   1      41.761  27.013  28.787  1.00  0.00    -0.248 NA
ATOM     18  C   UNL A   1      40.224  25.429  28.028  1.00  0.00     0.031 C 
ATOM     19  C   UNL A   1      45.066  24.063  28.186  1.00  0.00     0.029 A 
ATOM     20  N   UNL A   1      44.560  26.123  28.893  1.00  0.00    -0.354 N 
ATOM     21  C   UNL A   1      40.490  27.574  28.789  1.00  0.00     0.074 A 
ATOM     22  C   UNL A   1      39.586  26.565  28.276  1.00  0.00     0.031 C 
ATOM     23  C   UNL A   1      46.203  24.629  28.611  1.00  0.00     0.029 A 
ATOM     24  C   UNL A   1      45.919  25.992  29.041  1.00  0.00     0.049 A 
ATOM     25  H   UNL A   1      44.066  26.941  29.130  1.00  0.00     0.167 HD
ATOM     26  C   UNL A   1      40.115  28.814  29.190  1.00  0.00     0.037 A 
ATOM     27  C   UNL A   1      46.844  26.878  29.451  1.00  0.00     0.037 A 
ATOM     28  C   UNL A   1      41.023  29.809  29.704  1.00  0.00     0.049 A 
ATOM     29  C   UNL A   1      46.402  28.254  29.854  1.00  0.00     0.074 A 
ATOM     30  C   UNL A   1      40.734  31.080  30.170  1.00  0.00     0.029 A 
ATOM     31  N   UNL A   1      42.397  29.649  29.811  1.00  0.00    -0.354 N 
ATOM     32  N   UNL A   1      45.192  28.755  29.891  1.00  0.00    -0.248 NA
ATOM     33  C   UNL A   1      47.455  29.188  30.274  1.00  0.00     0.031 C 
ATOM     34  C   UNL A   1      41.937  31.710  30.503  1.00  0.00     0.029 A 
ATOM     35  C   UNL A   1      42.972  30.810  30.307  1.00  0.00     0.049 A 
ATOM     36  H   UNL A   1      42.891  28.833  29.569  1.00  0.00     0.167 HD
ATOM     37  C   UNL A   1      45.334  30.055  30.356  1.00  0.00     0.074 A 
ATOM     38  C   UNL A   1      46.746  30.256  30.608  1.00  0.00     0.031 C 
ATOM     39  C   UNL A   1      44.379  30.998  30.553  1.00  0.00     0.037 A 
BRANCH  26  40
ATOM     40  C   UNL A   1      38.662  29.179  29.068  1.00  0.00     0.057 A 
ATOM     41  C   UNL A   1      37.787  29.129  30.161  1.00  0.00     0.134 A 
ATOM     42  C   UNL A   1      38.144  29.644  27.851  1.00  0.00     0.134 A 
ATOM     43  F   UNL A   1      38.213  28.686  31.353  1.00  0.00    -0.206 F 
ATOM     44  C   UNL A   1      36.447  29.506  30.043  1.00  0.00     0.040 A 
ATOM     45  C   UNL A   1      36.814  30.050  27.728  1.00  0.00     0.040 A 
ATOM     46  F   UNL A   1      38.927  29.727  26.764  1.00  0.00    -0.206 F 
ATOM     47  C   UNL A   1      35.960  29.977  28.825  1.00  0.00     0.006 A 
ENDBRANCH  26  40
BRANCH  27  48
ATOM     48  C   UNL A   1      48.276  26.490  29.482  1.00  0.00     0.057 A 
ATOM     49  C   UNL A   1      48.863  25.966  30.638  1.00  0.00     0.134 A 
ATOM     50  C   UNL A   1      49.090  26.625  28.349  1.00  0.00     0.134 A 
ATOM     51  F   UNL A   1      48.139  25.825  31.758  1.00  0.00    -0.206 F 
ATOM     52  C   UNL A   1      50.211  25.607  30.674  1.00  0.00     0.040 A 
ATOM     53  C   UNL A   1      50.431  26.241  28.362  1.00  0.00     0.040 A 
ATOM     54  F   UNL A   1      48.584  27.110  27.205  1.00  0.00    -0.206 F 
ATOM     55  C   UNL A   1      50.997  25.739  29.530  1.00  0.00     0.006 A 
ENDBRANCH  27  48
BRANCH  39  56
ATOM     56  C   UNL A   1      44.832  32.319  31.104  1.00  0.00     0.057 A 
ATOM     57  C   UNL A   1      45.180  33.391  30.272  1.00  0.00     0.134 A 
ATOM     58  C   UNL A   1      44.897  32.527  32.488  1.00  0.00     0.134 A 
ATOM     59  F   UNL A   1      45.154  33.252  28.937  1.00  0.00    -0.206 F 
ATOM     60  C   UNL A   1      45.607  34.612  30.797  1.00  0.00     0.040 A 
ATOM     61  C   UNL A   1      45.292  33.754  33.023  1.00  0.00     0.040 A 
ATOM     62  F   UNL A   1      44.569  31.546  33.342  1.00  0.00    -0.206 F 
ATOM     63  C   UNL A   1      45.656  34.798  32.177  1.00  0.00     0.006 A 
ENDBRANCH  39  56
ENDBRANCH  13  14
ENDBRANCH   6   8
ENDBRANCH   3   4
ENDBRANCH   2   3
ENDBRANCH   1   2
BRANCH   1  64
ATOM     64  C   UNL A   1      36.016  21.487  24.597  1.00  0.00     0.002 C 
BRANCH  64  65
ATOM     65  C   UNL A   1      35.672  22.424  25.760  1.00  0.00     0.021 C 
BRANCH  65  66
ATOM     66  C   UNL A   1      34.647  21.867  26.746  1.00  0.00     0.116 C 
BRANCH  66  67
ATOM     67  N   UNL A   1      33.514  21.260  26.061  1.00  0.00    -0.352 N 
ATOM     68  C   UNL A   1      32.339  21.839  25.660  1.00  0.00     0.254 C 
ATOM     69  H   UNL A   1      33.605  20.301  25.859  1.00  0.00     0.163 HD
ATOM     70  O   UNL A   1      31.393  21.152  25.290  1.00  0.00    -0.269 OA
BRANCH  68  71
ATOM     71  C   UNL A   1      32.206  23.292  25.687  1.00  0.00     0.076 A 
ATOM     72  C   UNL A   1      32.744  24.103  24.715  1.00  0.00     0.129 A 
ATOM     73  C   UNL A   1      31.521  23.926  26.694  1.00  0.00     0.129 A 
ATOM     74  N   UNL A   1      32.701  25.450  24.767  1.00  0.00    -0.236 NA
ATOM     75  N   UNL A   1      31.444  25.271  26.795  1.00  0.00    -0.236 NA
ATOM     76  C   UNL A   1      32.074  25.984  25.838  1.00  0.00     0.160 A 
BRANCH  76  77
ATOM     77  C   UNL A   1      32.067  27.443  25.943  1.00  0.00     0.038 A 
ATOM     78  C   UNL A   1      32.783  28.059  26.991  1.00  0.00     0.013 A 
ATOM     79  C   UNL A   1      31.357  28.275  25.060  1.00  0.00     0.052 A 
ATOM     80  C   UNL A   1      32.811  29.448  27.138  1.00  0.00     0.001 A 
ATOM     81  C   UNL A   1      31.388  29.669  25.207  1.00  0.00     0.021 A 
ATOM     82  Cl  UNL A   1      30.353  27.652  23.792  1.00  0.00    -0.084 Cl
ATOM     83  C   UNL A   1      32.117  30.253  26.242  1.00  0.00     0.002 A 
ENDBRANCH  76  77
ENDBRANCH  68  71
ENDBRANCH  66  67
ENDBRANCH  65  66
ENDBRANCH  64  65
ENDBRANCH   1  64
TORSDOF 14
ENDMDL
