MODEL 1
REMARK VINA RESULT:     -15.6      0.000      0.000
REMARK SMILES Cc1c(CC(=O)N[C@H](CO)C(=O)NCCCCCCNC(=O)c2ccc(-c3c4nc(c(-c5c(F)cccc5F)c5ccc([nH]5)c(-c5c(F)cccc5F)c5nc(c(-c6c(F)cccc6F)c6ccc3[nH]6)C=C5)C=C4)cc2)cc(-c2ccc(S(C)(=O)=O)cc2)n1-c1ccc(F)cc1
REMARK SMILES IDX 15 1 14 2 13 3 11 4 12 5 8 7 7 8 5 9 6 10 4 12 3 13 1 14
REMARK SMILES IDX 2 15 89 16 77 17 78 18 90 19 91 20 96 21 92 22 95 23 93 24
REMARK SMILES IDX 94 25 79 26 80 27 88 28 81 29 87 30 82 31 83 32 84 33 85 34
REMARK SMILES IDX 86 35 9 36 10 37 16 39 17 40 18 41 19 42 20 43 21 44 22 46
REMARK SMILES IDX 23 47 24 48 76 49 25 50 75 51 26 52 27 53 28 54 69 55 29 56
REMARK SMILES IDX 74 57 68 58 70 59 30 60 73 61 67 62 66 63 31 65 57 66 40 67
REMARK SMILES IDX 56 68 41 69 44 70 55 71 71 72 42 73 43 74 54 76 72 77 45 78
REMARK SMILES IDX 32 79 33 80 38 81 34 82 35 83 37 84 39 85 36 86 58 87 59 88
REMARK SMILES IDX 64 89 60 90 61 91 63 92 65 93 62 94 46 95 47 96 52 97 48 98
REMARK SMILES IDX 49 99 51 100 53 101 50 102
REMARK H PARENT 13 6 7 11 10 38 20 45 70 64 44 75
REMARK Flexibility Score: inf
ROOT
ATOM      1  C   UNL A   1      32.702  29.437  27.058  1.00  0.00     0.021 C 
ENDROOT
BRANCH   1   2
ATOM      2  C   UNL A   1      31.370  29.464  25.250  1.00  0.00     0.116 C 
BRANCH   2   3
ATOM      3  N   UNL A   1      30.559  30.793  24.569  1.00  0.00    -0.354 N 
ATOM      4  C   UNL A   1      29.440  30.870  23.803  1.00  0.00     0.244 C 
ATOM      5  O   UNL A   1      28.968  31.965  23.510  1.00  0.00    -0.273 OA
ATOM      6  H   UNL A   1      30.975  31.664  24.764  1.00  0.00     0.163 HD
BRANCH   4   7
ATOM      7  C   UNL A   1      28.778  29.573  23.465  1.00  0.00     0.197 C 
BRANCH   7   8
ATOM      8  N   UNL A   1      29.656  28.792  22.537  1.00  0.00    -0.342 N 
ATOM      9  C   UNL A   1      30.298  27.578  22.495  1.00  0.00     0.225 C 
ATOM     10  O   UNL A   1      30.966  27.416  21.459  1.00  0.00    -0.275 OA
ATOM     11  H   UNL A   1      29.823  29.300  21.710  1.00  0.00     0.164 HD
BRANCH   9  12
ATOM     12  C   UNL A   1      30.253  26.386  23.521  1.00  0.00     0.137 C 
BRANCH  12  13
ATOM     13  C   UNL A   1      31.330  25.318  23.276  1.00  0.00    -0.017 A 
ATOM     14  C   UNL A   1      33.791  26.736  24.113  1.00  0.00     0.065 C 
ATOM     15  C   UNL A   1      32.967  25.493  24.004  1.00  0.00     0.024 A 
ATOM     16  N   UNL A   1      33.598  23.805  24.354  1.00  0.00    -0.314 N 
ATOM     17  C   UNL A   1      30.974  23.378  23.099  1.00  0.00     0.033 A 
ATOM     18  C   UNL A   1      32.348  22.512  23.867  1.00  0.00     0.053 A 
BRANCH  16  19
ATOM     19  C   UNL A   1      34.959  23.469  24.582  1.00  0.00     0.046 A 
ATOM     20  C   UNL A   1      35.697  23.056  23.464  1.00  0.00     0.029 A 
ATOM     21  C   UNL A   1      35.525  23.469  25.849  1.00  0.00     0.029 A 
ATOM     22  C   UNL A   1      36.887  22.384  23.629  1.00  0.00     0.041 A 
ATOM     23  C   UNL A   1      36.761  22.839  26.004  1.00  0.00     0.041 A 
ATOM     24  C   UNL A   1      37.372  22.220  24.913  1.00  0.00     0.123 A 
ATOM     25  F   UNL A   1      38.495  21.512  25.091  1.00  0.00    -0.207 F 
ENDBRANCH  16  19
BRANCH  18  26
ATOM     26  C   UNL A   1      32.544  21.089  24.140  1.00  0.00    -0.001 A 
ATOM     27  C   UNL A   1      33.037  20.614  25.369  1.00  0.00     0.011 A 
ATOM     28  C   UNL A   1      32.334  20.205  23.088  1.00  0.00     0.011 A 
ATOM     29  C   UNL A   1      33.412  19.276  25.508  1.00  0.00     0.021 A 
ATOM     30  C   UNL A   1      32.688  18.869  23.224  1.00  0.00     0.021 A 
ATOM     31  C   UNL A   1      33.243  18.414  24.422  1.00  0.00     0.067 A 
BRANCH  31  32
ATOM     32  S   UNL A   1      33.650  16.695  24.587  1.00  0.00     0.175 S 
ATOM     33  C   UNL A   1      32.383  16.023  25.627  1.00  0.00     0.163 C 
ATOM     34  O   UNL A   1      33.519  16.108  23.268  1.00  0.00    -0.224 OA
ATOM     35  O   UNL A   1      34.898  16.615  25.322  1.00  0.00    -0.224 OA
ENDBRANCH  31  32
ENDBRANCH  18  26
ENDBRANCH  12  13
ENDBRANCH   9  12
ENDBRANCH   7   8
BRANCH   7  36
ATOM     36  C   UNL A   1      27.288  29.832  23.088  1.00  0.00     0.191 C 
BRANCH  36  37
ATOM     37  O   UNL A   1      26.505  28.633  23.088  1.00  0.00    -0.394 OA
ATOM     38  H   UNL A   1      26.081  28.523  23.954  1.00  0.00     0.210 HD
ENDBRANCH  36  37
ENDBRANCH   7  36
ENDBRANCH   4   7
ENDBRANCH   2   3
ENDBRANCH   1   2
BRANCH   1  39
ATOM     39  C   UNL A   1      34.359  29.604  27.376  1.00  0.00     0.002 C 
BRANCH  39  40
ATOM     40  C   UNL A   1      34.833  31.053  27.585  1.00  0.00     0.002 C 
BRANCH  40  41
ATOM     41  C   UNL A   1      33.825  32.175  27.968  1.00  0.00     0.021 C 
BRANCH  41  42
ATOM     42  C   UNL A   1      34.268  33.668  28.086  1.00  0.00     0.116 C 
BRANCH  42  43
ATOM     43  N   UNL A   1      34.271  34.256  29.411  1.00  0.00    -0.352 N 
ATOM     44  C   UNL A   1      35.056  33.932  30.526  1.00  0.00     0.251 C 
ATOM     45  H   UNL A   1      33.629  34.989  29.546  1.00  0.00     0.163 HD
ATOM     46  O   UNL A   1      34.849  34.586  31.550  1.00  0.00    -0.269 OA
BRANCH  44  47
ATOM     47  C   UNL A   1      36.115  32.806  30.554  1.00  0.00     0.039 A 
ATOM     48  C   UNL A   1      37.248  32.857  29.763  1.00  0.00     0.014 A 
ATOM     49  C   UNL A   1      35.916  31.518  31.080  1.00  0.00     0.014 A 
ATOM     50  C   UNL A   1      38.251  31.764  29.736  1.00  0.00     0.010 A 
ATOM     51  C   UNL A   1      36.899  30.362  30.945  1.00  0.00     0.010 A 
ATOM     52  C   UNL A   1      38.203  30.445  30.381  1.00  0.00    -0.014 A 
BRANCH  52  53
ATOM     53  C   UNL A   1      39.324  29.151  29.835  1.00  0.00     0.031 A 
ATOM     54  C   UNL A   1      40.054  29.102  31.128  1.00  0.00     0.074 A 
ATOM     55  C   UNL A   1      39.978  28.346  28.779  1.00  0.00     0.049 A 
ATOM     56  N   UNL A   1      40.568  30.253  31.457  1.00  0.00    -0.248 NA
ATOM     57  C   UNL A   1      39.843  28.210  32.264  1.00  0.00     0.031 C 
ATOM     58  C   UNL A   1      39.883  28.445  27.286  1.00  0.00     0.029 A 
ATOM     59  N   UNL A   1      40.986  27.199  28.765  1.00  0.00    -0.354 N 
ATOM     60  C   UNL A   1      41.037  30.175  32.735  1.00  0.00     0.074 A 
ATOM     61  C   UNL A   1      40.393  28.957  33.241  1.00  0.00     0.031 C 
ATOM     62  C   UNL A   1      40.532  27.444  26.583  1.00  0.00     0.029 A 
ATOM     63  C   UNL A   1      41.270  26.490  27.432  1.00  0.00     0.049 A 
ATOM     64  H   UNL A   1      41.445  26.921  29.591  1.00  0.00     0.167 HD
ATOM     65  C   UNL A   1      42.347  30.558  32.754  1.00  0.00     0.037 A 
ATOM     66  C   UNL A   1      42.129  25.376  27.044  1.00  0.00     0.037 A 
ATOM     67  C   UNL A   1      43.173  29.439  32.372  1.00  0.00     0.049 A 
ATOM     68  C   UNL A   1      43.313  25.563  27.875  1.00  0.00     0.074 A 
ATOM     69  C   UNL A   1      43.091  28.098  32.715  1.00  0.00     0.029 A 
ATOM     70  N   UNL A   1      43.814  29.497  31.155  1.00  0.00    -0.354 N 
ATOM     71  N   UNL A   1      44.210  26.470  27.660  1.00  0.00    -0.248 NA
ATOM     72  C   UNL A   1      43.507  24.707  29.026  1.00  0.00     0.031 C 
ATOM     73  C   UNL A   1      43.128  27.442  31.476  1.00  0.00     0.029 A 
ATOM     74  C   UNL A   1      43.868  28.237  30.617  1.00  0.00     0.049 A 
ATOM     75  H   UNL A   1      44.175  30.312  30.739  1.00  0.00     0.167 HD
ATOM     76  C   UNL A   1      44.577  26.741  28.939  1.00  0.00     0.074 A 
ATOM     77  C   UNL A   1      44.311  25.522  29.702  1.00  0.00     0.031 C 
ATOM     78  C   UNL A   1      44.440  28.034  29.324  1.00  0.00     0.037 A 
BRANCH  65  79
ATOM     79  C   UNL A   1      42.475  31.972  32.196  1.00  0.00     0.057 A 
ATOM     80  C   UNL A   1      42.635  33.020  33.102  1.00  0.00     0.134 A 
ATOM     81  C   UNL A   1      42.205  32.340  30.854  1.00  0.00     0.134 A 
ATOM     82  F   UNL A   1      42.917  32.760  34.387  1.00  0.00    -0.206 F 
ATOM     83  C   UNL A   1      42.477  34.356  32.716  1.00  0.00     0.040 A 
ATOM     84  C   UNL A   1      41.980  33.665  30.472  1.00  0.00     0.040 A 
ATOM     85  F   UNL A   1      42.117  31.420  29.878  1.00  0.00    -0.206 F 
ATOM     86  C   UNL A   1      42.112  34.680  31.409  1.00  0.00     0.006 A 
ENDBRANCH  65  79
BRANCH  66  87
ATOM     87  C   UNL A   1      42.621  24.137  26.030  1.00  0.00     0.057 A 
ATOM     88  C   UNL A   1      43.762  24.232  25.112  1.00  0.00     0.134 A 
ATOM     89  C   UNL A   1      42.378  22.788  26.344  1.00  0.00     0.134 A 
ATOM     90  F   UNL A   1      44.195  25.413  24.646  1.00  0.00    -0.206 F 
ATOM     91  C   UNL A   1      44.581  23.142  24.662  1.00  0.00     0.040 A 
ATOM     92  C   UNL A   1      43.187  21.685  25.879  1.00  0.00     0.040 A 
ATOM     93  F   UNL A   1      41.394  22.478  27.194  1.00  0.00    -0.206 F 
ATOM     94  C   UNL A   1      44.307  21.855  25.068  1.00  0.00     0.006 A 
ENDBRANCH  66  87
BRANCH  78  95
ATOM     95  C   UNL A   1      44.852  29.107  28.348  1.00  0.00     0.057 A 
ATOM     96  C   UNL A   1      46.168  29.486  28.007  1.00  0.00     0.134 A 
ATOM     97  C   UNL A   1      43.831  29.884  27.791  1.00  0.00     0.134 A 
ATOM     98  F   UNL A   1      47.236  28.767  28.376  1.00  0.00    -0.206 F 
ATOM     99  C   UNL A   1      46.436  30.636  27.249  1.00  0.00     0.040 A 
ATOM    100  C   UNL A   1      44.083  31.002  26.995  1.00  0.00     0.040 A 
ATOM    101  F   UNL A   1      42.547  29.567  28.013  1.00  0.00    -0.206 F 
ATOM    102  C   UNL A   1      45.391  31.405  26.751  1.00  0.00     0.006 A 
ENDBRANCH  78  95
ENDBRANCH  52  53
ENDBRANCH  44  47
ENDBRANCH  42  43
ENDBRANCH  41  42
ENDBRANCH  40  41
ENDBRANCH  39  40
ENDBRANCH   1  39
TORSDOF 21
ENDMDL
MODEL 2
REMARK VINA RESULT:     -13.2      3.059      5.226
REMARK SMILES Cc1c(CC(=O)N[C@H](CO)C(=O)NCCCCCCNC(=O)c2ccc(-c3c4nc(c(-c5c(F)cccc5F)c5ccc([nH]5)c(-c5c(F)cccc5F)c5nc(c(-c6c(F)cccc6F)c6ccc3[nH]6)C=C5)C=C4)cc2)cc(-c2ccc(S(C)(=O)=O)cc2)n1-c1ccc(F)cc1
REMARK SMILES IDX 15 1 14 2 13 3 11 4 12 5 8 7 7 8 5 9 6 10 4 12 3 13 1 14
REMARK SMILES IDX 2 15 89 16 77 17 78 18 90 19 91 20 96 21 92 22 95 23 93 24
REMARK SMILES IDX 94 25 79 26 80 27 88 28 81 29 87 30 82 31 83 32 84 33 85 34
REMARK SMILES IDX 86 35 9 36 10 37 16 39 17 40 18 41 19 42 20 43 21 44 22 46
REMARK SMILES IDX 23 47 24 48 76 49 25 50 75 51 26 52 27 53 28 54 69 55 29 56
REMARK SMILES IDX 74 57 68 58 70 59 30 60 73 61 67 62 66 63 31 65 57 66 40 67
REMARK SMILES IDX 56 68 41 69 44 70 55 71 71 72 42 73 43 74 54 76 72 77 45 78
REMARK SMILES IDX 32 79 33 80 38 81 34 82 35 83 37 84 39 85 36 86 58 87 59 88
REMARK SMILES IDX 64 89 60 90 61 91 63 92 65 93 62 94 46 95 47 96 52 97 48 98
REMARK SMILES IDX 49 99 51 100 53 101 50 102
REMARK H PARENT 13 6 7 11 10 38 20 45 70 64 44 75
REMARK Flexibility Score: inf
ROOT
ATOM      1  C   UNL A   1      33.028  29.481  27.090  1.00  0.00     0.021 C 
ENDROOT
BRANCH   1   2
ATOM      2  C   UNL A   1      31.490  29.447  25.454  1.00  0.00     0.116 C 
BRANCH   2   3
ATOM      3  N   UNL A   1      30.733  30.770  24.702  1.00  0.00    -0.354 N 
ATOM      4  C   UNL A   1      29.648  30.844  23.888  1.00  0.00     0.244 C 
ATOM      5  O   UNL A   1      29.209  31.938  23.545  1.00  0.00    -0.273 OA
ATOM      6  H   UNL A   1      31.156  31.638  24.892  1.00  0.00     0.163 HD
BRANCH   4   7
ATOM      7  C   UNL A   1      28.978  29.549  23.557  1.00  0.00     0.197 C 
BRANCH   7   8
ATOM      8  N   UNL A   1      29.848  28.761  22.627  1.00  0.00    -0.342 N 
ATOM      9  C   UNL A   1      30.434  27.521  22.559  1.00  0.00     0.225 C 
ATOM     10  O   UNL A   1      31.125  27.364  21.538  1.00  0.00    -0.275 OA
ATOM     11  H   UNL A   1      30.064  29.290  21.824  1.00  0.00     0.164 HD
BRANCH   9  12
ATOM     12  C   UNL A   1      30.302  26.296  23.539  1.00  0.00     0.137 C 
BRANCH  12  13
ATOM     13  C   UNL A   1      31.347  25.196  23.297  1.00  0.00    -0.017 A 
ATOM     14  C   UNL A   1      33.856  26.557  24.085  1.00  0.00     0.065 C 
ATOM     15  C   UNL A   1      32.997  25.336  24.003  1.00  0.00     0.024 A 
ATOM     16  N   UNL A   1      33.585  23.636  24.371  1.00  0.00    -0.314 N 
ATOM     17  C   UNL A   1      30.936  23.264  23.152  1.00  0.00     0.033 A 
ATOM     18  C   UNL A   1      32.294  22.372  23.917  1.00  0.00     0.053 A 
BRANCH  16  19
ATOM     19  C   UNL A   1      34.939  23.266  24.588  1.00  0.00     0.046 A 
ATOM     20  C   UNL A   1      35.737  23.113  23.446  1.00  0.00     0.029 A 
ATOM     21  C   UNL A   1      35.443  22.991  25.851  1.00  0.00     0.029 A 
ATOM     22  C   UNL A   1      36.929  22.428  23.519  1.00  0.00     0.041 A 
ATOM     23  C   UNL A   1      36.681  22.349  25.926  1.00  0.00     0.041 A 
ATOM     24  C   UNL A   1      37.354  21.988  24.759  1.00  0.00     0.123 A 
ATOM     25  F   UNL A   1      38.478  21.265  24.834  1.00  0.00    -0.207 F 
ENDBRANCH  16  19
BRANCH  18  26
ATOM     26  C   UNL A   1      32.455  20.947  24.208  1.00  0.00    -0.001 A 
ATOM     27  C   UNL A   1      32.876  20.474  25.464  1.00  0.00     0.011 A 
ATOM     28  C   UNL A   1      32.286  20.060  23.152  1.00  0.00     0.011 A 
ATOM     29  C   UNL A   1      33.223  19.131  25.630  1.00  0.00     0.021 A 
ATOM     30  C   UNL A   1      32.612  18.720  23.314  1.00  0.00     0.021 A 
ATOM     31  C   UNL A   1      33.097  18.264  24.542  1.00  0.00     0.067 A 
BRANCH  31  32
ATOM     32  S   UNL A   1      33.469  16.541  24.738  1.00  0.00     0.175 S 
ATOM     33  C   UNL A   1      32.040  15.851  25.525  1.00  0.00     0.163 C 
ATOM     34  O   UNL A   1      33.571  15.983  23.405  1.00  0.00    -0.224 OA
ATOM     35  O   UNL A   1      34.570  16.440  25.679  1.00  0.00    -0.224 OA
ENDBRANCH  31  32
ENDBRANCH  18  26
ENDBRANCH  12  13
ENDBRANCH   9  12
ENDBRANCH   7   8
BRANCH   7  36
ATOM     36  C   UNL A   1      27.487  29.815  23.187  1.00  0.00     0.191 C 
BRANCH  36  37
ATOM     37  O   UNL A   1      27.209  29.551  21.807  1.00  0.00    -0.394 OA
ATOM     38  H   UNL A   1      27.522  28.662  21.577  1.00  0.00     0.210 HD
ENDBRANCH  36  37
ENDBRANCH   7  36
ENDBRANCH   4   7
ENDBRANCH   2   3
ENDBRANCH   1   2
BRANCH   1  39
ATOM     39  C   UNL A   1      34.674  29.865  27.232  1.00  0.00     0.002 C 
BRANCH  39  40
ATOM     40  C   UNL A   1      35.034  30.718  28.461  1.00  0.00     0.002 C 
BRANCH  40  41
ATOM     41  C   UNL A   1      36.226  30.328  29.382  1.00  0.00     0.021 C 
BRANCH  41  42
ATOM     42  C   UNL A   1      37.391  31.326  29.679  1.00  0.00     0.116 C 
BRANCH  42  43
ATOM     43  N   UNL A   1      37.992  31.271  30.997  1.00  0.00    -0.352 N 
ATOM     44  C   UNL A   1      39.165  30.628  31.414  1.00  0.00     0.251 C 
ATOM     45  H   UNL A   1      37.505  31.756  31.701  1.00  0.00     0.163 HD
ATOM     46  O   UNL A   1      39.450  30.727  32.609  1.00  0.00    -0.269 OA
BRANCH  44  47
ATOM     47  C   UNL A   1      40.080  29.792  30.490  1.00  0.00     0.039 A 
ATOM     48  C   UNL A   1      41.434  29.655  30.742  1.00  0.00     0.014 A 
ATOM     49  C   UNL A   1      39.760  29.384  29.184  1.00  0.00     0.014 A 
ATOM     50  C   UNL A   1      42.340  28.900  29.841  1.00  0.00     0.010 A 
ATOM     51  C   UNL A   1      40.731  28.716  28.218  1.00  0.00     0.010 A 
ATOM     52  C   UNL A   1      42.057  28.300  28.530  1.00  0.00    -0.014 A 
BRANCH  52  53
ATOM     53  C   UNL A   1      43.419  27.837  27.455  1.00  0.00     0.031 A 
ATOM     54  C   UNL A   1      43.306  26.390  27.773  1.00  0.00     0.074 A 
ATOM     55  C   UNL A   1      44.630  28.156  26.666  1.00  0.00     0.049 A 
ATOM     56  N   UNL A   1      43.426  26.146  29.047  1.00  0.00    -0.248 NA
ATOM     57  C   UNL A   1      42.593  25.346  27.042  1.00  0.00     0.031 C 
ATOM     58  C   UNL A   1      45.373  29.448  26.510  1.00  0.00     0.029 A 
ATOM     59  N   UNL A   1      45.589  27.354  25.789  1.00  0.00    -0.354 N 
ATOM     60  C   UNL A   1      43.110  24.839  29.274  1.00  0.00     0.074 A 
ATOM     61  C   UNL A   1      42.425  24.452  28.036  1.00  0.00     0.031 C 
ATOM     62  C   UNL A   1      46.404  29.433  25.586  1.00  0.00     0.029 A 
ATOM     63  C   UNL A   1      46.639  28.115  24.966  1.00  0.00     0.049 A 
ATOM     64  H   UNL A   1      45.536  26.371  25.752  1.00  0.00     0.167 HD
ATOM     65  C   UNL A   1      44.139  24.240  29.942  1.00  0.00     0.037 A 
ATOM     66  C   UNL A   1      47.679  27.704  24.029  1.00  0.00     0.037 A 
ATOM     67  C   UNL A   1      45.149  23.840  28.993  1.00  0.00     0.049 A 
ATOM     68  C   UNL A   1      48.173  26.458  24.604  1.00  0.00     0.074 A 
ATOM     69  C   UNL A   1      45.031  23.264  27.738  1.00  0.00     0.029 A 
ATOM     70  N   UNL A   1      46.348  24.515  29.007  1.00  0.00    -0.354 N 
ATOM     71  N   UNL A   1      48.937  26.397  25.647  1.00  0.00    -0.248 NA
ATOM     72  C   UNL A   1      47.781  25.201  24.002  1.00  0.00     0.031 C 
ATOM     73  C   UNL A   1      45.819  24.089  26.924  1.00  0.00     0.029 A 
ATOM     74  C   UNL A   1      46.825  24.608  27.724  1.00  0.00     0.049 A 
ATOM     75  H   UNL A   1      46.793  24.873  29.809  1.00  0.00     0.167 HD
ATOM     76  C   UNL A   1      48.499  25.231  26.187  1.00  0.00     0.074 A 
ATOM     77  C   UNL A   1      47.983  24.438  25.072  1.00  0.00     0.031 C 
ATOM     78  C   UNL A   1      48.037  25.314  27.459  1.00  0.00     0.037 A 
BRANCH  65  79
ATOM     79  C   UNL A   1      44.407  24.986  31.245  1.00  0.00     0.057 A 
ATOM     80  C   UNL A   1      44.014  24.380  32.438  1.00  0.00     0.134 A 
ATOM     81  C   UNL A   1      44.801  26.345  31.333  1.00  0.00     0.134 A 
ATOM     82  F   UNL A   1      43.651  23.089  32.447  1.00  0.00    -0.206 F 
ATOM     83  C   UNL A   1      43.957  25.093  33.641  1.00  0.00     0.040 A 
ATOM     84  C   UNL A   1      44.683  27.083  32.513  1.00  0.00     0.040 A 
ATOM     85  F   UNL A   1      45.279  27.008  30.266  1.00  0.00    -0.206 F 
ATOM     86  C   UNL A   1      44.254  26.456  33.674  1.00  0.00     0.006 A 
ENDBRANCH  65  79
BRANCH  66  87
ATOM     87  C   UNL A   1      48.779  27.963  22.792  1.00  0.00     0.057 A 
ATOM     88  C   UNL A   1      50.231  27.808  22.938  1.00  0.00     0.134 A 
ATOM     89  C   UNL A   1      48.420  27.801  21.443  1.00  0.00     0.134 A 
ATOM     90  F   UNL A   1      50.835  27.926  24.131  1.00  0.00    -0.206 F 
ATOM     91  C   UNL A   1      51.154  27.452  21.899  1.00  0.00     0.040 A 
ATOM     92  C   UNL A   1      49.348  27.463  20.388  1.00  0.00     0.040 A 
ATOM     93  F   UNL A   1      47.132  27.876  21.091  1.00  0.00    -0.206 F 
ATOM     94  C   UNL A   1      50.706  27.253  20.612  1.00  0.00     0.006 A 
ENDBRANCH  66  87
BRANCH  78  95
ATOM     95  C   UNL A   1      48.808  26.169  28.434  1.00  0.00     0.057 A 
ATOM     96  C   UNL A   1      48.552  27.514  28.772  1.00  0.00     0.134 A 
ATOM     97  C   UNL A   1      49.962  25.610  28.993  1.00  0.00     0.134 A 
ATOM     98  F   UNL A   1      47.428  28.142  28.401  1.00  0.00    -0.206 F 
ATOM     99  C   UNL A   1      49.456  28.275  29.529  1.00  0.00     0.040 A 
ATOM    100  C   UNL A   1      50.845  26.341  29.788  1.00  0.00     0.040 A 
ATOM    101  F   UNL A   1      50.259  24.320  28.773  1.00  0.00    -0.206 F 
ATOM    102  C   UNL A   1      50.614  27.690  30.029  1.00  0.00     0.006 A 
ENDBRANCH  78  95
ENDBRANCH  52  53
ENDBRANCH  44  47
ENDBRANCH  42  43
ENDBRANCH  41  42
ENDBRANCH  40  41
ENDBRANCH  39  40
ENDBRANCH   1  39
TORSDOF 21
ENDMDL
MODEL 3
REMARK VINA RESULT:     -12.7      1.300      1.997
REMARK SMILES Cc1c(CC(=O)N[C@H](CO)C(=O)NCCCCCCNC(=O)c2ccc(-c3c4nc(c(-c5c(F)cccc5F)c5ccc([nH]5)c(-c5c(F)cccc5F)c5nc(c(-c6c(F)cccc6F)c6ccc3[nH]6)C=C5)C=C4)cc2)cc(-c2ccc(S(C)(=O)=O)cc2)n1-c1ccc(F)cc1
REMARK SMILES IDX 15 1 14 2 13 3 11 4 12 5 8 7 7 8 5 9 6 10 4 12 3 13 1 14
REMARK SMILES IDX 2 15 89 16 77 17 78 18 90 19 91 20 96 21 92 22 95 23 93 24
REMARK SMILES IDX 94 25 79 26 80 27 88 28 81 29 87 30 82 31 83 32 84 33 85 34
REMARK SMILES IDX 86 35 9 36 10 37 16 39 17 40 18 41 19 42 20 43 21 44 22 46
REMARK SMILES IDX 23 47 24 48 76 49 25 50 75 51 26 52 27 53 28 54 69 55 29 56
REMARK SMILES IDX 74 57 68 58 70 59 30 60 73 61 67 62 66 63 31 65 57 66 40 67
REMARK SMILES IDX 56 68 41 69 44 70 55 71 71 72 42 73 43 74 54 76 72 77 45 78
REMARK SMILES IDX 32 79 33 80 38 81 34 82 35 83 37 84 39 85 36 86 58 87 59 88
REMARK SMILES IDX 64 89 60 90 61 91 63 92 65 93 62 94 46 95 47 96 52 97 48 98
REMARK SMILES IDX 49 99 51 100 53 101 50 102
REMARK H PARENT 13 6 7 11 10 38 20 45 70 64 44 75
REMARK Flexibility Score: inf
ROOT
ATOM      1  C   UNL A   1      34.663  30.331  27.132  1.00  0.00     0.021 C 
ENDROOT
BRANCH   1   2
ATOM      2  C   UNL A   1      32.849  29.617  26.018  1.00  0.00     0.116 C 
BRANCH   2   3
ATOM      3  N   UNL A   1      31.656  30.554  25.253  1.00  0.00    -0.354 N 
ATOM      4  C   UNL A   1      30.646  30.214  24.411  1.00  0.00     0.244 C 
ATOM      5  O   UNL A   1      29.824  31.058  24.062  1.00  0.00    -0.273 OA
ATOM      6  H   UNL A   1      31.705  31.516  25.457  1.00  0.00     0.163 HD
BRANCH   4   7
ATOM      7  C   UNL A   1      30.536  28.766  24.056  1.00  0.00     0.197 C 
BRANCH   7   8
ATOM      8  N   UNL A   1      30.707  27.936  25.291  1.00  0.00    -0.342 N 
ATOM      9  C   UNL A   1      30.520  26.638  25.701  1.00  0.00     0.225 C 
ATOM     10  O   UNL A   1      30.794  26.463  26.901  1.00  0.00    -0.275 OA
ATOM     11  H   UNL A   1      31.060  28.485  26.030  1.00  0.00     0.164 HD
BRANCH   9  12
ATOM     12  C   UNL A   1      30.077  25.379  24.868  1.00  0.00     0.137 C 
BRANCH  12  13
ATOM     13  C   UNL A   1      31.250  24.506  24.396  1.00  0.00    -0.017 A 
ATOM     14  C   UNL A   1      33.583  26.171  25.141  1.00  0.00     0.065 C 
ATOM     15  C   UNL A   1      32.922  24.840  24.973  1.00  0.00     0.024 A 
ATOM     16  N   UNL A   1      33.805  23.233  25.064  1.00  0.00    -0.314 N 
ATOM     17  C   UNL A   1      31.134  22.563  24.035  1.00  0.00     0.033 A 
ATOM     18  C   UNL A   1      32.688  21.830  24.559  1.00  0.00     0.053 A 
BRANCH  16  19
ATOM     19  C   UNL A   1      35.216  23.073  25.115  1.00  0.00     0.046 A 
ATOM     20  C   UNL A   1      35.859  22.802  23.900  1.00  0.00     0.029 A 
ATOM     21  C   UNL A   1      35.926  23.105  26.306  1.00  0.00     0.029 A 
ATOM     22  C   UNL A   1      37.137  22.290  23.892  1.00  0.00     0.041 A 
ATOM     23  C   UNL A   1      37.243  22.641  26.285  1.00  0.00     0.041 A 
ATOM     24  C   UNL A   1      37.791  22.146  25.101  1.00  0.00     0.123 A 
ATOM     25  F   UNL A   1      39.008  21.589  25.112  1.00  0.00    -0.207 F 
ENDBRANCH  16  19
BRANCH  18  26
ATOM     26  C   UNL A   1      33.100  20.429  24.646  1.00  0.00    -0.001 A 
ATOM     27  C   UNL A   1      34.451  20.036  24.660  1.00  0.00     0.011 A 
ATOM     28  C   UNL A   1      32.098  19.467  24.599  1.00  0.00     0.011 A 
ATOM     29  C   UNL A   1      34.793  18.689  24.525  1.00  0.00     0.021 A 
ATOM     30  C   UNL A   1      32.430  18.125  24.482  1.00  0.00     0.021 A 
ATOM     31  C   UNL A   1      33.773  17.742  24.425  1.00  0.00     0.067 A 
BRANCH  31  32
ATOM     32  S   UNL A   1      34.175  16.017  24.317  1.00  0.00     0.175 S 
ATOM     33  C   UNL A   1      35.561  15.802  25.398  1.00  0.00     0.163 C 
ATOM     34  O   UNL A   1      33.048  15.292  24.868  1.00  0.00    -0.224 OA
ATOM     35  O   UNL A   1      34.640  15.766  22.965  1.00  0.00    -0.224 OA
ENDBRANCH  31  32
ENDBRANCH  18  26
ENDBRANCH  12  13
ENDBRANCH   9  12
ENDBRANCH   7   8
BRANCH   7  36
ATOM     36  C   UNL A   1      31.406  28.471  22.797  1.00  0.00     0.191 C 
BRANCH  36  37
ATOM     37  O   UNL A   1      31.963  29.659  22.224  1.00  0.00    -0.394 OA
ATOM     38  H   UNL A   1      31.802  29.663  21.267  1.00  0.00     0.210 HD
ENDBRANCH  36  37
ENDBRANCH   7  36
ENDBRANCH   4   7
ENDBRANCH   2   3
ENDBRANCH   1   2
BRANCH   1  39
ATOM     39  C   UNL A   1      35.175  31.770  27.871  1.00  0.00     0.002 C 
BRANCH  39  40
ATOM     40  C   UNL A   1      34.188  32.944  27.748  1.00  0.00     0.002 C 
BRANCH  40  41
ATOM     41  C   UNL A   1      33.674  33.689  29.013  1.00  0.00     0.021 C 
BRANCH  41  42
ATOM     42  C   UNL A   1      34.387  34.969  29.556  1.00  0.00     0.116 C 
BRANCH  42  43
ATOM     43  N   UNL A   1      34.288  35.231  30.977  1.00  0.00    -0.352 N 
ATOM     44  C   UNL A   1      34.996  34.654  32.040  1.00  0.00     0.251 C 
ATOM     45  H   UNL A   1      33.628  35.915  31.233  1.00  0.00     0.163 HD
ATOM     46  O   UNL A   1      34.708  35.051  33.171  1.00  0.00    -0.269 OA
BRANCH  44  47
ATOM     47  C   UNL A   1      36.066  33.550  31.882  1.00  0.00     0.039 A 
ATOM     48  C   UNL A   1      36.943  33.537  30.812  1.00  0.00     0.014 A 
ATOM     49  C   UNL A   1      36.065  32.316  32.555  1.00  0.00     0.014 A 
ATOM     50  C   UNL A   1      37.943  32.460  30.613  1.00  0.00     0.010 A 
ATOM     51  C   UNL A   1      37.019  31.165  32.264  1.00  0.00     0.010 A 
ATOM     52  C   UNL A   1      38.120  31.208  31.362  1.00  0.00    -0.014 A 
BRANCH  52  53
ATOM     53  C   UNL A   1      39.102  29.882  30.651  1.00  0.00     0.031 A 
ATOM     54  C   UNL A   1      39.930  29.708  31.873  1.00  0.00     0.074 A 
ATOM     55  C   UNL A   1      39.611  29.103  29.501  1.00  0.00     0.049 A 
ATOM     56  N   UNL A   1      40.546  30.803  32.220  1.00  0.00    -0.248 NA
ATOM     57  C   UNL A   1      39.752  28.764  32.972  1.00  0.00     0.031 C 
ATOM     58  C   UNL A   1      39.402  29.299  28.029  1.00  0.00     0.029 A 
ATOM     59  N   UNL A   1      40.535  27.898  29.337  1.00  0.00    -0.354 N 
ATOM     60  C   UNL A   1      41.111  30.617  33.447  1.00  0.00     0.074 A 
ATOM     61  C   UNL A   1      40.430  29.414  33.938  1.00  0.00     0.031 C 
ATOM     62  C   UNL A   1      39.922  28.304  27.219  1.00  0.00     0.029 A 
ATOM     63  C   UNL A   1      40.659  27.255  27.948  1.00  0.00     0.049 A 
ATOM     64  H   UNL A   1      41.039  27.541  30.104  1.00  0.00     0.167 HD
ATOM     65  C   UNL A   1      42.442  30.914  33.375  1.00  0.00     0.037 A 
ATOM     66  C   UNL A   1      41.406  26.115  27.427  1.00  0.00     0.037 A 
ATOM     67  C   UNL A   1      43.156  29.771  32.862  1.00  0.00     0.049 A 
ATOM     68  C   UNL A   1      42.664  26.175  28.162  1.00  0.00     0.074 A 
ATOM     69  C   UNL A   1      43.011  28.420  33.136  1.00  0.00     0.029 A 
ATOM     70  N   UNL A   1      43.698  29.863  31.601  1.00  0.00    -0.354 N 
ATOM     71  N   UNL A   1      43.600  27.035  27.922  1.00  0.00    -0.248 NA
ATOM     72  C   UNL A   1      42.892  25.240  29.244  1.00  0.00     0.031 C 
ATOM     73  C   UNL A   1      42.902  27.839  31.865  1.00  0.00     0.029 A 
ATOM     74  C   UNL A   1      43.622  28.636  30.990  1.00  0.00     0.049 A 
ATOM     75  H   UNL A   1      44.079  30.677  31.201  1.00  0.00     0.167 HD
ATOM     76  C   UNL A   1      44.088  27.204  29.178  1.00  0.00     0.074 A 
ATOM     77  C   UNL A   1      43.802  25.959  29.892  1.00  0.00     0.031 C 
ATOM     78  C   UNL A   1      44.071  28.476  29.644  1.00  0.00     0.037 A 
BRANCH  65  79
ATOM     79  C   UNL A   1      42.620  32.349  32.888  1.00  0.00     0.057 A 
ATOM     80  C   UNL A   1      42.649  32.574  31.512  1.00  0.00     0.134 A 
ATOM     81  C   UNL A   1      43.000  33.441  33.709  1.00  0.00     0.134 A 
ATOM     82  F   UNL A   1      42.281  31.601  30.665  1.00  0.00    -0.206 F 
ATOM     83  C   UNL A   1      43.086  33.790  30.975  1.00  0.00     0.040 A 
ATOM     84  C   UNL A   1      43.501  34.634  33.182  1.00  0.00     0.040 A 
ATOM     85  F   UNL A   1      42.930  33.370  35.049  1.00  0.00    -0.206 F 
ATOM     86  C   UNL A   1      43.549  34.809  31.807  1.00  0.00     0.006 A 
ENDBRANCH  65  79
BRANCH  66  87
ATOM     87  C   UNL A   1      41.728  24.911  26.307  1.00  0.00     0.057 A 
ATOM     88  C   UNL A   1      42.792  24.990  25.299  1.00  0.00     0.134 A 
ATOM     89  C   UNL A   1      41.423  23.563  26.567  1.00  0.00     0.134 A 
ATOM     90  F   UNL A   1      43.263  26.169  24.864  1.00  0.00    -0.206 F 
ATOM     91  C   UNL A   1      43.496  23.881  24.721  1.00  0.00     0.040 A 
ATOM     92  C   UNL A   1      42.115  22.442  25.973  1.00  0.00     0.040 A 
ATOM     93  F   UNL A   1      40.495  23.263  27.481  1.00  0.00    -0.206 F 
ATOM     94  C   UNL A   1      43.172  22.591  25.078  1.00  0.00     0.006 A 
ENDBRANCH  66  87
BRANCH  78  95
ATOM     95  C   UNL A   1      44.475  29.579  28.698  1.00  0.00     0.057 A 
ATOM     96  C   UNL A   1      43.620  30.377  27.908  1.00  0.00     0.134 A 
ATOM     97  C   UNL A   1      45.845  29.773  28.496  1.00  0.00     0.134 A 
ATOM     98  F   UNL A   1      42.290  30.378  28.074  1.00  0.00    -0.206 F 
ATOM     99  C   UNL A   1      44.112  31.227  26.907  1.00  0.00     0.040 A 
ATOM    100  C   UNL A   1      46.350  30.652  27.537  1.00  0.00     0.040 A 
ATOM    101  F   UNL A   1      46.736  29.099  29.239  1.00  0.00    -0.206 F 
ATOM    102  C   UNL A   1      45.482  31.357  26.712  1.00  0.00     0.006 A 
ENDBRANCH  78  95
ENDBRANCH  52  53
ENDBRANCH  44  47
ENDBRANCH  42  43
ENDBRANCH  41  42
ENDBRANCH  40  41
ENDBRANCH  39  40
ENDBRANCH   1  39
TORSDOF 21
ENDMDL
