MODEL 1
REMARK VINA RESULT:      -8.9      0.000      0.000
REMARK SMILES O=C(NCCCCCCNC(=O)c1ccc(COc2cccc(Cl)c2Cl)o1)c1ccc(-c2c3nc(c(-c4c(F)cccc4F)c4ccc([nH]4)c(-c4c(F)cccc4F)c4nc(c(-c5c(F)cccc5F)c5ccc2[nH]5)C=C4)C=C3)cc1
REMARK SMILES IDX 7 1 6 2 5 3 4 4 3 5 1 6 2 7 28 9 29 10 81 11 30 12 80 13
REMARK SMILES IDX 31 14 32 15 33 16 74 17 34 18 79 19 73 20 75 21 35 22 78 23
REMARK SMILES IDX 72 24 71 25 36 27 62 28 45 29 61 30 46 31 49 32 60 33 76 34
REMARK SMILES IDX 47 35 48 36 59 38 77 39 50 40 37 41 38 42 43 43 39 44 40 45
REMARK SMILES IDX 42 46 44 47 41 48 63 49 64 50 69 51 65 52 66 53 68 54 70 55
REMARK SMILES IDX 67 56 51 57 52 58 57 59 53 60 54 61 56 62 58 63 55 64 8 65
REMARK SMILES IDX 9 66 10 67 11 68 12 70 13 71 14 72 27 73 15 74 16 75 17 76
REMARK SMILES IDX 18 77 19 78 20 79 25 80 21 81 23 82 26 83 22 84 24 85
REMARK H PARENT 3 8 75 26 49 37 10 69
REMARK Flexibility Score: inf
ROOT
ATOM      1  C   UNL A   1      37.215  32.846  30.361  1.00  0.00     0.002 C 
ENDROOT
BRANCH   1   2
ATOM      2  C   UNL A   1      37.064  33.441  28.958  1.00  0.00     0.002 C 
BRANCH   2   3
ATOM      3  C   UNL A   1      35.679  33.311  28.321  1.00  0.00     0.021 C 
BRANCH   3   4
ATOM      4  C   UNL A   1      34.656  32.517  29.128  1.00  0.00     0.116 C 
BRANCH   4   5
ATOM      5  N   UNL A   1      34.038  31.458  28.352  1.00  0.00    -0.352 N 
ATOM      6  O   UNL A   1      33.948  29.588  27.100  1.00  0.00    -0.269 OA
ATOM      7  C   UNL A   1      34.590  30.300  27.868  1.00  0.00     0.251 C 
ATOM      8  H   UNL A   1      33.085  31.590  28.144  1.00  0.00     0.163 HD
BRANCH   7   9
ATOM      9  C   UNL A   1      35.966  29.914  28.244  1.00  0.00     0.039 A 
ATOM     10  C   UNL A   1      36.250  29.351  29.494  1.00  0.00     0.014 A 
ATOM     11  C   UNL A   1      36.984  30.076  27.300  1.00  0.00     0.014 A 
ATOM     12  C   UNL A   1      37.564  29.033  29.831  1.00  0.00     0.010 A 
ATOM     13  C   UNL A   1      38.292  29.711  27.620  1.00  0.00     0.010 A 
ATOM     14  C   UNL A   1      38.594  29.203  28.893  1.00  0.00    -0.014 A 
BRANCH  14  15
ATOM     15  C   UNL A   1      39.982  28.793  29.215  1.00  0.00     0.031 A 
ATOM     16  C   UNL A   1      40.915  29.734  29.917  1.00  0.00     0.074 A 
ATOM     17  C   UNL A   1      40.412  27.579  28.825  1.00  0.00     0.049 A 
ATOM     18  N   UNL A   1      42.185  29.579  30.197  1.00  0.00    -0.248 NA
ATOM     19  C   UNL A   1      40.353  31.021  30.354  1.00  0.00     0.031 C 
ATOM     20  C   UNL A   1      39.602  26.585  28.119  1.00  0.00     0.029 A 
ATOM     21  N   UNL A   1      41.642  26.984  28.948  1.00  0.00    -0.354 N 
ATOM     22  C   UNL A   1      42.580  30.756  30.820  1.00  0.00     0.074 A 
ATOM     23  C   UNL A   1      41.419  31.619  30.867  1.00  0.00     0.031 C 
ATOM     24  C   UNL A   1      40.356  25.504  27.869  1.00  0.00     0.029 A 
ATOM     25  C   UNL A   1      41.710  25.747  28.359  1.00  0.00     0.049 A 
ATOM     26  H   UNL A   1      42.401  27.404  29.413  1.00  0.00     0.167 HD
ATOM     27  C   UNL A   1      43.801  31.083  31.307  1.00  0.00     0.037 A 
ATOM     28  C   UNL A   1      42.753  24.911  28.202  1.00  0.00     0.037 A 
ATOM     29  C   UNL A   1      44.950  30.216  31.275  1.00  0.00     0.049 A 
ATOM     30  C   UNL A   1      44.097  25.299  28.740  1.00  0.00     0.074 A 
ATOM     31  C   UNL A   1      46.213  30.435  31.798  1.00  0.00     0.029 A 
ATOM     32  N   UNL A   1      44.976  28.965  30.677  1.00  0.00    -0.354 N 
ATOM     33  N   UNL A   1      44.447  26.396  29.364  1.00  0.00    -0.248 NA
ATOM     34  C   UNL A   1      45.191  24.337  28.548  1.00  0.00     0.031 C 
ATOM     35  C   UNL A   1      47.012  29.328  31.489  1.00  0.00     0.029 A 
ATOM     36  C   UNL A   1      46.239  28.408  30.799  1.00  0.00     0.049 A 
ATOM     37  H   UNL A   1      44.211  28.534  30.231  1.00  0.00     0.167 HD
ATOM     38  C   UNL A   1      45.798  26.255  29.650  1.00  0.00     0.074 A 
ATOM     39  C   UNL A   1      46.202  24.961  29.139  1.00  0.00     0.031 C 
ATOM     40  C   UNL A   1      46.626  27.121  30.282  1.00  0.00     0.037 A 
BRANCH  27  41
ATOM     41  C   UNL A   1      43.960  32.447  31.903  1.00  0.00     0.057 A 
ATOM     42  C   UNL A   1      44.298  33.559  31.122  1.00  0.00     0.134 A 
ATOM     43  C   UNL A   1      43.744  32.656  33.271  1.00  0.00     0.134 A 
ATOM     44  F   UNL A   1      44.530  33.422  29.809  1.00  0.00    -0.206 F 
ATOM     45  C   UNL A   1      44.434  34.830  31.685  1.00  0.00     0.040 A 
ATOM     46  C   UNL A   1      43.862  33.924  33.842  1.00  0.00     0.040 A 
ATOM     47  F   UNL A   1      43.415  31.632  34.073  1.00  0.00    -0.206 F 
ATOM     48  C   UNL A   1      44.211  35.015  33.048  1.00  0.00     0.006 A 
ENDBRANCH  27  41
BRANCH  28  49
ATOM     49  C   UNL A   1      42.548  23.629  27.490  1.00  0.00     0.057 A 
ATOM     50  C   UNL A   1      42.220  22.462  28.185  1.00  0.00     0.134 A 
ATOM     51  C   UNL A   1      42.620  23.559  26.093  1.00  0.00     0.134 A 
ATOM     52  F   UNL A   1      42.149  22.471  29.523  1.00  0.00    -0.206 F 
ATOM     53  C   UNL A   1      41.966  21.264  27.514  1.00  0.00     0.040 A 
ATOM     54  C   UNL A   1      42.353  22.373  25.410  1.00  0.00     0.040 A 
ATOM     55  F   UNL A   1      42.923  24.650  25.375  1.00  0.00    -0.206 F 
ATOM     56  C   UNL A   1      42.024  21.220  26.123  1.00  0.00     0.006 A 
ENDBRANCH  28  49
BRANCH  40  57
ATOM     57  C   UNL A   1      48.047  26.692  30.469  1.00  0.00     0.057 A 
ATOM     58  C   UNL A   1      49.045  27.048  29.555  1.00  0.00     0.134 A 
ATOM     59  C   UNL A   1      48.429  25.958  31.598  1.00  0.00     0.134 A 
ATOM     60  F   UNL A   1      48.737  27.740  28.448  1.00  0.00    -0.206 F 
ATOM     61  C   UNL A   1      50.376  26.681  29.754  1.00  0.00     0.040 A 
ATOM     62  C   UNL A   1      49.759  25.598  31.816  1.00  0.00     0.040 A 
ATOM     63  F   UNL A   1      47.517  25.590  32.512  1.00  0.00    -0.206 F 
ATOM     64  C   UNL A   1      50.737  25.959  30.891  1.00  0.00     0.006 A 
ENDBRANCH  40  57
ENDBRANCH  14  15
ENDBRANCH   7   9
ENDBRANCH   4   5
ENDBRANCH   3   4
ENDBRANCH   2   3
ENDBRANCH   1   2
BRANCH   1  65
ATOM     65  C   UNL A   1      37.175  33.848  31.519  1.00  0.00     0.021 C 
BRANCH  65  66
ATOM     66  C   UNL A   1      38.333  33.748  32.509  1.00  0.00     0.116 C 
BRANCH  66  67
ATOM     67  N   UNL A   1      37.864  33.618  33.872  1.00  0.00    -0.349 N 
ATOM     68  C   UNL A   1      37.712  32.483  34.628  1.00  0.00     0.286 C 
ATOM     69  H   UNL A   1      37.620  34.461  34.319  1.00  0.00     0.163 HD
ATOM     70  O   UNL A   1      37.085  32.594  35.687  1.00  0.00    -0.266 OA
BRANCH  68  71
ATOM     71  C   UNL A   1      38.292  31.239  34.177  1.00  0.00     0.191 A 
ATOM     72  C   UNL A   1      37.908  30.301  33.232  1.00  0.00     0.057 A 
ATOM     73  O   UNL A   1      39.503  30.876  34.695  1.00  0.00    -0.452 OA
ATOM     74  C   UNL A   1      38.932  29.323  33.179  1.00  0.00     0.050 A 
ATOM     75  C   UNL A   1      39.901  29.732  34.070  1.00  0.00     0.142 A 
BRANCH  75  76
ATOM     76  C   UNL A   1      41.262  29.231  34.404  1.00  0.00     0.304 C 
BRANCH  76  77
ATOM     77  O   UNL A   1      41.154  27.934  35.018  1.00  0.00    -0.484 OA
BRANCH  77  78
ATOM     78  C   UNL A   1      42.098  27.053  34.548  1.00  0.00     0.140 A 
ATOM     79  C   UNL A   1      42.990  27.497  33.567  1.00  0.00     0.048 A 
ATOM     80  C   UNL A   1      42.232  25.774  35.104  1.00  0.00     0.101 A 
ATOM     81  C   UNL A   1      43.980  26.647  33.082  1.00  0.00     0.005 A 
ATOM     82  C   UNL A   1      43.243  24.930  34.626  1.00  0.00     0.063 A 
ATOM     83  Cl  UNL A   1      41.152  25.272  36.362  1.00  0.00    -0.079 Cl
ATOM     84  C   UNL A   1      44.105  25.363  33.609  1.00  0.00     0.022 A 
ATOM     85  Cl  UNL A   1      43.494  23.335  35.248  1.00  0.00    -0.083 Cl
ENDBRANCH  77  78
ENDBRANCH  76  77
ENDBRANCH  75  76
ENDBRANCH  68  71
ENDBRANCH  66  67
ENDBRANCH  65  66
ENDBRANCH   1  65
TORSDOF 16
ENDMDL
MODEL 2
REMARK VINA RESULT:      -8.8      4.290      7.676
REMARK SMILES O=C(NCCCCCCNC(=O)c1ccc(COc2cccc(Cl)c2Cl)o1)c1ccc(-c2c3nc(c(-c4c(F)cccc4F)c4ccc([nH]4)c(-c4c(F)cccc4F)c4nc(c(-c5c(F)cccc5F)c5ccc2[nH]5)C=C4)C=C3)cc1
REMARK SMILES IDX 7 1 6 2 5 3 4 4 3 5 1 6 2 7 28 9 29 10 81 11 30 12 80 13
REMARK SMILES IDX 31 14 32 15 33 16 74 17 34 18 79 19 73 20 75 21 35 22 78 23
REMARK SMILES IDX 72 24 71 25 36 27 62 28 45 29 61 30 46 31 49 32 60 33 76 34
REMARK SMILES IDX 47 35 48 36 59 38 77 39 50 40 37 41 38 42 43 43 39 44 40 45
REMARK SMILES IDX 42 46 44 47 41 48 63 49 64 50 69 51 65 52 66 53 68 54 70 55
REMARK SMILES IDX 67 56 51 57 52 58 57 59 53 60 54 61 56 62 58 63 55 64 8 65
REMARK SMILES IDX 9 66 10 67 11 68 12 70 13 71 14 72 27 73 15 74 16 75 17 76
REMARK SMILES IDX 18 77 19 78 20 79 25 80 21 81 23 82 26 83 22 84 24 85
REMARK H PARENT 3 8 75 26 49 37 10 69
REMARK Flexibility Score: inf
ROOT
ATOM      1  C   UNL A   1      31.696  29.809  25.559  1.00  0.00     0.002 C 
ENDROOT
BRANCH   1   2
ATOM      2  C   UNL A   1      31.821  30.474  26.932  1.00  0.00     0.002 C 
BRANCH   2   3
ATOM      3  C   UNL A   1      31.524  31.975  26.979  1.00  0.00     0.021 C 
BRANCH   3   4
ATOM      4  C   UNL A   1      32.747  32.887  26.989  1.00  0.00     0.116 C 
BRANCH   4   5
ATOM      5  N   UNL A   1      32.517  34.115  27.727  1.00  0.00    -0.352 N 
ATOM      6  O   UNL A   1      32.760  35.607  29.397  1.00  0.00    -0.269 OA
ATOM      7  C   UNL A   1      33.192  34.619  28.808  1.00  0.00     0.251 C 
ATOM      8  H   UNL A   1      31.768  34.666  27.404  1.00  0.00     0.163 HD
BRANCH   7   9
ATOM      9  C   UNL A   1      34.428  33.965  29.288  1.00  0.00     0.039 A 
ATOM     10  C   UNL A   1      34.413  33.090  30.380  1.00  0.00     0.014 A 
ATOM     11  C   UNL A   1      35.618  34.199  28.592  1.00  0.00     0.014 A 
ATOM     12  C   UNL A   1      35.603  32.519  30.830  1.00  0.00     0.010 A 
ATOM     13  C   UNL A   1      36.800  33.588  29.014  1.00  0.00     0.010 A 
ATOM     14  C   UNL A   1      36.803  32.758  30.144  1.00  0.00    -0.014 A 
BRANCH  14  15
ATOM     15  C   UNL A   1      38.059  32.092  30.569  1.00  0.00     0.031 A 
ATOM     16  C   UNL A   1      38.967  32.738  31.572  1.00  0.00     0.074 A 
ATOM     17  C   UNL A   1      38.400  30.919  30.004  1.00  0.00     0.049 A 
ATOM     18  N   UNL A   1      40.144  32.346  31.991  1.00  0.00    -0.248 NA
ATOM     19  C   UNL A   1      38.498  33.994  32.178  1.00  0.00     0.031 C 
ATOM     20  C   UNL A   1      37.605  30.204  29.003  1.00  0.00     0.029 A 
ATOM     21  N   UNL A   1      39.510  30.134  30.175  1.00  0.00    -0.354 N 
ATOM     22  C   UNL A   1      40.568  33.316  32.889  1.00  0.00     0.074 A 
ATOM     23  C   UNL A   1      39.527  34.321  32.947  1.00  0.00     0.031 C 
ATOM     24  C   UNL A   1      38.255  29.086  28.648  1.00  0.00     0.029 A 
ATOM     25  C   UNL A   1      39.527  29.029  29.363  1.00  0.00     0.049 A 
ATOM     26  H   UNL A   1      40.226  30.343  30.818  1.00  0.00     0.167 HD
ATOM     27  C   UNL A   1      41.720  33.361  33.600  1.00  0.00     0.037 A 
ATOM     28  C   UNL A   1      40.474  28.089  29.187  1.00  0.00     0.037 A 
ATOM     29  C   UNL A   1      42.746  32.352  33.554  1.00  0.00     0.049 A 
ATOM     30  C   UNL A   1      41.746  28.165  29.977  1.00  0.00     0.074 A 
ATOM     31  C   UNL A   1      43.920  32.279  34.283  1.00  0.00     0.029 A 
ATOM     32  N   UNL A   1      42.721  31.242  32.723  1.00  0.00    -0.354 N 
ATOM     33  N   UNL A   1      42.116  29.065  30.854  1.00  0.00    -0.248 NA
ATOM     34  C   UNL A   1      42.733  27.101  29.748  1.00  0.00     0.031 C 
ATOM     35  C   UNL A   1      44.621  31.141  33.871  1.00  0.00     0.029 A 
ATOM     36  C   UNL A   1      43.870  30.489  32.907  1.00  0.00     0.049 A 
ATOM     37  H   UNL A   1      41.995  31.020  32.096  1.00  0.00     0.167 HD
ATOM     38  C   UNL A   1      43.372  28.673  31.292  1.00  0.00     0.074 A 
ATOM     39  C   UNL A   1      43.698  27.448  30.590  1.00  0.00     0.031 C 
ATOM     40  C   UNL A   1      44.180  29.274  32.198  1.00  0.00     0.037 A 
BRANCH  27  41
ATOM     41  C   UNL A   1      41.939  34.554  34.478  1.00  0.00     0.057 A 
ATOM     42  C   UNL A   1      41.554  34.562  35.824  1.00  0.00     0.134 A 
ATOM     43  C   UNL A   1      42.569  35.701  33.977  1.00  0.00     0.134 A 
ATOM     44  F   UNL A   1      40.935  33.499  36.359  1.00  0.00    -0.206 F 
ATOM     45  C   UNL A   1      41.772  35.675  36.638  1.00  0.00     0.040 A 
ATOM     46  C   UNL A   1      42.806  36.814  34.785  1.00  0.00     0.040 A 
ATOM     47  F   UNL A   1      42.964  35.755  32.696  1.00  0.00    -0.206 F 
ATOM     48  C   UNL A   1      42.403  36.804  36.119  1.00  0.00     0.006 A 
ENDBRANCH  27  41
BRANCH  28  49
ATOM     49  C   UNL A   1      40.238  27.004  28.207  1.00  0.00     0.057 A 
ATOM     50  C   UNL A   1      40.773  27.068  26.917  1.00  0.00     0.134 A 
ATOM     51  C   UNL A   1      39.521  25.855  28.559  1.00  0.00     0.134 A 
ATOM     52  F   UNL A   1      41.458  28.152  26.524  1.00  0.00    -0.206 F 
ATOM     53  C   UNL A   1      40.606  26.022  26.008  1.00  0.00     0.040 A 
ATOM     54  C   UNL A   1      39.360  24.795  27.666  1.00  0.00     0.040 A 
ATOM     55  F   UNL A   1      38.992  25.735  29.785  1.00  0.00    -0.206 F 
ATOM     56  C   UNL A   1      39.905  24.879  26.385  1.00  0.00     0.006 A 
ENDBRANCH  28  49
BRANCH  40  57
ATOM     57  C   UNL A   1      45.489  28.609  32.492  1.00  0.00     0.057 A 
ATOM     58  C   UNL A   1      45.601  27.619  33.474  1.00  0.00     0.134 A 
ATOM     59  C   UNL A   1      46.633  28.927  31.751  1.00  0.00     0.134 A 
ATOM     60  F   UNL A   1      44.541  27.281  34.223  1.00  0.00    -0.206 F 
ATOM     61  C   UNL A   1      46.814  26.972  33.716  1.00  0.00     0.040 A 
ATOM     62  C   UNL A   1      47.847  28.277  31.974  1.00  0.00     0.040 A 
ATOM     63  F   UNL A   1      46.586  29.866  30.793  1.00  0.00    -0.206 F 
ATOM     64  C   UNL A   1      47.940  27.296  32.960  1.00  0.00     0.006 A 
ENDBRANCH  40  57
ENDBRANCH  14  15
ENDBRANCH   7   9
ENDBRANCH   4   5
ENDBRANCH   3   4
ENDBRANCH   2   3
ENDBRANCH   1   2
BRANCH   1  65
ATOM     65  C   UNL A   1      32.998  29.271  24.957  1.00  0.00     0.021 C 
BRANCH  65  66
ATOM     66  C   UNL A   1      33.000  29.118  23.438  1.00  0.00     0.116 C 
BRANCH  66  67
ATOM     67  N   UNL A   1      31.686  29.341  22.875  1.00  0.00    -0.349 N 
ATOM     68  C   UNL A   1      30.779  28.421  22.413  1.00  0.00     0.286 C 
ATOM     69  H   UNL A   1      31.404  30.282  22.814  1.00  0.00     0.163 HD
ATOM     70  O   UNL A   1      29.816  28.856  21.770  1.00  0.00    -0.266 OA
BRANCH  68  71
ATOM     71  C   UNL A   1      30.969  27.018  22.703  1.00  0.00     0.191 A 
ATOM     72  C   UNL A   1      31.559  25.977  22.005  1.00  0.00     0.057 A 
ATOM     73  O   UNL A   1      30.569  26.561  23.927  1.00  0.00    -0.452 OA
ATOM     74  C   UNL A   1      31.511  24.836  22.844  1.00  0.00     0.050 A 
ATOM     75  C   UNL A   1      30.923  25.248  24.020  1.00  0.00     0.142 A 
BRANCH  75  76
ATOM     76  C   UNL A   1      30.686  24.587  25.332  1.00  0.00     0.304 C 
BRANCH  76  77
ATOM     77  O   UNL A   1      31.656  25.059  26.285  1.00  0.00    -0.484 OA
BRANCH  77  78
ATOM     78  C   UNL A   1      32.689  24.171  26.462  1.00  0.00     0.140 A 
ATOM     79  C   UNL A   1      32.421  22.961  27.110  1.00  0.00     0.048 A 
ATOM     80  C   UNL A   1      33.958  24.422  25.922  1.00  0.00     0.101 A 
ATOM     81  C   UNL A   1      33.431  22.021  27.286  1.00  0.00     0.005 A 
ATOM     82  C   UNL A   1      34.966  23.462  26.086  1.00  0.00     0.063 A 
ATOM     83  Cl  UNL A   1      34.245  25.903  25.070  1.00  0.00    -0.079 Cl
ATOM     84  C   UNL A   1      34.704  22.272  26.777  1.00  0.00     0.022 A 
ATOM     85  Cl  UNL A   1      36.562  23.676  25.454  1.00  0.00    -0.083 Cl
ENDBRANCH  77  78
ENDBRANCH  76  77
ENDBRANCH  75  76
ENDBRANCH  68  71
ENDBRANCH  66  67
ENDBRANCH  65  66
ENDBRANCH   1  65
TORSDOF 16
ENDMDL
MODEL 3
REMARK VINA RESULT:      -8.7      4.782     10.117
REMARK SMILES O=C(NCCCCCCNC(=O)c1ccc(COc2cccc(Cl)c2Cl)o1)c1ccc(-c2c3nc(c(-c4c(F)cccc4F)c4ccc([nH]4)c(-c4c(F)cccc4F)c4nc(c(-c5c(F)cccc5F)c5ccc2[nH]5)C=C4)C=C3)cc1
REMARK SMILES IDX 7 1 6 2 5 3 4 4 3 5 1 6 2 7 28 9 29 10 81 11 30 12 80 13
REMARK SMILES IDX 31 14 32 15 33 16 74 17 34 18 79 19 73 20 75 21 35 22 78 23
REMARK SMILES IDX 72 24 71 25 36 27 62 28 45 29 61 30 46 31 49 32 60 33 76 34
REMARK SMILES IDX 47 35 48 36 59 38 77 39 50 40 37 41 38 42 43 43 39 44 40 45
REMARK SMILES IDX 42 46 44 47 41 48 63 49 64 50 69 51 65 52 66 53 68 54 70 55
REMARK SMILES IDX 67 56 51 57 52 58 57 59 53 60 54 61 56 62 58 63 55 64 8 65
REMARK SMILES IDX 9 66 10 67 11 68 12 70 13 71 14 72 27 73 15 74 16 75 17 76
REMARK SMILES IDX 18 77 19 78 20 79 25 80 21 81 23 82 26 83 22 84 24 85
REMARK H PARENT 3 8 75 26 49 37 10 69
REMARK Flexibility Score: inf
ROOT
ATOM      1  C   UNL A   1      36.652  21.844  24.317  1.00  0.00     0.002 C 
ENDROOT
BRANCH   1   2
ATOM      2  C   UNL A   1      36.544  20.404  24.826  1.00  0.00     0.002 C 
BRANCH   2   3
ATOM      3  C   UNL A   1      37.840  19.591  24.817  1.00  0.00     0.021 C 
BRANCH   3   4
ATOM      4  C   UNL A   1      38.915  20.057  25.794  1.00  0.00     0.116 C 
BRANCH   4   5
ATOM      5  N   UNL A   1      40.081  19.194  25.789  1.00  0.00    -0.352 N 
ATOM      6  O   UNL A   1      42.269  18.665  25.882  1.00  0.00    -0.269 OA
ATOM      7  C   UNL A   1      41.385  19.494  26.086  1.00  0.00     0.251 C 
ATOM      8  H   UNL A   1      39.912  18.258  25.535  1.00  0.00     0.163 HD
BRANCH   7   9
ATOM      9  C   UNL A   1      41.742  20.822  26.629  1.00  0.00     0.039 A 
ATOM     10  C   UNL A   1      41.865  21.037  28.006  1.00  0.00     0.014 A 
ATOM     11  C   UNL A   1      42.005  21.859  25.730  1.00  0.00     0.014 A 
ATOM     12  C   UNL A   1      42.166  22.311  28.487  1.00  0.00     0.010 A 
ATOM     13  C   UNL A   1      42.354  23.122  26.210  1.00  0.00     0.010 A 
ATOM     14  C   UNL A   1      42.421  23.361  27.591  1.00  0.00    -0.014 A 
BRANCH  14  15
ATOM     15  C   UNL A   1      42.818  24.699  28.092  1.00  0.00     0.031 A 
ATOM     16  C   UNL A   1      41.786  25.750  28.371  1.00  0.00     0.074 A 
ATOM     17  C   UNL A   1      44.126  24.977  28.246  1.00  0.00     0.049 A 
ATOM     18  N   UNL A   1      41.956  26.999  28.725  1.00  0.00    -0.248 NA
ATOM     19  C   UNL A   1      40.378  25.351  28.225  1.00  0.00     0.031 C 
ATOM     20  C   UNL A   1      45.222  24.041  27.988  1.00  0.00     0.029 A 
ATOM     21  N   UNL A   1      44.754  26.131  28.637  1.00  0.00    -0.354 N 
ATOM     22  C   UNL A   1      40.682  27.542  28.821  1.00  0.00     0.074 A 
ATOM     23  C   UNL A   1      39.748  26.490  28.478  1.00  0.00     0.031 C 
ATOM     24  C   UNL A   1      46.389  24.659  28.225  1.00  0.00     0.029 A 
ATOM     25  C   UNL A   1      46.123  26.042  28.610  1.00  0.00     0.049 A 
ATOM     26  H   UNL A   1      44.271  26.943  28.909  1.00  0.00     0.167 HD
ATOM     27  C   UNL A   1      40.326  28.803  29.165  1.00  0.00     0.037 A 
ATOM     28  C   UNL A   1      47.063  26.977  28.839  1.00  0.00     0.037 A 
ATOM     29  C   UNL A   1      41.256  29.842  29.523  1.00  0.00     0.049 A 
ATOM     30  C   UNL A   1      46.646  28.369  29.207  1.00  0.00     0.074 A 
ATOM     31  C   UNL A   1      40.988  31.133  29.945  1.00  0.00     0.029 A 
ATOM     32  N   UNL A   1      42.636  29.709  29.492  1.00  0.00    -0.354 N 
ATOM     33  N   UNL A   1      45.437  28.858  29.336  1.00  0.00    -0.248 NA
ATOM     34  C   UNL A   1      47.721  29.339  29.457  1.00  0.00     0.031 C 
ATOM     35  C   UNL A   1      42.207  31.791  30.140  1.00  0.00     0.029 A 
ATOM     36  C   UNL A   1      43.234  30.902  29.868  1.00  0.00     0.049 A 
ATOM     37  H   UNL A   1      43.121  28.890  29.241  1.00  0.00     0.167 HD
ATOM     38  C   UNL A   1      45.603  30.189  29.691  1.00  0.00     0.074 A 
ATOM     39  C   UNL A   1      47.029  30.428  29.768  1.00  0.00     0.031 C 
ATOM     40  C   UNL A   1      44.655  31.125  29.935  1.00  0.00     0.037 A 
BRANCH  27  41
ATOM     41  C   UNL A   1      38.866  29.132  29.153  1.00  0.00     0.057 A 
ATOM     42  C   UNL A   1      38.077  29.033  30.306  1.00  0.00     0.134 A 
ATOM     43  C   UNL A   1      38.246  29.580  27.979  1.00  0.00     0.134 A 
ATOM     44  F   UNL A   1      38.608  28.598  31.457  1.00  0.00    -0.206 F 
ATOM     45  C   UNL A   1      36.718  29.352  30.287  1.00  0.00     0.040 A 
ATOM     46  C   UNL A   1      36.892  29.917  27.952  1.00  0.00     0.040 A 
ATOM     47  F   UNL A   1      38.949  29.699  26.842  1.00  0.00    -0.206 F 
ATOM     48  C   UNL A   1      36.123  29.799  29.109  1.00  0.00     0.006 A 
ENDBRANCH  27  41
BRANCH  28  49
ATOM     49  C   UNL A   1      48.492  26.609  28.710  1.00  0.00     0.057 A 
ATOM     50  C   UNL A   1      49.177  25.996  29.762  1.00  0.00     0.134 A 
ATOM     51  C   UNL A   1      49.185  26.811  27.510  1.00  0.00     0.134 A 
ATOM     52  F   UNL A   1      48.565  25.790  30.937  1.00  0.00    -0.206 F 
ATOM     53  C   UNL A   1      50.506  25.591  29.627  1.00  0.00     0.040 A 
ATOM     54  C   UNL A   1      50.508  26.398  27.355  1.00  0.00     0.040 A 
ATOM     55  F   UNL A   1      48.575  27.388  26.465  1.00  0.00    -0.206 F 
ATOM     56  C   UNL A   1      51.172  25.785  28.418  1.00  0.00     0.006 A 
ENDBRANCH  28  49
BRANCH  40  57
ATOM     57  C   UNL A   1      45.130  32.491  30.321  1.00  0.00     0.057 A 
ATOM     58  C   UNL A   1      45.418  33.464  29.359  1.00  0.00     0.134 A 
ATOM     59  C   UNL A   1      45.252  32.850  31.669  1.00  0.00     0.134 A 
ATOM     60  F   UNL A   1      45.331  33.175  28.052  1.00  0.00    -0.206 F 
ATOM     61  C   UNL A   1      45.821  34.749  29.723  1.00  0.00     0.040 A 
ATOM     62  C   UNL A   1      45.639  34.136  32.047  1.00  0.00     0.040 A 
ATOM     63  F   UNL A   1      44.985  31.960  32.638  1.00  0.00    -0.206 F 
ATOM     64  C   UNL A   1      45.926  35.090  31.072  1.00  0.00     0.006 A 
ENDBRANCH  40  57
ENDBRANCH  14  15
ENDBRANCH   7   9
ENDBRANCH   4   5
ENDBRANCH   3   4
ENDBRANCH   2   3
ENDBRANCH   1   2
BRANCH   1  65
ATOM     65  C   UNL A   1      36.980  22.903  25.374  1.00  0.00     0.021 C 
BRANCH  65  66
ATOM     66  C   UNL A   1      35.781  23.669  25.925  1.00  0.00     0.116 C 
BRANCH  66  67
ATOM     67  N   UNL A   1      35.039  22.884  26.887  1.00  0.00    -0.349 N 
ATOM     68  C   UNL A   1      33.777  22.355  26.779  1.00  0.00     0.286 C 
ATOM     69  H   UNL A   1      35.503  22.703  27.737  1.00  0.00     0.163 HD
ATOM     70  O   UNL A   1      33.264  21.911  27.813  1.00  0.00    -0.266 OA
BRANCH  68  71
ATOM     71  C   UNL A   1      33.122  22.320  25.492  1.00  0.00     0.191 A 
ATOM     72  C   UNL A   1      33.073  21.377  24.477  1.00  0.00     0.057 A 
ATOM     73  O   UNL A   1      32.312  23.369  25.161  1.00  0.00    -0.452 OA
ATOM     74  C   UNL A   1      32.196  21.881  23.486  1.00  0.00     0.050 A 
ATOM     75  C   UNL A   1      31.732  23.089  23.960  1.00  0.00     0.142 A 
BRANCH  75  76
ATOM     76  C   UNL A   1      30.711  24.055  23.472  1.00  0.00     0.304 C 
BRANCH  76  77
ATOM     77  O   UNL A   1      31.345  25.031  22.625  1.00  0.00    -0.484 OA
BRANCH  77  78
ATOM     78  C   UNL A   1      31.352  26.285  23.187  1.00  0.00     0.140 A 
ATOM     79  C   UNL A   1      30.154  27.006  23.214  1.00  0.00     0.048 A 
ATOM     80  C   UNL A   1      32.501  26.792  23.807  1.00  0.00     0.101 A 
ATOM     81  C   UNL A   1      30.108  28.269  23.797  1.00  0.00     0.005 A 
ATOM     82  C   UNL A   1      32.443  28.056  24.410  1.00  0.00     0.063 A 
ATOM     83  Cl  UNL A   1      33.955  25.850  23.813  1.00  0.00    -0.079 Cl
ATOM     84  C   UNL A   1      31.253  28.795  24.393  1.00  0.00     0.022 A 
ATOM     85  Cl  UNL A   1      33.805  28.768  25.204  1.00  0.00    -0.083 Cl
ENDBRANCH  77  78
ENDBRANCH  76  77
ENDBRANCH  75  76
ENDBRANCH  68  71
ENDBRANCH  66  67
ENDBRANCH  65  66
ENDBRANCH   1  65
TORSDOF 16
ENDMDL
