MODEL 1
REMARK VINA RESULT:     -12.1      0.000      0.000
REMARK SMILES NS(=O)(=O)c1ccc(-n2nc(C(F)(F)F)cc2-c2ccc(CC(=O)NCCCCCCNC(=O)c3ccc(-c4c5nc(c(-c6c(F)cccc6F)c6ccc([nH]6)c(-c6c(F)cccc6F)c6nc(c(-c7c(F)cccc7F)c7ccc4[nH]7)C=C6)C=C5)cc3)cc2)cc1
REMARK SMILES IDX 27 1 26 2 25 3 23 4 24 5 22 7 21 8 18 9 19 10 90 11 20 12
REMARK SMILES IDX 89 13 17 14 9 15 10 16 11 17 16 18 8 19 5 20 6 21 92 22 7 23
REMARK SMILES IDX 91 24 2 25 3 26 4 27 1 28 12 31 13 32 14 33 15 34 28 35
REMARK SMILES IDX 29 36 30 37 31 38 32 39 33 40 34 42 35 43 36 44 88 45 37 46
REMARK SMILES IDX 87 47 38 48 39 49 40 50 81 51 41 52 86 53 80 54 82 55 42 56
REMARK SMILES IDX 85 57 79 58 78 59 43 61 69 62 52 63 68 64 53 65 56 66 67 67
REMARK SMILES IDX 83 68 54 69 55 70 66 72 84 73 57 74 44 75 45 76 50 77 46 78
REMARK SMILES IDX 47 79 49 80 51 81 48 82 70 83 71 84 76 85 72 86 73 87 75 88
REMARK SMILES IDX 77 89 74 90 58 91 59 92 64 93 60 94 61 95 63 96 65 97 62 98
REMARK H PARENT 25 6 1 29 1 30 32 41 82 60 56 71
REMARK Flexibility Score: inf
ROOT
ATOM      1  C   UNL A   1      31.970  28.864  24.895  1.00  0.00     0.021 C 
ENDROOT
BRANCH   1   2
ATOM      2  C   UNL A   1      30.925  28.362  23.898  1.00  0.00     0.116 C 
BRANCH   2   3
ATOM      3  N   UNL A   1      30.491  27.018  24.222  1.00  0.00    -0.356 N 
ATOM      4  C   UNL A   1      30.961  25.820  23.769  1.00  0.00     0.224 C 
ATOM      5  O   UNL A   1      30.372  24.792  24.109  1.00  0.00    -0.275 OA
ATOM      6  H   UNL A   1      29.746  26.960  24.863  1.00  0.00     0.163 HD
BRANCH   4   7
ATOM      7  C   UNL A   1      32.216  25.760  22.914  1.00  0.00     0.135 C 
BRANCH   7   8
ATOM      8  C   UNL A   1      33.346  24.973  23.527  1.00  0.00    -0.039 A 
ATOM      9  C   UNL A   1      35.537  23.635  24.661  1.00  0.00     0.000 A 
ATOM     10  C   UNL A   1      35.181  23.409  23.324  1.00  0.00     0.010 A 
ATOM     11  C   UNL A   1      34.757  24.490  25.441  1.00  0.00     0.010 A 
ATOM     12  C   UNL A   1      34.098  24.081  22.757  1.00  0.00     0.005 A 
ATOM     13  C   UNL A   1      33.661  25.139  24.884  1.00  0.00     0.005 A 
BRANCH   9  14
ATOM     14  C   UNL A   1      36.688  22.973  25.260  1.00  0.00     0.075 A 
ATOM     15  N   UNL A   1      36.794  21.614  25.524  1.00  0.00    -0.233 N 
ATOM     16  N   UNL A   1      37.858  21.346  26.315  1.00  0.00    -0.163 NA
ATOM     17  C   UNL A   1      38.581  22.481  26.332  1.00  0.00     0.167 A 
ATOM     18  C   UNL A   1      37.855  23.535  25.736  1.00  0.00     0.064 A 
BRANCH  15  19
ATOM     19  C   UNL A   1      35.950  20.572  25.055  1.00  0.00     0.065 A 
ATOM     20  C   UNL A   1      34.263  18.466  24.368  1.00  0.00     0.082 A 
ATOM     21  C   UNL A   1      33.726  19.728  24.628  1.00  0.00     0.024 A 
ATOM     22  C   UNL A   1      35.646  18.260  24.395  1.00  0.00     0.024 A 
ATOM     23  C   UNL A   1      34.566  20.779  24.993  1.00  0.00     0.030 A 
ATOM     24  C   UNL A   1      36.495  19.326  24.716  1.00  0.00     0.030 A 
BRANCH  20  25
ATOM     25  S   UNL A   1      33.151  17.139  24.007  1.00  0.00     0.238 S 
ATOM     26  O   UNL A   1      33.769  15.899  24.444  1.00  0.00    -0.207 OA
ATOM     27  O   UNL A   1      32.636  17.324  22.680  1.00  0.00    -0.207 OA
BRANCH  25  28
ATOM     28  N   UNL A   1      31.868  17.382  25.060  1.00  0.00    -0.225 NA
ATOM     29  H   UNL A   1      31.620  16.498  25.505  1.00  0.00     0.137 HD
ATOM     30  H   UNL A   1      31.065  17.739  24.543  1.00  0.00     0.137 HD
ENDBRANCH  25  28
ENDBRANCH  20  25
ENDBRANCH  15  19
BRANCH  17  31
ATOM     31  C   UNL A   1      39.948  22.589  26.953  1.00  0.00     0.435 C 
ATOM     32  F   UNL A   1      40.936  22.689  26.024  1.00  0.00    -0.164 F 
ATOM     33  F   UNL A   1      40.068  23.659  27.785  1.00  0.00    -0.164 F 
ATOM     34  F   UNL A   1      40.241  21.490  27.705  1.00  0.00    -0.164 F 
ENDBRANCH  17  31
ENDBRANCH   9  14
ENDBRANCH   7   8
ENDBRANCH   4   7
ENDBRANCH   2   3
ENDBRANCH   1   2
BRANCH   1  35
ATOM     35  C   UNL A   1      31.826  28.268  26.303  1.00  0.00     0.002 C 
BRANCH  35  36
ATOM     36  C   UNL A   1      33.096  28.281  27.168  1.00  0.00     0.002 C 
BRANCH  36  37
ATOM     37  C   UNL A   1      34.062  29.450  26.937  1.00  0.00     0.021 C 
BRANCH  37  38
ATOM     38  C   UNL A   1      35.431  29.257  27.572  1.00  0.00     0.116 C 
BRANCH  38  39
ATOM     39  N   UNL A   1      35.496  29.760  28.940  1.00  0.00    -0.352 N 
ATOM     40  C   UNL A   1      36.480  29.537  29.881  1.00  0.00     0.251 C 
ATOM     41  H   UNL A   1      34.745  30.329  29.227  1.00  0.00     0.163 HD
ATOM     42  O   UNL A   1      36.250  29.678  31.078  1.00  0.00    -0.269 OA
BRANCH  40  43
ATOM     43  C   UNL A   1      37.815  29.106  29.427  1.00  0.00     0.039 A 
ATOM     44  C   UNL A   1      38.467  29.773  28.389  1.00  0.00     0.014 A 
ATOM     45  C   UNL A   1      38.423  28.032  30.072  1.00  0.00     0.014 A 
ATOM     46  C   UNL A   1      39.771  29.404  28.072  1.00  0.00     0.010 A 
ATOM     47  C   UNL A   1      39.758  27.771  29.862  1.00  0.00     0.010 A 
ATOM     48  C   UNL A   1      40.430  28.423  28.836  1.00  0.00    -0.014 A 
BRANCH  48  49
ATOM     49  C   UNL A   1      41.857  28.172  28.633  1.00  0.00     0.031 A 
ATOM     50  C   UNL A   1      42.160  26.941  27.853  1.00  0.00     0.074 A 
ATOM     51  C   UNL A   1      42.849  29.026  28.975  1.00  0.00     0.049 A 
ATOM     52  N   UNL A   1      42.704  25.858  28.296  1.00  0.00    -0.248 NA
ATOM     53  C   UNL A   1      41.678  26.842  26.466  1.00  0.00     0.031 C 
ATOM     54  C   UNL A   1      42.749  30.383  29.510  1.00  0.00     0.029 A 
ATOM     55  N   UNL A   1      44.196  28.860  28.841  1.00  0.00    -0.354 N 
ATOM     56  C   UNL A   1      42.819  25.004  27.204  1.00  0.00     0.074 A 
ATOM     57  C   UNL A   1      42.033  25.593  26.151  1.00  0.00     0.031 C 
ATOM     58  C   UNL A   1      43.959  30.981  29.459  1.00  0.00     0.029 A 
ATOM     59  C   UNL A   1      44.953  30.018  29.020  1.00  0.00     0.049 A 
ATOM     60  H   UNL A   1      44.604  27.988  28.635  1.00  0.00     0.167 HD
ATOM     61  C   UNL A   1      43.738  23.999  27.200  1.00  0.00     0.037 A 
ATOM     62  C   UNL A   1      46.292  30.161  28.814  1.00  0.00     0.037 A 
ATOM     63  C   UNL A   1      44.203  23.713  28.537  1.00  0.00     0.049 A 
ATOM     64  C   UNL A   1      46.872  28.793  28.858  1.00  0.00     0.074 A 
ATOM     65  C   UNL A   1      43.579  23.364  29.721  1.00  0.00     0.029 A 
ATOM     66  N   UNL A   1      45.450  24.163  28.900  1.00  0.00    -0.354 N 
ATOM     67  N   UNL A   1      46.997  28.103  29.957  1.00  0.00    -0.248 NA
ATOM     68  C   UNL A   1      46.894  28.017  27.625  1.00  0.00     0.031 C 
ATOM     69  C   UNL A   1      44.258  24.115  30.725  1.00  0.00     0.029 A 
ATOM     70  C   UNL A   1      45.303  24.800  30.106  1.00  0.00     0.049 A 
ATOM     71  H   UNL A   1      46.285  24.049  28.393  1.00  0.00     0.167 HD
ATOM     72  C   UNL A   1      46.650  26.812  29.596  1.00  0.00     0.074 A 
ATOM     73  C   UNL A   1      46.689  26.798  28.133  1.00  0.00     0.031 C 
ATOM     74  C   UNL A   1      46.075  25.956  30.491  1.00  0.00     0.037 A 
BRANCH  61  75
ATOM     75  C   UNL A   1      44.495  23.549  25.975  1.00  0.00     0.057 A 
ATOM     76  C   UNL A   1      44.517  22.181  25.648  1.00  0.00     0.134 A 
ATOM     77  C   UNL A   1      45.443  24.342  25.295  1.00  0.00     0.134 A 
ATOM     78  F   UNL A   1      43.670  21.318  26.230  1.00  0.00    -0.206 F 
ATOM     79  C   UNL A   1      45.472  21.630  24.784  1.00  0.00     0.040 A 
ATOM     80  C   UNL A   1      46.367  23.809  24.393  1.00  0.00     0.040 A 
ATOM     81  F   UNL A   1      45.598  25.648  25.540  1.00  0.00    -0.206 F 
ATOM     82  C   UNL A   1      46.409  22.444  24.161  1.00  0.00     0.006 A 
ENDBRANCH  61  75
BRANCH  62  83
ATOM     83  C   UNL A   1      47.114  31.343  28.435  1.00  0.00     0.057 A 
ATOM     84  C   UNL A   1      47.169  31.798  27.105  1.00  0.00     0.134 A 
ATOM     85  C   UNL A   1      47.657  32.221  29.381  1.00  0.00     0.134 A 
ATOM     86  F   UNL A   1      46.699  31.042  26.102  1.00  0.00    -0.206 F 
ATOM     87  C   UNL A   1      47.648  33.071  26.758  1.00  0.00     0.040 A 
ATOM     88  C   UNL A   1      48.139  33.495  29.051  1.00  0.00     0.040 A 
ATOM     89  F   UNL A   1      47.686  31.903  30.677  1.00  0.00    -0.206 F 
ATOM     90  C   UNL A   1      48.107  33.939  27.739  1.00  0.00     0.006 A 
ENDBRANCH  62  83
BRANCH  74  91
ATOM     91  C   UNL A   1      46.030  26.360  31.940  1.00  0.00     0.057 A 
ATOM     92  C   UNL A   1      44.947  27.010  32.552  1.00  0.00     0.134 A 
ATOM     93  C   UNL A   1      47.070  25.947  32.783  1.00  0.00     0.134 A 
ATOM     94  F   UNL A   1      43.853  27.349  31.859  1.00  0.00    -0.206 F 
ATOM     95  C   UNL A   1      44.926  27.284  33.924  1.00  0.00     0.040 A 
ATOM     96  C   UNL A   1      47.044  26.179  34.159  1.00  0.00     0.040 A 
ATOM     97  F   UNL A   1      48.116  25.269  32.284  1.00  0.00    -0.206 F 
ATOM     98  C   UNL A   1      45.976  26.861  34.734  1.00  0.00     0.006 A 
ENDBRANCH  74  91
ENDBRANCH  48  49
ENDBRANCH  40  43
ENDBRANCH  38  39
ENDBRANCH  37  38
ENDBRANCH  36  37
ENDBRANCH  35  36
ENDBRANCH   1  35
TORSDOF 19
ENDMDL
MODEL 2
REMARK VINA RESULT:     -11.9      5.346     10.690
REMARK SMILES NS(=O)(=O)c1ccc(-n2nc(C(F)(F)F)cc2-c2ccc(CC(=O)NCCCCCCNC(=O)c3ccc(-c4c5nc(c(-c6c(F)cccc6F)c6ccc([nH]6)c(-c6c(F)cccc6F)c6nc(c(-c7c(F)cccc7F)c7ccc4[nH]7)C=C6)C=C5)cc3)cc2)cc1
REMARK SMILES IDX 27 1 26 2 25 3 23 4 24 5 22 7 21 8 18 9 19 10 90 11 20 12
REMARK SMILES IDX 89 13 17 14 9 15 10 16 11 17 16 18 8 19 5 20 6 21 92 22 7 23
REMARK SMILES IDX 91 24 2 25 3 26 4 27 1 28 12 31 13 32 14 33 15 34 28 35
REMARK SMILES IDX 29 36 30 37 31 38 32 39 33 40 34 42 35 43 36 44 88 45 37 46
REMARK SMILES IDX 87 47 38 48 39 49 40 50 81 51 41 52 86 53 80 54 82 55 42 56
REMARK SMILES IDX 85 57 79 58 78 59 43 61 69 62 52 63 68 64 53 65 56 66 67 67
REMARK SMILES IDX 83 68 54 69 55 70 66 72 84 73 57 74 44 75 45 76 50 77 46 78
REMARK SMILES IDX 47 79 49 80 51 81 48 82 70 83 71 84 76 85 72 86 73 87 75 88
REMARK SMILES IDX 77 89 74 90 58 91 59 92 64 93 60 94 61 95 63 96 65 97 62 98
REMARK H PARENT 25 6 1 29 1 30 32 41 82 60 56 71
REMARK Flexibility Score: inf
ROOT
ATOM      1  C   UNL A   1      41.231  29.941  34.868  1.00  0.00     0.021 C 
ENDROOT
BRANCH   1   2
ATOM      2  C   UNL A   1      39.763  30.244  34.566  1.00  0.00     0.116 C 
BRANCH   2   3
ATOM      3  N   UNL A   1      39.573  31.641  34.225  1.00  0.00    -0.356 N 
ATOM      4  C   UNL A   1      39.785  32.282  33.040  1.00  0.00     0.224 C 
ATOM      5  O   UNL A   1      39.647  33.507  33.003  1.00  0.00    -0.275 OA
ATOM      6  H   UNL A   1      39.244  32.210  34.958  1.00  0.00     0.163 HD
BRANCH   4   7
ATOM      7  C   UNL A   1      40.126  31.491  31.788  1.00  0.00     0.135 C 
BRANCH   7   8
ATOM      8  C   UNL A   1      38.955  31.253  30.869  1.00  0.00    -0.039 A 
ATOM      9  C   UNL A   1      36.709  30.934  29.217  1.00  0.00     0.000 A 
ATOM     10  C   UNL A   1      36.889  30.111  30.336  1.00  0.00     0.010 A 
ATOM     11  C   UNL A   1      37.686  31.879  28.898  1.00  0.00     0.010 A 
ATOM     12  C   UNL A   1      38.000  30.274  31.163  1.00  0.00     0.005 A 
ATOM     13  C   UNL A   1      38.808  32.024  29.707  1.00  0.00     0.005 A 
BRANCH   9  14
ATOM     14  C   UNL A   1      35.535  30.805  28.362  1.00  0.00     0.075 A 
ATOM     15  N   UNL A   1      34.394  31.592  28.430  1.00  0.00    -0.233 N 
ATOM     16  N   UNL A   1      33.387  31.065  27.696  1.00  0.00    -0.163 NA
ATOM     17  C   UNL A   1      33.960  30.103  26.949  1.00  0.00     0.167 A 
ATOM     18  C   UNL A   1      35.285  29.870  27.378  1.00  0.00     0.064 A 
BRANCH  15  19
ATOM     19  C   UNL A   1      34.221  32.810  29.141  1.00  0.00     0.065 A 
ATOM     20  C   UNL A   1      33.669  35.113  30.605  1.00  0.00     0.082 A 
ATOM     21  C   UNL A   1      34.312  34.036  31.221  1.00  0.00     0.024 A 
ATOM     22  C   UNL A   1      33.348  35.068  29.245  1.00  0.00     0.024 A 
ATOM     23  C   UNL A   1      34.571  32.875  30.496  1.00  0.00     0.030 A 
ATOM     24  C   UNL A   1      33.650  33.919  28.504  1.00  0.00     0.030 A 
BRANCH  20  25
ATOM     25  S   UNL A   1      33.271  36.527  31.590  1.00  0.00     0.238 S 
ATOM     26  O   UNL A   1      34.359  36.746  32.528  1.00  0.00    -0.207 OA
ATOM     27  O   UNL A   1      31.901  36.423  32.003  1.00  0.00    -0.207 OA
BRANCH  25  28
ATOM     28  N   UNL A   1      33.355  37.812  30.515  1.00  0.00    -0.225 NA
ATOM     29  H   UNL A   1      32.415  38.159  30.324  1.00  0.00     0.137 HD
ATOM     30  H   UNL A   1      33.786  37.500  29.644  1.00  0.00     0.137 HD
ENDBRANCH  25  28
ENDBRANCH  20  25
ENDBRANCH  15  19
BRANCH  17  31
ATOM     31  C   UNL A   1      33.243  29.364  25.851  1.00  0.00     0.435 C 
ATOM     32  F   UNL A   1      32.472  30.183  25.088  1.00  0.00    -0.164 F 
ATOM     33  F   UNL A   1      34.093  28.713  25.010  1.00  0.00    -0.164 F 
ATOM     34  F   UNL A   1      32.407  28.412  26.355  1.00  0.00    -0.164 F 
ENDBRANCH  17  31
ENDBRANCH   9  14
ENDBRANCH   7   8
ENDBRANCH   4   7
ENDBRANCH   2   3
ENDBRANCH   1   2
BRANCH   1  35
ATOM     35  C   UNL A   1      41.915  29.057  33.816  1.00  0.00     0.002 C 
BRANCH  35  36
ATOM     36  C   UNL A   1      42.427  27.697  34.314  1.00  0.00     0.002 C 
BRANCH  36  37
ATOM     37  C   UNL A   1      42.703  27.587  35.820  1.00  0.00     0.021 C 
BRANCH  37  38
ATOM     38  C   UNL A   1      43.031  26.177  36.288  1.00  0.00     0.116 C 
BRANCH  38  39
ATOM     39  N   UNL A   1      44.346  26.081  36.914  1.00  0.00    -0.352 N 
ATOM     40  C   UNL A   1      45.501  25.540  36.387  1.00  0.00     0.251 C 
ATOM     41  H   UNL A   1      44.417  26.447  37.826  1.00  0.00     0.163 HD
ATOM     42  O   UNL A   1      46.414  25.170  37.118  1.00  0.00    -0.269 OA
BRANCH  40  43
ATOM     43  C   UNL A   1      45.615  25.395  34.925  1.00  0.00     0.039 A 
ATOM     44  C   UNL A   1      45.369  24.168  34.306  1.00  0.00     0.014 A 
ATOM     45  C   UNL A   1      45.952  26.515  34.168  1.00  0.00     0.014 A 
ATOM     46  C   UNL A   1      45.377  24.107  32.916  1.00  0.00     0.010 A 
ATOM     47  C   UNL A   1      45.811  26.488  32.799  1.00  0.00     0.010 A 
ATOM     48  C   UNL A   1      45.564  25.280  32.160  1.00  0.00    -0.014 A 
BRANCH  48  49
ATOM     49  C   UNL A   1      45.380  25.253  30.709  1.00  0.00     0.031 A 
ATOM     50  C   UNL A   1      46.432  25.975  29.943  1.00  0.00     0.074 A 
ATOM     51  C   UNL A   1      44.437  24.531  30.062  1.00  0.00     0.049 A 
ATOM     52  N   UNL A   1      46.292  27.074  29.281  1.00  0.00    -0.248 NA
ATOM     53  C   UNL A   1      47.824  25.509  30.036  1.00  0.00     0.031 C 
ATOM     54  C   UNL A   1      43.482  23.568  30.609  1.00  0.00     0.029 A 
ATOM     55  N   UNL A   1      44.184  24.469  28.724  1.00  0.00    -0.354 N 
ATOM     56  C   UNL A   1      47.529  27.343  28.705  1.00  0.00     0.074 A 
ATOM     57  C   UNL A   1      48.465  26.444  29.329  1.00  0.00     0.031 C 
ATOM     58  C   UNL A   1      42.908  22.876  29.600  1.00  0.00     0.029 A 
ATOM     59  C   UNL A   1      43.341  23.430  28.330  1.00  0.00     0.049 A 
ATOM     60  H   UNL A   1      44.568  25.110  28.082  1.00  0.00     0.167 HD
ATOM     61  C   UNL A   1      47.625  28.134  27.600  1.00  0.00     0.037 A 
ATOM     62  C   UNL A   1      43.035  23.062  27.055  1.00  0.00     0.037 A 
ATOM     63  C   UNL A   1      46.430  28.924  27.420  1.00  0.00     0.049 A 
ATOM     64  C   UNL A   1      43.338  24.236  26.194  1.00  0.00     0.074 A 
ATOM     65  C   UNL A   1      45.740  29.825  28.211  1.00  0.00     0.029 A 
ATOM     66  N   UNL A   1      45.543  28.542  26.441  1.00  0.00    -0.354 N 
ATOM     67  N   UNL A   1      42.614  25.319  26.179  1.00  0.00    -0.248 NA
ATOM     68  C   UNL A   1      44.697  24.384  25.691  1.00  0.00     0.031 C 
ATOM     69  C   UNL A   1      44.364  29.519  27.993  1.00  0.00     0.029 A 
ATOM     70  C   UNL A   1      44.301  28.520  27.024  1.00  0.00     0.049 A 
ATOM     71  H   UNL A   1      45.758  28.327  25.506  1.00  0.00     0.167 HD
ATOM     72  C   UNL A   1      43.535  26.350  26.111  1.00  0.00     0.074 A 
ATOM     73  C   UNL A   1      44.793  25.717  25.716  1.00  0.00     0.031 C 
ATOM     74  C   UNL A   1      43.275  27.572  26.665  1.00  0.00     0.037 A 
BRANCH  61  75
ATOM     75  C   UNL A   1      48.616  27.912  26.484  1.00  0.00     0.057 A 
ATOM     76  C   UNL A   1      48.657  26.660  25.844  1.00  0.00     0.134 A 
ATOM     77  C   UNL A   1      49.721  28.750  26.228  1.00  0.00     0.134 A 
ATOM     78  F   UNL A   1      47.668  25.767  26.011  1.00  0.00    -0.206 F 
ATOM     79  C   UNL A   1      49.756  26.238  25.086  1.00  0.00     0.040 A 
ATOM     80  C   UNL A   1      50.800  28.358  25.432  1.00  0.00     0.040 A 
ATOM     81  F   UNL A   1      49.868  29.945  26.812  1.00  0.00    -0.206 F 
ATOM     82  C   UNL A   1      50.838  27.086  24.887  1.00  0.00     0.006 A 
ENDBRANCH  61  75
BRANCH  62  83
ATOM     83  C   UNL A   1      42.643  21.750  26.470  1.00  0.00     0.057 A 
ATOM     84  C   UNL A   1      43.604  20.878  25.925  1.00  0.00     0.134 A 
ATOM     85  C   UNL A   1      41.375  21.187  26.657  1.00  0.00     0.134 A 
ATOM     86  F   UNL A   1      44.853  21.301  25.681  1.00  0.00    -0.206 F 
ATOM     87  C   UNL A   1      43.341  19.523  25.672  1.00  0.00     0.040 A 
ATOM     88  C   UNL A   1      41.096  19.836  26.408  1.00  0.00     0.040 A 
ATOM     89  F   UNL A   1      40.367  21.911  27.148  1.00  0.00    -0.206 F 
ATOM     90  C   UNL A   1      42.089  18.989  25.943  1.00  0.00     0.006 A 
ENDBRANCH  62  83
BRANCH  74  91
ATOM     91  C   UNL A   1      41.879  27.852  27.155  1.00  0.00     0.057 A 
ATOM     92  C   UNL A   1      41.367  27.421  28.389  1.00  0.00     0.134 A 
ATOM     93  C   UNL A   1      41.068  28.714  26.407  1.00  0.00     0.134 A 
ATOM     94  F   UNL A   1      42.102  26.686  29.232  1.00  0.00    -0.206 F 
ATOM     95  C   UNL A   1      40.090  27.787  28.829  1.00  0.00     0.040 A 
ATOM     96  C   UNL A   1      39.808  29.117  26.852  1.00  0.00     0.040 A 
ATOM     97  F   UNL A   1      41.508  29.215  25.241  1.00  0.00    -0.206 F 
ATOM     98  C   UNL A   1      39.308  28.644  28.061  1.00  0.00     0.006 A 
ENDBRANCH  74  91
ENDBRANCH  48  49
ENDBRANCH  40  43
ENDBRANCH  38  39
ENDBRANCH  37  38
ENDBRANCH  36  37
ENDBRANCH  35  36
ENDBRANCH   1  35
TORSDOF 19
ENDMDL
MODEL 3
REMARK VINA RESULT:     -11.8      5.468     10.710
REMARK SMILES NS(=O)(=O)c1ccc(-n2nc(C(F)(F)F)cc2-c2ccc(CC(=O)NCCCCCCNC(=O)c3ccc(-c4c5nc(c(-c6c(F)cccc6F)c6ccc([nH]6)c(-c6c(F)cccc6F)c6nc(c(-c7c(F)cccc7F)c7ccc4[nH]7)C=C6)C=C5)cc3)cc2)cc1
REMARK SMILES IDX 27 1 26 2 25 3 23 4 24 5 22 7 21 8 18 9 19 10 90 11 20 12
REMARK SMILES IDX 89 13 17 14 9 15 10 16 11 17 16 18 8 19 5 20 6 21 92 22 7 23
REMARK SMILES IDX 91 24 2 25 3 26 4 27 1 28 12 31 13 32 14 33 15 34 28 35
REMARK SMILES IDX 29 36 30 37 31 38 32 39 33 40 34 42 35 43 36 44 88 45 37 46
REMARK SMILES IDX 87 47 38 48 39 49 40 50 81 51 41 52 86 53 80 54 82 55 42 56
REMARK SMILES IDX 85 57 79 58 78 59 43 61 69 62 52 63 68 64 53 65 56 66 67 67
REMARK SMILES IDX 83 68 54 69 55 70 66 72 84 73 57 74 44 75 45 76 50 77 46 78
REMARK SMILES IDX 47 79 49 80 51 81 48 82 70 83 71 84 76 85 72 86 73 87 75 88
REMARK SMILES IDX 77 89 74 90 58 91 59 92 64 93 60 94 61 95 63 96 65 97 62 98
REMARK H PARENT 25 6 1 29 1 30 32 41 82 60 56 71
REMARK Flexibility Score: inf
ROOT
ATOM      1  C   UNL A   1      44.240  30.655  27.515  1.00  0.00     0.021 C 
ENDROOT
BRANCH   1   2
ATOM      2  C   UNL A   1      43.022  29.891  28.035  1.00  0.00     0.116 C 
BRANCH   2   3
ATOM      3  N   UNL A   1      43.320  29.209  29.279  1.00  0.00    -0.356 N 
ATOM      4  C   UNL A   1      43.648  27.904  29.498  1.00  0.00     0.224 C 
ATOM      5  O   UNL A   1      43.767  27.515  30.662  1.00  0.00    -0.275 OA
ATOM      6  H   UNL A   1      43.278  29.772  30.086  1.00  0.00     0.163 HD
BRANCH   4   7
ATOM      7  C   UNL A   1      43.915  26.972  28.328  1.00  0.00     0.135 C 
BRANCH   7   8
ATOM      8  C   UNL A   1      42.727  26.140  27.915  1.00  0.00    -0.039 A 
ATOM      9  C   UNL A   1      40.615  24.485  27.095  1.00  0.00     0.000 A 
ATOM     10  C   UNL A   1      40.954  25.624  26.353  1.00  0.00     0.010 A 
ATOM     11  C   UNL A   1      41.302  24.210  28.278  1.00  0.00     0.010 A 
ATOM     12  C   UNL A   1      42.009  26.443  26.754  1.00  0.00     0.005 A 
ATOM     13  C   UNL A   1      42.337  25.041  28.695  1.00  0.00     0.005 A 
BRANCH   9  14
ATOM     14  C   UNL A   1      39.541  23.596  26.671  1.00  0.00     0.075 A 
ATOM     15  N   UNL A   1      39.705  22.341  26.100  1.00  0.00    -0.233 N 
ATOM     16  N   UNL A   1      38.546  21.881  25.577  1.00  0.00    -0.163 NA
ATOM     17  C   UNL A   1      37.593  22.706  26.050  1.00  0.00     0.167 A 
ATOM     18  C   UNL A   1      38.179  23.822  26.686  1.00  0.00     0.064 A 
BRANCH  15  19
ATOM     19  C   UNL A   1      40.894  21.566  26.039  1.00  0.00     0.065 A 
ATOM     20  C   UNL A   1      43.174  20.006  25.688  1.00  0.00     0.082 A 
ATOM     21  C   UNL A   1      43.231  21.382  25.452  1.00  0.00     0.024 A 
ATOM     22  C   UNL A   1      41.997  19.411  26.152  1.00  0.00     0.024 A 
ATOM     23  C   UNL A   1      42.086  22.161  25.607  1.00  0.00     0.030 A 
ATOM     24  C   UNL A   1      40.858  20.201  26.353  1.00  0.00     0.030 A 
BRANCH  20  25
ATOM     25  S   UNL A   1      44.624  19.041  25.382  1.00  0.00     0.238 S 
ATOM     26  O   UNL A   1      45.781  19.822  25.787  1.00  0.00    -0.207 OA
ATOM     27  O   UNL A   1      44.508  18.445  24.082  1.00  0.00    -0.207 OA
BRANCH  25  28
ATOM     28  N   UNL A   1      44.528  17.791  26.496  1.00  0.00    -0.225 NA
ATOM     29  H   UNL A   1      44.274  18.168  27.410  1.00  0.00     0.137 HD
ATOM     30  H   UNL A   1      45.430  17.322  26.561  1.00  0.00     0.137 HD
ENDBRANCH  25  28
ENDBRANCH  20  25
ENDBRANCH  15  19
BRANCH  17  31
ATOM     31  C   UNL A   1      36.118  22.468  25.864  1.00  0.00     0.435 C 
ATOM     32  F   UNL A   1      35.360  23.479  26.366  1.00  0.00    -0.164 F 
ATOM     33  F   UNL A   1      35.768  22.313  24.558  1.00  0.00    -0.164 F 
ATOM     34  F   UNL A   1      35.713  21.333  26.501  1.00  0.00    -0.164 F 
ENDBRANCH  17  31
ENDBRANCH   9  14
ENDBRANCH   7   8
ENDBRANCH   4   7
ENDBRANCH   2   3
ENDBRANCH   1   2
BRANCH   1  35
ATOM     35  C   UNL A   1      43.943  32.109  27.121  1.00  0.00     0.002 C 
BRANCH  35  36
ATOM     36  C   UNL A   1      44.982  32.781  26.210  1.00  0.00     0.002 C 
BRANCH  36  37
ATOM     37  C   UNL A   1      44.460  33.897  25.295  1.00  0.00     0.021 C 
BRANCH  37  38
ATOM     38  C   UNL A   1      44.285  35.238  25.991  1.00  0.00     0.116 C 
BRANCH  38  39
ATOM     39  N   UNL A   1      45.461  35.634  26.760  1.00  0.00    -0.352 N 
ATOM     40  C   UNL A   1      45.520  36.019  28.083  1.00  0.00     0.251 C 
ATOM     41  H   UNL A   1      46.317  35.625  26.274  1.00  0.00     0.163 HD
ATOM     42  O   UNL A   1      46.461  36.683  28.505  1.00  0.00    -0.269 OA
BRANCH  40  43
ATOM     43  C   UNL A   1      44.419  35.635  28.986  1.00  0.00     0.039 A 
ATOM     44  C   UNL A   1      43.253  36.400  29.058  1.00  0.00     0.014 A 
ATOM     45  C   UNL A   1      44.556  34.479  29.750  1.00  0.00     0.014 A 
ATOM     46  C   UNL A   1      42.197  35.937  29.836  1.00  0.00     0.010 A 
ATOM     47  C   UNL A   1      43.462  33.948  30.395  1.00  0.00     0.010 A 
ATOM     48  C   UNL A   1      42.290  34.688  30.479  1.00  0.00    -0.014 A 
BRANCH  48  49
ATOM     49  C   UNL A   1      41.116  34.112  31.134  1.00  0.00     0.031 A 
ATOM     50  C   UNL A   1      41.257  33.937  32.605  1.00  0.00     0.074 A 
ATOM     51  C   UNL A   1      39.930  33.877  30.528  1.00  0.00     0.049 A 
ATOM     52  N   UNL A   1      41.348  32.820  33.247  1.00  0.00    -0.248 NA
ATOM     53  C   UNL A   1      41.467  35.125  33.446  1.00  0.00     0.031 C 
ATOM     54  C   UNL A   1      39.509  34.215  29.169  1.00  0.00     0.029 A 
ATOM     55  N   UNL A   1      38.800  33.326  31.057  1.00  0.00    -0.354 N 
ATOM     56  C   UNL A   1      41.426  33.150  34.595  1.00  0.00     0.074 A 
ATOM     57  C   UNL A   1      41.655  34.571  34.647  1.00  0.00     0.031 C 
ATOM     58  C   UNL A   1      38.173  34.052  29.053  1.00  0.00     0.029 A 
ATOM     59  C   UNL A   1      37.652  33.469  30.277  1.00  0.00     0.049 A 
ATOM     60  H   UNL A   1      38.795  32.861  31.925  1.00  0.00     0.167 HD
ATOM     61  C   UNL A   1      41.071  32.251  35.555  1.00  0.00     0.037 A 
ATOM     62  C   UNL A   1      36.379  33.133  30.624  1.00  0.00     0.037 A 
ATOM     63  C   UNL A   1      41.039  30.909  35.024  1.00  0.00     0.049 A 
ATOM     64  C   UNL A   1      36.491  32.154  31.737  1.00  0.00     0.074 A 
ATOM     65  C   UNL A   1      41.961  30.106  34.375  1.00  0.00     0.029 A 
ATOM     66  N   UNL A   1      39.814  30.344  34.762  1.00  0.00    -0.354 N 
ATOM     67  N   UNL A   1      36.894  30.925  31.573  1.00  0.00    -0.248 NA
ATOM     68  C   UNL A   1      36.591  32.668  33.096  1.00  0.00     0.031 C 
ATOM     69  C   UNL A   1      41.216  29.455  33.348  1.00  0.00     0.029 A 
ATOM     70  C   UNL A   1      39.881  29.830  33.491  1.00  0.00     0.049 A 
ATOM     71  H   UNL A   1      39.040  30.314  35.368  1.00  0.00     0.167 HD
ATOM     72  C   UNL A   1      37.707  30.678  32.665  1.00  0.00     0.074 A 
ATOM     73  C   UNL A   1      37.409  31.749  33.617  1.00  0.00     0.031 C 
ATOM     74  C   UNL A   1      38.760  29.811  32.584  1.00  0.00     0.037 A 
BRANCH  61  75
ATOM     75  C   UNL A   1      40.382  32.619  36.846  1.00  0.00     0.057 A 
ATOM     76  C   UNL A   1      39.177  33.344  36.797  1.00  0.00     0.134 A 
ATOM     77  C   UNL A   1      40.998  32.567  38.113  1.00  0.00     0.134 A 
ATOM     78  F   UNL A   1      38.496  33.475  35.648  1.00  0.00    -0.206 F 
ATOM     79  C   UNL A   1      38.676  34.044  37.901  1.00  0.00     0.040 A 
ATOM     80  C   UNL A   1      40.478  33.220  39.234  1.00  0.00     0.040 A 
ATOM     81  F   UNL A   1      42.180  31.975  38.315  1.00  0.00    -0.206 F 
ATOM     82  C   UNL A   1      39.333  33.991  39.124  1.00  0.00     0.006 A 
ENDBRANCH  61  75
BRANCH  62  83
ATOM     83  C   UNL A   1      35.061  33.677  30.197  1.00  0.00     0.057 A 
ATOM     84  C   UNL A   1      34.437  34.719  30.906  1.00  0.00     0.134 A 
ATOM     85  C   UNL A   1      34.493  33.391  28.949  1.00  0.00     0.134 A 
ATOM     86  F   UNL A   1      34.875  35.079  32.122  1.00  0.00    -0.206 F 
ATOM     87  C   UNL A   1      33.384  35.477  30.371  1.00  0.00     0.040 A 
ATOM     88  C   UNL A   1      33.441  34.137  28.401  1.00  0.00     0.040 A 
ATOM     89  F   UNL A   1      34.976  32.411  28.183  1.00  0.00    -0.206 F 
ATOM     90  C   UNL A   1      32.902  35.207  29.097  1.00  0.00     0.006 A 
ENDBRANCH  62  83
BRANCH  74  91
ATOM     91  C   UNL A   1      38.886  28.953  31.354  1.00  0.00     0.057 A 
ATOM     92  C   UNL A   1      39.407  29.393  30.127  1.00  0.00     0.134 A 
ATOM     93  C   UNL A   1      38.599  27.586  31.458  1.00  0.00     0.134 A 
ATOM     94  F   UNL A   1      39.817  30.655  29.954  1.00  0.00    -0.206 F 
ATOM     95  C   UNL A   1      39.581  28.526  29.042  1.00  0.00     0.040 A 
ATOM     96  C   UNL A   1      38.805  26.703  30.397  1.00  0.00     0.040 A 
ATOM     97  F   UNL A   1      38.150  27.076  32.616  1.00  0.00    -0.206 F 
ATOM     98  C   UNL A   1      39.285  27.173  29.179  1.00  0.00     0.006 A 
ENDBRANCH  74  91
ENDBRANCH  48  49
ENDBRANCH  40  43
ENDBRANCH  38  39
ENDBRANCH  37  38
ENDBRANCH  36  37
ENDBRANCH  35  36
ENDBRANCH   1  35
TORSDOF 19
ENDMDL
