MODEL 1
REMARK VINA RESULT:     -12.1      0.000      0.000
REMARK SMILES NC(=O)c1ccc(Nc2ccc(C(=O)NCCCCCCNC(=O)c3ccc(-c4c5nc(c(-c6c(F)cccc6F)c6ccc([nH]6)c(-c6c(F)cccc6F)c6nc(c(-c7c(F)cccc7F)c7ccc4[nH]7)C=C6)C=C5)cc3)c(Cl)c2)nn1
REMARK SMILES IDX 18 1 17 2 16 3 15 4 13 5 14 6 12 8 9 9 10 10 81 11 11 12
REMARK SMILES IDX 79 13 80 14 8 15 7 17 4 18 5 19 83 20 6 21 82 22 2 23 1 24
REMARK SMILES IDX 3 27 19 28 20 29 21 30 22 31 23 32 24 34 25 35 26 36 78 37
REMARK SMILES IDX 27 38 77 39 28 40 29 41 30 42 71 43 31 44 76 45 70 46 72 47
REMARK SMILES IDX 32 48 75 49 69 50 68 51 33 53 59 54 42 55 58 56 43 57 46 58
REMARK SMILES IDX 57 59 73 60 44 61 45 62 56 64 74 65 47 66 34 67 35 68 40 69
REMARK SMILES IDX 36 70 37 71 39 72 41 73 38 74 60 75 61 76 66 77 62 78 63 79
REMARK SMILES IDX 65 80 67 81 64 82 48 83 49 84 54 85 50 86 51 87 53 88 55 89
REMARK SMILES IDX 52 90
REMARK H PARENT 15 7 8 16 1 25 1 26 22 33 72 52 46 63
REMARK Flexibility Score: inf
ROOT
ATOM      1  C   UNL A   1      35.165  20.033  24.980  1.00  0.00     0.002 C 
ENDROOT
BRANCH   1   2
ATOM      2  C   UNL A   1      34.037  20.968  24.533  1.00  0.00     0.021 C 
BRANCH   2   3
ATOM      3  C   UNL A   1      32.701  20.686  25.234  1.00  0.00     0.116 C 
BRANCH   3   4
ATOM      4  N   UNL A   1      32.720  21.282  26.549  1.00  0.00    -0.352 N 
ATOM      5  C   UNL A   1      32.957  22.527  27.049  1.00  0.00     0.252 C 
ATOM      6  O   UNL A   1      32.986  22.574  28.286  1.00  0.00    -0.269 OA
ATOM      7  H   UNL A   1      32.510  20.629  27.256  1.00  0.00     0.163 HD
BRANCH   5   8
ATOM      8  C   UNL A   1      33.078  23.815  26.294  1.00  0.00     0.058 A 
ATOM      9  C   UNL A   1      32.846  26.361  25.007  1.00  0.00     0.041 A 
ATOM     10  C   UNL A   1      31.771  25.825  25.703  1.00  0.00     0.027 A 
ATOM     11  C   UNL A   1      34.036  25.635  24.977  1.00  0.00     0.047 A 
ATOM     12  C   UNL A   1      31.874  24.562  26.295  1.00  0.00     0.017 A 
ATOM     13  C   UNL A   1      34.181  24.418  25.674  1.00  0.00     0.055 A 
ATOM     14  Cl  UNL A   1      35.834  23.967  25.864  1.00  0.00    -0.083 Cl
BRANCH   9  15
ATOM     15  N   UNL A   1      32.841  27.693  24.553  1.00  0.00    -0.339 N 
ATOM     16  H   UNL A   1      33.644  28.244  24.697  1.00  0.00     0.168 HD
BRANCH  15  17
ATOM     17  C   UNL A   1      31.732  28.272  23.898  1.00  0.00     0.153 A 
ATOM     18  C   UNL A   1      29.566  29.385  22.639  1.00  0.00     0.150 A 
ATOM     19  C   UNL A   1      29.956  29.897  23.866  1.00  0.00     0.040 A 
ATOM     20  N   UNL A   1      30.221  28.361  22.062  1.00  0.00    -0.143 NA
ATOM     21  C   UNL A   1      31.064  29.333  24.499  1.00  0.00     0.051 A 
ATOM     22  N   UNL A   1      31.316  27.817  22.695  1.00  0.00    -0.132 NA
BRANCH  18  23
ATOM     23  C   UNL A   1      28.416  29.944  21.882  1.00  0.00     0.269 C 
ATOM     24  N   UNL A   1      27.195  29.939  22.509  1.00  0.00    -0.364 N 
ATOM     25  H   UNL A   1      26.403  30.299  22.048  1.00  0.00     0.160 HD
ATOM     26  H   UNL A   1      27.111  29.575  23.419  1.00  0.00     0.160 HD
ATOM     27  O   UNL A   1      28.530  30.410  20.753  1.00  0.00    -0.268 OA
ENDBRANCH  18  23
ENDBRANCH  15  17
ENDBRANCH   9  15
ENDBRANCH   5   8
ENDBRANCH   3   4
ENDBRANCH   2   3
ENDBRANCH   1   2
BRANCH   1  28
ATOM     28  C   UNL A   1      36.481  20.751  25.299  1.00  0.00     0.002 C 
BRANCH  28  29
ATOM     29  C   UNL A   1      37.743  19.956  24.952  1.00  0.00     0.021 C 
BRANCH  29  30
ATOM     30  C   UNL A   1      38.987  20.411  25.711  1.00  0.00     0.116 C 
BRANCH  30  31
ATOM     31  N   UNL A   1      39.947  19.324  25.844  1.00  0.00    -0.352 N 
ATOM     32  C   UNL A   1      41.305  19.385  26.027  1.00  0.00     0.251 C 
ATOM     33  H   UNL A   1      39.568  18.417  25.796  1.00  0.00     0.163 HD
ATOM     34  O   UNL A   1      42.006  18.399  25.825  1.00  0.00    -0.269 OA
BRANCH  32  35
ATOM     35  C   UNL A   1      41.919  20.652  26.468  1.00  0.00     0.039 A 
ATOM     36  C   UNL A   1      42.393  21.550  25.510  1.00  0.00     0.014 A 
ATOM     37  C   UNL A   1      42.021  20.947  27.831  1.00  0.00     0.014 A 
ATOM     38  C   UNL A   1      42.907  22.781  25.919  1.00  0.00     0.010 A 
ATOM     39  C   UNL A   1      42.468  22.200  28.232  1.00  0.00     0.010 A 
ATOM     40  C   UNL A   1      42.908  23.130  27.279  1.00  0.00    -0.014 A 
BRANCH  40  41
ATOM     41  C   UNL A   1      43.332  24.477  27.732  1.00  0.00     0.031 A 
ATOM     42  C   UNL A   1      42.305  25.521  28.060  1.00  0.00     0.074 A 
ATOM     43  C   UNL A   1      44.645  24.781  27.757  1.00  0.00     0.049 A 
ATOM     44  N   UNL A   1      42.476  26.784  28.357  1.00  0.00    -0.248 NA
ATOM     45  C   UNL A   1      40.896  25.096  28.027  1.00  0.00     0.031 C 
ATOM     46  C   UNL A   1      45.732  23.859  27.423  1.00  0.00     0.029 A 
ATOM     47  N   UNL A   1      45.285  25.956  28.055  1.00  0.00    -0.354 N 
ATOM     48  C   UNL A   1      41.202  27.306  28.535  1.00  0.00     0.074 A 
ATOM     49  C   UNL A   1      40.265  26.237  28.266  1.00  0.00     0.031 C 
ATOM     50  C   UNL A   1      46.904  24.500  27.548  1.00  0.00     0.029 A 
ATOM     51  C   UNL A   1      46.651  25.888  27.918  1.00  0.00     0.049 A 
ATOM     52  H   UNL A   1      44.812  26.771  28.340  1.00  0.00     0.167 HD
ATOM     53  C   UNL A   1      40.849  28.559  28.907  1.00  0.00     0.037 A 
ATOM     54  C   UNL A   1      47.590  26.843  28.052  1.00  0.00     0.037 A 
ATOM     55  C   UNL A   1      41.789  29.613  29.183  1.00  0.00     0.049 A 
ATOM     56  C   UNL A   1      47.167  28.239  28.415  1.00  0.00     0.074 A 
ATOM     57  C   UNL A   1      41.535  30.898  29.629  1.00  0.00     0.029 A 
ATOM     58  N   UNL A   1      43.163  29.507  29.027  1.00  0.00    -0.354 N 
ATOM     59  N   UNL A   1      45.964  28.702  28.654  1.00  0.00    -0.248 NA
ATOM     60  C   UNL A   1      48.231  29.247  28.523  1.00  0.00     0.031 C 
ATOM     61  C   UNL A   1      42.751  31.588  29.685  1.00  0.00     0.029 A 
ATOM     62  C   UNL A   1      43.767  30.718  29.328  1.00  0.00     0.049 A 
ATOM     63  H   UNL A   1      43.640  28.693  28.745  1.00  0.00     0.167 HD
ATOM     64  C   UNL A   1      46.126  30.048  28.955  1.00  0.00     0.074 A 
ATOM     65  C   UNL A   1      47.547  30.322  28.891  1.00  0.00     0.031 C 
ATOM     66  C   UNL A   1      45.183  30.975  29.252  1.00  0.00     0.037 A 
BRANCH  53  67
ATOM     67  C   UNL A   1      39.383  28.861  29.030  1.00  0.00     0.057 A 
ATOM     68  C   UNL A   1      38.694  28.701  30.239  1.00  0.00     0.134 A 
ATOM     69  C   UNL A   1      38.662  29.358  27.937  1.00  0.00     0.134 A 
ATOM     70  F   UNL A   1      39.322  28.220  31.322  1.00  0.00    -0.206 F 
ATOM     71  C   UNL A   1      37.335  29.000  30.350  1.00  0.00     0.040 A 
ATOM     72  C   UNL A   1      37.310  29.688  28.043  1.00  0.00     0.040 A 
ATOM     73  F   UNL A   1      39.261  29.542  26.751  1.00  0.00    -0.206 F 
ATOM     74  C   UNL A   1      36.641  29.503  29.251  1.00  0.00     0.006 A 
ENDBRANCH  53  67
BRANCH  54  75
ATOM     75  C   UNL A   1      49.021  26.515  27.831  1.00  0.00     0.057 A 
ATOM     76  C   UNL A   1      49.856  26.170  28.900  1.00  0.00     0.134 A 
ATOM     77  C   UNL A   1      49.592  26.544  26.552  1.00  0.00     0.134 A 
ATOM     78  F   UNL A   1      49.373  26.143  30.151  1.00  0.00    -0.206 F 
ATOM     79  C   UNL A   1      51.209  25.884  28.710  1.00  0.00     0.040 A 
ATOM     80  C   UNL A   1      50.936  26.234  26.343  1.00  0.00     0.040 A 
ATOM     81  F   UNL A   1      48.846  26.861  25.483  1.00  0.00    -0.206 F 
ATOM     82  C   UNL A   1      51.751  25.911  27.427  1.00  0.00     0.006 A 
ENDBRANCH  54  75
BRANCH  66  83
ATOM     83  C   UNL A   1      45.656  32.370  29.540  1.00  0.00     0.057 A 
ATOM     84  C   UNL A   1      45.712  33.348  28.539  1.00  0.00     0.134 A 
ATOM     85  C   UNL A   1      46.005  32.754  30.841  1.00  0.00     0.134 A 
ATOM     86  F   UNL A   1      45.405  33.040  27.270  1.00  0.00    -0.206 F 
ATOM     87  C   UNL A   1      46.113  34.655  28.819  1.00  0.00     0.040 A 
ATOM     88  C   UNL A   1      46.380  34.065  31.139  1.00  0.00     0.040 A 
ATOM     89  F   UNL A   1      45.967  31.868  31.847  1.00  0.00    -0.206 F 
ATOM     90  C   UNL A   1      46.438  35.019  30.125  1.00  0.00     0.006 A 
ENDBRANCH  66  83
ENDBRANCH  40  41
ENDBRANCH  32  35
ENDBRANCH  30  31
ENDBRANCH  29  30
ENDBRANCH  28  29
ENDBRANCH   1  28
TORSDOF 16
ENDMDL
MODEL 2
REMARK VINA RESULT:     -12.1      4.993     10.465
REMARK SMILES NC(=O)c1ccc(Nc2ccc(C(=O)NCCCCCCNC(=O)c3ccc(-c4c5nc(c(-c6c(F)cccc6F)c6ccc([nH]6)c(-c6c(F)cccc6F)c6nc(c(-c7c(F)cccc7F)c7ccc4[nH]7)C=C6)C=C5)cc3)c(Cl)c2)nn1
REMARK SMILES IDX 18 1 17 2 16 3 15 4 13 5 14 6 12 8 9 9 10 10 81 11 11 12
REMARK SMILES IDX 79 13 80 14 8 15 7 17 4 18 5 19 83 20 6 21 82 22 2 23 1 24
REMARK SMILES IDX 3 27 19 28 20 29 21 30 22 31 23 32 24 34 25 35 26 36 78 37
REMARK SMILES IDX 27 38 77 39 28 40 29 41 30 42 71 43 31 44 76 45 70 46 72 47
REMARK SMILES IDX 32 48 75 49 69 50 68 51 33 53 59 54 42 55 58 56 43 57 46 58
REMARK SMILES IDX 57 59 73 60 44 61 45 62 56 64 74 65 47 66 34 67 35 68 40 69
REMARK SMILES IDX 36 70 37 71 39 72 41 73 38 74 60 75 61 76 66 77 62 78 63 79
REMARK SMILES IDX 65 80 67 81 64 82 48 83 49 84 54 85 50 86 51 87 53 88 55 89
REMARK SMILES IDX 52 90
REMARK H PARENT 15 7 8 16 1 25 1 26 22 33 72 52 46 63
REMARK Flexibility Score: inf
ROOT
ATOM      1  C   UNL A   1      33.040  29.837  26.215  1.00  0.00     0.002 C 
ENDROOT
BRANCH   1   2
ATOM      2  C   UNL A   1      33.451  28.876  25.095  1.00  0.00     0.021 C 
BRANCH   2   3
ATOM      3  C   UNL A   1      32.323  28.595  24.093  1.00  0.00     0.116 C 
BRANCH   3   4
ATOM      4  N   UNL A   1      32.879  27.973  22.915  1.00  0.00    -0.352 N 
ATOM      5  C   UNL A   1      33.277  26.715  22.575  1.00  0.00     0.252 C 
ATOM      6  O   UNL A   1      33.822  26.644  21.466  1.00  0.00    -0.269 OA
ATOM      7  H   UNL A   1      33.001  28.616  22.178  1.00  0.00     0.163 HD
BRANCH   5   8
ATOM      8  C   UNL A   1      33.040  25.440  23.325  1.00  0.00     0.058 A 
ATOM      9  C   UNL A   1      33.083  22.984  24.792  1.00  0.00     0.041 A 
ATOM     10  C   UNL A   1      34.271  23.596  24.414  1.00  0.00     0.027 A 
ATOM     11  C   UNL A   1      31.885  23.611  24.458  1.00  0.00     0.047 A 
ATOM     12  C   UNL A   1      34.245  24.774  23.660  1.00  0.00     0.017 A 
ATOM     13  C   UNL A   1      31.858  24.860  23.804  1.00  0.00     0.055 A 
ATOM     14  Cl  UNL A   1      30.318  25.625  23.920  1.00  0.00    -0.083 Cl
BRANCH   9  15
ATOM     15  N   UNL A   1      33.067  21.902  25.693  1.00  0.00    -0.339 N 
ATOM     16  H   UNL A   1      32.972  22.091  26.655  1.00  0.00     0.168 HD
BRANCH  15  17
ATOM     17  C   UNL A   1      33.179  20.557  25.276  1.00  0.00     0.153 A 
ATOM     18  C   UNL A   1      33.398  17.955  24.446  1.00  0.00     0.150 A 
ATOM     19  C   UNL A   1      34.544  18.732  24.505  1.00  0.00     0.040 A 
ATOM     20  N   UNL A   1      32.193  18.450  24.782  1.00  0.00    -0.143 NA
ATOM     21  C   UNL A   1      34.429  20.053  24.936  1.00  0.00     0.051 A 
ATOM     22  N   UNL A   1      32.094  19.755  25.210  1.00  0.00    -0.132 NA
BRANCH  18  23
ATOM     23  C   UNL A   1      33.433  16.529  24.026  1.00  0.00     0.269 C 
ATOM     24  N   UNL A   1      32.649  15.652  24.733  1.00  0.00    -0.364 N 
ATOM     25  H   UNL A   1      32.638  14.697  24.493  1.00  0.00     0.160 HD
ATOM     26  H   UNL A   1      32.099  15.978  25.482  1.00  0.00     0.160 HD
ATOM     27  O   UNL A   1      34.110  16.133  23.083  1.00  0.00    -0.268 OA
ENDBRANCH  18  23
ENDBRANCH  15  17
ENDBRANCH   9  15
ENDBRANCH   5   8
ENDBRANCH   3   4
ENDBRANCH   2   3
ENDBRANCH   1   2
BRANCH   1  28
ATOM     28  C   UNL A   1      31.638  30.432  26.043  1.00  0.00     0.002 C 
BRANCH  28  29
ATOM     29  C   UNL A   1      31.430  31.787  26.725  1.00  0.00     0.021 C 
BRANCH  29  30
ATOM     30  C   UNL A   1      32.710  32.393  27.296  1.00  0.00     0.116 C 
BRANCH  30  31
ATOM     31  N   UNL A   1      32.559  33.825  27.518  1.00  0.00    -0.352 N 
ATOM     32  C   UNL A   1      33.148  34.621  28.466  1.00  0.00     0.251 C 
ATOM     33  H   UNL A   1      31.949  34.286  26.900  1.00  0.00     0.163 HD
ATOM     34  O   UNL A   1      32.700  35.736  28.710  1.00  0.00    -0.269 OA
BRANCH  32  35
ATOM     35  C   UNL A   1      34.330  34.123  29.196  1.00  0.00     0.039 A 
ATOM     36  C   UNL A   1      34.147  33.332  30.332  1.00  0.00     0.014 A 
ATOM     37  C   UNL A   1      35.616  34.440  28.751  1.00  0.00     0.014 A 
ATOM     38  C   UNL A   1      35.259  32.797  30.983  1.00  0.00     0.010 A 
ATOM     39  C   UNL A   1      36.719  33.851  29.358  1.00  0.00     0.010 A 
ATOM     40  C   UNL A   1      36.550  33.019  30.475  1.00  0.00    -0.014 A 
BRANCH  40  41
ATOM     41  C   UNL A   1      37.739  32.365  31.070  1.00  0.00     0.031 A 
ATOM     42  C   UNL A   1      38.440  31.260  30.335  1.00  0.00     0.074 A 
ATOM     43  C   UNL A   1      38.126  32.708  32.314  1.00  0.00     0.049 A 
ATOM     44  N   UNL A   1      39.418  30.490  30.739  1.00  0.00    -0.248 NA
ATOM     45  C   UNL A   1      37.964  30.965  28.974  1.00  0.00     0.031 C 
ATOM     46  C   UNL A   1      37.498  33.742  33.140  1.00  0.00     0.029 A 
ATOM     47  N   UNL A   1      39.126  32.209  33.109  1.00  0.00    -0.354 N 
ATOM     48  C   UNL A   1      39.666  29.614  29.690  1.00  0.00     0.074 A 
ATOM     49  C   UNL A   1      38.705  29.915  28.650  1.00  0.00     0.031 C 
ATOM     50  C   UNL A   1      38.135  33.809  34.319  1.00  0.00     0.029 A 
ATOM     51  C   UNL A   1      39.180  32.791  34.353  1.00  0.00     0.049 A 
ATOM     52  H   UNL A   1      39.745  31.502  32.818  1.00  0.00     0.167 HD
ATOM     53  C   UNL A   1      40.621  28.658  29.597  1.00  0.00     0.037 A 
ATOM     54  C   UNL A   1      39.966  32.517  35.412  1.00  0.00     0.037 A 
ATOM     55  C   UNL A   1      41.579  28.374  30.632  1.00  0.00     0.049 A 
ATOM     56  C   UNL A   1      40.984  31.417  35.300  1.00  0.00     0.074 A 
ATOM     57  C   UNL A   1      42.627  27.470  30.611  1.00  0.00     0.029 A 
ATOM     58  N   UNL A   1      41.598  28.979  31.880  1.00  0.00    -0.354 N 
ATOM     59  N   UNL A   1      41.259  30.646  34.276  1.00  0.00    -0.248 NA
ATOM     60  C   UNL A   1      41.799  31.143  36.493  1.00  0.00     0.031 C 
ATOM     61  C   UNL A   1      43.242  27.486  31.867  1.00  0.00     0.029 A 
ATOM     62  C   UNL A   1      42.614  28.439  32.652  1.00  0.00     0.049 A 
ATOM     63  H   UNL A   1      40.981  29.688  32.174  1.00  0.00     0.167 HD
ATOM     64  C   UNL A   1      42.286  29.809  34.693  1.00  0.00     0.074 A 
ATOM     65  C   UNL A   1      42.601  30.182  36.057  1.00  0.00     0.031 C 
ATOM     66  C   UNL A   1      42.909  28.817  34.011  1.00  0.00     0.037 A 
BRANCH  53  67
ATOM     67  C   UNL A   1      40.672  27.847  28.336  1.00  0.00     0.057 A 
ATOM     68  C   UNL A   1      41.411  28.259  27.219  1.00  0.00     0.134 A 
ATOM     69  C   UNL A   1      40.008  26.616  28.251  1.00  0.00     0.134 A 
ATOM     70  F   UNL A   1      42.062  29.432  27.230  1.00  0.00    -0.206 F 
ATOM     71  C   UNL A   1      41.468  27.490  26.056  1.00  0.00     0.040 A 
ATOM     72  C   UNL A   1      40.081  25.824  27.103  1.00  0.00     0.040 A 
ATOM     73  F   UNL A   1      39.288  26.157  29.285  1.00  0.00    -0.206 F 
ATOM     74  C   UNL A   1      40.807  26.264  25.999  1.00  0.00     0.006 A 
ENDBRANCH  53  67
BRANCH  54  75
ATOM     75  C   UNL A   1      39.816  33.291  36.670  1.00  0.00     0.057 A 
ATOM     76  C   UNL A   1      40.604  34.419  36.922  1.00  0.00     0.134 A 
ATOM     77  C   UNL A   1      38.890  32.918  37.653  1.00  0.00     0.134 A 
ATOM     78  F   UNL A   1      41.522  34.814  36.028  1.00  0.00    -0.206 F 
ATOM     79  C   UNL A   1      40.491  35.140  38.112  1.00  0.00     0.040 A 
ATOM     80  C   UNL A   1      38.746  33.646  38.835  1.00  0.00     0.040 A 
ATOM     81  F   UNL A   1      38.100  31.850  37.471  1.00  0.00    -0.206 F 
ATOM     82  C   UNL A   1      39.555  34.756  39.071  1.00  0.00     0.006 A 
ENDBRANCH  54  75
BRANCH  66  83
ATOM     83  C   UNL A   1      43.998  28.071  34.723  1.00  0.00     0.057 A 
ATOM     84  C   UNL A   1      45.320  28.536  34.737  1.00  0.00     0.134 A 
ATOM     85  C   UNL A   1      43.714  26.909  35.451  1.00  0.00     0.134 A 
ATOM     86  F   UNL A   1      45.661  29.635  34.047  1.00  0.00    -0.206 F 
ATOM     87  C   UNL A   1      46.322  27.862  35.436  1.00  0.00     0.040 A 
ATOM     88  C   UNL A   1      44.701  26.242  36.177  1.00  0.00     0.040 A 
ATOM     89  F   UNL A   1      42.468  26.414  35.486  1.00  0.00    -0.206 F 
ATOM     90  C   UNL A   1      46.011  26.717  36.168  1.00  0.00     0.006 A 
ENDBRANCH  66  83
ENDBRANCH  40  41
ENDBRANCH  32  35
ENDBRANCH  30  31
ENDBRANCH  29  30
ENDBRANCH  28  29
ENDBRANCH   1  28
TORSDOF 16
ENDMDL
MODEL 3
REMARK VINA RESULT:     -12.0      4.983     10.437
REMARK SMILES NC(=O)c1ccc(Nc2ccc(C(=O)NCCCCCCNC(=O)c3ccc(-c4c5nc(c(-c6c(F)cccc6F)c6ccc([nH]6)c(-c6c(F)cccc6F)c6nc(c(-c7c(F)cccc7F)c7ccc4[nH]7)C=C6)C=C5)cc3)c(Cl)c2)nn1
REMARK SMILES IDX 18 1 17 2 16 3 15 4 13 5 14 6 12 8 9 9 10 10 81 11 11 12
REMARK SMILES IDX 79 13 80 14 8 15 7 17 4 18 5 19 83 20 6 21 82 22 2 23 1 24
REMARK SMILES IDX 3 27 19 28 20 29 21 30 22 31 23 32 24 34 25 35 26 36 78 37
REMARK SMILES IDX 27 38 77 39 28 40 29 41 30 42 71 43 31 44 76 45 70 46 72 47
REMARK SMILES IDX 32 48 75 49 69 50 68 51 33 53 59 54 42 55 58 56 43 57 46 58
REMARK SMILES IDX 57 59 73 60 44 61 45 62 56 64 74 65 47 66 34 67 35 68 40 69
REMARK SMILES IDX 36 70 37 71 39 72 41 73 38 74 60 75 61 76 66 77 62 78 63 79
REMARK SMILES IDX 65 80 67 81 64 82 48 83 49 84 54 85 50 86 51 87 53 88 55 89
REMARK SMILES IDX 52 90
REMARK H PARENT 15 7 8 16 1 25 1 26 22 33 72 52 46 63
REMARK Flexibility Score: inf
ROOT
ATOM      1  C   UNL A   1      31.781  29.131  26.191  1.00  0.00     0.002 C 
ENDROOT
BRANCH   1   2
ATOM      2  C   UNL A   1      31.658  27.712  26.753  1.00  0.00     0.021 C 
BRANCH   2   3
ATOM      3  C   UNL A   1      31.000  26.727  25.777  1.00  0.00     0.116 C 
BRANCH   3   4
ATOM      4  N   UNL A   1      30.341  25.685  26.527  1.00  0.00    -0.352 N 
ATOM      5  C   UNL A   1      30.360  24.322  26.522  1.00  0.00     0.252 C 
ATOM      6  O   UNL A   1      29.525  23.806  27.276  1.00  0.00    -0.269 OA
ATOM      7  H   UNL A   1      29.727  26.048  27.206  1.00  0.00     0.163 HD
BRANCH   5   8
ATOM      8  C   UNL A   1      31.318  23.417  25.810  1.00  0.00     0.058 A 
ATOM      9  C   UNL A   1      33.241  21.504  24.900  1.00  0.00     0.041 A 
ATOM     10  C   UNL A   1      32.967  21.634  26.255  1.00  0.00     0.027 A 
ATOM     11  C   UNL A   1      32.538  22.312  24.007  1.00  0.00     0.047 A 
ATOM     12  C   UNL A   1      32.058  22.599  26.699  1.00  0.00     0.017 A 
ATOM     13  C   UNL A   1      31.534  23.200  24.443  1.00  0.00     0.055 A 
ATOM     14  Cl  UNL A   1      30.519  23.722  23.151  1.00  0.00    -0.083 Cl
BRANCH   9  15
ATOM     15  N   UNL A   1      34.011  20.435  24.402  1.00  0.00    -0.339 N 
ATOM     16  H   UNL A   1      34.798  20.640  23.847  1.00  0.00     0.168 HD
BRANCH  15  17
ATOM     17  C   UNL A   1      33.703  19.083  24.667  1.00  0.00     0.153 A 
ATOM     18  C   UNL A   1      33.099  16.456  25.158  1.00  0.00     0.150 A 
ATOM     19  C   UNL A   1      34.331  16.761  24.603  1.00  0.00     0.040 A 
ATOM     20  N   UNL A   1      32.201  17.414  25.453  1.00  0.00    -0.143 NA
ATOM     21  C   UNL A   1      34.638  18.100  24.363  1.00  0.00     0.051 A 
ATOM     22  N   UNL A   1      32.518  18.732  25.215  1.00  0.00    -0.132 NA
BRANCH  18  23
ATOM     23  C   UNL A   1      32.701  15.058  25.474  1.00  0.00     0.269 C 
ATOM     24  N   UNL A   1      31.385  14.843  25.799  1.00  0.00    -0.364 N 
ATOM     25  H   UNL A   1      31.073  13.935  26.016  1.00  0.00     0.160 HD
ATOM     26  H   UNL A   1      30.753  15.598  25.816  1.00  0.00     0.160 HD
ATOM     27  O   UNL A   1      33.490  14.120  25.437  1.00  0.00    -0.268 OA
ENDBRANCH  18  23
ENDBRANCH  15  17
ENDBRANCH   9  15
ENDBRANCH   5   8
ENDBRANCH   3   4
ENDBRANCH   2   3
ENDBRANCH   1   2
BRANCH   1  28
ATOM     28  C   UNL A   1      32.651  30.065  27.040  1.00  0.00     0.002 C 
BRANCH  28  29
ATOM     29  C   UNL A   1      32.144  31.508  27.128  1.00  0.00     0.021 C 
BRANCH  29  30
ATOM     30  C   UNL A   1      33.244  32.557  26.992  1.00  0.00     0.116 C 
BRANCH  30  31
ATOM     31  N   UNL A   1      32.831  33.828  27.572  1.00  0.00    -0.352 N 
ATOM     32  C   UNL A   1      33.211  34.405  28.756  1.00  0.00     0.251 C 
ATOM     33  H   UNL A   1      32.187  34.346  27.037  1.00  0.00     0.163 HD
ATOM     34  O   UNL A   1      32.559  35.325  29.239  1.00  0.00    -0.269 OA
BRANCH  32  35
ATOM     35  C   UNL A   1      34.415  33.907  29.448  1.00  0.00     0.039 A 
ATOM     36  C   UNL A   1      34.273  32.982  30.484  1.00  0.00     0.014 A 
ATOM     37  C   UNL A   1      35.682  34.359  29.068  1.00  0.00     0.014 A 
ATOM     38  C   UNL A   1      35.411  32.452  31.093  1.00  0.00     0.010 A 
ATOM     39  C   UNL A   1      36.815  33.780  29.627  1.00  0.00     0.010 A 
ATOM     40  C   UNL A   1      36.689  32.817  30.639  1.00  0.00    -0.014 A 
BRANCH  40  41
ATOM     41  C   UNL A   1      37.913  32.180  31.181  1.00  0.00     0.031 A 
ATOM     42  C   UNL A   1      38.587  31.073  30.423  1.00  0.00     0.074 A 
ATOM     43  C   UNL A   1      38.359  32.541  32.400  1.00  0.00     0.049 A 
ATOM     44  N   UNL A   1      39.591  30.316  30.785  1.00  0.00    -0.248 NA
ATOM     45  C   UNL A   1      38.045  30.758  29.091  1.00  0.00     0.031 C 
ATOM     46  C   UNL A   1      37.764  33.579  33.244  1.00  0.00     0.029 A 
ATOM     47  N   UNL A   1      39.403  32.060  33.149  1.00  0.00    -0.354 N 
ATOM     48  C   UNL A   1      39.794  29.431  29.735  1.00  0.00     0.074 A 
ATOM     49  C   UNL A   1      38.780  29.711  28.742  1.00  0.00     0.031 C 
ATOM     50  C   UNL A   1      38.459  33.665  34.389  1.00  0.00     0.029 A 
ATOM     51  C   UNL A   1      39.514  32.657  34.382  1.00  0.00     0.049 A 
ATOM     52  H   UNL A   1      40.013  31.355  32.834  1.00  0.00     0.167 HD
ATOM     53  C   UNL A   1      40.752  28.483  29.605  1.00  0.00     0.037 A 
ATOM     54  C   UNL A   1      40.355  32.402  35.402  1.00  0.00     0.037 A 
ATOM     55  C   UNL A   1      41.764  28.219  30.593  1.00  0.00     0.049 A 
ATOM     56  C   UNL A   1      41.377  31.310  35.251  1.00  0.00     0.074 A 
ATOM     57  C   UNL A   1      42.818  27.324  30.529  1.00  0.00     0.029 A 
ATOM     58  N   UNL A   1      41.840  28.839  31.832  1.00  0.00    -0.354 N 
ATOM     59  N   UNL A   1      41.607  30.529  34.223  1.00  0.00    -0.248 NA
ATOM     60  C   UNL A   1      42.253  31.057  36.404  1.00  0.00     0.031 C 
ATOM     61  C   UNL A   1      43.496  27.360  31.752  1.00  0.00     0.029 A 
ATOM     62  C   UNL A   1      42.899  28.316  32.557  1.00  0.00     0.049 A 
ATOM     63  H   UNL A   1      41.233  29.545  32.149  1.00  0.00     0.167 HD
ATOM     64  C   UNL A   1      42.662  29.706  34.597  1.00  0.00     0.074 A 
ATOM     65  C   UNL A   1      43.041  30.098  35.939  1.00  0.00     0.031 C 
ATOM     66  C   UNL A   1      43.258  28.713  33.895  1.00  0.00     0.037 A 
BRANCH  53  67
ATOM     67  C   UNL A   1      40.748  27.657  28.351  1.00  0.00     0.057 A 
ATOM     68  C   UNL A   1      41.485  28.026  27.218  1.00  0.00     0.134 A 
ATOM     69  C   UNL A   1      40.030  26.455  28.290  1.00  0.00     0.134 A 
ATOM     70  F   UNL A   1      42.185  29.170  27.206  1.00  0.00    -0.206 F 
ATOM     71  C   UNL A   1      41.489  27.244  26.062  1.00  0.00     0.040 A 
ATOM     72  C   UNL A   1      40.050  25.650  27.151  1.00  0.00     0.040 A 
ATOM     73  F   UNL A   1      39.309  26.037  29.341  1.00  0.00    -0.206 F 
ATOM     74  C   UNL A   1      40.776  26.047  26.030  1.00  0.00     0.006 A 
ENDBRANCH  53  67
BRANCH  54  75
ATOM     75  C   UNL A   1      40.261  33.188  36.658  1.00  0.00     0.057 A 
ATOM     76  C   UNL A   1      39.339  32.849  37.654  1.00  0.00     0.134 A 
ATOM     77  C   UNL A   1      41.083  34.299  36.891  1.00  0.00     0.134 A 
ATOM     78  F   UNL A   1      38.511  31.808  37.480  1.00  0.00    -0.206 F 
ATOM     79  C   UNL A   1      39.223  33.595  38.828  1.00  0.00     0.040 A 
ATOM     80  C   UNL A   1      40.997  35.037  38.072  1.00  0.00     0.040 A 
ATOM     81  F   UNL A   1      41.992  34.674  35.979  1.00  0.00    -0.206 F 
ATOM     82  C   UNL A   1      40.057  34.690  39.042  1.00  0.00     0.006 A 
ENDBRANCH  54  75
BRANCH  66  83
ATOM     83  C   UNL A   1      44.390  27.984  34.560  1.00  0.00     0.057 A 
ATOM     84  C   UNL A   1      44.182  26.792  35.265  1.00  0.00     0.134 A 
ATOM     85  C   UNL A   1      45.706  28.449  34.446  1.00  0.00     0.134 A 
ATOM     86  F   UNL A   1      42.943  26.302  35.423  1.00  0.00    -0.206 F 
ATOM     87  C   UNL A   1      45.243  26.095  35.846  1.00  0.00     0.040 A 
ATOM     88  C   UNL A   1      46.778  27.746  34.998  1.00  0.00     0.040 A 
ATOM     89  F   UNL A   1      45.975  29.580  33.778  1.00  0.00    -0.206 F 
ATOM     90  C   UNL A   1      46.547  26.567  35.704  1.00  0.00     0.006 A 
ENDBRANCH  66  83
ENDBRANCH  40  41
ENDBRANCH  32  35
ENDBRANCH  30  31
ENDBRANCH  29  30
ENDBRANCH  28  29
ENDBRANCH   1  28
TORSDOF 16
ENDMDL
