MODEL 1
REMARK VINA RESULT:     -12.3      0.000      0.000
REMARK SMILES Cc1cc(=O)c(Oc2ccc(C(=O)NCCCCCCNC(=O)c3ccc(-c4c5nc(c(-c6c(F)cccc6F)c6ccc([nH]6)c(-c6c(F)cccc6F)c6nc(c(-c7c(F)cccc7F)c7ccc4[nH]7)C=C6)C=C5)cc3)cc2)c(-c2ccc(S(C)(=O)=O)cc2)o1
REMARK SMILES IDX 16 1 15 2 14 3 12 4 13 5 11 7 8 8 9 9 79 10 10 11 78 12 7 13
REMARK SMILES IDX 6 14 1 15 2 16 3 17 91 18 4 19 80 20 5 21 81 22 82 23 90 24
REMARK SMILES IDX 83 25 89 26 84 27 85 28 86 29 87 30 88 31 17 32 18 33 19 34
REMARK SMILES IDX 20 35 21 36 22 37 23 39 24 40 25 41 77 42 26 43 76 44 27 45
REMARK SMILES IDX 28 46 29 47 70 48 30 49 75 50 69 51 71 52 31 53 74 54 68 55
REMARK SMILES IDX 67 56 32 58 58 59 41 60 57 61 42 62 45 63 56 64 72 65 43 66
REMARK SMILES IDX 44 67 55 69 73 70 46 71 33 72 34 73 39 74 35 75 36 76 38 77
REMARK SMILES IDX 40 78 37 79 59 80 60 81 65 82 61 83 62 84 64 85 66 86 63 87
REMARK SMILES IDX 47 88 48 89 53 90 49 91 50 92 52 93 54 94 51 95
REMARK H PARENT 14 6 21 38 71 57 45 68
REMARK Flexibility Score: inf
ROOT
ATOM      1  C   UNL A   1      35.782  31.906  27.982  1.00  0.00     0.021 C 
ENDROOT
BRANCH   1   2
ATOM      2  C   UNL A   1      34.558  31.000  27.879  1.00  0.00     0.116 C 
BRANCH   2   3
ATOM      3  N   UNL A   1      33.375  31.596  27.292  1.00  0.00    -0.352 N 
ATOM      4  C   UNL A   1      32.273  31.013  26.701  1.00  0.00     0.251 C 
ATOM      5  O   UNL A   1      31.318  31.721  26.392  1.00  0.00    -0.269 OA
ATOM      6  H   UNL A   1      33.353  32.580  27.319  1.00  0.00     0.163 HD
BRANCH   4   7
ATOM      7  C   UNL A   1      32.261  29.575  26.318  1.00  0.00     0.040 A 
ATOM      8  C   UNL A   1      32.813  26.869  25.990  1.00  0.00     0.127 A 
ATOM      9  C   UNL A   1      33.444  27.792  25.165  1.00  0.00     0.048 A 
ATOM     10  C   UNL A   1      31.741  27.267  26.787  1.00  0.00     0.048 A 
ATOM     11  C   UNL A   1      33.197  29.154  25.359  1.00  0.00     0.017 A 
ATOM     12  C   UNL A   1      31.440  28.622  26.919  1.00  0.00     0.017 A 
BRANCH   8  13
ATOM     13  O   UNL A   1      33.140  25.547  26.016  1.00  0.00    -0.449 OA
BRANCH  13  14
ATOM     14  C   UNL A   1      32.833  24.652  24.997  1.00  0.00     0.217 A 
ATOM     15  C   UNL A   1      32.067  21.409  22.243  1.00  0.00     0.088 C 
ATOM     16  C   UNL A   1      32.446  22.485  23.207  1.00  0.00     0.105 A 
ATOM     17  C   UNL A   1      33.396  22.318  24.129  1.00  0.00     0.098 A 
ATOM     18  O   UNL A   1      31.748  23.665  23.068  1.00  0.00    -0.457 OA
ATOM     19  C   UNL A   1      33.676  23.414  25.065  1.00  0.00     0.228 A 
ATOM     20  C   UNL A   1      31.959  24.719  23.956  1.00  0.00     0.180 A 
ATOM     21  O   UNL A   1      34.592  23.287  25.875  1.00  0.00    -0.285 OA
BRANCH  20  22
ATOM     22  C   UNL A   1      31.085  25.849  23.582  1.00  0.00     0.021 A 
ATOM     23  C   UNL A   1      29.784  25.927  24.112  1.00  0.00     0.013 A 
ATOM     24  C   UNL A   1      31.513  26.835  22.683  1.00  0.00     0.013 A 
ATOM     25  C   UNL A   1      28.959  27.017  23.820  1.00  0.00     0.021 A 
ATOM     26  C   UNL A   1      30.685  27.922  22.376  1.00  0.00     0.021 A 
ATOM     27  C   UNL A   1      29.418  28.013  22.955  1.00  0.00     0.067 A 
BRANCH  27  28
ATOM     28  S   UNL A   1      28.405  29.449  22.675  1.00  0.00     0.175 S 
ATOM     29  C   UNL A   1      29.176  30.704  23.657  1.00  0.00     0.163 C 
ATOM     30  O   UNL A   1      28.556  29.821  21.284  1.00  0.00    -0.224 OA
ATOM     31  O   UNL A   1      27.096  29.193  23.252  1.00  0.00    -0.224 OA
ENDBRANCH  27  28
ENDBRANCH  20  22
ENDBRANCH  13  14
ENDBRANCH   8  13
ENDBRANCH   4   7
ENDBRANCH   2   3
ENDBRANCH   1   2
BRANCH   1  32
ATOM     32  C   UNL A   1      35.649  33.180  28.814  1.00  0.00     0.002 C 
BRANCH  32  33
ATOM     33  C   UNL A   1      35.313  34.467  28.058  1.00  0.00     0.002 C 
BRANCH  33  34
ATOM     34  C   UNL A   1      34.207  35.336  28.653  1.00  0.00     0.021 C 
BRANCH  34  35
ATOM     35  C   UNL A   1      33.245  34.631  29.598  1.00  0.00     0.116 C 
BRANCH  35  36
ATOM     36  N   UNL A   1      32.588  35.527  30.537  1.00  0.00    -0.352 N 
ATOM     37  C   UNL A   1      32.858  35.739  31.871  1.00  0.00     0.251 C 
ATOM     38  H   UNL A   1      31.845  36.057  30.167  1.00  0.00     0.163 HD
ATOM     39  O   UNL A   1      32.126  36.453  32.548  1.00  0.00    -0.269 OA
BRANCH  37  40
ATOM     40  C   UNL A   1      34.018  35.067  32.500  1.00  0.00     0.039 A 
ATOM     41  C   UNL A   1      35.287  35.645  32.448  1.00  0.00     0.014 A 
ATOM     42  C   UNL A   1      33.844  33.822  33.112  1.00  0.00     0.014 A 
ATOM     43  C   UNL A   1      36.399  34.900  32.824  1.00  0.00     0.010 A 
ATOM     44  C   UNL A   1      34.956  33.118  33.588  1.00  0.00     0.010 A 
ATOM     45  C   UNL A   1      36.251  33.625  33.397  1.00  0.00    -0.014 A 
BRANCH  45  46
ATOM     46  C   UNL A   1      37.466  32.851  33.770  1.00  0.00     0.031 A 
ATOM     47  C   UNL A   1      38.043  31.814  32.838  1.00  0.00     0.074 A 
ATOM     48  C   UNL A   1      38.103  33.142  34.922  1.00  0.00     0.049 A 
ATOM     49  N   UNL A   1      39.113  31.073  32.988  1.00  0.00    -0.248 NA
ATOM     50  C   UNL A   1      37.326  31.577  31.575  1.00  0.00     0.031 C 
ATOM     51  C   UNL A   1      37.661  34.136  35.904  1.00  0.00     0.029 A 
ATOM     52  N   UNL A   1      39.273  32.656  35.450  1.00  0.00    -0.354 N 
ATOM     53  C   UNL A   1      39.196  30.285  31.845  1.00  0.00     0.074 A 
ATOM     54  C   UNL A   1      38.043  30.602  31.033  1.00  0.00     0.031 C 
ATOM     55  C   UNL A   1      38.575  34.228  36.881  1.00  0.00     0.029 A 
ATOM     56  C   UNL A   1      39.628  33.248  36.639  1.00  0.00     0.049 A 
ATOM     57  H   UNL A   1      39.807  31.951  35.019  1.00  0.00     0.167 HD
ATOM     58  C   UNL A   1      40.157  29.395  31.492  1.00  0.00     0.037 A 
ATOM     59  C   UNL A   1      40.671  33.014  37.455  1.00  0.00     0.037 A 
ATOM     60  C   UNL A   1      41.306  29.075  32.301  1.00  0.00     0.049 A 
ATOM     61  C   UNL A   1      41.665  31.950  37.080  1.00  0.00     0.074 A 
ATOM     62  C   UNL A   1      42.325  28.175  32.037  1.00  0.00     0.029 A 
ATOM     63  N   UNL A   1      41.589  29.645  33.533  1.00  0.00    -0.354 N 
ATOM     64  N   UNL A   1      41.733  31.223  35.993  1.00  0.00    -0.248 NA
ATOM     65  C   UNL A   1      42.726  31.670  38.058  1.00  0.00     0.031 C 
ATOM     66  C   UNL A   1      43.200  28.169  33.129  1.00  0.00     0.029 A 
ATOM     67  C   UNL A   1      42.756  29.103  34.048  1.00  0.00     0.049 A 
ATOM     68  H   UNL A   1      41.042  30.333  33.977  1.00  0.00     0.167 HD
ATOM     69  C   UNL A   1      42.857  30.423  36.142  1.00  0.00     0.074 A 
ATOM     70  C   UNL A   1      43.456  30.775  37.411  1.00  0.00     0.031 C 
ATOM     71  C   UNL A   1      43.348  29.474  35.307  1.00  0.00     0.037 A 
BRANCH  58  72
ATOM     72  C   UNL A   1      40.003  28.694  30.171  1.00  0.00     0.057 A 
ATOM     73  C   UNL A   1      39.289  27.493  30.073  1.00  0.00     0.134 A 
ATOM     74  C   UNL A   1      40.601  29.186  29.003  1.00  0.00     0.134 A 
ATOM     75  F   UNL A   1      38.700  26.958  31.152  1.00  0.00    -0.206 F 
ATOM     76  C   UNL A   1      39.178  26.805  28.862  1.00  0.00     0.040 A 
ATOM     77  C   UNL A   1      40.475  28.522  27.781  1.00  0.00     0.040 A 
ATOM     78  F   UNL A   1      41.291  30.336  29.025  1.00  0.00    -0.206 F 
ATOM     79  C   UNL A   1      39.766  27.324  27.710  1.00  0.00     0.006 A 
ENDBRANCH  58  72
BRANCH  59  80
ATOM     80  C   UNL A   1      40.825  33.767  38.728  1.00  0.00     0.057 A 
ATOM     81  C   UNL A   1      41.651  34.894  38.813  1.00  0.00     0.134 A 
ATOM     82  C   UNL A   1      40.091  33.420  39.869  1.00  0.00     0.134 A 
ATOM     83  F   UNL A   1      42.386  35.278  37.759  1.00  0.00    -0.206 F 
ATOM     84  C   UNL A   1      41.736  35.653  39.980  1.00  0.00     0.040 A 
ATOM     85  C   UNL A   1      40.138  34.190  41.031  1.00  0.00     0.040 A 
ATOM     86  F   UNL A   1      39.266  32.361  39.846  1.00  0.00    -0.206 F 
ATOM     87  C   UNL A   1      40.963  35.312  41.088  1.00  0.00     0.006 A 
ENDBRANCH  59  80
BRANCH  71  88
ATOM     88  C   UNL A   1      44.621  28.794  35.725  1.00  0.00     0.057 A 
ATOM     89  C   UNL A   1      44.583  27.637  36.514  1.00  0.00     0.134 A 
ATOM     90  C   UNL A   1      45.881  29.277  35.347  1.00  0.00     0.134 A 
ATOM     91  F   UNL A   1      43.411  27.125  36.918  1.00  0.00    -0.206 F 
ATOM     92  C   UNL A   1      45.752  26.983  36.906  1.00  0.00     0.040 A 
ATOM     93  C   UNL A   1      47.054  28.612  35.706  1.00  0.00     0.040 A 
ATOM     94  F   UNL A   1      45.987  30.371  34.576  1.00  0.00    -0.206 F 
ATOM     95  C   UNL A   1      46.991  27.464  36.492  1.00  0.00     0.006 A 
ENDBRANCH  71  88
ENDBRANCH  45  46
ENDBRANCH  37  40
ENDBRANCH  35  36
ENDBRANCH  34  35
ENDBRANCH  33  34
ENDBRANCH  32  33
ENDBRANCH   1  32
TORSDOF 17
ENDMDL
MODEL 2
REMARK VINA RESULT:     -12.2      0.365      5.891
REMARK SMILES Cc1cc(=O)c(Oc2ccc(C(=O)NCCCCCCNC(=O)c3ccc(-c4c5nc(c(-c6c(F)cccc6F)c6ccc([nH]6)c(-c6c(F)cccc6F)c6nc(c(-c7c(F)cccc7F)c7ccc4[nH]7)C=C6)C=C5)cc3)cc2)c(-c2ccc(S(C)(=O)=O)cc2)o1
REMARK SMILES IDX 16 1 15 2 14 3 12 4 13 5 11 7 8 8 9 9 79 10 10 11 78 12 7 13
REMARK SMILES IDX 6 14 1 15 2 16 3 17 91 18 4 19 80 20 5 21 81 22 82 23 90 24
REMARK SMILES IDX 83 25 89 26 84 27 85 28 86 29 87 30 88 31 17 32 18 33 19 34
REMARK SMILES IDX 20 35 21 36 22 37 23 39 24 40 25 41 77 42 26 43 76 44 27 45
REMARK SMILES IDX 28 46 29 47 70 48 30 49 75 50 69 51 71 52 31 53 74 54 68 55
REMARK SMILES IDX 67 56 32 58 58 59 41 60 57 61 42 62 45 63 56 64 72 65 43 66
REMARK SMILES IDX 44 67 55 69 73 70 46 71 33 72 34 73 39 74 35 75 36 76 38 77
REMARK SMILES IDX 40 78 37 79 59 80 60 81 65 82 61 83 62 84 64 85 66 86 63 87
REMARK SMILES IDX 47 88 48 89 53 90 49 91 50 92 52 93 54 94 51 95
REMARK H PARENT 14 6 21 38 71 57 45 68
REMARK Flexibility Score: inf
ROOT
ATOM      1  C   UNL A   1      35.616  31.984  27.970  1.00  0.00     0.021 C 
ENDROOT
BRANCH   1   2
ATOM      2  C   UNL A   1      34.397  31.069  27.890  1.00  0.00     0.116 C 
BRANCH   2   3
ATOM      3  N   UNL A   1      33.220  31.635  27.263  1.00  0.00    -0.352 N 
ATOM      4  C   UNL A   1      32.159  31.024  26.627  1.00  0.00     0.251 C 
ATOM      5  O   UNL A   1      31.195  31.705  26.287  1.00  0.00    -0.269 OA
ATOM      6  H   UNL A   1      33.168  32.617  27.296  1.00  0.00     0.163 HD
BRANCH   4   7
ATOM      7  C   UNL A   1      32.204  29.589  26.234  1.00  0.00     0.040 A 
ATOM      8  C   UNL A   1      32.871  26.914  25.874  1.00  0.00     0.127 A 
ATOM      9  C   UNL A   1      33.440  27.870  25.042  1.00  0.00     0.048 A 
ATOM     10  C   UNL A   1      31.802  27.257  26.699  1.00  0.00     0.048 A 
ATOM     11  C   UNL A   1      33.135  29.218  25.251  1.00  0.00     0.017 A 
ATOM     12  C   UNL A   1      31.442  28.596  26.848  1.00  0.00     0.017 A 
BRANCH   8  13
ATOM     13  O   UNL A   1      33.259  25.608  25.883  1.00  0.00    -0.449 OA
BRANCH  13  14
ATOM     14  C   UNL A   1      32.910  24.689  24.901  1.00  0.00     0.217 A 
ATOM     15  C   UNL A   1      32.036  21.379  22.259  1.00  0.00     0.088 C 
ATOM     16  C   UNL A   1      32.453  22.480  23.180  1.00  0.00     0.105 A 
ATOM     17  C   UNL A   1      33.447  22.338  24.060  1.00  0.00     0.098 A 
ATOM     18  O   UNL A   1      31.742  23.652  23.048  1.00  0.00    -0.457 OA
ATOM     19  C   UNL A   1      33.764  23.457  24.956  1.00  0.00     0.228 A 
ATOM     20  C   UNL A   1      31.988  24.727  23.901  1.00  0.00     0.180 A 
ATOM     21  O   UNL A   1      34.718  23.354  25.724  1.00  0.00    -0.285 OA
BRANCH  20  22
ATOM     22  C   UNL A   1      31.089  25.843  23.544  1.00  0.00     0.021 A 
ATOM     23  C   UNL A   1      29.822  25.935  24.145  1.00  0.00     0.013 A 
ATOM     24  C   UNL A   1      31.462  26.803  22.592  1.00  0.00     0.013 A 
ATOM     25  C   UNL A   1      28.977  27.014  23.868  1.00  0.00     0.021 A 
ATOM     26  C   UNL A   1      30.614  27.877  22.300  1.00  0.00     0.021 A 
ATOM     27  C   UNL A   1      29.382  27.984  22.948  1.00  0.00     0.067 A 
BRANCH  27  28
ATOM     28  S   UNL A   1      28.349  29.410  22.684  1.00  0.00     0.175 S 
ATOM     29  C   UNL A   1      29.144  30.683  23.621  1.00  0.00     0.163 C 
ATOM     30  O   UNL A   1      28.450  29.762  21.283  1.00  0.00    -0.224 OA
ATOM     31  O   UNL A   1      27.062  29.152  23.308  1.00  0.00    -0.224 OA
ENDBRANCH  27  28
ENDBRANCH  20  22
ENDBRANCH  13  14
ENDBRANCH   8  13
ENDBRANCH   4   7
ENDBRANCH   2   3
ENDBRANCH   1   2
BRANCH   1  32
ATOM     32  C   UNL A   1      35.545  33.174  28.925  1.00  0.00     0.002 C 
BRANCH  32  33
ATOM     33  C   UNL A   1      34.937  34.465  28.375  1.00  0.00     0.002 C 
BRANCH  33  34
ATOM     34  C   UNL A   1      33.564  34.856  28.918  1.00  0.00     0.021 C 
BRANCH  34  35
ATOM     35  C   UNL A   1      33.520  36.121  29.763  1.00  0.00     0.116 C 
BRANCH  35  36
ATOM     36  N   UNL A   1      32.457  36.123  30.755  1.00  0.00    -0.352 N 
ATOM     37  C   UNL A   1      32.446  35.577  32.020  1.00  0.00     0.251 C 
ATOM     38  H   UNL A   1      31.627  36.580  30.485  1.00  0.00     0.163 HD
ATOM     39  O   UNL A   1      31.416  35.572  32.687  1.00  0.00    -0.269 OA
BRANCH  37  40
ATOM     40  C   UNL A   1      33.677  34.955  32.560  1.00  0.00     0.039 A 
ATOM     41  C   UNL A   1      34.881  35.659  32.573  1.00  0.00     0.014 A 
ATOM     42  C   UNL A   1      33.636  33.636  33.021  1.00  0.00     0.014 A 
ATOM     43  C   UNL A   1      36.067  34.990  32.853  1.00  0.00     0.010 A 
ATOM     44  C   UNL A   1      34.820  32.995  33.406  1.00  0.00     0.010 A 
ATOM     45  C   UNL A   1      36.055  33.649  33.272  1.00  0.00    -0.014 A 
BRANCH  45  46
ATOM     46  C   UNL A   1      37.347  32.962  33.547  1.00  0.00     0.031 A 
ATOM     47  C   UNL A   1      38.106  33.219  34.824  1.00  0.00     0.074 A 
ATOM     48  C   UNL A   1      37.797  32.037  32.676  1.00  0.00     0.049 A 
ATOM     49  N   UNL A   1      39.228  32.684  35.240  1.00  0.00    -0.248 NA
ATOM     50  C   UNL A   1      37.537  34.206  35.756  1.00  0.00     0.031 C 
ATOM     51  C   UNL A   1      37.148  31.680  31.411  1.00  0.00     0.029 A 
ATOM     52  N   UNL A   1      38.888  31.206  32.731  1.00  0.00    -0.354 N 
ATOM     53  C   UNL A   1      39.496  33.266  36.474  1.00  0.00     0.074 A 
ATOM     54  C   UNL A   1      38.448  34.232  36.718  1.00  0.00     0.031 C 
ATOM     55  C   UNL A   1      37.817  30.667  30.842  1.00  0.00     0.029 A 
ATOM     56  C   UNL A   1      38.984  30.352  31.658  1.00  0.00     0.049 A 
ATOM     57  H   UNL A   1      39.540  31.221  33.468  1.00  0.00     0.167 HD
ATOM     58  C   UNL A   1      40.510  33.006  37.336  1.00  0.00     0.037 A 
ATOM     59  C   UNL A   1      39.919  29.434  31.352  1.00  0.00     0.037 A 
ATOM     60  C   UNL A   1      41.558  32.046  37.095  1.00  0.00     0.049 A 
ATOM     61  C   UNL A   1      41.083  29.242  32.284  1.00  0.00     0.074 A 
ATOM     62  C   UNL A   1      42.637  31.724  37.901  1.00  0.00     0.029 A 
ATOM     63  N   UNL A   1      41.658  31.254  35.961  1.00  0.00    -0.354 N 
ATOM     64  N   UNL A   1      41.315  29.793  33.449  1.00  0.00    -0.248 NA
ATOM     65  C   UNL A   1      42.122  28.298  31.848  1.00  0.00     0.031 C 
ATOM     66  C   UNL A   1      43.413  30.769  37.234  1.00  0.00     0.029 A 
ATOM     67  C   UNL A   1      42.789  30.457  36.039  1.00  0.00     0.049 A 
ATOM     68  H   UNL A   1      41.019  31.257  35.211  1.00  0.00     0.167 HD
ATOM     69  C   UNL A   1      42.507  29.243  33.898  1.00  0.00     0.074 A 
ATOM     70  C   UNL A   1      42.935  28.294  32.893  1.00  0.00     0.031 C 
ATOM     71  C   UNL A   1      43.194  29.505  35.037  1.00  0.00     0.037 A 
BRANCH  58  72
ATOM     72  C   UNL A   1      40.541  33.778  38.626  1.00  0.00     0.057 A 
ATOM     73  C   UNL A   1      41.375  34.893  38.778  1.00  0.00     0.134 A 
ATOM     74  C   UNL A   1      39.776  33.390  39.734  1.00  0.00     0.134 A 
ATOM     75  F   UNL A   1      42.143  35.314  37.762  1.00  0.00    -0.206 F 
ATOM     76  C   UNL A   1      41.450  35.592  39.985  1.00  0.00     0.040 A 
ATOM     77  C   UNL A   1      39.822  34.096  40.938  1.00  0.00     0.040 A 
ATOM     78  F   UNL A   1      38.949  32.337  39.655  1.00  0.00    -0.206 F 
ATOM     79  C   UNL A   1      40.666  35.198  41.068  1.00  0.00     0.006 A 
ENDBRANCH  58  72
BRANCH  59  80
ATOM     80  C   UNL A   1      39.828  28.646  30.095  1.00  0.00     0.057 A 
ATOM     81  C   UNL A   1      40.449  29.080  28.917  1.00  0.00     0.134 A 
ATOM     82  C   UNL A   1      39.182  27.404  30.062  1.00  0.00     0.134 A 
ATOM     83  F   UNL A   1      41.079  30.262  28.877  1.00  0.00    -0.206 F 
ATOM     84  C   UNL A   1      40.438  28.305  27.757  1.00  0.00     0.040 A 
ATOM     85  C   UNL A   1      39.195  26.603  28.921  1.00  0.00     0.040 A 
ATOM     86  F   UNL A   1      38.585  26.924  31.164  1.00  0.00    -0.206 F 
ATOM     87  C   UNL A   1      39.825  27.054  27.763  1.00  0.00     0.006 A 
ENDBRANCH  59  80
BRANCH  71  88
ATOM     88  C   UNL A   1      44.449  28.713  35.271  1.00  0.00     0.057 A 
ATOM     89  C   UNL A   1      45.686  29.188  34.816  1.00  0.00     0.134 A 
ATOM     90  C   UNL A   1      44.438  27.486  35.949  1.00  0.00     0.134 A 
ATOM     91  F   UNL A   1      45.767  30.352  34.154  1.00  0.00    -0.206 F 
ATOM     92  C   UNL A   1      46.865  28.474  35.030  1.00  0.00     0.040 A 
ATOM     93  C   UNL A   1      45.616  26.780  36.198  1.00  0.00     0.040 A 
ATOM     94  F   UNL A   1      43.289  26.984  36.427  1.00  0.00    -0.206 F 
ATOM     95  C   UNL A   1      46.833  27.273  35.733  1.00  0.00     0.006 A 
ENDBRANCH  71  88
ENDBRANCH  45  46
ENDBRANCH  37  40
ENDBRANCH  35  36
ENDBRANCH  34  35
ENDBRANCH  33  34
ENDBRANCH  32  33
ENDBRANCH   1  32
TORSDOF 17
ENDMDL
MODEL 3
REMARK VINA RESULT:     -11.7      2.408      4.366
REMARK SMILES Cc1cc(=O)c(Oc2ccc(C(=O)NCCCCCCNC(=O)c3ccc(-c4c5nc(c(-c6c(F)cccc6F)c6ccc([nH]6)c(-c6c(F)cccc6F)c6nc(c(-c7c(F)cccc7F)c7ccc4[nH]7)C=C6)C=C5)cc3)cc2)c(-c2ccc(S(C)(=O)=O)cc2)o1
REMARK SMILES IDX 16 1 15 2 14 3 12 4 13 5 11 7 8 8 9 9 79 10 10 11 78 12 7 13
REMARK SMILES IDX 6 14 1 15 2 16 3 17 91 18 4 19 80 20 5 21 81 22 82 23 90 24
REMARK SMILES IDX 83 25 89 26 84 27 85 28 86 29 87 30 88 31 17 32 18 33 19 34
REMARK SMILES IDX 20 35 21 36 22 37 23 39 24 40 25 41 77 42 26 43 76 44 27 45
REMARK SMILES IDX 28 46 29 47 70 48 30 49 75 50 69 51 71 52 31 53 74 54 68 55
REMARK SMILES IDX 67 56 32 58 58 59 41 60 57 61 42 62 45 63 56 64 72 65 43 66
REMARK SMILES IDX 44 67 55 69 73 70 46 71 33 72 34 73 39 74 35 75 36 76 38 77
REMARK SMILES IDX 40 78 37 79 59 80 60 81 65 82 61 83 62 84 64 85 66 86 63 87
REMARK SMILES IDX 47 88 48 89 53 90 49 91 50 92 52 93 54 94 51 95
REMARK H PARENT 14 6 21 38 71 57 45 68
REMARK Flexibility Score: inf
ROOT
ATOM      1  C   UNL A   1      34.354  30.707  28.093  1.00  0.00     0.021 C 
ENDROOT
BRANCH   1   2
ATOM      2  C   UNL A   1      34.240  29.904  26.800  1.00  0.00     0.116 C 
BRANCH   2   3
ATOM      3  N   UNL A   1      32.894  29.660  26.321  1.00  0.00    -0.352 N 
ATOM      4  C   UNL A   1      32.359  28.577  25.657  1.00  0.00     0.251 C 
ATOM      5  O   UNL A   1      31.146  28.532  25.468  1.00  0.00    -0.269 OA
ATOM      6  H   UNL A   1      32.256  30.388  26.501  1.00  0.00     0.163 HD
BRANCH   4   7
ATOM      7  C   UNL A   1      33.223  27.524  25.056  1.00  0.00     0.040 A 
ATOM      8  C   UNL A   1      34.254  25.183  23.965  1.00  0.00     0.127 A 
ATOM      9  C   UNL A   1      34.202  25.319  25.347  1.00  0.00     0.048 A 
ATOM     10  C   UNL A   1      34.034  26.290  23.149  1.00  0.00     0.048 A 
ATOM     11  C   UNL A   1      33.645  26.479  25.893  1.00  0.00     0.017 A 
ATOM     12  C   UNL A   1      33.554  27.476  23.702  1.00  0.00     0.017 A 
BRANCH   8  13
ATOM     13  O   UNL A   1      34.586  24.018  23.343  1.00  0.00    -0.449 OA
BRANCH  13  14
ATOM     14  C   UNL A   1      34.276  22.757  23.841  1.00  0.00     0.217 A 
ATOM     15  C   UNL A   1      32.896  18.798  24.894  1.00  0.00     0.088 C 
ATOM     16  C   UNL A   1      33.255  20.202  24.531  1.00  0.00     0.105 A 
ATOM     17  C   UNL A   1      32.415  21.010  23.882  1.00  0.00     0.098 A 
ATOM     18  O   UNL A   1      34.514  20.602  24.924  1.00  0.00    -0.457 OA
ATOM     19  C   UNL A   1      32.864  22.362  23.527  1.00  0.00     0.228 A 
ATOM     20  C   UNL A   1      34.992  21.865  24.578  1.00  0.00     0.180 A 
ATOM     21  O   UNL A   1      32.072  23.130  22.986  1.00  0.00    -0.285 OA
BRANCH  20  22
ATOM     22  C   UNL A   1      36.358  22.029  25.116  1.00  0.00     0.021 A 
ATOM     23  C   UNL A   1      36.722  23.240  25.732  1.00  0.00     0.013 A 
ATOM     24  C   UNL A   1      37.313  21.009  25.002  1.00  0.00     0.013 A 
ATOM     25  C   UNL A   1      37.989  23.398  26.300  1.00  0.00     0.021 A 
ATOM     26  C   UNL A   1      38.588  21.168  25.557  1.00  0.00     0.021 A 
ATOM     27  C   UNL A   1      38.915  22.356  26.214  1.00  0.00     0.067 A 
BRANCH  27  28
ATOM     28  S   UNL A   1      40.485  22.525  27.036  1.00  0.00     0.175 S 
ATOM     29  C   UNL A   1      41.665  22.218  25.753  1.00  0.00     0.163 C 
ATOM     30  O   UNL A   1      40.617  23.910  27.436  1.00  0.00    -0.224 OA
ATOM     31  O   UNL A   1      40.604  21.444  28.000  1.00  0.00    -0.224 OA
ENDBRANCH  27  28
ENDBRANCH  20  22
ENDBRANCH  13  14
ENDBRANCH   8  13
ENDBRANCH   4   7
ENDBRANCH   2   3
ENDBRANCH   1   2
BRANCH   1  32
ATOM     32  C   UNL A   1      34.816  32.159  27.985  1.00  0.00     0.002 C 
BRANCH  32  33
ATOM     33  C   UNL A   1      34.379  33.108  29.101  1.00  0.00     0.002 C 
BRANCH  33  34
ATOM     34  C   UNL A   1      33.385  34.201  28.715  1.00  0.00     0.021 C 
BRANCH  34  35
ATOM     35  C   UNL A   1      33.653  35.580  29.300  1.00  0.00     0.116 C 
BRANCH  35  36
ATOM     36  N   UNL A   1      32.665  35.999  30.281  1.00  0.00    -0.352 N 
ATOM     37  C   UNL A   1      32.636  35.771  31.639  1.00  0.00     0.251 C 
ATOM     38  H   UNL A   1      31.910  36.522  29.925  1.00  0.00     0.163 HD
ATOM     39  O   UNL A   1      31.661  36.102  32.306  1.00  0.00    -0.269 OA
BRANCH  37  40
ATOM     40  C   UNL A   1      33.774  35.082  32.291  1.00  0.00     0.039 A 
ATOM     41  C   UNL A   1      35.025  35.694  32.368  1.00  0.00     0.014 A 
ATOM     42  C   UNL A   1      33.599  33.789  32.793  1.00  0.00     0.014 A 
ATOM     43  C   UNL A   1      36.132  34.951  32.759  1.00  0.00     0.010 A 
ATOM     44  C   UNL A   1      34.699  33.078  33.287  1.00  0.00     0.010 A 
ATOM     45  C   UNL A   1      35.987  33.632  33.223  1.00  0.00    -0.014 A 
BRANCH  45  46
ATOM     46  C   UNL A   1      37.200  32.863  33.616  1.00  0.00     0.031 A 
ATOM     47  C   UNL A   1      37.800  31.834  32.690  1.00  0.00     0.074 A 
ATOM     48  C   UNL A   1      37.812  33.152  34.781  1.00  0.00     0.049 A 
ATOM     49  N   UNL A   1      38.872  31.099  32.856  1.00  0.00    -0.248 NA
ATOM     50  C   UNL A   1      37.110  31.599  31.411  1.00  0.00     0.031 C 
ATOM     51  C   UNL A   1      37.345  34.138  35.759  1.00  0.00     0.029 A 
ATOM     52  N   UNL A   1      38.974  32.670  35.330  1.00  0.00    -0.354 N 
ATOM     53  C   UNL A   1      38.982  30.317  31.712  1.00  0.00     0.074 A 
ATOM     54  C   UNL A   1      37.843  30.632  30.878  1.00  0.00     0.031 C 
ATOM     55  C   UNL A   1      38.239  34.230  36.754  1.00  0.00     0.029 A 
ATOM     56  C   UNL A   1      39.302  33.258  36.528  1.00  0.00     0.049 A 
ATOM     57  H   UNL A   1      39.520  31.970  34.906  1.00  0.00     0.167 HD
ATOM     58  C   UNL A   1      39.954  29.434  31.374  1.00  0.00     0.037 A 
ATOM     59  C   UNL A   1      40.330  33.026  37.364  1.00  0.00     0.037 A 
ATOM     60  C   UNL A   1      41.089  29.116  32.203  1.00  0.00     0.049 A 
ATOM     61  C   UNL A   1      41.337  31.969  37.003  1.00  0.00     0.074 A 
ATOM     62  C   UNL A   1      42.119  28.224  31.954  1.00  0.00     0.029 A 
ATOM     63  N   UNL A   1      41.345  29.681  33.443  1.00  0.00    -0.354 N 
ATOM     64  N   UNL A   1      41.431  31.247  35.913  1.00  0.00    -0.248 NA
ATOM     65  C   UNL A   1      42.381  31.690  38.000  1.00  0.00     0.031 C 
ATOM     66  C   UNL A   1      42.971  28.217  33.063  1.00  0.00     0.029 A 
ATOM     67  C   UNL A   1      42.505  29.144  33.979  1.00  0.00     0.049 A 
ATOM     68  H   UNL A   1      40.785  30.364  33.879  1.00  0.00     0.167 HD
ATOM     69  C   UNL A   1      42.557  30.453  36.081  1.00  0.00     0.074 A 
ATOM     70  C   UNL A   1      43.129  30.803  37.363  1.00  0.00     0.031 C 
ATOM     71  C   UNL A   1      43.070  29.512  35.251  1.00  0.00     0.037 A 
BRANCH  58  72
ATOM     72  C   UNL A   1      39.831  28.739  30.047  1.00  0.00     0.057 A 
ATOM     73  C   UNL A   1      39.131  27.531  29.929  1.00  0.00     0.134 A 
ATOM     74  C   UNL A   1      40.443  29.243  28.892  1.00  0.00     0.134 A 
ATOM     75  F   UNL A   1      38.528  26.985  30.995  1.00  0.00    -0.206 F 
ATOM     76  C   UNL A   1      39.047  26.849  28.713  1.00  0.00     0.040 A 
ATOM     77  C   UNL A   1      40.345  28.585  27.664  1.00  0.00     0.040 A 
ATOM     78  F   UNL A   1      41.122  30.400  28.932  1.00  0.00    -0.206 F 
ATOM     79  C   UNL A   1      39.650  27.380  27.574  1.00  0.00     0.006 A 
ENDBRANCH  58  72
BRANCH  59  80
ATOM     80  C   UNL A   1      40.455  33.772  38.643  1.00  0.00     0.057 A 
ATOM     81  C   UNL A   1      39.759  33.372  39.791  1.00  0.00     0.134 A 
ATOM     82  C   UNL A   1      41.330  34.858  38.767  1.00  0.00     0.134 A 
ATOM     83  F   UNL A   1      38.900  32.344  39.740  1.00  0.00    -0.206 F 
ATOM     84  C   UNL A   1      39.935  34.017  41.015  1.00  0.00     0.040 A 
ATOM     85  C   UNL A   1      41.544  35.489  39.993  1.00  0.00     0.040 A 
ATOM     86  F   UNL A   1      42.041  35.278  37.709  1.00  0.00    -0.206 F 
ATOM     87  C   UNL A   1      40.843  35.068  41.122  1.00  0.00     0.006 A 
ENDBRANCH  59  80
BRANCH  71  88
ATOM     88  C   UNL A   1      44.338  28.837  35.690  1.00  0.00     0.057 A 
ATOM     89  C   UNL A   1      44.292  27.683  36.484  1.00  0.00     0.134 A 
ATOM     90  C   UNL A   1      45.602  29.321  35.328  1.00  0.00     0.134 A 
ATOM     91  F   UNL A   1      43.115  27.170  36.873  1.00  0.00    -0.206 F 
ATOM     92  C   UNL A   1      45.456  27.034  36.896  1.00  0.00     0.040 A 
ATOM     93  C   UNL A   1      46.772  28.661  35.707  1.00  0.00     0.040 A 
ATOM     94  F   UNL A   1      45.716  30.412  34.554  1.00  0.00    -0.206 F 
ATOM     95  C   UNL A   1      46.700  27.517  36.498  1.00  0.00     0.006 A 
ENDBRANCH  71  88
ENDBRANCH  45  46
ENDBRANCH  37  40
ENDBRANCH  35  36
ENDBRANCH  34  35
ENDBRANCH  33  34
ENDBRANCH  32  33
ENDBRANCH   1  32
TORSDOF 17
ENDMDL
