MODEL 1
REMARK VINA RESULT:     -10.4      0.000      0.000
REMARK SMILES CCn1cnc(S(=O)(=O)NC[C@H]2CC[C@@H](C(=O)NCCCCCCNC(=O)c3ccc(-c4c5nc(c(-c6c(F)cccc6F)c6ccc([nH]6)c(-c6c(F)cccc6F)c6nc(c(-c7c(F)cccc7F)c7ccc4[nH]7)C=C6)C=C5)cc3)O2)c1
REMARK SMILES IDX 20 1 19 2 18 3 16 4 17 5 15 7 12 8 13 9 82 10 14 11 11 12
REMARK SMILES IDX 10 13 7 15 8 16 9 17 6 18 3 19 4 20 83 21 5 22 2 23 1 24
REMARK SMILES IDX 21 25 22 26 23 27 24 28 25 29 26 30 27 32 28 33 29 34 81 35
REMARK SMILES IDX 30 36 80 37 31 38 32 39 33 40 74 41 34 42 79 43 73 44 75 45
REMARK SMILES IDX 35 46 78 47 72 48 71 49 36 51 62 52 45 53 61 54 46 55 49 56
REMARK SMILES IDX 60 57 76 58 47 59 48 60 59 62 77 63 50 64 37 65 38 66 43 67
REMARK SMILES IDX 39 68 40 69 42 70 44 71 41 72 63 73 64 74 69 75 65 76 66 77
REMARK SMILES IDX 68 78 70 79 67 80 51 81 52 82 57 83 53 84 54 85 56 86 58 87
REMARK SMILES IDX 55 88
REMARK H PARENT 18 6 10 14 25 31 75 50 49 61
REMARK Flexibility Score: inf
ROOT
ATOM      1  C   UNL A   1      39.982  22.246  26.311  1.00  0.00     0.021 C 
ENDROOT
BRANCH   1   2
ATOM      2  C   UNL A   1      38.481  22.505  26.232  1.00  0.00     0.116 C 
BRANCH   2   3
ATOM      3  N   UNL A   1      38.026  22.640  24.861  1.00  0.00    -0.354 N 
ATOM      4  C   UNL A   1      36.787  22.364  24.350  1.00  0.00     0.249 C 
ATOM      5  O   UNL A   1      36.581  22.556  23.153  1.00  0.00    -0.272 OA
ATOM      6  H   UNL A   1      38.693  22.970  24.216  1.00  0.00     0.163 HD
BRANCH   4   7
ATOM      7  C   UNL A   1      35.727  21.803  25.302  1.00  0.00     0.207 C 
ATOM      8  C   UNL A   1      33.388  22.030  25.467  1.00  0.00     0.134 C 
ATOM      9  C   UNL A   1      33.761  20.564  25.530  1.00  0.00     0.037 C 
ATOM     10  O   UNL A   1      34.649  22.743  25.467  1.00  0.00    -0.364 OA
ATOM     11  C   UNL A   1      35.089  20.515  24.823  1.00  0.00     0.045 C 
BRANCH   8  12
ATOM     12  C   UNL A   1      32.528  22.576  24.313  1.00  0.00     0.131 C 
BRANCH  12  13
ATOM     13  N   UNL A   1      32.210  24.008  24.302  1.00  0.00    -0.207 NA
ATOM     14  H   UNL A   1      31.193  24.082  24.311  1.00  0.00     0.141 HD
BRANCH  13  15
ATOM     15  S   UNL A   1      32.755  25.001  23.049  1.00  0.00     0.259 S 
ATOM     16  O   UNL A   1      31.617  25.291  22.194  1.00  0.00    -0.205 OA
ATOM     17  O   UNL A   1      33.960  24.402  22.541  1.00  0.00    -0.205 OA
BRANCH  15  18
ATOM     18  C   UNL A   1      33.237  26.559  23.672  1.00  0.00     0.188 A 
ATOM     19  N   UNL A   1      33.785  28.199  25.005  1.00  0.00    -0.336 N 
ATOM     20  C   UNL A   1      33.562  28.677  23.741  1.00  0.00     0.201 A 
ATOM     21  C   UNL A   1      33.603  26.845  24.974  1.00  0.00     0.129 A 
ATOM     22  N   UNL A   1      33.220  27.719  22.915  1.00  0.00    -0.224 NA
BRANCH  19  23
ATOM     23  C   UNL A   1      34.090  29.044  26.141  1.00  0.00     0.120 C 
ATOM     24  C   UNL A   1      32.965  29.225  27.146  1.00  0.00     0.027 C 
ENDBRANCH  19  23
ENDBRANCH  15  18
ENDBRANCH  13  15
ENDBRANCH  12  13
ENDBRANCH   8  12
ENDBRANCH   4   7
ENDBRANCH   2   3
ENDBRANCH   1   2
BRANCH   1  25
ATOM     25  C   UNL A   1      40.463  21.670  27.644  1.00  0.00     0.002 C 
BRANCH  25  26
ATOM     26  C   UNL A   1      41.961  21.364  27.763  1.00  0.00     0.002 C 
BRANCH  26  27
ATOM     27  C   UNL A   1      42.452  19.994  27.278  1.00  0.00     0.021 C 
BRANCH  27  28
ATOM     28  C   UNL A   1      42.382  19.753  25.775  1.00  0.00     0.116 C 
BRANCH  28  29
ATOM     29  N   UNL A   1      43.695  19.553  25.166  1.00  0.00    -0.352 N 
ATOM     30  C   UNL A   1      44.598  20.499  24.718  1.00  0.00     0.251 C 
ATOM     31  H   UNL A   1      43.976  18.615  25.060  1.00  0.00     0.163 HD
ATOM     32  O   UNL A   1      45.484  20.199  23.927  1.00  0.00    -0.269 OA
BRANCH  30  33
ATOM     33  C   UNL A   1      44.477  21.885  25.201  1.00  0.00     0.039 A 
ATOM     34  C   UNL A   1      43.520  22.760  24.686  1.00  0.00     0.014 A 
ATOM     35  C   UNL A   1      45.323  22.295  26.223  1.00  0.00     0.014 A 
ATOM     36  C   UNL A   1      43.361  24.016  25.278  1.00  0.00     0.010 A 
ATOM     37  C   UNL A   1      45.062  23.460  26.904  1.00  0.00     0.010 A 
ATOM     38  C   UNL A   1      44.121  24.357  26.408  1.00  0.00    -0.014 A 
BRANCH  38  39
ATOM     39  C   UNL A   1      43.899  25.624  27.110  1.00  0.00     0.031 A 
ATOM     40  C   UNL A   1      44.837  26.747  26.812  1.00  0.00     0.074 A 
ATOM     41  C   UNL A   1      42.780  25.889  27.821  1.00  0.00     0.049 A 
ATOM     42  N   UNL A   1      45.599  27.392  27.636  1.00  0.00    -0.248 NA
ATOM     43  C   UNL A   1      44.965  27.189  25.415  1.00  0.00     0.031 C 
ATOM     44  C   UNL A   1      41.577  25.063  27.985  1.00  0.00     0.029 A 
ATOM     45  N   UNL A   1      42.440  27.043  28.460  1.00  0.00    -0.354 N 
ATOM     46  C   UNL A   1      46.182  28.428  26.907  1.00  0.00     0.074 A 
ATOM     47  C   UNL A   1      45.844  28.188  25.527  1.00  0.00     0.031 C 
ATOM     48  C   UNL A   1      40.567  25.826  28.451  1.00  0.00     0.029 A 
ATOM     49  C   UNL A   1      41.100  27.128  28.801  1.00  0.00     0.049 A 
ATOM     50  H   UNL A   1      43.090  27.755  28.663  1.00  0.00     0.167 HD
ATOM     51  C   UNL A   1      46.752  29.509  27.513  1.00  0.00     0.037 A 
ATOM     52  C   UNL A   1      40.456  28.195  29.323  1.00  0.00     0.037 A 
ATOM     53  C   UNL A   1      47.020  29.263  28.906  1.00  0.00     0.049 A 
ATOM     54  C   UNL A   1      41.474  29.076  29.938  1.00  0.00     0.074 A 
ATOM     55  C   UNL A   1      47.761  28.333  29.608  1.00  0.00     0.029 A 
ATOM     56  N   UNL A   1      46.211  29.860  29.840  1.00  0.00    -0.354 N 
ATOM     57  N   UNL A   1      42.165  28.768  31.000  1.00  0.00    -0.248 NA
ATOM     58  C   UNL A   1      42.019  30.158  29.133  1.00  0.00     0.031 C 
ATOM     59  C   UNL A   1      46.996  28.066  30.782  1.00  0.00     0.029 A 
ATOM     60  C   UNL A   1      45.863  28.879  30.733  1.00  0.00     0.049 A 
ATOM     61  H   UNL A   1      45.936  30.804  29.865  1.00  0.00     0.167 HD
ATOM     62  C   UNL A   1      43.421  29.308  30.774  1.00  0.00     0.074 A 
ATOM     63  C   UNL A   1      43.236  30.249  29.673  1.00  0.00     0.031 C 
ATOM     64  C   UNL A   1      44.545  28.742  31.307  1.00  0.00     0.037 A 
BRANCH  51  65
ATOM     65  C   UNL A   1      46.788  30.903  26.935  1.00  0.00     0.057 A 
ATOM     66  C   UNL A   1      47.995  31.628  26.936  1.00  0.00     0.134 A 
ATOM     67  C   UNL A   1      45.638  31.660  26.643  1.00  0.00     0.134 A 
ATOM     68  F   UNL A   1      49.160  31.028  27.223  1.00  0.00    -0.206 F 
ATOM     69  C   UNL A   1      48.043  33.013  26.726  1.00  0.00     0.040 A 
ATOM     70  C   UNL A   1      45.680  33.033  26.379  1.00  0.00     0.040 A 
ATOM     71  F   UNL A   1      44.407  31.134  26.697  1.00  0.00    -0.206 F 
ATOM     72  C   UNL A   1      46.881  33.721  26.450  1.00  0.00     0.006 A 
ENDBRANCH  51  65
BRANCH  52  73
ATOM     73  C   UNL A   1      39.048  28.594  29.129  1.00  0.00     0.057 A 
ATOM     74  C   UNL A   1      38.138  28.591  30.191  1.00  0.00     0.134 A 
ATOM     75  C   UNL A   1      38.622  29.225  27.946  1.00  0.00     0.134 A 
ATOM     76  F   UNL A   1      38.471  28.047  31.370  1.00  0.00    -0.206 F 
ATOM     77  C   UNL A   1      36.880  29.197  30.092  1.00  0.00     0.040 A 
ATOM     78  C   UNL A   1      37.365  29.827  27.829  1.00  0.00     0.040 A 
ATOM     79  F   UNL A   1      39.442  29.353  26.892  1.00  0.00    -0.206 F 
ATOM     80  C   UNL A   1      36.494  29.826  28.911  1.00  0.00     0.006 A 
ENDBRANCH  52  73
BRANCH  64  81
ATOM     81  C   UNL A   1      44.377  27.687  32.365  1.00  0.00     0.057 A 
ATOM     82  C   UNL A   1      44.279  26.315  32.093  1.00  0.00     0.134 A 
ATOM     83  C   UNL A   1      44.485  28.056  33.711  1.00  0.00     0.134 A 
ATOM     84  F   UNL A   1      44.279  25.854  30.837  1.00  0.00    -0.206 F 
ATOM     85  C   UNL A   1      44.242  25.359  33.113  1.00  0.00     0.040 A 
ATOM     86  C   UNL A   1      44.481  27.108  34.738  1.00  0.00     0.040 A 
ATOM     87  F   UNL A   1      44.645  29.345  34.049  1.00  0.00    -0.206 F 
ATOM     88  C   UNL A   1      44.350  25.755  34.442  1.00  0.00     0.006 A 
ENDBRANCH  64  81
ENDBRANCH  38  39
ENDBRANCH  30  33
ENDBRANCH  28  29
ENDBRANCH  27  28
ENDBRANCH  26  27
ENDBRANCH  25  26
ENDBRANCH   1  25
TORSDOF 18
ENDMDL
MODEL 2
REMARK VINA RESULT:     -10.2      4.349     10.018
REMARK SMILES CCn1cnc(S(=O)(=O)NC[C@H]2CC[C@@H](C(=O)NCCCCCCNC(=O)c3ccc(-c4c5nc(c(-c6c(F)cccc6F)c6ccc([nH]6)c(-c6c(F)cccc6F)c6nc(c(-c7c(F)cccc7F)c7ccc4[nH]7)C=C6)C=C5)cc3)O2)c1
REMARK SMILES IDX 20 1 19 2 18 3 16 4 17 5 15 7 12 8 13 9 82 10 14 11 11 12
REMARK SMILES IDX 10 13 7 15 8 16 9 17 6 18 3 19 4 20 83 21 5 22 2 23 1 24
REMARK SMILES IDX 21 25 22 26 23 27 24 28 25 29 26 30 27 32 28 33 29 34 81 35
REMARK SMILES IDX 30 36 80 37 31 38 32 39 33 40 74 41 34 42 79 43 73 44 75 45
REMARK SMILES IDX 35 46 78 47 72 48 71 49 36 51 62 52 45 53 61 54 46 55 49 56
REMARK SMILES IDX 60 57 76 58 47 59 48 60 59 62 77 63 50 64 37 65 38 66 43 67
REMARK SMILES IDX 39 68 40 69 42 70 44 71 41 72 63 73 64 74 69 75 65 76 66 77
REMARK SMILES IDX 68 78 70 79 67 80 51 81 52 82 57 83 53 84 54 85 56 86 58 87
REMARK SMILES IDX 55 88
REMARK H PARENT 18 6 10 14 25 31 75 50 49 61
REMARK Flexibility Score: inf
ROOT
ATOM      1  C   UNL A   1      34.074  32.406  28.564  1.00  0.00     0.021 C 
ENDROOT
BRANCH   1   2
ATOM      2  C   UNL A   1      33.278  31.551  27.583  1.00  0.00     0.116 C 
BRANCH   2   3
ATOM      3  N   UNL A   1      33.750  30.179  27.554  1.00  0.00    -0.354 N 
ATOM      4  C   UNL A   1      33.577  29.247  26.567  1.00  0.00     0.249 C 
ATOM      5  O   UNL A   1      34.068  28.128  26.715  1.00  0.00    -0.272 OA
ATOM      6  H   UNL A   1      34.256  29.881  28.344  1.00  0.00     0.163 HD
BRANCH   4   7
ATOM      7  C   UNL A   1      32.757  29.645  25.338  1.00  0.00     0.207 C 
ATOM      8  C   UNL A   1      32.568  28.797  23.148  1.00  0.00     0.134 C 
ATOM      9  C   UNL A   1      31.187  28.992  23.738  1.00  0.00     0.037 C 
ATOM     10  O   UNL A   1      33.480  29.346  24.130  1.00  0.00    -0.364 OA
ATOM     11  C   UNL A   1      31.432  28.921  25.221  1.00  0.00     0.045 C 
BRANCH   8  12
ATOM     12  C   UNL A   1      33.068  27.394  22.760  1.00  0.00     0.131 C 
BRANCH  12  13
ATOM     13  N   UNL A   1      32.664  26.258  23.596  1.00  0.00    -0.207 NA
ATOM     14  H   UNL A   1      33.358  26.181  24.339  1.00  0.00     0.141 HD
BRANCH  13  15
ATOM     15  S   UNL A   1      32.499  24.715  22.930  1.00  0.00     0.259 S 
ATOM     16  O   UNL A   1      33.336  24.658  21.744  1.00  0.00    -0.205 OA
ATOM     17  O   UNL A   1      31.090  24.432  22.885  1.00  0.00    -0.205 OA
BRANCH  15  18
ATOM     18  C   UNL A   1      33.182  23.515  23.998  1.00  0.00     0.188 A 
ATOM     19  N   UNL A   1      34.147  21.719  24.781  1.00  0.00    -0.336 N 
ATOM     20  C   UNL A   1      33.561  22.420  25.802  1.00  0.00     0.201 A 
ATOM     21  C   UNL A   1      33.934  22.416  23.625  1.00  0.00     0.129 A 
ATOM     22  N   UNL A   1      32.962  23.501  25.366  1.00  0.00    -0.224 NA
BRANCH  19  23
ATOM     23  C   UNL A   1      34.802  20.440  24.957  1.00  0.00     0.120 C 
ATOM     24  C   UNL A   1      33.953  19.219  24.641  1.00  0.00     0.027 C 
ENDBRANCH  19  23
ENDBRANCH  15  18
ENDBRANCH  13  15
ENDBRANCH  12  13
ENDBRANCH   8  12
ENDBRANCH   4   7
ENDBRANCH   2   3
ENDBRANCH   1   2
BRANCH   1  25
ATOM     25  C   UNL A   1      34.838  33.568  27.927  1.00  0.00     0.002 C 
BRANCH  25  26
ATOM     26  C   UNL A   1      34.726  34.931  28.621  1.00  0.00     0.002 C 
BRANCH  26  27
ATOM     27  C   UNL A   1      33.345  35.360  29.136  1.00  0.00     0.021 C 
BRANCH  27  28
ATOM     28  C   UNL A   1      33.328  36.549  30.088  1.00  0.00     0.116 C 
BRANCH  28  29
ATOM     29  N   UNL A   1      32.538  36.305  31.294  1.00  0.00    -0.352 N 
ATOM     30  C   UNL A   1      32.672  35.299  32.231  1.00  0.00     0.251 C 
ATOM     31  H   UNL A   1      31.810  36.947  31.461  1.00  0.00     0.163 HD
ATOM     32  O   UNL A   1      31.748  35.013  32.984  1.00  0.00    -0.269 OA
BRANCH  30  33
ATOM     33  C   UNL A   1      33.946  34.564  32.313  1.00  0.00     0.039 A 
ATOM     34  C   UNL A   1      34.009  33.184  32.126  1.00  0.00     0.014 A 
ATOM     35  C   UNL A   1      35.105  35.294  32.543  1.00  0.00     0.014 A 
ATOM     36  C   UNL A   1      35.260  32.562  32.077  1.00  0.00     0.010 A 
ATOM     37  C   UNL A   1      36.333  34.713  32.337  1.00  0.00     0.010 A 
ATOM     38  C   UNL A   1      36.428  33.335  32.160  1.00  0.00    -0.014 A 
BRANCH  38  39
ATOM     39  C   UNL A   1      37.750  32.722  32.005  1.00  0.00     0.031 A 
ATOM     40  C   UNL A   1      38.590  32.588  33.232  1.00  0.00     0.074 A 
ATOM     41  C   UNL A   1      38.140  32.082  30.881  1.00  0.00     0.049 A 
ATOM     42  N   UNL A   1      39.770  33.074  33.449  1.00  0.00    -0.248 NA
ATOM     43  C   UNL A   1      38.038  31.840  34.372  1.00  0.00     0.031 C 
ATOM     44  C   UNL A   1      37.366  31.802  29.665  1.00  0.00     0.029 A 
ATOM     45  N   UNL A   1      39.312  31.426  30.646  1.00  0.00    -0.354 N 
ATOM     46  C   UNL A   1      40.186  32.567  34.680  1.00  0.00     0.074 A 
ATOM     47  C   UNL A   1      39.040  31.906  35.251  1.00  0.00     0.031 C 
ATOM     48  C   UNL A   1      37.985  30.841  28.947  1.00  0.00     0.029 A 
ATOM     49  C   UNL A   1      39.281  30.586  29.546  1.00  0.00     0.049 A 
ATOM     50  H   UNL A   1      40.111  31.541  31.210  1.00  0.00     0.167 HD
ATOM     51  C   UNL A   1      41.497  32.573  35.060  1.00  0.00     0.037 A 
ATOM     52  C   UNL A   1      40.242  29.723  29.149  1.00  0.00     0.037 A 
ATOM     53  C   UNL A   1      42.282  33.477  34.262  1.00  0.00     0.049 A 
ATOM     54  C   UNL A   1      41.518  30.163  29.759  1.00  0.00     0.074 A 
ATOM     55  C   UNL A   1      42.235  34.830  33.988  1.00  0.00     0.029 A 
ATOM     56  N   UNL A   1      43.131  32.948  33.322  1.00  0.00    -0.354 N 
ATOM     57  N   UNL A   1      42.143  31.261  29.438  1.00  0.00    -0.248 NA
ATOM     58  C   UNL A   1      41.909  29.571  31.028  1.00  0.00     0.031 C 
ATOM     59  C   UNL A   1      42.622  34.940  32.619  1.00  0.00     0.029 A 
ATOM     60  C   UNL A   1      42.916  33.653  32.167  1.00  0.00     0.049 A 
ATOM     61  H   UNL A   1      43.768  32.209  33.452  1.00  0.00     0.167 HD
ATOM     62  C   UNL A   1      42.682  31.721  30.630  1.00  0.00     0.074 A 
ATOM     63  C   UNL A   1      42.610  30.584  31.542  1.00  0.00     0.031 C 
ATOM     64  C   UNL A   1      42.879  33.055  30.853  1.00  0.00     0.037 A 
BRANCH  51  65
ATOM     65  C   UNL A   1      42.142  31.538  35.948  1.00  0.00     0.057 A 
ATOM     66  C   UNL A   1      42.958  31.947  37.020  1.00  0.00     0.134 A 
ATOM     67  C   UNL A   1      42.226  30.170  35.624  1.00  0.00     0.134 A 
ATOM     68  F   UNL A   1      42.988  33.229  37.413  1.00  0.00    -0.206 F 
ATOM     69  C   UNL A   1      43.837  31.074  37.675  1.00  0.00     0.040 A 
ATOM     70  C   UNL A   1      43.061  29.278  36.305  1.00  0.00     0.040 A 
ATOM     71  F   UNL A   1      41.585  29.648  34.570  1.00  0.00    -0.206 F 
ATOM     72  C   UNL A   1      43.894  29.734  37.314  1.00  0.00     0.006 A 
ENDBRANCH  51  65
BRANCH  52  73
ATOM     73  C   UNL A   1      40.077  28.431  28.456  1.00  0.00     0.057 A 
ATOM     74  C   UNL A   1      40.625  28.210  27.188  1.00  0.00     0.134 A 
ATOM     75  C   UNL A   1      39.586  27.296  29.128  1.00  0.00     0.134 A 
ATOM     76  F   UNL A   1      41.152  29.225  26.488  1.00  0.00    -0.206 F 
ATOM     77  C   UNL A   1      40.699  26.930  26.624  1.00  0.00     0.040 A 
ATOM     78  C   UNL A   1      39.645  26.014  28.575  1.00  0.00     0.040 A 
ATOM     79  F   UNL A   1      39.110  27.383  30.379  1.00  0.00    -0.206 F 
ATOM     80  C   UNL A   1      40.217  25.826  27.322  1.00  0.00     0.006 A 
ENDBRANCH  52  73
BRANCH  64  81
ATOM     81  C   UNL A   1      42.760  33.997  29.687  1.00  0.00     0.057 A 
ATOM     82  C   UNL A   1      41.573  34.655  29.331  1.00  0.00     0.134 A 
ATOM     83  C   UNL A   1      43.920  34.378  29.003  1.00  0.00     0.134 A 
ATOM     84  F   UNL A   1      40.433  34.439  29.997  1.00  0.00    -0.206 F 
ATOM     85  C   UNL A   1      41.534  35.612  28.313  1.00  0.00     0.040 A 
ATOM     86  C   UNL A   1      43.901  35.356  28.005  1.00  0.00     0.040 A 
ATOM     87  F   UNL A   1      45.106  33.839  29.328  1.00  0.00    -0.206 F 
ATOM     88  C   UNL A   1      42.703  35.970  27.650  1.00  0.00     0.006 A 
ENDBRANCH  64  81
ENDBRANCH  38  39
ENDBRANCH  30  33
ENDBRANCH  28  29
ENDBRANCH  27  28
ENDBRANCH  26  27
ENDBRANCH  25  26
ENDBRANCH   1  25
TORSDOF 18
ENDMDL
MODEL 3
REMARK VINA RESULT:     -10.0      3.753      9.457
REMARK SMILES CCn1cnc(S(=O)(=O)NC[C@H]2CC[C@@H](C(=O)NCCCCCCNC(=O)c3ccc(-c4c5nc(c(-c6c(F)cccc6F)c6ccc([nH]6)c(-c6c(F)cccc6F)c6nc(c(-c7c(F)cccc7F)c7ccc4[nH]7)C=C6)C=C5)cc3)O2)c1
REMARK SMILES IDX 20 1 19 2 18 3 16 4 17 5 15 7 12 8 13 9 82 10 14 11 11 12
REMARK SMILES IDX 10 13 7 15 8 16 9 17 6 18 3 19 4 20 83 21 5 22 2 23 1 24
REMARK SMILES IDX 21 25 22 26 23 27 24 28 25 29 26 30 27 32 28 33 29 34 81 35
REMARK SMILES IDX 30 36 80 37 31 38 32 39 33 40 74 41 34 42 79 43 73 44 75 45
REMARK SMILES IDX 35 46 78 47 72 48 71 49 36 51 62 52 45 53 61 54 46 55 49 56
REMARK SMILES IDX 60 57 76 58 47 59 48 60 59 62 77 63 50 64 37 65 38 66 43 67
REMARK SMILES IDX 39 68 40 69 42 70 44 71 41 72 63 73 64 74 69 75 65 76 66 77
REMARK SMILES IDX 68 78 70 79 67 80 51 81 52 82 57 83 53 84 54 85 56 86 58 87
REMARK SMILES IDX 55 88
REMARK H PARENT 18 6 10 14 25 31 75 50 49 61
REMARK Flexibility Score: inf
ROOT
ATOM      1  C   UNL A   1      34.545  31.515  28.281  1.00  0.00     0.021 C 
ENDROOT
BRANCH   1   2
ATOM      2  C   UNL A   1      33.867  30.660  27.216  1.00  0.00     0.116 C 
BRANCH   2   3
ATOM      3  N   UNL A   1      32.867  29.776  27.785  1.00  0.00    -0.354 N 
ATOM      4  C   UNL A   1      32.431  28.571  27.305  1.00  0.00     0.249 C 
ATOM      5  O   UNL A   1      31.578  27.952  27.939  1.00  0.00    -0.272 OA
ATOM      6  H   UNL A   1      32.447  30.084  28.621  1.00  0.00     0.163 HD
BRANCH   4   7
ATOM      7  C   UNL A   1      33.018  28.070  25.983  1.00  0.00     0.207 C 
ATOM      8  C   UNL A   1      33.113  25.968  24.924  1.00  0.00     0.134 C 
ATOM      9  C   UNL A   1      32.618  27.010  23.942  1.00  0.00     0.037 C 
ATOM     10  O   UNL A   1      33.471  26.710  26.115  1.00  0.00    -0.364 OA
ATOM     11  C   UNL A   1      32.033  28.073  24.832  1.00  0.00     0.045 C 
BRANCH   8  12
ATOM     12  C   UNL A   1      32.214  24.791  25.343  1.00  0.00     0.131 C 
BRANCH  12  13
ATOM     13  N   UNL A   1      32.618  23.989  26.504  1.00  0.00    -0.207 NA
ATOM     14  H   UNL A   1      32.961  24.644  27.206  1.00  0.00     0.141 HD
BRANCH  13  15
ATOM     15  S   UNL A   1      33.791  22.785  26.353  1.00  0.00     0.259 S 
ATOM     16  O   UNL A   1      33.991  22.201  27.667  1.00  0.00    -0.205 OA
ATOM     17  O   UNL A   1      34.874  23.356  25.597  1.00  0.00    -0.205 OA
BRANCH  15  18
ATOM     18  C   UNL A   1      33.189  21.466  25.380  1.00  0.00     0.188 A 
ATOM     19  N   UNL A   1      32.690  19.475  24.635  1.00  0.00    -0.336 N 
ATOM     20  C   UNL A   1      32.478  20.409  23.655  1.00  0.00     0.201 A 
ATOM     21  C   UNL A   1      33.123  20.136  25.751  1.00  0.00     0.129 A 
ATOM     22  N   UNL A   1      32.778  21.617  24.065  1.00  0.00    -0.224 NA
BRANCH  19  23
ATOM     23  C   UNL A   1      32.529  18.050  24.436  1.00  0.00     0.120 C 
ATOM     24  C   UNL A   1      33.026  17.513  23.103  1.00  0.00     0.027 C 
ENDBRANCH  19  23
ENDBRANCH  15  18
ENDBRANCH  13  15
ENDBRANCH  12  13
ENDBRANCH   8  12
ENDBRANCH   4   7
ENDBRANCH   2   3
ENDBRANCH   1   2
BRANCH   1  25
ATOM     25  C   UNL A   1      35.486  32.591  27.736  1.00  0.00     0.002 C 
BRANCH  25  26
ATOM     26  C   UNL A   1      35.735  33.808  28.633  1.00  0.00     0.002 C 
BRANCH  26  27
ATOM     27  C   UNL A   1      34.622  34.859  28.740  1.00  0.00     0.021 C 
BRANCH  27  28
ATOM     28  C   UNL A   1      33.413  34.468  29.582  1.00  0.00     0.116 C 
BRANCH  28  29
ATOM     29  N   UNL A   1      33.306  35.233  30.822  1.00  0.00    -0.352 N 
ATOM     30  C   UNL A   1      33.890  34.984  32.049  1.00  0.00     0.251 C 
ATOM     31  H   UNL A   1      32.740  36.038  30.777  1.00  0.00     0.163 HD
ATOM     32  O   UNL A   1      33.448  35.494  33.072  1.00  0.00    -0.269 OA
BRANCH  30  33
ATOM     33  C   UNL A   1      35.056  34.086  32.116  1.00  0.00     0.039 A 
ATOM     34  C   UNL A   1      34.921  32.701  32.026  1.00  0.00     0.014 A 
ATOM     35  C   UNL A   1      36.315  34.661  32.230  1.00  0.00     0.014 A 
ATOM     36  C   UNL A   1      36.071  31.910  31.956  1.00  0.00     0.010 A 
ATOM     37  C   UNL A   1      37.438  33.902  32.002  1.00  0.00     0.010 A 
ATOM     38  C   UNL A   1      37.335  32.517  31.920  1.00  0.00    -0.014 A 
BRANCH  38  39
ATOM     39  C   UNL A   1      38.550  31.717  31.740  1.00  0.00     0.031 A 
ATOM     40  C   UNL A   1      39.308  31.337  32.969  1.00  0.00     0.074 A 
ATOM     41  C   UNL A   1      38.881  31.129  30.569  1.00  0.00     0.049 A 
ATOM     42  N   UNL A   1      40.540  31.607  33.262  1.00  0.00    -0.248 NA
ATOM     43  C   UNL A   1      38.600  30.586  34.016  1.00  0.00     0.031 C 
ATOM     44  C   UNL A   1      38.122  31.090  29.312  1.00  0.00     0.029 A 
ATOM     45  N   UNL A   1      39.944  30.320  30.302  1.00  0.00    -0.354 N 
ATOM     46  C   UNL A   1      40.821  30.929  34.448  1.00  0.00     0.074 A 
ATOM     47  C   UNL A   1      39.563  30.409  34.923  1.00  0.00     0.031 C 
ATOM     48  C   UNL A   1      38.612  30.113  28.521  1.00  0.00     0.029 A 
ATOM     49  C   UNL A   1      39.826  29.601  29.124  1.00  0.00     0.049 A 
ATOM     50  H   UNL A   1      40.728  30.252  30.894  1.00  0.00     0.167 HD
ATOM     51  C   UNL A   1      42.100  30.690  34.861  1.00  0.00     0.037 A 
ATOM     52  C   UNL A   1      40.656  28.635  28.670  1.00  0.00     0.037 A 
ATOM     53  C   UNL A   1      43.049  31.527  34.175  1.00  0.00     0.049 A 
ATOM     54  C   UNL A   1      41.959  28.808  29.352  1.00  0.00     0.074 A 
ATOM     55  C   UNL A   1      43.226  32.890  34.033  1.00  0.00     0.029 A 
ATOM     56  N   UNL A   1      43.842  30.958  33.210  1.00  0.00    -0.354 N 
ATOM     57  N   UNL A   1      42.761  29.816  29.156  1.00  0.00    -0.248 NA
ATOM     58  C   UNL A   1      42.201  28.046  30.566  1.00  0.00     0.031 C 
ATOM     59  C   UNL A   1      43.680  33.062  32.692  1.00  0.00     0.029 A 
ATOM     60  C   UNL A   1      43.787  31.792  32.124  1.00  0.00     0.049 A 
ATOM     61  H   UNL A   1      44.349  30.119  33.284  1.00  0.00     0.167 HD
ATOM     62  C   UNL A   1      43.317  30.073  30.400  1.00  0.00     0.074 A 
ATOM     63  C   UNL A   1      43.030  28.882  31.195  1.00  0.00     0.031 C 
ATOM     64  C   UNL A   1      43.711  31.331  30.757  1.00  0.00     0.037 A 
BRANCH  51  65
ATOM     65  C   UNL A   1      42.538  29.487  35.660  1.00  0.00     0.057 A 
ATOM     66  C   UNL A   1      43.453  29.647  36.718  1.00  0.00     0.134 A 
ATOM     67  C   UNL A   1      42.323  28.156  35.253  1.00  0.00     0.134 A 
ATOM     68  F   UNL A   1      43.764  30.867  37.183  1.00  0.00    -0.206 F 
ATOM     69  C   UNL A   1      44.148  28.570  37.284  1.00  0.00     0.040 A 
ATOM     70  C   UNL A   1      42.971  27.068  35.846  1.00  0.00     0.040 A 
ATOM     71  F   UNL A   1      41.556  27.849  34.200  1.00  0.00    -0.206 F 
ATOM     72  C   UNL A   1      43.910  27.274  36.844  1.00  0.00     0.006 A 
ENDBRANCH  51  65
BRANCH  52  73
ATOM     73  C   UNL A   1      40.319  27.456  27.849  1.00  0.00     0.057 A 
ATOM     74  C   UNL A   1      40.898  27.254  26.593  1.00  0.00     0.134 A 
ATOM     75  C   UNL A   1      39.604  26.369  28.388  1.00  0.00     0.134 A 
ATOM     76  F   UNL A   1      41.630  28.218  26.018  1.00  0.00    -0.206 F 
ATOM     77  C   UNL A   1      40.791  26.034  25.913  1.00  0.00     0.040 A 
ATOM     78  C   UNL A   1      39.481  25.149  27.718  1.00  0.00     0.040 A 
ATOM     79  F   UNL A   1      39.074  26.428  29.618  1.00  0.00    -0.206 F 
ATOM     80  C   UNL A   1      40.088  24.974  26.480  1.00  0.00     0.006 A 
ENDBRANCH  52  73
BRANCH  64  81
ATOM     81  C   UNL A   1      43.788  32.384  29.686  1.00  0.00     0.057 A 
ATOM     82  C   UNL A   1      42.756  33.293  29.407  1.00  0.00     0.134 A 
ATOM     83  C   UNL A   1      45.006  32.592  29.028  1.00  0.00     0.134 A 
ATOM     84  F   UNL A   1      41.591  33.244  30.063  1.00  0.00    -0.206 F 
ATOM     85  C   UNL A   1      42.914  34.330  28.483  1.00  0.00     0.040 A 
ATOM     86  C   UNL A   1      45.186  33.645  28.126  1.00  0.00     0.040 A 
ATOM     87  F   UNL A   1      46.059  31.803  29.288  1.00  0.00    -0.206 F 
ATOM     88  C   UNL A   1      44.136  34.512  27.844  1.00  0.00     0.006 A 
ENDBRANCH  64  81
ENDBRANCH  38  39
ENDBRANCH  30  33
ENDBRANCH  28  29
ENDBRANCH  27  28
ENDBRANCH  26  27
ENDBRANCH  25  26
ENDBRANCH   1  25
TORSDOF 18
ENDMDL
