MODEL 1
REMARK VINA RESULT:     -11.3      0.000      0.000
REMARK SMILES COc1cc(OC)cc(-c2ccc(C(=O)NCCCCCCNC(=O)c3ccc(-c4c5nc(c(-c6c(F)cccc6F)c6ccc([nH]6)c(-c6c(F)cccc6F)c6nc(c(-c7c(F)cccc7F)c7ccc4[nH]7)C=C6)C=C5)cc3)o2)c1
REMARK SMILES IDX 19 1 18 2 17 3 16 4 14 5 15 6 13 8 10 9 11 10 80 11 12 12
REMARK SMILES IDX 9 13 3 14 4 15 81 16 5 17 8 18 2 19 1 20 6 21 7 22 20 23
REMARK SMILES IDX 21 24 22 25 23 26 24 27 25 29 26 30 27 31 79 32 28 33 78 34
REMARK SMILES IDX 29 35 30 36 31 37 72 38 32 39 77 40 71 41 73 42 33 43 76 44
REMARK SMILES IDX 70 45 69 46 34 48 60 49 43 50 59 51 44 52 47 53 58 54 74 55
REMARK SMILES IDX 45 56 46 57 57 59 75 60 48 61 35 62 36 63 41 64 37 65 38 66
REMARK SMILES IDX 40 67 42 68 39 69 61 70 62 71 67 72 63 73 64 74 66 75 68 76
REMARK SMILES IDX 65 77 49 78 50 79 55 80 51 81 52 82 54 83 56 84 53 85
REMARK H PARENT 16 7 23 28 73 47 47 58
REMARK Flexibility Score: inf
ROOT
ATOM      1  C   UNL A   1      31.823  29.233  24.721  1.00  0.00     0.002 C 
ENDROOT
BRANCH   1   2
ATOM      2  C   UNL A   1      33.213  29.048  24.100  1.00  0.00     0.021 C 
BRANCH   2   3
ATOM      3  C   UNL A   1      33.612  27.578  23.968  1.00  0.00     0.116 C 
BRANCH   3   4
ATOM      4  N   UNL A   1      33.624  27.178  22.579  1.00  0.00    -0.349 N 
ATOM      5  C   UNL A   1      33.117  26.070  21.940  1.00  0.00     0.287 C 
ATOM      6  O   UNL A   1      33.275  26.043  20.718  1.00  0.00    -0.266 OA
ATOM      7  H   UNL A   1      34.079  27.814  21.980  1.00  0.00     0.163 HD
BRANCH   5   8
ATOM      8  C   UNL A   1      32.421  25.027  22.674  1.00  0.00     0.192 A 
ATOM      9  C   UNL A   1      32.344  23.069  23.693  1.00  0.00     0.135 A 
ATOM     10  C   UNL A   1      31.060  23.555  23.710  1.00  0.00     0.052 A 
ATOM     11  O   UNL A   1      33.177  23.944  23.076  1.00  0.00    -0.451 OA
ATOM     12  C   UNL A   1      31.123  24.836  23.122  1.00  0.00     0.057 A 
BRANCH   9  13
ATOM     13  C   UNL A   1      32.923  21.874  24.262  1.00  0.00     0.025 A 
ATOM     14  C   UNL A   1      34.906  20.606  24.821  1.00  0.00     0.123 A 
ATOM     15  C   UNL A   1      34.126  19.446  24.861  1.00  0.00     0.092 A 
ATOM     16  C   UNL A   1      34.299  21.822  24.518  1.00  0.00     0.058 A 
ATOM     17  C   UNL A   1      32.748  19.491  24.629  1.00  0.00     0.123 A 
ATOM     18  C   UNL A   1      32.142  20.716  24.361  1.00  0.00     0.058 A 
BRANCH  14  19
ATOM     19  O   UNL A   1      36.246  20.414  25.022  1.00  0.00    -0.497 OA
ATOM     20  C   UNL A   1      37.086  21.554  24.880  1.00  0.00     0.278 C 
ENDBRANCH  14  19
BRANCH  17  21
ATOM     21  O   UNL A   1      32.111  18.281  24.655  1.00  0.00    -0.497 OA
ATOM     22  C   UNL A   1      32.580  17.343  25.620  1.00  0.00     0.278 C 
ENDBRANCH  17  21
ENDBRANCH   9  13
ENDBRANCH   5   8
ENDBRANCH   3   4
ENDBRANCH   2   3
ENDBRANCH   1   2
BRANCH   1  23
ATOM     23  C   UNL A   1      31.832  29.683  26.189  1.00  0.00     0.002 C 
BRANCH  23  24
ATOM     24  C   UNL A   1      31.607  31.182  26.401  1.00  0.00     0.021 C 
BRANCH  24  25
ATOM     25  C   UNL A   1      32.752  31.879  27.124  1.00  0.00     0.116 C 
BRANCH  25  26
ATOM     26  N   UNL A   1      32.454  33.282  27.368  1.00  0.00    -0.352 N 
ATOM     27  C   UNL A   1      33.071  34.159  28.225  1.00  0.00     0.251 C 
ATOM     28  H   UNL A   1      31.707  33.655  26.846  1.00  0.00     0.163 HD
ATOM     29  O   UNL A   1      32.557  35.238  28.494  1.00  0.00    -0.269 OA
BRANCH  27  30
ATOM     30  C   UNL A   1      34.360  33.778  28.834  1.00  0.00     0.039 A 
ATOM     31  C   UNL A   1      34.365  33.008  29.998  1.00  0.00     0.014 A 
ATOM     32  C   UNL A   1      35.561  34.168  28.234  1.00  0.00     0.014 A 
ATOM     33  C   UNL A   1      35.581  32.569  30.525  1.00  0.00     0.010 A 
ATOM     34  C   UNL A   1      36.763  33.666  28.715  1.00  0.00     0.010 A 
ATOM     35  C   UNL A   1      36.785  32.862  29.866  1.00  0.00    -0.014 A 
BRANCH  35  36
ATOM     36  C   UNL A   1      38.084  32.336  30.350  1.00  0.00     0.031 A 
ATOM     37  C   UNL A   1      38.638  31.062  29.777  1.00  0.00     0.074 A 
ATOM     38  C   UNL A   1      38.714  32.948  31.370  1.00  0.00     0.049 A 
ATOM     39  N   UNL A   1      39.689  30.376  30.145  1.00  0.00    -0.248 NA
ATOM     40  C   UNL A   1      37.889  30.462  28.660  1.00  0.00     0.031 C 
ATOM     41  C   UNL A   1      38.250  34.163  32.044  1.00  0.00     0.029 A 
ATOM     42  N   UNL A   1      39.868  32.619  32.036  1.00  0.00    -0.354 N 
ATOM     43  C   UNL A   1      39.716  29.258  29.323  1.00  0.00     0.074 A 
ATOM     44  C   UNL A   1      38.547  29.328  28.473  1.00  0.00     0.031 C 
ATOM     45  C   UNL A   1      39.113  34.480  33.021  1.00  0.00     0.029 A 
ATOM     46  C   UNL A   1      40.165  33.469  33.074  1.00  0.00     0.049 A 
ATOM     47  H   UNL A   1      40.429  31.847  31.794  1.00  0.00     0.167 HD
ATOM     48  C   UNL A   1      40.641  28.271  29.269  1.00  0.00     0.037 A 
ATOM     49  C   UNL A   1      41.160  33.426  33.980  1.00  0.00     0.037 A 
ATOM     50  C   UNL A   1      41.811  28.216  30.107  1.00  0.00     0.049 A 
ATOM     51  C   UNL A   1      42.172  32.317  33.907  1.00  0.00     0.074 A 
ATOM     52  C   UNL A   1      42.844  27.296  30.085  1.00  0.00     0.029 A 
ATOM     53  N   UNL A   1      42.095  29.114  31.126  1.00  0.00    -0.354 N 
ATOM     54  N   UNL A   1      42.229  31.305  33.076  1.00  0.00    -0.248 NA
ATOM     55  C   UNL A   1      43.261  32.346  34.893  1.00  0.00     0.031 C 
ATOM     56  C   UNL A   1      43.723  27.603  31.128  1.00  0.00     0.029 A 
ATOM     57  C   UNL A   1      43.271  28.751  31.760  1.00  0.00     0.049 A 
ATOM     58  H   UNL A   1      41.542  29.893  31.363  1.00  0.00     0.167 HD
ATOM     59  C   UNL A   1      43.372  30.594  33.419  1.00  0.00     0.074 A 
ATOM     60  C   UNL A   1      43.983  31.297  34.527  1.00  0.00     0.031 C 
ATOM     61  C   UNL A   1      43.872  29.463  32.861  1.00  0.00     0.037 A 
BRANCH  48  62
ATOM     62  C   UNL A   1      40.415  27.163  28.278  1.00  0.00     0.057 A 
ATOM     63  C   UNL A   1      39.602  26.059  28.570  1.00  0.00     0.134 A 
ATOM     64  C   UNL A   1      41.007  27.208  27.010  1.00  0.00     0.134 A 
ATOM     65  F   UNL A   1      39.012  25.945  29.770  1.00  0.00    -0.206 F 
ATOM     66  C   UNL A   1      39.417  25.024  27.651  1.00  0.00     0.040 A 
ATOM     67  C   UNL A   1      40.803  26.196  26.071  1.00  0.00     0.040 A 
ATOM     68  F   UNL A   1      41.792  28.239  26.660  1.00  0.00    -0.206 F 
ATOM     69  C   UNL A   1      40.014  25.094  26.394  1.00  0.00     0.006 A 
ENDBRANCH  48  62
BRANCH  49  70
ATOM     70  C   UNL A   1      41.246  34.474  35.030  1.00  0.00     0.057 A 
ATOM     71  C   UNL A   1      40.681  34.282  36.295  1.00  0.00     0.134 A 
ATOM     72  C   UNL A   1      41.904  35.688  34.795  1.00  0.00     0.134 A 
ATOM     73  F   UNL A   1      40.024  33.147  36.575  1.00  0.00    -0.206 F 
ATOM     74  C   UNL A   1      40.754  35.263  37.285  1.00  0.00     0.040 A 
ATOM     75  C   UNL A   1      42.007  36.668  35.784  1.00  0.00     0.040 A 
ATOM     76  F   UNL A   1      42.476  35.931  33.606  1.00  0.00    -0.206 F 
ATOM     77  C   UNL A   1      41.425  36.458  37.032  1.00  0.00     0.006 A 
ENDBRANCH  49  70
BRANCH  61  78
ATOM     78  C   UNL A   1      45.164  28.933  33.413  1.00  0.00     0.057 A 
ATOM     79  C   UNL A   1      46.408  29.365  32.939  1.00  0.00     0.134 A 
ATOM     80  C   UNL A   1      45.158  28.018  34.474  1.00  0.00     0.134 A 
ATOM     81  F   UNL A   1      46.484  30.231  31.917  1.00  0.00    -0.206 F 
ATOM     82  C   UNL A   1      47.602  28.892  33.487  1.00  0.00     0.040 A 
ATOM     83  C   UNL A   1      46.344  27.559  35.050  1.00  0.00     0.040 A 
ATOM     84  F   UNL A   1      44.000  27.569  34.981  1.00  0.00    -0.206 F 
ATOM     85  C   UNL A   1      47.571  27.992  34.552  1.00  0.00     0.006 A 
ENDBRANCH  61  78
ENDBRANCH  35  36
ENDBRANCH  27  30
ENDBRANCH  25  26
ENDBRANCH  24  25
ENDBRANCH  23  24
ENDBRANCH   1  23
TORSDOF 16
ENDMDL
MODEL 2
REMARK VINA RESULT:     -11.3      4.676     10.071
REMARK SMILES COc1cc(OC)cc(-c2ccc(C(=O)NCCCCCCNC(=O)c3ccc(-c4c5nc(c(-c6c(F)cccc6F)c6ccc([nH]6)c(-c6c(F)cccc6F)c6nc(c(-c7c(F)cccc7F)c7ccc4[nH]7)C=C6)C=C5)cc3)o2)c1
REMARK SMILES IDX 19 1 18 2 17 3 16 4 14 5 15 6 13 8 10 9 11 10 80 11 12 12
REMARK SMILES IDX 9 13 3 14 4 15 81 16 5 17 8 18 2 19 1 20 6 21 7 22 20 23
REMARK SMILES IDX 21 24 22 25 23 26 24 27 25 29 26 30 27 31 79 32 28 33 78 34
REMARK SMILES IDX 29 35 30 36 31 37 72 38 32 39 77 40 71 41 73 42 33 43 76 44
REMARK SMILES IDX 70 45 69 46 34 48 60 49 43 50 59 51 44 52 47 53 58 54 74 55
REMARK SMILES IDX 45 56 46 57 57 59 75 60 48 61 35 62 36 63 41 64 37 65 38 66
REMARK SMILES IDX 40 67 42 68 39 69 61 70 62 71 67 72 63 73 64 74 66 75 68 76
REMARK SMILES IDX 65 77 49 78 50 79 55 80 51 81 52 82 54 83 56 84 53 85
REMARK H PARENT 16 7 23 28 73 47 47 58
REMARK Flexibility Score: inf
ROOT
ATOM      1  C   UNL A   1      36.338  21.645  25.740  1.00  0.00     0.002 C 
ENDROOT
BRANCH   1   2
ATOM      2  C   UNL A   1      34.990  22.178  25.237  1.00  0.00     0.021 C 
BRANCH   2   3
ATOM      3  C   UNL A   1      34.523  23.419  25.996  1.00  0.00     0.116 C 
BRANCH   3   4
ATOM      4  N   UNL A   1      33.408  23.099  26.858  1.00  0.00    -0.349 N 
ATOM      5  C   UNL A   1      32.053  23.282  26.709  1.00  0.00     0.287 C 
ATOM      6  O   UNL A   1      31.355  22.865  27.635  1.00  0.00    -0.266 OA
ATOM      7  H   UNL A   1      33.665  22.672  27.708  1.00  0.00     0.163 HD
BRANCH   5   8
ATOM      8  C   UNL A   1      31.501  23.904  25.518  1.00  0.00     0.192 A 
ATOM      9  C   UNL A   1      30.711  25.639  24.403  1.00  0.00     0.135 A 
ATOM     10  C   UNL A   1      30.580  24.559  23.565  1.00  0.00     0.052 A 
ATOM     11  O   UNL A   1      31.267  25.263  25.582  1.00  0.00    -0.451 OA
ATOM     12  C   UNL A   1      31.148  23.466  24.251  1.00  0.00     0.057 A 
BRANCH   9  13
ATOM     13  C   UNL A   1      30.432  27.043  24.206  1.00  0.00     0.025 A 
ATOM     14  C   UNL A   1      29.670  28.810  22.740  1.00  0.00     0.123 A 
ATOM     15  C   UNL A   1      30.335  29.738  23.548  1.00  0.00     0.092 A 
ATOM     16  C   UNL A   1      29.723  27.459  23.072  1.00  0.00     0.058 A 
ATOM     17  C   UNL A   1      31.027  29.335  24.694  1.00  0.00     0.123 A 
ATOM     18  C   UNL A   1      31.047  27.985  25.039  1.00  0.00     0.058 A 
BRANCH  14  19
ATOM     19  O   UNL A   1      29.071  29.333  21.626  1.00  0.00    -0.497 OA
ATOM     20  C   UNL A   1      28.243  30.473  21.818  1.00  0.00     0.278 C 
ENDBRANCH  14  19
BRANCH  17  21
ATOM     21  O   UNL A   1      31.669  30.335  25.371  1.00  0.00    -0.497 OA
ATOM     22  C   UNL A   1      31.960  30.082  26.743  1.00  0.00     0.278 C 
ENDBRANCH  17  21
ENDBRANCH   9  13
ENDBRANCH   5   8
ENDBRANCH   3   4
ENDBRANCH   2   3
ENDBRANCH   1   2
BRANCH   1  23
ATOM     23  C   UNL A   1      37.299  21.188  24.634  1.00  0.00     0.002 C 
BRANCH  23  24
ATOM     24  C   UNL A   1      38.141  19.959  24.984  1.00  0.00     0.021 C 
BRANCH  24  25
ATOM     25  C   UNL A   1      39.261  20.245  25.976  1.00  0.00     0.116 C 
BRANCH  25  26
ATOM     26  N   UNL A   1      40.220  19.152  26.029  1.00  0.00    -0.352 N 
ATOM     27  C   UNL A   1      41.589  19.208  26.122  1.00  0.00     0.251 C 
ATOM     28  H   UNL A   1      39.836  18.246  25.991  1.00  0.00     0.163 HD
ATOM     29  O   UNL A   1      42.272  18.213  25.915  1.00  0.00    -0.269 OA
BRANCH  27  30
ATOM     30  C   UNL A   1      42.231  20.493  26.463  1.00  0.00     0.039 A 
ATOM     31  C   UNL A   1      42.770  21.279  25.443  1.00  0.00     0.014 A 
ATOM     32  C   UNL A   1      42.276  20.923  27.792  1.00  0.00     0.014 A 
ATOM     33  C   UNL A   1      43.296  22.535  25.750  1.00  0.00     0.010 A 
ATOM     34  C   UNL A   1      42.728  22.203  28.083  1.00  0.00     0.010 A 
ATOM     35  C   UNL A   1      43.243  23.022  27.066  1.00  0.00    -0.014 A 
BRANCH  35  36
ATOM     36  C   UNL A   1      43.711  24.386  27.408  1.00  0.00     0.031 A 
ATOM     37  C   UNL A   1      42.719  25.439  27.816  1.00  0.00     0.074 A 
ATOM     38  C   UNL A   1      45.011  24.703  27.258  1.00  0.00     0.049 A 
ATOM     39  N   UNL A   1      42.909  26.714  28.037  1.00  0.00    -0.248 NA
ATOM     40  C   UNL A   1      41.321  25.005  27.962  1.00  0.00     0.031 C 
ATOM     41  C   UNL A   1      46.061  23.782  26.820  1.00  0.00     0.029 A 
ATOM     42  N   UNL A   1      45.667  25.896  27.433  1.00  0.00    -0.354 N 
ATOM     43  C   UNL A   1      41.656  27.237  28.327  1.00  0.00     0.074 A 
ATOM     44  C   UNL A   1      40.706  26.153  28.201  1.00  0.00     0.031 C 
ATOM     45  C   UNL A   1      47.229  24.440  26.768  1.00  0.00     0.029 A 
ATOM     46  C   UNL A   1      47.004  25.839  27.123  1.00  0.00     0.049 A 
ATOM     47  H   UNL A   1      45.221  26.715  27.750  1.00  0.00     0.167 HD
ATOM     48  C   UNL A   1      41.329  28.501  28.683  1.00  0.00     0.037 A 
ATOM     49  C   UNL A   1      47.939  26.807  27.105  1.00  0.00     0.037 A 
ATOM     50  C   UNL A   1      42.283  29.571  28.823  1.00  0.00     0.049 A 
ATOM     51  C   UNL A   1      47.554  28.207  27.497  1.00  0.00     0.074 A 
ATOM     52  C   UNL A   1      42.065  30.870  29.245  1.00  0.00     0.029 A 
ATOM     53  N   UNL A   1      43.636  29.466  28.531  1.00  0.00    -0.354 N 
ATOM     54  N   UNL A   1      46.378  28.673  27.842  1.00  0.00    -0.248 NA
ATOM     55  C   UNL A   1      48.624  29.213  27.502  1.00  0.00     0.031 C 
ATOM     56  C   UNL A   1      43.274  31.567  29.152  1.00  0.00     0.029 A 
ATOM     57  C   UNL A   1      44.259  30.686  28.734  1.00  0.00     0.049 A 
ATOM     58  H   UNL A   1      44.086  28.645  28.225  1.00  0.00     0.167 HD
ATOM     59  C   UNL A   1      46.571  30.017  28.134  1.00  0.00     0.074 A 
ATOM     60  C   UNL A   1      47.980  30.288  27.934  1.00  0.00     0.031 C 
ATOM     61  C   UNL A   1      45.664  30.942  28.535  1.00  0.00     0.037 A 
BRANCH  48  62
ATOM     62  C   UNL A   1      39.877  28.798  28.934  1.00  0.00     0.057 A 
ATOM     63  C   UNL A   1      39.300  28.668  30.205  1.00  0.00     0.134 A 
ATOM     64  C   UNL A   1      39.048  29.232  27.893  1.00  0.00     0.134 A 
ATOM     65  F   UNL A   1      40.034  28.246  31.246  1.00  0.00    -0.206 F 
ATOM     66  C   UNL A   1      37.945  28.924  30.422  1.00  0.00     0.040 A 
ATOM     67  C   UNL A   1      37.699  29.523  28.105  1.00  0.00     0.040 A 
ATOM     68  F   UNL A   1      39.535  29.385  26.652  1.00  0.00    -0.206 F 
ATOM     69  C   UNL A   1      37.141  29.359  29.370  1.00  0.00     0.006 A 
ENDBRANCH  48  62
BRANCH  49  70
ATOM     70  C   UNL A   1      49.332  26.479  26.706  1.00  0.00     0.057 A 
ATOM     71  C   UNL A   1      49.764  26.634  25.385  1.00  0.00     0.134 A 
ATOM     72  C   UNL A   1      50.267  26.014  27.640  1.00  0.00     0.134 A 
ATOM     73  F   UNL A   1      48.911  27.061  24.442  1.00  0.00    -0.206 F 
ATOM     74  C   UNL A   1      51.070  26.324  25.001  1.00  0.00     0.040 A 
ATOM     75  C   UNL A   1      51.583  25.725  27.276  1.00  0.00     0.040 A 
ATOM     76  F   UNL A   1      49.919  25.854  28.925  1.00  0.00    -0.206 F 
ATOM     77  C   UNL A   1      51.985  25.875  25.950  1.00  0.00     0.006 A 
ENDBRANCH  49  70
BRANCH  61  78
ATOM     78  C   UNL A   1      46.169  32.326  28.824  1.00  0.00     0.057 A 
ATOM     79  C   UNL A   1      46.631  32.700  30.092  1.00  0.00     0.134 A 
ATOM     80  C   UNL A   1      46.245  33.280  27.801  1.00  0.00     0.134 A 
ATOM     81  F   UNL A   1      46.574  31.838  31.119  1.00  0.00    -0.206 F 
ATOM     82  C   UNL A   1      47.133  33.980  30.337  1.00  0.00     0.040 A 
ATOM     83  C   UNL A   1      46.772  34.553  28.026  1.00  0.00     0.040 A 
ATOM     84  F   UNL A   1      45.827  32.984  26.560  1.00  0.00    -0.206 F 
ATOM     85  C   UNL A   1      47.213  34.907  29.299  1.00  0.00     0.006 A 
ENDBRANCH  61  78
ENDBRANCH  35  36
ENDBRANCH  27  30
ENDBRANCH  25  26
ENDBRANCH  24  25
ENDBRANCH  23  24
ENDBRANCH   1  23
TORSDOF 16
ENDMDL
MODEL 3
REMARK VINA RESULT:     -11.3      3.942      9.394
REMARK SMILES COc1cc(OC)cc(-c2ccc(C(=O)NCCCCCCNC(=O)c3ccc(-c4c5nc(c(-c6c(F)cccc6F)c6ccc([nH]6)c(-c6c(F)cccc6F)c6nc(c(-c7c(F)cccc7F)c7ccc4[nH]7)C=C6)C=C5)cc3)o2)c1
REMARK SMILES IDX 19 1 18 2 17 3 16 4 14 5 15 6 13 8 10 9 11 10 80 11 12 12
REMARK SMILES IDX 9 13 3 14 4 15 81 16 5 17 8 18 2 19 1 20 6 21 7 22 20 23
REMARK SMILES IDX 21 24 22 25 23 26 24 27 25 29 26 30 27 31 79 32 28 33 78 34
REMARK SMILES IDX 29 35 30 36 31 37 72 38 32 39 77 40 71 41 73 42 33 43 76 44
REMARK SMILES IDX 70 45 69 46 34 48 60 49 43 50 59 51 44 52 47 53 58 54 74 55
REMARK SMILES IDX 45 56 46 57 57 59 75 60 48 61 35 62 36 63 41 64 37 65 38 66
REMARK SMILES IDX 40 67 42 68 39 69 61 70 62 71 67 72 63 73 64 74 66 75 68 76
REMARK SMILES IDX 65 77 49 78 50 79 55 80 51 81 52 82 54 83 56 84 53 85
REMARK H PARENT 16 7 23 28 73 47 47 58
REMARK Flexibility Score: inf
ROOT
ATOM      1  C   UNL A   1      35.755  21.470  25.884  1.00  0.00     0.002 C 
ENDROOT
BRANCH   1   2
ATOM      2  C   UNL A   1      34.327  21.482  26.444  1.00  0.00     0.021 C 
BRANCH   2   3
ATOM      3  C   UNL A   1      33.808  22.895  26.710  1.00  0.00     0.116 C 
BRANCH   3   4
ATOM      4  N   UNL A   1      32.483  22.849  27.288  1.00  0.00    -0.349 N 
ATOM      5  C   UNL A   1      31.261  23.260  26.810  1.00  0.00     0.287 C 
ATOM      6  O   UNL A   1      30.302  23.049  27.555  1.00  0.00    -0.266 OA
ATOM      7  H   UNL A   1      32.450  22.451  28.189  1.00  0.00     0.163 HD
BRANCH   5   8
ATOM      8  C   UNL A   1      31.128  23.875  25.501  1.00  0.00     0.192 A 
ATOM      9  C   UNL A   1      30.897  25.626  24.176  1.00  0.00     0.135 A 
ATOM     10  C   UNL A   1      30.848  24.524  23.358  1.00  0.00     0.052 A 
ATOM     11  O   UNL A   1      31.068  25.254  25.469  1.00  0.00    -0.451 OA
ATOM     12  C   UNL A   1      31.067  23.411  24.197  1.00  0.00     0.057 A 
BRANCH   9  13
ATOM     13  C   UNL A   1      30.869  27.040  23.880  1.00  0.00     0.025 A 
ATOM     14  C   UNL A   1      31.105  29.318  24.661  1.00  0.00     0.123 A 
ATOM     15  C   UNL A   1      30.359  29.750  23.560  1.00  0.00     0.092 A 
ATOM     16  C   UNL A   1      31.357  27.957  24.819  1.00  0.00     0.058 A 
ATOM     17  C   UNL A   1      29.886  28.844  22.606  1.00  0.00     0.123 A 
ATOM     18  C   UNL A   1      30.171  27.489  22.752  1.00  0.00     0.058 A 
BRANCH  14  19
ATOM     19  O   UNL A   1      31.467  30.301  25.541  1.00  0.00    -0.497 OA
ATOM     20  C   UNL A   1      32.686  30.111  26.250  1.00  0.00     0.278 C 
ENDBRANCH  14  19
BRANCH  17  21
ATOM     21  O   UNL A   1      29.134  29.392  21.603  1.00  0.00    -0.497 OA
ATOM     22  C   UNL A   1      28.169  30.364  21.998  1.00  0.00     0.278 C 
ENDBRANCH  17  21
ENDBRANCH   9  13
ENDBRANCH   5   8
ENDBRANCH   3   4
ENDBRANCH   2   3
ENDBRANCH   1   2
BRANCH   1  23
ATOM     23  C   UNL A   1      35.991  20.458  24.753  1.00  0.00     0.002 C 
BRANCH  23  24
ATOM     24  C   UNL A   1      37.186  19.527  24.966  1.00  0.00     0.021 C 
BRANCH  24  25
ATOM     25  C   UNL A   1      38.452  20.246  25.416  1.00  0.00     0.116 C 
BRANCH  25  26
ATOM     26  N   UNL A   1      39.540  19.311  25.657  1.00  0.00    -0.352 N 
ATOM     27  C   UNL A   1      40.825  19.568  26.066  1.00  0.00     0.251 C 
ATOM     28  H   UNL A   1      39.326  18.361  25.506  1.00  0.00     0.163 HD
ATOM     29  O   UNL A   1      41.690  18.704  25.994  1.00  0.00    -0.269 OA
BRANCH  27  30
ATOM     30  C   UNL A   1      41.157  20.911  26.581  1.00  0.00     0.039 A 
ATOM     31  C   UNL A   1      41.153  21.134  27.959  1.00  0.00     0.014 A 
ATOM     32  C   UNL A   1      41.491  21.939  25.695  1.00  0.00     0.014 A 
ATOM     33  C   UNL A   1      41.554  22.376  28.455  1.00  0.00     0.010 A 
ATOM     34  C   UNL A   1      41.964  23.146  26.193  1.00  0.00     0.010 A 
ATOM     35  C   UNL A   1      41.999  23.378  27.577  1.00  0.00    -0.014 A 
BRANCH  35  36
ATOM     36  C   UNL A   1      42.516  24.674  28.076  1.00  0.00     0.031 A 
ATOM     37  C   UNL A   1      41.562  25.790  28.397  1.00  0.00     0.074 A 
ATOM     38  C   UNL A   1      43.845  24.880  28.147  1.00  0.00     0.049 A 
ATOM     39  N   UNL A   1      41.817  27.029  28.729  1.00  0.00    -0.248 NA
ATOM     40  C   UNL A   1      40.127  25.477  28.300  1.00  0.00     0.031 C 
ATOM     41  C   UNL A   1      44.873  23.891  27.814  1.00  0.00     0.029 A 
ATOM     42  N   UNL A   1      44.560  25.997  28.498  1.00  0.00    -0.354 N 
ATOM     43  C   UNL A   1      40.581  27.647  28.858  1.00  0.00     0.074 A 
ATOM     44  C   UNL A   1      39.577  26.662  28.518  1.00  0.00     0.031 C 
ATOM     45  C   UNL A   1      46.084  24.443  27.984  1.00  0.00     0.029 A 
ATOM     46  C   UNL A   1      45.920  25.835  28.392  1.00  0.00     0.049 A 
ATOM     47  H   UNL A   1      44.138  26.835  28.798  1.00  0.00     0.167 HD
ATOM     48  C   UNL A   1      40.306  28.915  29.244  1.00  0.00     0.037 A 
ATOM     49  C   UNL A   1      46.922  26.715  28.581  1.00  0.00     0.037 A 
ATOM     50  C   UNL A   1      41.310  29.885  29.598  1.00  0.00     0.049 A 
ATOM     51  C   UNL A   1      46.595  28.121  29.001  1.00  0.00     0.074 A 
ATOM     52  C   UNL A   1      41.135  31.174  30.067  1.00  0.00     0.029 A 
ATOM     53  N   UNL A   1      42.679  29.674  29.509  1.00  0.00    -0.354 N 
ATOM     54  N   UNL A   1      45.421  28.672  29.193  1.00  0.00    -0.248 NA
ATOM     55  C   UNL A   1      47.729  29.024  29.236  1.00  0.00     0.031 C 
ATOM     56  C   UNL A   1      42.395  31.763  30.206  1.00  0.00     0.029 A 
ATOM     57  C   UNL A   1      43.359  30.819  29.885  1.00  0.00     0.049 A 
ATOM     58  H   UNL A   1      43.103  28.833  29.221  1.00  0.00     0.167 HD
ATOM     59  C   UNL A   1      45.675  29.977  29.600  1.00  0.00     0.074 A 
ATOM     60  C   UNL A   1      47.114  30.129  29.635  1.00  0.00     0.031 C 
ATOM     61  C   UNL A   1      44.794  30.957  29.919  1.00  0.00     0.037 A 
BRANCH  48  62
ATOM     62  C   UNL A   1      38.861  29.328  29.290  1.00  0.00     0.057 A 
ATOM     63  C   UNL A   1      38.166  29.729  28.140  1.00  0.00     0.134 A 
ATOM     64  C   UNL A   1      38.152  29.310  30.497  1.00  0.00     0.134 A 
ATOM     65  F   UNL A   1      38.787  29.780  26.952  1.00  0.00    -0.206 F 
ATOM     66  C   UNL A   1      36.831  30.132  28.197  1.00  0.00     0.040 A 
ATOM     67  C   UNL A   1      36.807  29.679  30.561  1.00  0.00     0.040 A 
ATOM     68  F   UNL A   1      38.752  28.930  31.635  1.00  0.00    -0.206 F 
ATOM     69  C   UNL A   1      36.146  30.102  29.410  1.00  0.00     0.006 A 
ENDBRANCH  48  62
BRANCH  49  70
ATOM     70  C   UNL A   1      48.329  26.284  28.377  1.00  0.00     0.057 A 
ATOM     71  C   UNL A   1      48.958  26.421  27.136  1.00  0.00     0.134 A 
ATOM     72  C   UNL A   1      49.081  25.734  29.423  1.00  0.00     0.134 A 
ATOM     73  F   UNL A   1      48.285  26.926  26.091  1.00  0.00    -0.206 F 
ATOM     74  C   UNL A   1      50.278  26.015  26.935  1.00  0.00     0.040 A 
ATOM     75  C   UNL A   1      50.410  25.348  29.245  1.00  0.00     0.040 A 
ATOM     76  F   UNL A   1      48.540  25.585  30.642  1.00  0.00    -0.206 F 
ATOM     77  C   UNL A   1      51.010  25.482  27.994  1.00  0.00     0.006 A 
ENDBRANCH  49  70
BRANCH  61  78
ATOM     78  C   UNL A   1      45.358  32.273  30.373  1.00  0.00     0.057 A 
ATOM     79  C   UNL A   1      45.591  33.329  29.484  1.00  0.00     0.134 A 
ATOM     80  C   UNL A   1      45.620  32.500  31.731  1.00  0.00     0.134 A 
ATOM     81  F   UNL A   1      45.373  33.172  28.169  1.00  0.00    -0.206 F 
ATOM     82  C   UNL A   1      46.081  34.559  29.926  1.00  0.00     0.040 A 
ATOM     83  C   UNL A   1      46.083  33.735  32.188  1.00  0.00     0.040 A 
ATOM     84  F   UNL A   1      45.412  31.532  32.637  1.00  0.00    -0.206 F 
ATOM     85  C   UNL A   1      46.320  34.767  31.284  1.00  0.00     0.006 A 
ENDBRANCH  61  78
ENDBRANCH  35  36
ENDBRANCH  27  30
ENDBRANCH  25  26
ENDBRANCH  24  25
ENDBRANCH  23  24
ENDBRANCH   1  23
TORSDOF 16
ENDMDL
