MODEL 1
REMARK VINA RESULT:     -11.0      0.000      0.000
REMARK SMILES CC[C@](C)(NC(=O)N(C)[C@@H](C)c1ccccc1F)C(=O)NCCCCCCNC(=O)c1ccc(-c2c3nc(c(-c4c(F)cccc4F)c4ccc([nH]4)c(-c4c(F)cccc4F)c4nc(c(-c5c(F)cccc5F)c5ccc2[nH]5)C=C4)C=C3)cc1
REMARK SMILES IDX 23 1 22 2 21 3 19 4 20 5 3 7 4 8 2 9 1 10 5 11 6 12 7 14
REMARK SMILES IDX 8 15 9 16 10 17 11 18 12 19 13 20 17 21 14 22 16 23 18 24
REMARK SMILES IDX 15 25 24 26 25 27 26 28 27 29 28 30 29 31 30 33 31 34 32 35
REMARK SMILES IDX 84 36 33 37 83 38 34 39 35 40 36 41 77 42 37 43 82 44 76 45
REMARK SMILES IDX 78 46 38 47 81 48 75 49 74 50 39 52 65 53 48 54 64 55 49 56
REMARK SMILES IDX 52 57 63 58 79 59 50 60 51 61 62 63 80 64 53 65 40 66 41 67
REMARK SMILES IDX 46 68 42 69 43 70 45 71 47 72 44 73 66 74 67 75 72 76 68 77
REMARK SMILES IDX 69 78 71 79 73 80 70 81 54 82 55 83 60 84 56 85 57 86 59 87
REMARK SMILES IDX 61 88 58 89
REMARK H PARENT 21 6 5 13 28 32 78 51 52 62
REMARK Flexibility Score: inf
ROOT
ATOM      1  C   UNL A   1      33.210  28.462  26.865  1.00  0.00     0.021 C 
ENDROOT
BRANCH   1   2
ATOM      2  C   UNL A   1      32.848  27.062  26.403  1.00  0.00     0.116 C 
BRANCH   2   3
ATOM      3  N   UNL A   1      33.072  26.859  24.984  1.00  0.00    -0.354 N 
ATOM      4  C   UNL A   1      32.410  26.101  24.059  1.00  0.00     0.245 C 
ATOM      5  O   UNL A   1      32.782  26.234  22.886  1.00  0.00    -0.272 OA
ATOM      6  H   UNL A   1      33.839  27.357  24.621  1.00  0.00     0.163 HD
BRANCH   4   7
ATOM      7  C   UNL A   1      31.168  25.225  24.422  1.00  0.00     0.117 C 
ATOM      8  C   UNL A   1      30.682  24.372  23.230  1.00  0.00     0.045 C 
BRANCH   7   9
ATOM      9  C   UNL A   1      30.037  26.266  24.799  1.00  0.00     0.035 C 
ATOM     10  C   UNL A   1      29.765  27.389  23.800  1.00  0.00     0.007 C 
ENDBRANCH   7   9
BRANCH   7  11
ATOM     11  N   UNL A   1      31.373  24.313  25.593  1.00  0.00    -0.324 N 
ATOM     12  C   UNL A   1      32.207  23.342  26.031  1.00  0.00     0.318 C 
ATOM     13  H   UNL A   1      30.669  24.471  26.263  1.00  0.00     0.166 HD
ATOM     14  O   UNL A   1      31.738  22.671  26.956  1.00  0.00    -0.249 OA
BRANCH  12  15
ATOM     15  N   UNL A   1      33.503  23.194  25.619  1.00  0.00    -0.321 N 
ATOM     16  C   UNL A   1      34.686  23.533  26.392  1.00  0.00     0.149 C 
BRANCH  15  17
ATOM     17  C   UNL A   1      33.799  22.648  24.258  1.00  0.00     0.117 C 
ATOM     18  C   UNL A   1      35.157  23.063  23.644  1.00  0.00     0.036 C 
BRANCH  17  19
ATOM     19  C   UNL A   1      33.549  21.155  24.126  1.00  0.00     0.010 A 
ATOM     20  C   UNL A   1      32.425  20.639  23.459  1.00  0.00     0.009 A 
ATOM     21  C   UNL A   1      34.414  20.239  24.737  1.00  0.00     0.128 A 
ATOM     22  C   UNL A   1      32.181  19.264  23.420  1.00  0.00     0.001 A 
ATOM     23  C   UNL A   1      34.201  18.866  24.666  1.00  0.00     0.039 A 
ATOM     24  F   UNL A   1      35.459  20.669  25.458  1.00  0.00    -0.207 F 
ATOM     25  C   UNL A   1      33.076  18.376  24.011  1.00  0.00     0.003 A 
ENDBRANCH  17  19
ENDBRANCH  15  17
ENDBRANCH  12  15
ENDBRANCH   7  11
ENDBRANCH   4   7
ENDBRANCH   2   3
ENDBRANCH   1   2
BRANCH   1  26
ATOM     26  C   UNL A   1      32.028  29.382  27.177  1.00  0.00     0.002 C 
BRANCH  26  27
ATOM     27  C   UNL A   1      31.703  30.392  26.081  1.00  0.00     0.002 C 
BRANCH  27  28
ATOM     28  C   UNL A   1      31.456  31.818  26.580  1.00  0.00     0.021 C 
BRANCH  28  29
ATOM     29  C   UNL A   1      32.636  32.454  27.311  1.00  0.00     0.116 C 
BRANCH  29  30
ATOM     30  N   UNL A   1      32.393  33.853  27.624  1.00  0.00    -0.352 N 
ATOM     31  C   UNL A   1      33.062  34.658  28.510  1.00  0.00     0.251 C 
ATOM     32  H   UNL A   1      31.650  34.277  27.136  1.00  0.00     0.163 HD
ATOM     33  O   UNL A   1      32.601  35.749  28.839  1.00  0.00    -0.269 OA
BRANCH  31  34
ATOM     34  C   UNL A   1      34.340  34.194  29.087  1.00  0.00     0.039 A 
ATOM     35  C   UNL A   1      34.328  33.470  30.281  1.00  0.00     0.014 A 
ATOM     36  C   UNL A   1      35.547  34.459  28.434  1.00  0.00     0.014 A 
ATOM     37  C   UNL A   1      35.524  32.955  30.787  1.00  0.00     0.010 A 
ATOM     38  C   UNL A   1      36.726  33.885  28.901  1.00  0.00     0.010 A 
ATOM     39  C   UNL A   1      36.728  33.128  30.083  1.00  0.00    -0.014 A 
BRANCH  39  40
ATOM     40  C   UNL A   1      38.003  32.532  30.563  1.00  0.00     0.031 A 
ATOM     41  C   UNL A   1      38.508  31.253  29.952  1.00  0.00     0.074 A 
ATOM     42  C   UNL A   1      38.667  33.098  31.590  1.00  0.00     0.049 A 
ATOM     43  N   UNL A   1      39.526  30.514  30.311  1.00  0.00    -0.248 NA
ATOM     44  C   UNL A   1      37.759  30.722  28.800  1.00  0.00     0.031 C 
ATOM     45  C   UNL A   1      38.268  34.321  32.288  1.00  0.00     0.029 A 
ATOM     46  N   UNL A   1      39.814  32.708  32.241  1.00  0.00    -0.354 N 
ATOM     47  C   UNL A   1      39.531  29.430  29.443  1.00  0.00     0.074 A 
ATOM     48  C   UNL A   1      38.390  29.580  28.567  1.00  0.00     0.031 C 
ATOM     49  C   UNL A   1      39.159  34.588  33.256  1.00  0.00     0.029 A 
ATOM     50  C   UNL A   1      40.166  33.531  33.284  1.00  0.00     0.049 A 
ATOM     51  H   UNL A   1      40.335  31.913  31.983  1.00  0.00     0.167 HD
ATOM     52  C   UNL A   1      40.419  28.413  29.369  1.00  0.00     0.037 A 
ATOM     53  C   UNL A   1      41.173  33.437  34.175  1.00  0.00     0.037 A 
ATOM     54  C   UNL A   1      41.576  28.286  30.216  1.00  0.00     0.049 A 
ATOM     55  C   UNL A   1      42.135  32.283  34.081  1.00  0.00     0.074 A 
ATOM     56  C   UNL A   1      42.563  27.316  30.174  1.00  0.00     0.029 A 
ATOM     57  N   UNL A   1      41.905  29.152  31.245  1.00  0.00    -0.354 N 
ATOM     58  N   UNL A   1      42.153  31.292  33.223  1.00  0.00    -0.248 NA
ATOM     59  C   UNL A   1      43.217  32.231  35.076  1.00  0.00     0.031 C 
ATOM     60  C   UNL A   1      43.462  27.565  31.212  1.00  0.00     0.029 A 
ATOM     61  C   UNL A   1      43.068  28.725  31.860  1.00  0.00     0.049 A 
ATOM     62  H   UNL A   1      41.388  29.950  31.501  1.00  0.00     0.167 HD
ATOM     63  C   UNL A   1      43.261  30.522  33.552  1.00  0.00     0.074 A 
ATOM     64  C   UNL A   1      43.898  31.162  34.683  1.00  0.00     0.031 C 
ATOM     65  C   UNL A   1      43.709  29.386  32.967  1.00  0.00     0.037 A 
BRANCH  52  66
ATOM     66  C   UNL A   1      40.209  27.355  28.329  1.00  0.00     0.057 A 
ATOM     67  C   UNL A   1      39.507  26.182  28.635  1.00  0.00     0.134 A 
ATOM     68  C   UNL A   1      40.812  27.438  27.067  1.00  0.00     0.134 A 
ATOM     69  F   UNL A   1      38.914  26.035  29.830  1.00  0.00    -0.206 F 
ATOM     70  C   UNL A   1      39.440  25.116  27.737  1.00  0.00     0.040 A 
ATOM     71  C   UNL A   1      40.730  26.390  26.151  1.00  0.00     0.040 A 
ATOM     72  F   UNL A   1      41.490  28.540  26.710  1.00  0.00    -0.206 F 
ATOM     73  C   UNL A   1      40.056  25.218  26.490  1.00  0.00     0.006 A 
ENDBRANCH  52  66
BRANCH  53  74
ATOM     74  C   UNL A   1      41.329  34.468  35.236  1.00  0.00     0.057 A 
ATOM     75  C   UNL A   1      40.677  34.354  36.470  1.00  0.00     0.134 A 
ATOM     76  C   UNL A   1      42.149  35.586  35.044  1.00  0.00     0.134 A 
ATOM     77  F   UNL A   1      39.872  33.310  36.717  1.00  0.00    -0.206 F 
ATOM     78  C   UNL A   1      40.827  35.316  37.470  1.00  0.00     0.040 A 
ATOM     79  C   UNL A   1      42.331  36.542  36.046  1.00  0.00     0.040 A 
ATOM     80  F   UNL A   1      42.817  35.745  33.891  1.00  0.00    -0.206 F 
ATOM     81  C   UNL A   1      41.663  36.410  37.262  1.00  0.00     0.006 A 
ENDBRANCH  53  74
BRANCH  65  82
ATOM     82  C   UNL A   1      44.972  28.769  33.492  1.00  0.00     0.057 A 
ATOM     83  C   UNL A   1      44.919  27.801  34.504  1.00  0.00     0.134 A 
ATOM     84  C   UNL A   1      46.236  29.213  33.086  1.00  0.00     0.134 A 
ATOM     85  F   UNL A   1      43.738  27.342  34.947  1.00  0.00    -0.206 F 
ATOM     86  C   UNL A   1      46.077  27.315  35.112  1.00  0.00     0.040 A 
ATOM     87  C   UNL A   1      47.403  28.715  33.668  1.00  0.00     0.040 A 
ATOM     88  F   UNL A   1      46.354  30.133  32.118  1.00  0.00    -0.206 F 
ATOM     89  C   UNL A   1      47.324  27.773  34.694  1.00  0.00     0.006 A 
ENDBRANCH  65  82
ENDBRANCH  39  40
ENDBRANCH  31  34
ENDBRANCH  29  30
ENDBRANCH  28  29
ENDBRANCH  27  28
ENDBRANCH  26  27
ENDBRANCH   1  26
TORSDOF 18
ENDMDL
MODEL 2
REMARK VINA RESULT:     -10.6      1.327      6.386
REMARK SMILES CC[C@](C)(NC(=O)N(C)[C@@H](C)c1ccccc1F)C(=O)NCCCCCCNC(=O)c1ccc(-c2c3nc(c(-c4c(F)cccc4F)c4ccc([nH]4)c(-c4c(F)cccc4F)c4nc(c(-c5c(F)cccc5F)c5ccc2[nH]5)C=C4)C=C3)cc1
REMARK SMILES IDX 23 1 22 2 21 3 19 4 20 5 3 7 4 8 2 9 1 10 5 11 6 12 7 14
REMARK SMILES IDX 8 15 9 16 10 17 11 18 12 19 13 20 17 21 14 22 16 23 18 24
REMARK SMILES IDX 15 25 24 26 25 27 26 28 27 29 28 30 29 31 30 33 31 34 32 35
REMARK SMILES IDX 84 36 33 37 83 38 34 39 35 40 36 41 77 42 37 43 82 44 76 45
REMARK SMILES IDX 78 46 38 47 81 48 75 49 74 50 39 52 65 53 48 54 64 55 49 56
REMARK SMILES IDX 52 57 63 58 79 59 50 60 51 61 62 63 80 64 53 65 40 66 41 67
REMARK SMILES IDX 46 68 42 69 43 70 45 71 47 72 44 73 66 74 67 75 72 76 68 77
REMARK SMILES IDX 69 78 71 79 73 80 70 81 54 82 55 83 60 84 56 85 57 86 59 87
REMARK SMILES IDX 61 88 58 89
REMARK H PARENT 21 6 5 13 28 32 78 51 52 62
REMARK Flexibility Score: inf
ROOT
ATOM      1  C   UNL A   1      32.010  29.383  27.183  1.00  0.00     0.021 C 
ENDROOT
BRANCH   1   2
ATOM      2  C   UNL A   1      32.275  27.888  27.175  1.00  0.00     0.116 C 
BRANCH   2   3
ATOM      3  N   UNL A   1      31.096  27.106  26.849  1.00  0.00    -0.354 N 
ATOM      4  C   UNL A   1      30.840  26.229  25.833  1.00  0.00     0.245 C 
ATOM      5  O   UNL A   1      29.761  25.627  25.900  1.00  0.00    -0.272 OA
ATOM      6  H   UNL A   1      30.345  27.230  27.473  1.00  0.00     0.163 HD
BRANCH   4   7
ATOM      7  C   UNL A   1      31.891  25.892  24.728  1.00  0.00     0.117 C 
ATOM      8  C   UNL A   1      33.329  25.824  25.285  1.00  0.00     0.045 C 
BRANCH   7   9
ATOM      9  C   UNL A   1      31.797  27.095  23.703  1.00  0.00     0.035 C 
ATOM     10  C   UNL A   1      33.113  27.689  23.208  1.00  0.00     0.007 C 
ENDBRANCH   7   9
BRANCH   7  11
ATOM     11  N   UNL A   1      31.621  24.620  23.981  1.00  0.00    -0.324 N 
ATOM     12  C   UNL A   1      31.873  23.293  24.050  1.00  0.00     0.318 C 
ATOM     13  H   UNL A   1      31.087  24.814  23.178  1.00  0.00     0.166 HD
ATOM     14  O   UNL A   1      31.686  22.701  22.981  1.00  0.00    -0.249 OA
BRANCH  12  15
ATOM     15  N   UNL A   1      32.158  22.619  25.206  1.00  0.00    -0.321 N 
ATOM     16  C   UNL A   1      31.411  22.710  26.449  1.00  0.00     0.149 C 
BRANCH  15  17
ATOM     17  C   UNL A   1      33.335  21.697  25.266  1.00  0.00     0.117 C 
ATOM     18  C   UNL A   1      33.238  20.420  24.398  1.00  0.00     0.036 C 
BRANCH  17  19
ATOM     19  C   UNL A   1      34.673  22.396  25.100  1.00  0.00     0.010 A 
ATOM     20  C   UNL A   1      35.362  22.417  23.876  1.00  0.00     0.009 A 
ATOM     21  C   UNL A   1      35.298  22.991  26.204  1.00  0.00     0.128 A 
ATOM     22  C   UNL A   1      36.626  23.002  23.773  1.00  0.00     0.001 A 
ATOM     23  C   UNL A   1      36.538  23.613  26.099  1.00  0.00     0.039 A 
ATOM     24  F   UNL A   1      34.732  22.933  27.418  1.00  0.00    -0.207 F 
ATOM     25  C   UNL A   1      37.209  23.613  24.881  1.00  0.00     0.003 A 
ENDBRANCH  17  19
ENDBRANCH  15  17
ENDBRANCH  12  15
ENDBRANCH   7  11
ENDBRANCH   4   7
ENDBRANCH   2   3
ENDBRANCH   1   2
BRANCH   1  26
ATOM     26  C   UNL A   1      31.796  30.024  25.810  1.00  0.00     0.002 C 
BRANCH  26  27
ATOM     27  C   UNL A   1      31.053  31.355  25.839  1.00  0.00     0.002 C 
BRANCH  27  28
ATOM     28  C   UNL A   1      31.363  32.233  27.054  1.00  0.00     0.021 C 
BRANCH  28  29
ATOM     29  C   UNL A   1      32.628  33.078  26.928  1.00  0.00     0.116 C 
BRANCH  29  30
ATOM     30  N   UNL A   1      32.541  34.308  27.698  1.00  0.00    -0.352 N 
ATOM     31  C   UNL A   1      33.235  34.658  28.828  1.00  0.00     0.251 C 
ATOM     32  H   UNL A   1      31.899  34.976  27.365  1.00  0.00     0.163 HD
ATOM     33  O   UNL A   1      32.892  35.628  29.501  1.00  0.00    -0.269 OA
BRANCH  31  34
ATOM     34  C   UNL A   1      34.395  33.844  29.247  1.00  0.00     0.039 A 
ATOM     35  C   UNL A   1      35.679  34.239  28.867  1.00  0.00     0.014 A 
ATOM     36  C   UNL A   1      34.209  32.703  30.031  1.00  0.00     0.014 A 
ATOM     37  C   UNL A   1      36.786  33.523  29.330  1.00  0.00     0.010 A 
ATOM     38  C   UNL A   1      35.315  32.034  30.550  1.00  0.00     0.010 A 
ATOM     39  C   UNL A   1      36.615  32.435  30.204  1.00  0.00    -0.014 A 
BRANCH  39  40
ATOM     40  C   UNL A   1      37.777  31.699  30.767  1.00  0.00     0.031 A 
ATOM     41  C   UNL A   1      38.356  32.115  32.092  1.00  0.00     0.074 A 
ATOM     42  C   UNL A   1      38.355  30.708  30.059  1.00  0.00     0.049 A 
ATOM     43  N   UNL A   1      39.436  31.682  32.692  1.00  0.00    -0.248 NA
ATOM     44  C   UNL A   1      37.641  33.169  32.832  1.00  0.00     0.031 C 
ATOM     45  C   UNL A   1      37.908  30.229  28.750  1.00  0.00     0.029 A 
ATOM     46  N   UNL A   1      39.457  29.933  30.333  1.00  0.00    -0.354 N 
ATOM     47  C   UNL A   1      39.537  32.418  33.865  1.00  0.00     0.074 A 
ATOM     48  C   UNL A   1      38.436  33.356  33.876  1.00  0.00     0.031 C 
ATOM     49  C   UNL A   1      38.717  29.238  28.343  1.00  0.00     0.029 A 
ATOM     50  C   UNL A   1      39.769  29.041  29.335  1.00  0.00     0.049 A 
ATOM     51  H   UNL A   1      39.974  30.011  31.168  1.00  0.00     0.167 HD
ATOM     52  C   UNL A   1      40.452  32.306  34.854  1.00  0.00     0.037 A 
ATOM     53  C   UNL A   1      40.797  28.177  29.221  1.00  0.00     0.037 A 
ATOM     54  C   UNL A   1      41.524  31.346  34.860  1.00  0.00     0.049 A 
ATOM     55  C   UNL A   1      41.813  28.088  30.329  1.00  0.00     0.074 A 
ATOM     56  C   UNL A   1      42.466  31.123  35.850  1.00  0.00     0.029 A 
ATOM     57  N   UNL A   1      41.792  30.449  33.839  1.00  0.00    -0.354 N 
ATOM     58  N   UNL A   1      41.865  28.758  31.455  1.00  0.00    -0.248 NA
ATOM     59  C   UNL A   1      42.912  27.125  30.155  1.00  0.00     0.031 C 
ATOM     60  C   UNL A   1      43.336  30.127  35.406  1.00  0.00     0.029 A 
ATOM     61  C   UNL A   1      42.899  29.687  34.167  1.00  0.00     0.049 A 
ATOM     62  H   UNL A   1      41.273  30.368  33.007  1.00  0.00     0.167 HD
ATOM     63  C   UNL A   1      42.976  28.275  32.135  1.00  0.00     0.074 A 
ATOM     64  C   UNL A   1      43.568  27.250  31.301  1.00  0.00     0.031 C 
ATOM     65  C   UNL A   1      43.461  28.650  33.342  1.00  0.00     0.037 A 
BRANCH  52  66
ATOM     66  C   UNL A   1      40.341  33.221  36.037  1.00  0.00     0.057 A 
ATOM     67  C   UNL A   1      41.139  34.369  36.128  1.00  0.00     0.134 A 
ATOM     68  C   UNL A   1      39.544  32.896  37.142  1.00  0.00     0.134 A 
ATOM     69  F   UNL A   1      41.932  34.731  35.108  1.00  0.00    -0.206 F 
ATOM     70  C   UNL A   1      41.172  35.144  37.288  1.00  0.00     0.040 A 
ATOM     71  C   UNL A   1      39.550  33.678  38.297  1.00  0.00     0.040 A 
ATOM     72  F   UNL A   1      38.751  31.814  37.112  1.00  0.00    -0.206 F 
ATOM     73  C   UNL A   1      40.377  34.796  38.379  1.00  0.00     0.006 A 
ENDBRANCH  52  66
BRANCH  53  74
ATOM     74  C   UNL A   1      40.920  27.319  28.013  1.00  0.00     0.057 A 
ATOM     75  C   UNL A   1      40.266  26.084  27.921  1.00  0.00     0.134 A 
ATOM     76  C   UNL A   1      41.684  27.723  26.911  1.00  0.00     0.134 A 
ATOM     77  F   UNL A   1      39.522  25.634  28.942  1.00  0.00    -0.206 F 
ATOM     78  C   UNL A   1      40.374  25.279  26.786  1.00  0.00     0.040 A 
ATOM     79  C   UNL A   1      41.778  26.942  25.758  1.00  0.00     0.040 A 
ATOM     80  F   UNL A   1      42.319  28.905  26.928  1.00  0.00    -0.206 F 
ATOM     81  C   UNL A   1      41.126  25.713  25.696  1.00  0.00     0.006 A 
ENDBRANCH  53  74
BRANCH  65  82
ATOM     82  C   UNL A   1      44.664  27.930  33.877  1.00  0.00     0.057 A 
ATOM     83  C   UNL A   1      45.955  28.382  33.570  1.00  0.00     0.134 A 
ATOM     84  C   UNL A   1      44.551  26.731  34.591  1.00  0.00     0.134 A 
ATOM     85  F   UNL A   1      46.132  29.518  32.876  1.00  0.00    -0.206 F 
ATOM     86  C   UNL A   1      47.089  27.655  33.930  1.00  0.00     0.040 A 
ATOM     87  C   UNL A   1      45.680  26.008  34.981  1.00  0.00     0.040 A 
ATOM     88  F   UNL A   1      43.344  26.249  34.922  1.00  0.00    -0.206 F 
ATOM     89  C   UNL A   1      46.952  26.463  34.638  1.00  0.00     0.006 A 
ENDBRANCH  65  82
ENDBRANCH  39  40
ENDBRANCH  31  34
ENDBRANCH  29  30
ENDBRANCH  28  29
ENDBRANCH  27  28
ENDBRANCH  26  27
ENDBRANCH   1  26
TORSDOF 18
ENDMDL
MODEL 3
REMARK VINA RESULT:     -10.5      2.446      7.747
REMARK SMILES CC[C@](C)(NC(=O)N(C)[C@@H](C)c1ccccc1F)C(=O)NCCCCCCNC(=O)c1ccc(-c2c3nc(c(-c4c(F)cccc4F)c4ccc([nH]4)c(-c4c(F)cccc4F)c4nc(c(-c5c(F)cccc5F)c5ccc2[nH]5)C=C4)C=C3)cc1
REMARK SMILES IDX 23 1 22 2 21 3 19 4 20 5 3 7 4 8 2 9 1 10 5 11 6 12 7 14
REMARK SMILES IDX 8 15 9 16 10 17 11 18 12 19 13 20 17 21 14 22 16 23 18 24
REMARK SMILES IDX 15 25 24 26 25 27 26 28 27 29 28 30 29 31 30 33 31 34 32 35
REMARK SMILES IDX 84 36 33 37 83 38 34 39 35 40 36 41 77 42 37 43 82 44 76 45
REMARK SMILES IDX 78 46 38 47 81 48 75 49 74 50 39 52 65 53 48 54 64 55 49 56
REMARK SMILES IDX 52 57 63 58 79 59 50 60 51 61 62 63 80 64 53 65 40 66 41 67
REMARK SMILES IDX 46 68 42 69 43 70 45 71 47 72 44 73 66 74 67 75 72 76 68 77
REMARK SMILES IDX 69 78 71 79 73 80 70 81 54 82 55 83 60 84 56 85 57 86 59 87
REMARK SMILES IDX 61 88 58 89
REMARK H PARENT 21 6 5 13 28 32 78 51 52 62
REMARK Flexibility Score: inf
ROOT
ATOM      1  C   UNL A   1      33.943  20.694  25.537  1.00  0.00     0.021 C 
ENDROOT
BRANCH   1   2
ATOM      2  C   UNL A   1      32.611  20.892  24.836  1.00  0.00     0.116 C 
BRANCH   2   3
ATOM      3  N   UNL A   1      31.601  21.481  25.695  1.00  0.00    -0.354 N 
ATOM      4  C   UNL A   1      30.982  22.699  25.668  1.00  0.00     0.245 C 
ATOM      5  O   UNL A   1      30.066  22.858  26.484  1.00  0.00    -0.272 OA
ATOM      6  H   UNL A   1      31.307  20.897  26.432  1.00  0.00     0.163 HD
BRANCH   4   7
ATOM      7  C   UNL A   1      31.304  23.782  24.588  1.00  0.00     0.117 C 
ATOM      8  C   UNL A   1      31.717  23.159  23.237  1.00  0.00     0.045 C 
BRANCH   7   9
ATOM      9  C   UNL A   1      32.534  24.586  25.177  1.00  0.00     0.035 C 
ATOM     10  C   UNL A   1      32.400  25.112  26.604  1.00  0.00     0.007 C 
ENDBRANCH   7   9
BRANCH   7  11
ATOM     11  N   UNL A   1      30.191  24.753  24.331  1.00  0.00    -0.324 N 
ATOM     12  C   UNL A   1      29.987  26.027  23.926  1.00  0.00     0.318 C 
ATOM     13  H   UNL A   1      29.326  24.322  24.517  1.00  0.00     0.166 HD
ATOM     14  O   UNL A   1      28.858  26.453  24.193  1.00  0.00    -0.249 OA
BRANCH  12  15
ATOM     15  N   UNL A   1      30.864  26.745  23.161  1.00  0.00    -0.321 N 
ATOM     16  C   UNL A   1      31.552  26.262  21.976  1.00  0.00     0.149 C 
BRANCH  15  17
ATOM     17  C   UNL A   1      31.197  28.158  23.527  1.00  0.00     0.117 C 
ATOM     18  C   UNL A   1      30.028  29.169  23.450  1.00  0.00     0.036 C 
BRANCH  17  19
ATOM     19  C   UNL A   1      31.977  28.289  24.824  1.00  0.00     0.010 A 
ATOM     20  C   UNL A   1      31.356  28.609  26.043  1.00  0.00     0.009 A 
ATOM     21  C   UNL A   1      33.371  28.160  24.823  1.00  0.00     0.128 A 
ATOM     22  C   UNL A   1      32.109  28.799  27.205  1.00  0.00     0.001 A 
ATOM     23  C   UNL A   1      34.124  28.306  25.984  1.00  0.00     0.039 A 
ATOM     24  F   UNL A   1      34.032  27.938  23.678  1.00  0.00    -0.207 F 
ATOM     25  C   UNL A   1      33.492  28.633  27.179  1.00  0.00     0.003 A 
ENDBRANCH  17  19
ENDBRANCH  15  17
ENDBRANCH  12  15
ENDBRANCH   7  11
ENDBRANCH   4   7
ENDBRANCH   2   3
ENDBRANCH   1   2
BRANCH   1  26
ATOM     26  C   UNL A   1      35.042  21.692  25.163  1.00  0.00     0.002 C 
BRANCH  26  27
ATOM     27  C   UNL A   1      35.023  22.988  25.966  1.00  0.00     0.002 C 
BRANCH  27  28
ATOM     28  C   UNL A   1      36.405  23.507  26.373  1.00  0.00     0.021 C 
BRANCH  28  29
ATOM     29  C   UNL A   1      37.429  23.555  25.241  1.00  0.00     0.116 C 
BRANCH  29  30
ATOM     30  N   UNL A   1      38.573  22.698  25.506  1.00  0.00    -0.352 N 
ATOM     31  C   UNL A   1      39.758  23.021  26.117  1.00  0.00     0.251 C 
ATOM     32  H   UNL A   1      38.486  21.763  25.208  1.00  0.00     0.163 HD
ATOM     33  O   UNL A   1      40.720  22.257  26.065  1.00  0.00    -0.269 OA
BRANCH  31  34
ATOM     34  C   UNL A   1      39.878  24.311  26.827  1.00  0.00     0.039 A 
ATOM     35  C   UNL A   1      39.334  24.441  28.105  1.00  0.00     0.014 A 
ATOM     36  C   UNL A   1      40.548  25.384  26.232  1.00  0.00     0.014 A 
ATOM     37  C   UNL A   1      39.518  25.629  28.816  1.00  0.00     0.010 A 
ATOM     38  C   UNL A   1      40.792  26.540  26.968  1.00  0.00     0.010 A 
ATOM     39  C   UNL A   1      40.279  26.676  28.268  1.00  0.00    -0.014 A 
BRANCH  39  40
ATOM     40  C   UNL A   1      40.549  27.924  29.029  1.00  0.00     0.031 A 
ATOM     41  C   UNL A   1      41.823  28.059  29.818  1.00  0.00     0.074 A 
ATOM     42  C   UNL A   1      39.623  28.903  29.069  1.00  0.00     0.049 A 
ATOM     43  N   UNL A   1      42.187  29.010  30.639  1.00  0.00    -0.248 NA
ATOM     44  C   UNL A   1      42.809  26.973  29.684  1.00  0.00     0.031 C 
ATOM     45  C   UNL A   1      38.336  28.883  28.372  1.00  0.00     0.029 A 
ATOM     46  N   UNL A   1      39.614  30.103  29.741  1.00  0.00    -0.354 N 
ATOM     47  C   UNL A   1      43.430  28.631  31.128  1.00  0.00     0.074 A 
ATOM     48  C   UNL A   1      43.743  27.344  30.548  1.00  0.00     0.031 C 
ATOM     49  C   UNL A   1      37.670  30.018  28.641  1.00  0.00     0.029 A 
ATOM     50  C   UNL A   1      38.458  30.826  29.567  1.00  0.00     0.049 A 
ATOM     51  H   UNL A   1      40.367  30.415  30.294  1.00  0.00     0.167 HD
ATOM     52  C   UNL A   1      44.247  29.307  31.968  1.00  0.00     0.037 A 
ATOM     53  C   UNL A   1      38.067  31.998  30.106  1.00  0.00     0.037 A 
ATOM     54  C   UNL A   1      43.952  30.606  32.513  1.00  0.00     0.049 A 
ATOM     55  C   UNL A   1      38.988  32.718  31.053  1.00  0.00     0.074 A 
ATOM     56  C   UNL A   1      44.749  31.392  33.328  1.00  0.00     0.029 A 
ATOM     57  N   UNL A   1      42.780  31.310  32.296  1.00  0.00    -0.354 N 
ATOM     58  N   UNL A   1      40.183  32.369  31.467  1.00  0.00    -0.248 NA
ATOM     59  C   UNL A   1      38.513  33.994  31.610  1.00  0.00     0.031 C 
ATOM     60  C   UNL A   1      44.038  32.549  33.647  1.00  0.00     0.029 A 
ATOM     61  C   UNL A   1      42.824  32.512  32.980  1.00  0.00     0.049 A 
ATOM     62  H   UNL A   1      42.029  31.002  31.739  1.00  0.00     0.167 HD
ATOM     63  C   UNL A   1      40.613  33.394  32.300  1.00  0.00     0.074 A 
ATOM     64  C   UNL A   1      39.557  34.383  32.330  1.00  0.00     0.031 C 
ATOM     65  C   UNL A   1      41.779  33.502  32.979  1.00  0.00     0.037 A 
BRANCH  52  66
ATOM     66  C   UNL A   1      45.557  28.684  32.345  1.00  0.00     0.057 A 
ATOM     67  C   UNL A   1      46.683  28.839  31.524  1.00  0.00     0.134 A 
ATOM     68  C   UNL A   1      45.670  27.825  33.445  1.00  0.00     0.134 A 
ATOM     69  F   UNL A   1      46.638  29.640  30.449  1.00  0.00    -0.206 F 
ATOM     70  C   UNL A   1      47.864  28.137  31.767  1.00  0.00     0.040 A 
ATOM     71  C   UNL A   1      46.855  27.138  33.712  1.00  0.00     0.040 A 
ATOM     72  F   UNL A   1      44.631  27.643  34.274  1.00  0.00    -0.206 F 
ATOM     73  C   UNL A   1      47.950  27.280  32.864  1.00  0.00     0.006 A 
ENDBRANCH  52  66
BRANCH  53  74
ATOM     74  C   UNL A   1      36.738  32.570  29.763  1.00  0.00     0.057 A 
ATOM     75  C   UNL A   1      36.581  33.476  28.706  1.00  0.00     0.134 A 
ATOM     76  C   UNL A   1      35.588  32.211  30.476  1.00  0.00     0.134 A 
ATOM     77  F   UNL A   1      37.642  33.867  27.986  1.00  0.00    -0.206 F 
ATOM     78  C   UNL A   1      35.334  34.010  28.378  1.00  0.00     0.040 A 
ATOM     79  C   UNL A   1      34.330  32.715  30.140  1.00  0.00     0.040 A 
ATOM     80  F   UNL A   1      35.667  31.332  31.486  1.00  0.00    -0.206 F 
ATOM     81  C   UNL A   1      34.202  33.623  29.091  1.00  0.00     0.006 A 
ENDBRANCH  53  74
BRANCH  65  82
ATOM     82  C   UNL A   1      42.018  34.747  33.782  1.00  0.00     0.057 A 
ATOM     83  C   UNL A   1      42.697  35.835  33.216  1.00  0.00     0.134 A 
ATOM     84  C   UNL A   1      41.686  34.826  35.139  1.00  0.00     0.134 A 
ATOM     85  F   UNL A   1      43.056  35.817  31.923  1.00  0.00    -0.206 F 
ATOM     86  C   UNL A   1      43.060  36.946  33.978  1.00  0.00     0.040 A 
ATOM     87  C   UNL A   1      42.020  35.944  35.906  1.00  0.00     0.040 A 
ATOM     88  F   UNL A   1      41.030  33.821  35.738  1.00  0.00    -0.206 F 
ATOM     89  C   UNL A   1      42.721  37.001  35.328  1.00  0.00     0.006 A 
ENDBRANCH  65  82
ENDBRANCH  39  40
ENDBRANCH  31  34
ENDBRANCH  29  30
ENDBRANCH  28  29
ENDBRANCH  27  28
ENDBRANCH  26  27
ENDBRANCH   1  26
TORSDOF 18
ENDMDL
