MODEL 1
REMARK VINA RESULT:     -11.1      0.000      0.000
REMARK SMILES CCOc1ccccc1NC(=O)N[C@@](C)(CC)C(=O)NCCCCCCNC(=O)c1ccc(-c2c3nc(c(-c4c(F)cccc4F)c4ccc([nH]4)c(-c4c(F)cccc4F)c4nc(c(-c5c(F)cccc5F)c5ccc2[nH]5)C=C4)C=C3)cc1
REMARK SMILES IDX 22 1 21 2 20 3 18 4 19 5 14 7 15 8 13 9 10 10 11 11 12 13
REMARK SMILES IDX 9 15 4 16 5 17 6 18 8 19 7 20 3 21 2 22 1 23 16 24 17 25
REMARK SMILES IDX 23 26 24 27 25 28 26 29 27 30 28 31 29 33 30 34 31 35 83 36
REMARK SMILES IDX 32 37 82 38 33 39 34 40 35 41 76 42 36 43 81 44 75 45 77 46
REMARK SMILES IDX 37 47 80 48 74 49 73 50 38 52 64 53 47 54 63 55 48 56 51 57
REMARK SMILES IDX 62 58 78 59 49 60 50 61 61 63 79 64 52 65 39 66 40 67 45 68
REMARK SMILES IDX 41 69 42 70 44 71 46 72 43 73 65 74 66 75 71 76 67 77 68 78
REMARK SMILES IDX 70 79 72 80 69 81 53 82 54 83 59 84 55 85 56 86 58 87 60 88
REMARK SMILES IDX 57 89
REMARK H PARENT 20 6 10 12 13 14 27 32 77 51 51 62
REMARK Flexibility Score: inf
ROOT
ATOM      1  C   UNL A   1      31.454  28.263  27.001  1.00  0.00     0.021 C 
ENDROOT
BRANCH   1   2
ATOM      2  C   UNL A   1      32.491  27.166  26.837  1.00  0.00     0.116 C 
BRANCH   2   3
ATOM      3  N   UNL A   1      32.605  26.687  25.492  1.00  0.00    -0.354 N 
ATOM      4  C   UNL A   1      33.301  27.459  24.594  1.00  0.00     0.245 C 
ATOM      5  O   UNL A   1      34.264  28.137  24.959  1.00  0.00    -0.272 OA
ATOM      6  H   UNL A   1      32.198  25.832  25.221  1.00  0.00     0.163 HD
BRANCH   4   7
ATOM      7  C   UNL A   1      32.768  27.462  23.136  1.00  0.00     0.117 C 
ATOM      8  C   UNL A   1      33.190  28.888  22.644  1.00  0.00     0.045 C 
BRANCH   7   9
ATOM      9  N   UNL A   1      33.371  26.547  22.143  1.00  0.00    -0.324 N 
ATOM     10  N   UNL A   1      32.213  24.503  21.812  1.00  0.00    -0.305 N 
ATOM     11  C   UNL A   1      32.863  25.580  21.379  1.00  0.00     0.320 C 
ATOM     12  H   UNL A   1      31.630  24.130  21.112  1.00  0.00     0.172 HD
ATOM     13  O   UNL A   1      33.029  25.696  20.160  1.00  0.00    -0.248 OA
ATOM     14  H   UNL A   1      34.340  26.677  22.023  1.00  0.00     0.166 HD
BRANCH  10  15
ATOM     15  C   UNL A   1      32.131  23.754  22.993  1.00  0.00     0.085 A 
ATOM     16  C   UNL A   1      33.185  22.855  23.225  1.00  0.00     0.142 A 
ATOM     17  C   UNL A   1      33.107  21.862  24.199  1.00  0.00     0.048 A 
ATOM     18  C   UNL A   1      32.019  21.861  25.062  1.00  0.00     0.004 A 
ATOM     19  C   UNL A   1      31.152  23.854  23.965  1.00  0.00     0.030 A 
ATOM     20  C   UNL A   1      31.078  22.891  24.982  1.00  0.00     0.002 A 
BRANCH  16  21
ATOM     21  O   UNL A   1      34.362  23.014  22.525  1.00  0.00    -0.492 OA
BRANCH  21  22
ATOM     22  C   UNL A   1      35.369  23.557  23.412  1.00  0.00     0.226 C 
ATOM     23  C   UNL A   1      36.669  22.771  23.319  1.00  0.00     0.049 C 
ENDBRANCH  21  22
ENDBRANCH  16  21
ENDBRANCH  10  15
ENDBRANCH   7   9
BRANCH   7  24
ATOM     24  C   UNL A   1      31.204  27.485  23.135  1.00  0.00     0.035 C 
ATOM     25  C   UNL A   1      30.493  28.831  23.066  1.00  0.00     0.007 C 
ENDBRANCH   7  24
ENDBRANCH   4   7
ENDBRANCH   2   3
ENDBRANCH   1   2
BRANCH   1  26
ATOM     26  C   UNL A   1      32.040  29.666  27.167  1.00  0.00     0.002 C 
BRANCH  26  27
ATOM     27  C   UNL A   1      31.632  30.694  26.103  1.00  0.00     0.002 C 
BRANCH  27  28
ATOM     28  C   UNL A   1      31.407  32.124  26.597  1.00  0.00     0.021 C 
BRANCH  28  29
ATOM     29  C   UNL A   1      32.626  32.798  27.202  1.00  0.00     0.116 C 
BRANCH  29  30
ATOM     30  N   UNL A   1      32.361  34.159  27.625  1.00  0.00    -0.352 N 
ATOM     31  C   UNL A   1      33.011  34.900  28.578  1.00  0.00     0.251 C 
ATOM     32  H   UNL A   1      31.615  34.611  27.168  1.00  0.00     0.163 HD
ATOM     33  O   UNL A   1      32.571  35.994  28.925  1.00  0.00    -0.269 OA
BRANCH  31  34
ATOM     34  C   UNL A   1      34.229  34.355  29.213  1.00  0.00     0.039 A 
ATOM     35  C   UNL A   1      34.099  33.605  30.384  1.00  0.00     0.014 A 
ATOM     36  C   UNL A   1      35.488  34.553  28.639  1.00  0.00     0.014 A 
ATOM     37  C   UNL A   1      35.225  33.003  30.945  1.00  0.00     0.010 A 
ATOM     38  C   UNL A   1      36.593  33.880  29.149  1.00  0.00     0.010 A 
ATOM     39  C   UNL A   1      36.476  33.104  30.312  1.00  0.00    -0.014 A 
BRANCH  39  40
ATOM     40  C   UNL A   1      37.672  32.413  30.856  1.00  0.00     0.031 A 
ATOM     41  C   UNL A   1      38.351  32.942  32.090  1.00  0.00     0.074 A 
ATOM     42  C   UNL A   1      38.181  31.346  30.209  1.00  0.00     0.049 A 
ATOM     43  N   UNL A   1      39.439  32.519  32.682  1.00  0.00    -0.248 NA
ATOM     44  C   UNL A   1      37.741  34.121  32.729  1.00  0.00     0.031 C 
ATOM     45  C   UNL A   1      37.644  30.767  28.975  1.00  0.00     0.029 A 
ATOM     46  N   UNL A   1      39.271  30.563  30.494  1.00  0.00    -0.354 N 
ATOM     47  C   UNL A   1      39.650  33.384  33.748  1.00  0.00     0.074 A 
ATOM     48  C   UNL A   1      38.614  34.392  33.687  1.00  0.00     0.031 C 
ATOM     49  C   UNL A   1      38.389  29.706  28.628  1.00  0.00     0.029 A 
ATOM     50  C   UNL A   1      39.479  29.554  29.585  1.00  0.00     0.049 A 
ATOM     51  H   UNL A   1      39.850  30.710  31.277  1.00  0.00     0.167 HD
ATOM     52  C   UNL A   1      40.604  33.330  34.707  1.00  0.00     0.037 A 
ATOM     53  C   UNL A   1      40.445  28.617  29.526  1.00  0.00     0.037 A 
ATOM     54  C   UNL A   1      41.618  32.312  34.777  1.00  0.00     0.049 A 
ATOM     55  C   UNL A   1      41.501  28.586  30.597  1.00  0.00     0.074 A 
ATOM     56  C   UNL A   1      42.596  32.135  35.741  1.00  0.00     0.029 A 
ATOM     57  N   UNL A   1      41.787  31.299  33.846  1.00  0.00    -0.354 N 
ATOM     58  N   UNL A   1      41.647  29.369  31.639  1.00  0.00    -0.248 NA
ATOM     59  C   UNL A   1      42.523  27.536  30.488  1.00  0.00     0.031 C 
ATOM     60  C   UNL A   1      43.388  31.045  35.365  1.00  0.00     0.029 A 
ATOM     61  C   UNL A   1      42.869  30.508  34.199  1.00  0.00     0.049 A 
ATOM     62  H   UNL A   1      41.222  31.161  33.050  1.00  0.00     0.167 HD
ATOM     63  C   UNL A   1      42.755  28.889  32.324  1.00  0.00     0.074 A 
ATOM     64  C   UNL A   1      43.235  27.737  31.589  1.00  0.00     0.031 C 
ATOM     65  C   UNL A   1      43.326  29.358  33.460  1.00  0.00     0.037 A 
BRANCH  52  66
ATOM     66  C   UNL A   1      40.590  34.398  35.761  1.00  0.00     0.057 A 
ATOM     67  C   UNL A   1      41.317  35.587  35.620  1.00  0.00     0.134 A 
ATOM     68  C   UNL A   1      39.809  34.254  36.916  1.00  0.00     0.134 A 
ATOM     69  F   UNL A   1      42.095  35.785  34.545  1.00  0.00    -0.206 F 
ATOM     70  C   UNL A   1      41.291  36.581  36.599  1.00  0.00     0.040 A 
ATOM     71  C   UNL A   1      39.752  35.253  37.889  1.00  0.00     0.040 A 
ATOM     72  F   UNL A   1      39.084  33.143  37.114  1.00  0.00    -0.206 F 
ATOM     73  C   UNL A   1      40.501  36.419  37.735  1.00  0.00     0.006 A 
ENDBRANCH  52  66
BRANCH  53  74
ATOM     74  C   UNL A   1      40.451  27.619  28.426  1.00  0.00     0.057 A 
ATOM     75  C   UNL A   1      41.157  27.854  27.240  1.00  0.00     0.134 A 
ATOM     76  C   UNL A   1      39.739  26.418  28.522  1.00  0.00     0.134 A 
ATOM     77  F   UNL A   1      41.845  28.995  27.079  1.00  0.00    -0.206 F 
ATOM     78  C   UNL A   1      41.135  26.945  26.182  1.00  0.00     0.040 A 
ATOM     79  C   UNL A   1      39.731  25.486  27.483  1.00  0.00     0.040 A 
ATOM     80  F   UNL A   1      39.048  26.128  29.634  1.00  0.00    -0.206 F 
ATOM     81  C   UNL A   1      40.423  25.753  26.303  1.00  0.00     0.006 A 
ENDBRANCH  53  74
BRANCH  65  82
ATOM     82  C   UNL A   1      44.505  28.602  34.002  1.00  0.00     0.057 A 
ATOM     83  C   UNL A   1      44.353  27.516  34.872  1.00  0.00     0.134 A 
ATOM     84  C   UNL A   1      45.806  28.941  33.610  1.00  0.00     0.134 A 
ATOM     85  F   UNL A   1      43.135  27.147  35.295  1.00  0.00    -0.206 F 
ATOM     86  C   UNL A   1      45.457  26.810  35.355  1.00  0.00     0.040 A 
ATOM     87  C   UNL A   1      46.915  28.223  34.062  1.00  0.00     0.040 A 
ATOM     88  F   UNL A   1      46.022  29.965  32.770  1.00  0.00    -0.206 F 
ATOM     89  C   UNL A   1      46.742  27.158  34.943  1.00  0.00     0.006 A 
ENDBRANCH  65  82
ENDBRANCH  39  40
ENDBRANCH  31  34
ENDBRANCH  29  30
ENDBRANCH  28  29
ENDBRANCH  27  28
ENDBRANCH  26  27
ENDBRANCH   1  26
TORSDOF 18
ENDMDL
MODEL 2
REMARK VINA RESULT:     -10.8      6.030     10.999
REMARK SMILES CCOc1ccccc1NC(=O)N[C@@](C)(CC)C(=O)NCCCCCCNC(=O)c1ccc(-c2c3nc(c(-c4c(F)cccc4F)c4ccc([nH]4)c(-c4c(F)cccc4F)c4nc(c(-c5c(F)cccc5F)c5ccc2[nH]5)C=C4)C=C3)cc1
REMARK SMILES IDX 22 1 21 2 20 3 18 4 19 5 14 7 15 8 13 9 10 10 11 11 12 13
REMARK SMILES IDX 9 15 4 16 5 17 6 18 8 19 7 20 3 21 2 22 1 23 16 24 17 25
REMARK SMILES IDX 23 26 24 27 25 28 26 29 27 30 28 31 29 33 30 34 31 35 83 36
REMARK SMILES IDX 32 37 82 38 33 39 34 40 35 41 76 42 36 43 81 44 75 45 77 46
REMARK SMILES IDX 37 47 80 48 74 49 73 50 38 52 64 53 47 54 63 55 48 56 51 57
REMARK SMILES IDX 62 58 78 59 49 60 50 61 61 63 79 64 52 65 39 66 40 67 45 68
REMARK SMILES IDX 41 69 42 70 44 71 46 72 43 73 65 74 66 75 71 76 67 77 68 78
REMARK SMILES IDX 70 79 72 80 69 81 53 82 54 83 59 84 55 85 56 86 58 87 60 88
REMARK SMILES IDX 57 89
REMARK H PARENT 20 6 10 12 13 14 27 32 77 51 51 62
REMARK Flexibility Score: inf
ROOT
ATOM      1  C   UNL A   1      41.185  21.778  26.208  1.00  0.00     0.021 C 
ENDROOT
BRANCH   1   2
ATOM      2  C   UNL A   1      39.830  22.182  26.760  1.00  0.00     0.116 C 
BRANCH   2   3
ATOM      3  N   UNL A   1      38.805  22.244  25.762  1.00  0.00    -0.354 N 
ATOM      4  C   UNL A   1      37.791  23.153  25.943  1.00  0.00     0.245 C 
ATOM      5  O   UNL A   1      38.003  24.233  26.500  1.00  0.00    -0.272 OA
ATOM      6  H   UNL A   1      38.826  21.656  24.972  1.00  0.00     0.163 HD
BRANCH   4   7
ATOM      7  C   UNL A   1      36.383  22.713  25.460  1.00  0.00     0.117 C 
ATOM      8  C   UNL A   1      36.620  21.205  25.111  1.00  0.00     0.045 C 
BRANCH   7   9
ATOM      9  N   UNL A   1      35.263  22.686  26.426  1.00  0.00    -0.324 N 
ATOM     10  N   UNL A   1      33.589  21.060  25.991  1.00  0.00    -0.305 N 
ATOM     11  C   UNL A   1      34.412  21.728  26.796  1.00  0.00     0.320 C 
ATOM     12  H   UNL A   1      33.333  20.193  26.380  1.00  0.00     0.172 HD
ATOM     13  O   UNL A   1      34.382  21.453  28.001  1.00  0.00    -0.248 OA
ATOM     14  H   UNL A   1      35.115  23.544  26.886  1.00  0.00     0.166 HD
BRANCH  10  15
ATOM     15  C   UNL A   1      32.986  21.255  24.742  1.00  0.00     0.085 A 
ATOM     16  C   UNL A   1      32.519  20.098  24.098  1.00  0.00     0.142 A 
ATOM     17  C   UNL A   1      32.153  20.099  22.754  1.00  0.00     0.048 A 
ATOM     18  C   UNL A   1      32.104  21.312  22.078  1.00  0.00     0.004 A 
ATOM     19  C   UNL A   1      32.760  22.468  24.118  1.00  0.00     0.030 A 
ATOM     20  C   UNL A   1      32.347  22.497  22.777  1.00  0.00     0.002 A 
BRANCH  16  21
ATOM     21  O   UNL A   1      32.343  18.949  24.839  1.00  0.00    -0.492 OA
BRANCH  21  22
ATOM     22  C   UNL A   1      32.889  17.826  24.106  1.00  0.00     0.226 C 
ATOM     23  C   UNL A   1      34.403  17.756  24.251  1.00  0.00     0.049 C 
ENDBRANCH  21  22
ENDBRANCH  16  21
ENDBRANCH  10  15
ENDBRANCH   7   9
BRANCH   7  24
ATOM     24  C   UNL A   1      36.047  23.393  24.091  1.00  0.00     0.035 C 
ATOM     25  C   UNL A   1      36.653  22.813  22.820  1.00  0.00     0.007 C 
ENDBRANCH   7  24
ENDBRANCH   4   7
ENDBRANCH   2   3
ENDBRANCH   1   2
BRANCH   1  26
ATOM     26  C   UNL A   1      42.146  21.203  27.250  1.00  0.00     0.002 C 
BRANCH  26  27
ATOM     27  C   UNL A   1      41.963  19.715  27.583  1.00  0.00     0.002 C 
BRANCH  27  28
ATOM     28  C   UNL A   1      42.801  18.732  26.763  1.00  0.00     0.021 C 
BRANCH  28  29
ATOM     29  C   UNL A   1      42.775  18.958  25.262  1.00  0.00     0.116 C 
BRANCH  29  30
ATOM     30  N   UNL A   1      44.035  18.629  24.625  1.00  0.00    -0.352 N 
ATOM     31  C   UNL A   1      45.084  19.460  24.327  1.00  0.00     0.251 C 
ATOM     32  H   UNL A   1      44.153  17.685  24.375  1.00  0.00     0.163 HD
ATOM     33  O   UNL A   1      46.028  19.054  23.650  1.00  0.00    -0.269 OA
BRANCH  31  34
ATOM     34  C   UNL A   1      45.055  20.862  24.793  1.00  0.00     0.039 A 
ATOM     35  C   UNL A   1      45.514  21.153  26.078  1.00  0.00     0.014 A 
ATOM     36  C   UNL A   1      44.608  21.887  23.954  1.00  0.00     0.014 A 
ATOM     37  C   UNL A   1      45.583  22.481  26.501  1.00  0.00     0.010 A 
ATOM     38  C   UNL A   1      44.761  23.214  24.343  1.00  0.00     0.010 A 
ATOM     39  C   UNL A   1      45.243  23.525  25.624  1.00  0.00    -0.014 A 
BRANCH  39  40
ATOM     40  C   UNL A   1      45.375  24.947  26.032  1.00  0.00     0.031 A 
ATOM     41  C   UNL A   1      46.716  25.625  25.977  1.00  0.00     0.074 A 
ATOM     42  C   UNL A   1      44.300  25.609  26.505  1.00  0.00     0.049 A 
ATOM     43  N   UNL A   1      47.046  26.835  26.349  1.00  0.00    -0.248 NA
ATOM     44  C   UNL A   1      47.842  24.828  25.462  1.00  0.00     0.031 C 
ATOM     45  C   UNL A   1      42.956  25.047  26.655  1.00  0.00     0.029 A 
ATOM     46  N   UNL A   1      44.171  26.898  26.958  1.00  0.00    -0.354 N 
ATOM     47  C   UNL A   1      48.414  26.939  26.126  1.00  0.00     0.074 A 
ATOM     48  C   UNL A   1      48.862  25.651  25.646  1.00  0.00     0.031 C 
ATOM     49  C   UNL A   1      42.135  25.994  27.136  1.00  0.00     0.029 A 
ATOM     50  C   UNL A   1      42.899  27.214  27.371  1.00  0.00     0.049 A 
ATOM     51  H   UNL A   1      44.921  27.536  26.985  1.00  0.00     0.167 HD
ATOM     52  C   UNL A   1      49.218  28.017  26.282  1.00  0.00     0.037 A 
ATOM     53  C   UNL A   1      42.407  28.356  27.887  1.00  0.00     0.037 A 
ATOM     54  C   UNL A   1      48.762  29.303  26.738  1.00  0.00     0.049 A 
ATOM     55  C   UNL A   1      43.326  29.535  28.062  1.00  0.00     0.074 A 
ATOM     56  C   UNL A   1      49.487  30.474  26.876  1.00  0.00     0.029 A 
ATOM     57  N   UNL A   1      47.464  29.587  27.132  1.00  0.00    -0.354 N 
ATOM     58  N   UNL A   1      44.602  29.639  27.781  1.00  0.00    -0.248 NA
ATOM     59  C   UNL A   1      42.732  30.759  28.619  1.00  0.00     0.031 C 
ATOM     60  C   UNL A   1      48.638  31.454  27.401  1.00  0.00     0.029 A 
ATOM     61  C   UNL A   1      47.372  30.909  27.537  1.00  0.00     0.049 A 
ATOM     62  H   UNL A   1      46.717  28.945  27.126  1.00  0.00     0.167 HD
ATOM     63  C   UNL A   1      44.956  30.944  28.098  1.00  0.00     0.074 A 
ATOM     64  C   UNL A   1      43.757  31.599  28.577  1.00  0.00     0.031 C 
ATOM     65  C   UNL A   1      46.167  31.548  28.001  1.00  0.00     0.037 A 
BRANCH  52  66
ATOM     66  C   UNL A   1      50.673  27.851  25.950  1.00  0.00     0.057 A 
ATOM     67  C   UNL A   1      51.629  27.567  26.934  1.00  0.00     0.134 A 
ATOM     68  C   UNL A   1      51.119  27.937  24.624  1.00  0.00     0.134 A 
ATOM     69  F   UNL A   1      51.272  27.483  28.225  1.00  0.00    -0.206 F 
ATOM     70  C   UNL A   1      52.978  27.404  26.617  1.00  0.00     0.040 A 
ATOM     71  C   UNL A   1      52.460  27.746  24.291  1.00  0.00     0.040 A 
ATOM     72  F   UNL A   1      50.257  28.201  23.631  1.00  0.00    -0.206 F 
ATOM     73  C   UNL A   1      53.396  27.485  25.291  1.00  0.00     0.006 A 
ENDBRANCH  52  66
BRANCH  53  74
ATOM     74  C   UNL A   1      40.972  28.451  28.259  1.00  0.00     0.057 A 
ATOM     75  C   UNL A   1      40.021  28.937  27.354  1.00  0.00     0.134 A 
ATOM     76  C   UNL A   1      40.519  28.079  29.530  1.00  0.00     0.134 A 
ATOM     77  F   UNL A   1      40.396  29.328  26.126  1.00  0.00    -0.206 F 
ATOM     78  C   UNL A   1      38.678  29.074  27.706  1.00  0.00     0.040 A 
ATOM     79  C   UNL A   1      39.174  28.183  29.886  1.00  0.00     0.040 A 
ATOM     80  F   UNL A   1      41.378  27.598  30.441  1.00  0.00    -0.206 F 
ATOM     81  C   UNL A   1      38.249  28.691  28.976  1.00  0.00     0.006 A 
ENDBRANCH  53  74
BRANCH  65  82
ATOM     82  C   UNL A   1      46.244  32.999  28.380  1.00  0.00     0.057 A 
ATOM     83  C   UNL A   1      46.034  34.021  27.447  1.00  0.00     0.134 A 
ATOM     84  C   UNL A   1      46.489  33.374  29.707  1.00  0.00     0.134 A 
ATOM     85  F   UNL A   1      45.806  33.730  26.158  1.00  0.00    -0.206 F 
ATOM     86  C   UNL A   1      46.092  35.367  27.815  1.00  0.00     0.040 A 
ATOM     87  C   UNL A   1      46.519  34.714  30.093  1.00  0.00     0.040 A 
ATOM     88  F   UNL A   1      46.689  32.443  30.654  1.00  0.00    -0.206 F 
ATOM     89  C   UNL A   1      46.327  35.716  29.144  1.00  0.00     0.006 A 
ENDBRANCH  65  82
ENDBRANCH  39  40
ENDBRANCH  31  34
ENDBRANCH  29  30
ENDBRANCH  28  29
ENDBRANCH  27  28
ENDBRANCH  26  27
ENDBRANCH   1  26
TORSDOF 18
ENDMDL
MODEL 3
REMARK VINA RESULT:     -10.7      3.910      9.160
REMARK SMILES CCOc1ccccc1NC(=O)N[C@@](C)(CC)C(=O)NCCCCCCNC(=O)c1ccc(-c2c3nc(c(-c4c(F)cccc4F)c4ccc([nH]4)c(-c4c(F)cccc4F)c4nc(c(-c5c(F)cccc5F)c5ccc2[nH]5)C=C4)C=C3)cc1
REMARK SMILES IDX 22 1 21 2 20 3 18 4 19 5 14 7 15 8 13 9 10 10 11 11 12 13
REMARK SMILES IDX 9 15 4 16 5 17 6 18 8 19 7 20 3 21 2 22 1 23 16 24 17 25
REMARK SMILES IDX 23 26 24 27 25 28 26 29 27 30 28 31 29 33 30 34 31 35 83 36
REMARK SMILES IDX 32 37 82 38 33 39 34 40 35 41 76 42 36 43 81 44 75 45 77 46
REMARK SMILES IDX 37 47 80 48 74 49 73 50 38 52 64 53 47 54 63 55 48 56 51 57
REMARK SMILES IDX 62 58 78 59 49 60 50 61 61 63 79 64 52 65 39 66 40 67 45 68
REMARK SMILES IDX 41 69 42 70 44 71 46 72 43 73 65 74 66 75 71 76 67 77 68 78
REMARK SMILES IDX 70 79 72 80 69 81 53 82 54 83 59 84 55 85 56 86 58 87 60 88
REMARK SMILES IDX 57 89
REMARK H PARENT 20 6 10 12 13 14 27 32 77 51 51 62
REMARK Flexibility Score: inf
ROOT
ATOM      1  C   UNL A   1      36.332  23.612  24.927  1.00  0.00     0.021 C 
ENDROOT
BRANCH   1   2
ATOM      2  C   UNL A   1      35.088  23.925  25.739  1.00  0.00     0.116 C 
BRANCH   2   3
ATOM      3  N   UNL A   1      33.973  24.329  24.937  1.00  0.00    -0.354 N 
ATOM      4  C   UNL A   1      32.754  24.465  25.557  1.00  0.00     0.245 C 
ATOM      5  O   UNL A   1      32.682  24.841  26.729  1.00  0.00    -0.272 OA
ATOM      6  H   UNL A   1      34.075  24.505  23.973  1.00  0.00     0.163 HD
BRANCH   4   7
ATOM      7  C   UNL A   1      31.510  24.065  24.718  1.00  0.00     0.117 C 
ATOM      8  C   UNL A   1      31.117  22.693  25.363  1.00  0.00     0.045 C 
BRANCH   7   9
ATOM      9  N   UNL A   1      30.277  24.876  24.822  1.00  0.00    -0.324 N 
ATOM     10  N   UNL A   1      30.545  27.190  24.370  1.00  0.00    -0.305 N 
ATOM     11  C   UNL A   1      29.905  26.028  24.264  1.00  0.00     0.320 C 
ATOM     12  H   UNL A   1      30.323  27.792  23.623  1.00  0.00     0.172 HD
ATOM     13  O   UNL A   1      28.860  26.009  23.605  1.00  0.00    -0.248 OA
ATOM     14  H   UNL A   1      29.598  24.489  25.420  1.00  0.00     0.166 HD
BRANCH  10  15
ATOM     15  C   UNL A   1      31.450  27.792  25.254  1.00  0.00     0.085 A 
ATOM     16  C   UNL A   1      32.537  28.456  24.663  1.00  0.00     0.142 A 
ATOM     17  C   UNL A   1      33.647  28.857  25.404  1.00  0.00     0.048 A 
ATOM     18  C   UNL A   1      33.604  28.733  26.787  1.00  0.00     0.004 A 
ATOM     19  C   UNL A   1      31.345  27.840  26.632  1.00  0.00     0.030 A 
ATOM     20  C   UNL A   1      32.432  28.283  27.400  1.00  0.00     0.002 A 
BRANCH  16  21
ATOM     21  O   UNL A   1      32.467  28.791  23.328  1.00  0.00    -0.492 OA
BRANCH  21  22
ATOM     22  C   UNL A   1      33.660  28.316  22.659  1.00  0.00     0.226 C 
ATOM     23  C   UNL A   1      33.531  26.848  22.275  1.00  0.00     0.049 C 
ENDBRANCH  21  22
ENDBRANCH  16  21
ENDBRANCH  10  15
ENDBRANCH   7   9
BRANCH   7  24
ATOM     24  C   UNL A   1      31.938  23.712  23.256  1.00  0.00     0.035 C 
ATOM     25  C   UNL A   1      32.167  22.251  22.894  1.00  0.00     0.007 C 
ENDBRANCH   7  24
ENDBRANCH   4   7
ENDBRANCH   2   3
ENDBRANCH   1   2
BRANCH   1  26
ATOM     26  C   UNL A   1      37.089  22.364  25.387  1.00  0.00     0.002 C 
BRANCH  26  27
ATOM     27  C   UNL A   1      37.000  21.146  24.458  1.00  0.00     0.002 C 
BRANCH  27  28
ATOM     28  C   UNL A   1      37.911  19.966  24.803  1.00  0.00     0.021 C 
BRANCH  28  29
ATOM     29  C   UNL A   1      38.994  20.265  25.824  1.00  0.00     0.116 C 
BRANCH  29  30
ATOM     30  N   UNL A   1      40.066  19.288  25.804  1.00  0.00    -0.352 N 
ATOM     31  C   UNL A   1      41.397  19.474  26.077  1.00  0.00     0.251 C 
ATOM     32  H   UNL A   1      39.803  18.371  25.565  1.00  0.00     0.163 HD
ATOM     33  O   UNL A   1      42.207  18.572  25.873  1.00  0.00    -0.269 OA
BRANCH  31  34
ATOM     34  C   UNL A   1      41.857  20.784  26.582  1.00  0.00     0.039 A 
ATOM     35  C   UNL A   1      42.287  21.745  25.666  1.00  0.00     0.014 A 
ATOM     36  C   UNL A   1      41.833  21.074  27.950  1.00  0.00     0.014 A 
ATOM     37  C   UNL A   1      42.635  23.020  26.116  1.00  0.00     0.010 A 
ATOM     38  C   UNL A   1      42.094  22.369  28.386  1.00  0.00     0.010 A 
ATOM     39  C   UNL A   1      42.505  23.354  27.475  1.00  0.00    -0.014 A 
BRANCH  39  40
ATOM     40  C   UNL A   1      42.805  24.724  27.962  1.00  0.00     0.031 A 
ATOM     41  C   UNL A   1      44.218  25.111  28.300  1.00  0.00     0.074 A 
ATOM     42  C   UNL A   1      41.799  25.600  28.155  1.00  0.00     0.049 A 
ATOM     43  N   UNL A   1      44.672  26.233  28.798  1.00  0.00    -0.248 NA
ATOM     44  C   UNL A   1      45.257  24.091  28.076  1.00  0.00     0.031 C 
ATOM     45  C   UNL A   1      40.380  25.329  27.912  1.00  0.00     0.029 A 
ATOM     46  N   UNL A   1      41.815  26.895  28.609  1.00  0.00    -0.354 N 
ATOM     47  C   UNL A   1      46.040  26.049  28.958  1.00  0.00     0.074 A 
ATOM     48  C   UNL A   1      46.333  24.689  28.563  1.00  0.00     0.031 C 
ATOM     49  C   UNL A   1      39.668  26.432  28.192  1.00  0.00     0.029 A 
ATOM     50  C   UNL A   1      40.569  27.473  28.675  1.00  0.00     0.049 A 
ATOM     51  H   UNL A   1      42.641  27.366  28.865  1.00  0.00     0.167 HD
ATOM     52  C   UNL A   1      46.972  26.941  29.370  1.00  0.00     0.037 A 
ATOM     53  C   UNL A   1      40.196  28.700  29.086  1.00  0.00     0.037 A 
ATOM     54  C   UNL A   1      46.679  28.300  29.738  1.00  0.00     0.049 A 
ATOM     55  C   UNL A   1      41.251  29.667  29.552  1.00  0.00     0.074 A 
ATOM     56  C   UNL A   1      47.559  29.299  30.116  1.00  0.00     0.029 A 
ATOM     57  N   UNL A   1      45.407  28.852  29.778  1.00  0.00    -0.354 N 
ATOM     58  N   UNL A   1      42.549  29.501  29.631  1.00  0.00    -0.248 NA
ATOM     59  C   UNL A   1      40.787  30.995  29.978  1.00  0.00     0.031 C 
ATOM     60  C   UNL A   1      46.816  30.441  30.432  1.00  0.00     0.029 A 
ATOM     61  C   UNL A   1      45.477  30.171  30.198  1.00  0.00     0.049 A 
ATOM     62  H   UNL A   1      44.577  28.377  29.543  1.00  0.00     0.167 HD
ATOM     63  C   UNL A   1      43.059  30.710  30.086  1.00  0.00     0.074 A 
ATOM     64  C   UNL A   1      41.933  31.605  30.250  1.00  0.00     0.031 C 
ATOM     65  C   UNL A   1      44.346  31.050  30.345  1.00  0.00     0.037 A 
BRANCH  52  66
ATOM     66  C   UNL A   1      48.397  26.474  29.437  1.00  0.00     0.057 A 
ATOM     67  C   UNL A   1      49.270  26.604  28.349  1.00  0.00     0.134 A 
ATOM     68  C   UNL A   1      48.914  25.921  30.616  1.00  0.00     0.134 A 
ATOM     69  F   UNL A   1      48.837  27.113  27.186  1.00  0.00    -0.206 F 
ATOM     70  C   UNL A   1      50.597  26.177  28.421  1.00  0.00     0.040 A 
ATOM     71  C   UNL A   1      50.247  25.518  30.711  1.00  0.00     0.040 A 
ATOM     72  F   UNL A   1      48.135  25.772  31.698  1.00  0.00    -0.206 F 
ATOM     73  C   UNL A   1      51.091  25.639  29.608  1.00  0.00     0.006 A 
ENDBRANCH  52  66
BRANCH  53  74
ATOM     74  C   UNL A   1      38.765  29.093  29.060  1.00  0.00     0.057 A 
ATOM     75  C   UNL A   1      38.172  29.588  27.892  1.00  0.00     0.134 A 
ATOM     76  C   UNL A   1      37.959  29.006  30.201  1.00  0.00     0.134 A 
ATOM     77  F   UNL A   1      38.895  29.714  26.769  1.00  0.00    -0.206 F 
ATOM     78  C   UNL A   1      36.840  30.003  27.866  1.00  0.00     0.040 A 
ATOM     79  C   UNL A   1      36.618  29.391  30.183  1.00  0.00     0.040 A 
ATOM     80  F   UNL A   1      38.464  28.533  31.351  1.00  0.00    -0.206 F 
ATOM     81  C   UNL A   1      36.057  29.901  29.014  1.00  0.00     0.006 A 
ENDBRANCH  53  74
BRANCH  65  82
ATOM     82  C   UNL A   1      44.609  32.460  30.791  1.00  0.00     0.057 A 
ATOM     83  C   UNL A   1      44.825  33.499  29.877  1.00  0.00     0.134 A 
ATOM     84  C   UNL A   1      44.602  32.787  32.153  1.00  0.00     0.134 A 
ATOM     85  F   UNL A   1      44.855  33.251  28.559  1.00  0.00    -0.206 F 
ATOM     86  C   UNL A   1      45.051  34.809  30.304  1.00  0.00     0.040 A 
ATOM     87  C   UNL A   1      44.797  34.098  32.590  1.00  0.00     0.040 A 
ATOM     88  F   UNL A   1      44.391  31.841  33.081  1.00  0.00    -0.206 F 
ATOM     89  C   UNL A   1      45.029  35.112  31.664  1.00  0.00     0.006 A 
ENDBRANCH  65  82
ENDBRANCH  39  40
ENDBRANCH  31  34
ENDBRANCH  29  30
ENDBRANCH  28  29
ENDBRANCH  27  28
ENDBRANCH  26  27
ENDBRANCH   1  26
TORSDOF 18
ENDMDL
