MODEL 1
REMARK VINA RESULT:     -12.8      0.000      0.000
REMARK SMILES O=C(NCCCCCCNC(=O)c1ccc(-c2c3nc(c(-c4c(F)cccc4F)c4ccc([nH]4)c(-c4c(F)cccc4F)c4nc(c(-c5c(F)cccc5F)c5ccc2[nH]5)C=C4)C=C3)cc1)C1=Cc2cc(Cl)cc(-c3ccc(Cl)cc3)c2O[C@@H]1C(F)(F)F
REMARK SMILES IDX 7 1 6 2 5 3 4 4 3 5 1 6 2 7 67 9 68 10 84 11 69 12 83 13
REMARK SMILES IDX 70 14 82 15 71 16 74 17 72 18 73 19 85 20 86 21 87 22 88 23
REMARK SMILES IDX 75 24 76 25 81 26 77 27 80 28 78 29 79 30 8 31 9 32 10 33
REMARK SMILES IDX 11 34 12 36 13 37 14 38 66 39 15 40 65 41 16 42 17 43 18 44
REMARK SMILES IDX 59 45 19 46 64 47 58 48 60 49 20 50 63 51 57 52 56 53 21 55
REMARK SMILES IDX 47 56 30 57 46 58 31 59 34 60 45 61 61 62 32 63 33 64 44 66
REMARK SMILES IDX 62 67 35 68 22 69 23 70 28 71 24 72 25 73 27 74 29 75 26 76
REMARK SMILES IDX 48 77 49 78 54 79 50 80 51 81 53 82 55 83 52 84 36 85 37 86
REMARK SMILES IDX 42 87 38 88 39 89 41 90 43 91 40 92
REMARK H PARENT 3 8 10 35 60 54 34 65
REMARK Flexibility Score: inf
ROOT
ATOM      1  C   UNL A   1      32.837  27.324  24.770  1.00  0.00     0.002 C 
ENDROOT
BRANCH   1   2
ATOM      2  C   UNL A   1      31.322  27.442  24.978  1.00  0.00     0.002 C 
BRANCH   2   3
ATOM      3  C   UNL A   1      30.744  26.799  26.239  1.00  0.00     0.021 C 
BRANCH   3   4
ATOM      4  C   UNL A   1      30.218  25.370  26.107  1.00  0.00     0.116 C 
BRANCH   4   5
ATOM      5  N   UNL A   1      30.876  24.386  26.949  1.00  0.00    -0.352 N 
ATOM      6  O   UNL A   1      32.485  22.980  27.639  1.00  0.00    -0.270 OA
ATOM      7  C   UNL A   1      32.013  23.654  26.725  1.00  0.00     0.251 C 
ATOM      8  H   UNL A   1      30.439  24.218  27.815  1.00  0.00     0.163 HD
BRANCH   7   9
ATOM      9  C   UNL A   1      32.765  23.712  25.434  1.00  0.00     0.067 C 
ATOM     10  C   UNL A   1      34.072  24.010  25.393  1.00  0.00     0.025 C 
ATOM     11  C   UNL A   1      32.218  22.754  24.403  1.00  0.00     0.314 C 
ATOM     12  C   UNL A   1      34.916  22.847  25.033  1.00  0.00     0.019 A 
ATOM     13  O   UNL A   1      32.973  21.514  24.403  1.00  0.00    -0.475 OA
ATOM     14  C   UNL A   1      36.277  22.918  25.352  1.00  0.00     0.032 A 
ATOM     15  C   UNL A   1      34.314  21.611  24.708  1.00  0.00     0.135 A 
ATOM     16  C   UNL A   1      37.017  21.746  25.426  1.00  0.00     0.042 A 
ATOM     17  C   UNL A   1      35.048  20.419  24.839  1.00  0.00     0.026 A 
ATOM     18  Cl  UNL A   1      38.643  21.801  25.983  1.00  0.00    -0.084 Cl
ATOM     19  C   UNL A   1      36.412  20.513  25.185  1.00  0.00     0.033 A 
BRANCH  11  20
ATOM     20  C   UNL A   1      32.146  23.407  23.007  1.00  0.00     0.429 C 
ATOM     21  F   UNL A   1      32.466  22.527  22.030  1.00  0.00    -0.167 F 
ATOM     22  F   UNL A   1      30.898  23.861  22.736  1.00  0.00    -0.167 F 
ATOM     23  F   UNL A   1      32.984  24.465  22.882  1.00  0.00    -0.167 F 
ENDBRANCH  11  20
BRANCH  17  24
ATOM     24  C   UNL A   1      34.417  19.085  24.852  1.00  0.00    -0.015 A 
ATOM     25  C   UNL A   1      33.185  18.930  25.512  1.00  0.00     0.010 A 
ATOM     26  C   UNL A   1      34.994  17.951  24.273  1.00  0.00     0.010 A 
ATOM     27  C   UNL A   1      32.563  17.690  25.643  1.00  0.00     0.021 A 
ATOM     28  C   UNL A   1      34.373  16.699  24.396  1.00  0.00     0.021 A 
ATOM     29  C   UNL A   1      33.171  16.572  25.092  1.00  0.00     0.041 A 
ATOM     30  Cl  UNL A   1      32.437  15.028  25.282  1.00  0.00    -0.084 Cl
ENDBRANCH  17  24
ENDBRANCH   7   9
ENDBRANCH   4   5
ENDBRANCH   3   4
ENDBRANCH   2   3
ENDBRANCH   1   2
BRANCH   1  31
ATOM     31  C   UNL A   1      33.704  28.436  25.370  1.00  0.00     0.021 C 
BRANCH  31  32
ATOM     32  C   UNL A   1      33.839  28.444  26.884  1.00  0.00     0.116 C 
BRANCH  32  33
ATOM     33  N   UNL A   1      33.777  29.791  27.426  1.00  0.00    -0.352 N 
ATOM     34  C   UNL A   1      34.676  30.505  28.180  1.00  0.00     0.251 C 
ATOM     35  H   UNL A   1      32.946  30.277  27.215  1.00  0.00     0.163 HD
ATOM     36  O   UNL A   1      34.305  31.545  28.717  1.00  0.00    -0.269 OA
BRANCH  34  37
ATOM     37  C   UNL A   1      36.077  30.051  28.369  1.00  0.00     0.039 A 
ATOM     38  C   UNL A   1      36.450  29.526  29.614  1.00  0.00     0.014 A 
ATOM     39  C   UNL A   1      37.048  30.206  27.377  1.00  0.00     0.014 A 
ATOM     40  C   UNL A   1      37.771  29.127  29.844  1.00  0.00     0.010 A 
ATOM     41  C   UNL A   1      38.341  29.724  27.575  1.00  0.00     0.010 A 
ATOM     42  C   UNL A   1      38.725  29.199  28.819  1.00  0.00    -0.014 A 
BRANCH  42  43
ATOM     43  C   UNL A   1      40.134  28.776  29.033  1.00  0.00     0.031 A 
ATOM     44  C   UNL A   1      41.122  29.731  29.654  1.00  0.00     0.074 A 
ATOM     45  C   UNL A   1      40.543  27.562  28.617  1.00  0.00     0.049 A 
ATOM     46  N   UNL A   1      42.410  29.587  29.839  1.00  0.00    -0.248 NA
ATOM     47  C   UNL A   1      40.598  31.033  30.097  1.00  0.00     0.031 C 
ATOM     48  C   UNL A   1      39.697  26.559  27.966  1.00  0.00     0.029 A 
ATOM     49  N   UNL A   1      41.779  26.968  28.671  1.00  0.00    -0.354 N 
ATOM     50  C   UNL A   1      42.851  30.785  30.388  1.00  0.00     0.074 A 
ATOM     51  C   UNL A   1      41.704  31.663  30.465  1.00  0.00     0.031 C 
ATOM     52  C   UNL A   1      40.433  25.467  27.705  1.00  0.00     0.029 A 
ATOM     53  C   UNL A   1      41.807  25.704  28.131  1.00  0.00     0.049 A 
ATOM     54  H   UNL A   1      42.571  27.405  29.061  1.00  0.00     0.167 HD
ATOM     55  C   UNL A   1      44.093  31.118  30.812  1.00  0.00     0.037 A 
ATOM     56  C   UNL A   1      42.829  24.838  27.990  1.00  0.00     0.037 A 
ATOM     57  C   UNL A   1      45.223  30.227  30.783  1.00  0.00     0.049 A 
ATOM     58  C   UNL A   1      44.196  25.229  28.479  1.00  0.00     0.074 A 
ATOM     59  C   UNL A   1      46.503  30.442  31.260  1.00  0.00     0.029 A 
ATOM     60  N   UNL A   1      45.203  28.947  30.250  1.00  0.00    -0.354 N 
ATOM     61  N   UNL A   1      44.583  26.341  29.055  1.00  0.00    -0.248 NA
ATOM     62  C   UNL A   1      45.271  24.241  28.302  1.00  0.00     0.031 C 
ATOM     63  C   UNL A   1      47.271  29.307  30.980  1.00  0.00     0.029 A 
ATOM     64  C   UNL A   1      46.455  28.368  30.369  1.00  0.00     0.049 A 
ATOM     65  H   UNL A   1      44.416  28.514  29.847  1.00  0.00     0.167 HD
ATOM     66  C   UNL A   1      45.932  26.175  29.337  1.00  0.00     0.074 A 
ATOM     67  C   UNL A   1      46.295  24.850  28.881  1.00  0.00     0.031 C 
ATOM     68  C   UNL A   1      46.794  27.041  29.923  1.00  0.00     0.037 A 
BRANCH  55  69
ATOM     69  C   UNL A   1      44.300  32.504  31.353  1.00  0.00     0.057 A 
ATOM     70  C   UNL A   1      44.143  32.798  32.713  1.00  0.00     0.134 A 
ATOM     71  C   UNL A   1      44.707  33.546  30.510  1.00  0.00     0.134 A 
ATOM     72  F   UNL A   1      43.744  31.849  33.573  1.00  0.00    -0.206 F 
ATOM     73  C   UNL A   1      44.360  34.084  33.213  1.00  0.00     0.040 A 
ATOM     74  C   UNL A   1      44.953  34.829  31.001  1.00  0.00     0.040 A 
ATOM     75  F   UNL A   1      44.883  33.332  29.197  1.00  0.00    -0.206 F 
ATOM     76  C   UNL A   1      44.775  35.102  32.356  1.00  0.00     0.006 A 
ENDBRANCH  55  69
BRANCH  56  77
ATOM     77  C   UNL A   1      42.600  23.504  27.379  1.00  0.00     0.057 A 
ATOM     78  C   UNL A   1      42.754  23.308  26.001  1.00  0.00     0.134 A 
ATOM     79  C   UNL A   1      42.205  22.402  28.147  1.00  0.00     0.134 A 
ATOM     80  F   UNL A   1      43.111  24.331  25.211  1.00  0.00    -0.206 F 
ATOM     81  C   UNL A   1      42.502  22.071  25.406  1.00  0.00     0.040 A 
ATOM     82  C   UNL A   1      41.975  21.153  27.568  1.00  0.00     0.040 A 
ATOM     83  F   UNL A   1      42.048  22.522  29.474  1.00  0.00    -0.206 F 
ATOM     84  C   UNL A   1      42.113  20.988  26.190  1.00  0.00     0.006 A 
ENDBRANCH  56  77
BRANCH  68  85
ATOM     85  C   UNL A   1      48.201  26.568  30.141  1.00  0.00     0.057 A 
ATOM     86  C   UNL A   1      48.586  25.911  31.316  1.00  0.00     0.134 A 
ATOM     87  C   UNL A   1      49.172  26.741  29.146  1.00  0.00     0.134 A 
ATOM     88  F   UNL A   1      47.706  25.726  32.312  1.00  0.00    -0.206 F 
ATOM     89  C   UNL A   1      49.894  25.460  31.501  1.00  0.00     0.040 A 
ATOM     90  C   UNL A   1      50.475  26.271  29.310  1.00  0.00     0.040 A 
ATOM     91  F   UNL A   1      48.865  27.355  27.993  1.00  0.00    -0.206 F 
ATOM     92  C   UNL A   1      50.840  25.634  30.493  1.00  0.00     0.006 A 
ENDBRANCH  68  85
ENDBRANCH  42  43
ENDBRANCH  34  37
ENDBRANCH  32  33
ENDBRANCH  31  32
ENDBRANCH   1  31
TORSDOF 15
ENDMDL
MODEL 2
REMARK VINA RESULT:     -12.6      1.892      2.637
REMARK SMILES O=C(NCCCCCCNC(=O)c1ccc(-c2c3nc(c(-c4c(F)cccc4F)c4ccc([nH]4)c(-c4c(F)cccc4F)c4nc(c(-c5c(F)cccc5F)c5ccc2[nH]5)C=C4)C=C3)cc1)C1=Cc2cc(Cl)cc(-c3ccc(Cl)cc3)c2O[C@@H]1C(F)(F)F
REMARK SMILES IDX 7 1 6 2 5 3 4 4 3 5 1 6 2 7 67 9 68 10 84 11 69 12 83 13
REMARK SMILES IDX 70 14 82 15 71 16 74 17 72 18 73 19 85 20 86 21 87 22 88 23
REMARK SMILES IDX 75 24 76 25 81 26 77 27 80 28 78 29 79 30 8 31 9 32 10 33
REMARK SMILES IDX 11 34 12 36 13 37 14 38 66 39 15 40 65 41 16 42 17 43 18 44
REMARK SMILES IDX 59 45 19 46 64 47 58 48 60 49 20 50 63 51 57 52 56 53 21 55
REMARK SMILES IDX 47 56 30 57 46 58 31 59 34 60 45 61 61 62 32 63 33 64 44 66
REMARK SMILES IDX 62 67 35 68 22 69 23 70 28 71 24 72 25 73 27 74 29 75 26 76
REMARK SMILES IDX 48 77 49 78 54 79 50 80 51 81 53 82 55 83 52 84 36 85 37 86
REMARK SMILES IDX 42 87 38 88 39 89 41 90 43 91 40 92
REMARK H PARENT 3 8 10 35 60 54 34 65
REMARK Flexibility Score: inf
ROOT
ATOM      1  C   UNL A   1      31.991  28.914  24.299  1.00  0.00     0.002 C 
ENDROOT
BRANCH   1   2
ATOM      2  C   UNL A   1      31.127  27.767  23.760  1.00  0.00     0.002 C 
BRANCH   2   3
ATOM      3  C   UNL A   1      30.411  26.895  24.792  1.00  0.00     0.021 C 
BRANCH   3   4
ATOM      4  C   UNL A   1      30.950  26.934  26.222  1.00  0.00     0.116 C 
BRANCH   4   5
ATOM      5  N   UNL A   1      31.137  25.637  26.850  1.00  0.00    -0.352 N 
ATOM      6  O   UNL A   1      32.087  23.647  27.273  1.00  0.00    -0.270 OA
ATOM      7  C   UNL A   1      31.978  24.608  26.514  1.00  0.00     0.251 C 
ATOM      8  H   UNL A   1      30.573  25.470  27.639  1.00  0.00     0.163 HD
BRANCH   7   9
ATOM      9  C   UNL A   1      32.847  24.646  25.298  1.00  0.00     0.067 C 
ATOM     10  C   UNL A   1      34.147  24.969  25.371  1.00  0.00     0.025 C 
ATOM     11  C   UNL A   1      32.417  23.648  24.249  1.00  0.00     0.314 C 
ATOM     12  C   UNL A   1      35.041  23.813  25.127  1.00  0.00     0.019 A 
ATOM     13  O   UNL A   1      33.191  22.424  24.356  1.00  0.00    -0.475 OA
ATOM     14  C   UNL A   1      36.364  23.919  25.570  1.00  0.00     0.032 A 
ATOM     15  C   UNL A   1      34.495  22.557  24.783  1.00  0.00     0.135 A 
ATOM     16  C   UNL A   1      37.114  22.766  25.748  1.00  0.00     0.042 A 
ATOM     17  C   UNL A   1      35.233  21.383  25.018  1.00  0.00     0.026 A 
ATOM     18  Cl  UNL A   1      38.680  22.868  26.453  1.00  0.00    -0.084 Cl
ATOM     19  C   UNL A   1      36.557  21.515  25.488  1.00  0.00     0.033 A 
BRANCH  11  20
ATOM     20  C   UNL A   1      32.466  24.260  22.834  1.00  0.00     0.429 C 
ATOM     21  F   UNL A   1      32.909  23.366  21.920  1.00  0.00    -0.167 F 
ATOM     22  F   UNL A   1      31.239  24.666  22.426  1.00  0.00    -0.167 F 
ATOM     23  F   UNL A   1      33.281  25.341  22.761  1.00  0.00    -0.167 F 
ENDBRANCH  11  20
BRANCH  17  24
ATOM     24  C   UNL A   1      34.627  20.038  25.011  1.00  0.00    -0.015 A 
ATOM     25  C   UNL A   1      35.423  18.943  24.626  1.00  0.00     0.010 A 
ATOM     26  C   UNL A   1      33.290  19.791  25.332  1.00  0.00     0.010 A 
ATOM     27  C   UNL A   1      34.907  17.653  24.512  1.00  0.00     0.021 A 
ATOM     28  C   UNL A   1      32.763  18.496  25.223  1.00  0.00     0.021 A 
ATOM     29  C   UNL A   1      33.568  17.438  24.801  1.00  0.00     0.041 A 
ATOM     30  Cl  UNL A   1      32.907  15.860  24.624  1.00  0.00    -0.084 Cl
ENDBRANCH  17  24
ENDBRANCH   7   9
ENDBRANCH   4   5
ENDBRANCH   3   4
ENDBRANCH   2   3
ENDBRANCH   1   2
BRANCH   1  31
ATOM     31  C   UNL A   1      33.485  28.625  24.482  1.00  0.00     0.021 C 
BRANCH  31  32
ATOM     32  C   UNL A   1      34.028  28.748  25.897  1.00  0.00     0.116 C 
BRANCH  32  33
ATOM     33  N   UNL A   1      33.891  30.101  26.411  1.00  0.00    -0.352 N 
ATOM     34  C   UNL A   1      34.564  30.761  27.410  1.00  0.00     0.251 C 
ATOM     35  H   UNL A   1      33.194  30.638  25.967  1.00  0.00     0.163 HD
ATOM     36  O   UNL A   1      34.116  31.827  27.824  1.00  0.00    -0.269 OA
BRANCH  34  37
ATOM     37  C   UNL A   1      35.812  30.220  28.005  1.00  0.00     0.039 A 
ATOM     38  C   UNL A   1      36.997  30.296  27.261  1.00  0.00     0.014 A 
ATOM     39  C   UNL A   1      35.825  29.568  29.241  1.00  0.00     0.014 A 
ATOM     40  C   UNL A   1      38.186  29.759  27.769  1.00  0.00     0.010 A 
ATOM     41  C   UNL A   1      37.026  29.116  29.786  1.00  0.00     0.010 A 
ATOM     42  C   UNL A   1      38.217  29.185  29.048  1.00  0.00    -0.014 A 
BRANCH  42  43
ATOM     43  C   UNL A   1      39.466  28.613  29.616  1.00  0.00     0.031 A 
ATOM     44  C   UNL A   1      40.095  29.236  30.836  1.00  0.00     0.074 A 
ATOM     45  C   UNL A   1      40.070  27.575  29.004  1.00  0.00     0.049 A 
ATOM     46  N   UNL A   1      41.227  28.945  31.427  1.00  0.00    -0.248 NA
ATOM     47  C   UNL A   1      39.369  30.356  31.457  1.00  0.00     0.031 C 
ATOM     48  C   UNL A   1      39.588  26.906  27.794  1.00  0.00     0.029 A 
ATOM     49  N   UNL A   1      41.229  26.907  29.312  1.00  0.00    -0.354 N 
ATOM     50  C   UNL A   1      41.361  29.862  32.463  1.00  0.00     0.074 A 
ATOM     51  C   UNL A   1      40.219  30.747  32.395  1.00  0.00     0.031 C 
ATOM     52  C   UNL A   1      40.430  25.909  27.479  1.00  0.00     0.029 A 
ATOM     53  C   UNL A   1      41.530  25.892  28.436  1.00  0.00     0.049 A 
ATOM     54  H   UNL A   1      41.792  27.133  30.088  1.00  0.00     0.167 HD
ATOM     55  C   UNL A   1      42.334  29.945  33.400  1.00  0.00     0.037 A 
ATOM     56  C   UNL A   1      42.579  25.048  28.405  1.00  0.00     0.037 A 
ATOM     57  C   UNL A   1      43.442  29.032  33.498  1.00  0.00     0.049 A 
ATOM     58  C   UNL A   1      43.640  25.155  29.465  1.00  0.00     0.074 A 
ATOM     59  C   UNL A   1      44.438  28.985  34.458  1.00  0.00     0.029 A 
ATOM     60  N   UNL A   1      43.696  28.003  32.605  1.00  0.00    -0.354 N 
ATOM     61  N   UNL A   1      43.718  25.986  30.476  1.00  0.00    -0.248 NA
ATOM     62  C   UNL A   1      44.758  24.204  29.382  1.00  0.00     0.031 C 
ATOM     63  C   UNL A   1      45.318  27.951  34.124  1.00  0.00     0.029 A 
ATOM     64  C   UNL A   1      44.845  27.327  32.980  1.00  0.00     0.049 A 
ATOM     65  H   UNL A   1      43.143  27.785  31.820  1.00  0.00     0.167 HD
ATOM     66  C   UNL A   1      44.872  25.638  31.166  1.00  0.00     0.074 A 
ATOM     67  C   UNL A   1      45.455  24.513  30.466  1.00  0.00     0.031 C 
ATOM     68  C   UNL A   1      45.402  26.198  32.279  1.00  0.00     0.037 A 
BRANCH  55  69
ATOM     69  C   UNL A   1      42.243  31.057  34.405  1.00  0.00     0.057 A 
ATOM     70  C   UNL A   1      41.542  30.913  35.609  1.00  0.00     0.134 A 
ATOM     71  C   UNL A   1      42.906  32.272  34.187  1.00  0.00     0.134 A 
ATOM     72  F   UNL A   1      40.876  29.779  35.876  1.00  0.00    -0.206 F 
ATOM     73  C   UNL A   1      41.482  31.944  36.549  1.00  0.00     0.040 A 
ATOM     74  C   UNL A   1      42.877  33.301  35.130  1.00  0.00     0.040 A 
ATOM     75  F   UNL A   1      43.603  32.476  33.058  1.00  0.00    -0.206 F 
ATOM     76  C   UNL A   1      42.158  33.139  36.314  1.00  0.00     0.006 A 
ENDBRANCH  55  69
BRANCH  56  77
ATOM     77  C   UNL A   1      42.672  24.008  27.349  1.00  0.00     0.057 A 
ATOM     78  C   UNL A   1      42.141  22.728  27.552  1.00  0.00     0.134 A 
ATOM     79  C   UNL A   1      43.304  24.256  26.125  1.00  0.00     0.134 A 
ATOM     80  F   UNL A   1      41.540  22.423  28.712  1.00  0.00    -0.206 F 
ATOM     81  C   UNL A   1      42.257  21.726  26.587  1.00  0.00     0.040 A 
ATOM     82  C   UNL A   1      43.405  23.271  25.141  1.00  0.00     0.040 A 
ATOM     83  F   UNL A   1      43.827  25.464  25.866  1.00  0.00    -0.206 F 
ATOM     84  C   UNL A   1      42.888  21.998  25.375  1.00  0.00     0.006 A 
ENDBRANCH  56  77
BRANCH  68  85
ATOM     85  C   UNL A   1      46.651  25.578  32.834  1.00  0.00     0.057 A 
ATOM     86  C   UNL A   1      47.925  25.989  32.425  1.00  0.00     0.134 A 
ATOM     87  C   UNL A   1      46.575  24.584  33.818  1.00  0.00     0.134 A 
ATOM     88  F   UNL A   1      48.065  26.929  31.476  1.00  0.00    -0.206 F 
ATOM     89  C   UNL A   1      49.080  25.418  32.960  1.00  0.00     0.040 A 
ATOM     90  C   UNL A   1      47.722  24.025  34.379  1.00  0.00     0.040 A 
ATOM     91  F   UNL A   1      45.384  24.153  34.260  1.00  0.00    -0.206 F 
ATOM     92  C   UNL A   1      48.980  24.438  33.945  1.00  0.00     0.006 A 
ENDBRANCH  68  85
ENDBRANCH  42  43
ENDBRANCH  34  37
ENDBRANCH  32  33
ENDBRANCH  31  32
ENDBRANCH   1  31
TORSDOF 15
ENDMDL
MODEL 3
REMARK VINA RESULT:     -12.6      1.928      6.332
REMARK SMILES O=C(NCCCCCCNC(=O)c1ccc(-c2c3nc(c(-c4c(F)cccc4F)c4ccc([nH]4)c(-c4c(F)cccc4F)c4nc(c(-c5c(F)cccc5F)c5ccc2[nH]5)C=C4)C=C3)cc1)C1=Cc2cc(Cl)cc(-c3ccc(Cl)cc3)c2O[C@@H]1C(F)(F)F
REMARK SMILES IDX 7 1 6 2 5 3 4 4 3 5 1 6 2 7 67 9 68 10 84 11 69 12 83 13
REMARK SMILES IDX 70 14 82 15 71 16 74 17 72 18 73 19 85 20 86 21 87 22 88 23
REMARK SMILES IDX 75 24 76 25 81 26 77 27 80 28 78 29 79 30 8 31 9 32 10 33
REMARK SMILES IDX 11 34 12 36 13 37 14 38 66 39 15 40 65 41 16 42 17 43 18 44
REMARK SMILES IDX 59 45 19 46 64 47 58 48 60 49 20 50 63 51 57 52 56 53 21 55
REMARK SMILES IDX 47 56 30 57 46 58 31 59 34 60 45 61 61 62 32 63 33 64 44 66
REMARK SMILES IDX 62 67 35 68 22 69 23 70 28 71 24 72 25 73 27 74 29 75 26 76
REMARK SMILES IDX 48 77 49 78 54 79 50 80 51 81 53 82 55 83 52 84 36 85 37 86
REMARK SMILES IDX 42 87 38 88 39 89 41 90 43 91 40 92
REMARK H PARENT 3 8 10 35 60 54 34 65
REMARK Flexibility Score: inf
ROOT
ATOM      1  C   UNL A   1      32.640  29.069  27.259  1.00  0.00     0.002 C 
ENDROOT
BRANCH   1   2
ATOM      2  C   UNL A   1      31.705  27.854  27.274  1.00  0.00     0.002 C 
BRANCH   2   3
ATOM      3  C   UNL A   1      31.376  27.216  25.924  1.00  0.00     0.021 C 
BRANCH   3   4
ATOM      4  C   UNL A   1      30.539  25.937  25.951  1.00  0.00     0.116 C 
BRANCH   4   5
ATOM      5  N   UNL A   1      31.068  24.867  26.779  1.00  0.00    -0.352 N 
ATOM      6  O   UNL A   1      32.513  23.297  27.480  1.00  0.00    -0.270 OA
ATOM      7  C   UNL A   1      32.145  24.045  26.575  1.00  0.00     0.251 C 
ATOM      8  H   UNL A   1      30.577  24.706  27.617  1.00  0.00     0.163 HD
BRANCH   7   9
ATOM      9  C   UNL A   1      32.960  24.085  25.322  1.00  0.00     0.067 C 
ATOM     10  C   UNL A   1      34.270  24.375  25.341  1.00  0.00     0.025 C 
ATOM     11  C   UNL A   1      32.458  23.118  24.276  1.00  0.00     0.314 C 
ATOM     12  C   UNL A   1      35.123  23.203  25.036  1.00  0.00     0.019 A 
ATOM     13  O   UNL A   1      33.205  21.874  24.326  1.00  0.00    -0.475 OA
ATOM     14  C   UNL A   1      36.467  23.269  25.421  1.00  0.00     0.032 A 
ATOM     15  C   UNL A   1      34.530  21.967  24.695  1.00  0.00     0.135 A 
ATOM     16  C   UNL A   1      37.195  22.095  25.544  1.00  0.00     0.042 A 
ATOM     17  C   UNL A   1      35.249  20.772  24.875  1.00  0.00     0.026 A 
ATOM     18  Cl  UNL A   1      38.793  22.146  26.179  1.00  0.00    -0.084 Cl
ATOM     19  C   UNL A   1      36.595  20.863  25.287  1.00  0.00     0.033 A 
BRANCH  11  20
ATOM     20  C   UNL A   1      32.459  23.755  22.871  1.00  0.00     0.429 C 
ATOM     21  F   UNL A   1      31.308  24.425  22.628  1.00  0.00    -0.167 F 
ATOM     22  F   UNL A   1      33.471  24.645  22.730  1.00  0.00    -0.167 F 
ATOM     23  F   UNL A   1      32.602  22.839  21.882  1.00  0.00    -0.167 F 
ENDBRANCH  11  20
BRANCH  17  24
ATOM     24  C   UNL A   1      34.610  19.442  24.872  1.00  0.00    -0.015 A 
ATOM     25  C   UNL A   1      33.305  19.321  25.382  1.00  0.00     0.010 A 
ATOM     26  C   UNL A   1      35.244  18.281  24.421  1.00  0.00     0.010 A 
ATOM     27  C   UNL A   1      32.660  18.090  25.492  1.00  0.00     0.021 A 
ATOM     28  C   UNL A   1      34.602  17.038  24.525  1.00  0.00     0.021 A 
ATOM     29  C   UNL A   1      33.322  16.946  25.072  1.00  0.00     0.041 A 
ATOM     30  Cl  UNL A   1      32.558  15.415  25.241  1.00  0.00    -0.084 Cl
ENDBRANCH  17  24
ENDBRANCH   7   9
ENDBRANCH   4   5
ENDBRANCH   3   4
ENDBRANCH   2   3
ENDBRANCH   1   2
BRANCH   1  31
ATOM     31  C   UNL A   1      34.143  28.782  27.158  1.00  0.00     0.021 C 
BRANCH  31  32
ATOM     32  C   UNL A   1      35.075  29.938  27.485  1.00  0.00     0.116 C 
BRANCH  32  33
ATOM     33  N   UNL A   1      35.131  30.198  28.914  1.00  0.00    -0.352 N 
ATOM     34  C   UNL A   1      36.112  29.943  29.841  1.00  0.00     0.251 C 
ATOM     35  H   UNL A   1      34.327  30.633  29.281  1.00  0.00     0.163 HD
ATOM     36  O   UNL A   1      35.840  30.042  31.034  1.00  0.00    -0.269 OA
BRANCH  34  37
ATOM     37  C   UNL A   1      37.486  29.547  29.441  1.00  0.00     0.039 A 
ATOM     38  C   UNL A   1      38.345  29.028  30.419  1.00  0.00     0.014 A 
ATOM     39  C   UNL A   1      37.971  29.750  28.147  1.00  0.00     0.014 A 
ATOM     40  C   UNL A   1      39.661  28.682  30.091  1.00  0.00     0.010 A 
ATOM     41  C   UNL A   1      39.250  29.321  27.798  1.00  0.00     0.010 A 
ATOM     42  C   UNL A   1      40.120  28.803  28.771  1.00  0.00    -0.014 A 
BRANCH  42  43
ATOM     43  C   UNL A   1      41.510  28.438  28.392  1.00  0.00     0.031 A 
ATOM     44  C   UNL A   1      41.836  27.020  27.996  1.00  0.00     0.074 A 
ATOM     45  C   UNL A   1      42.491  29.359  28.462  1.00  0.00     0.049 A 
ATOM     46  N   UNL A   1      42.998  26.481  27.722  1.00  0.00    -0.248 NA
ATOM     47  C   UNL A   1      40.710  26.075  27.928  1.00  0.00     0.031 C 
ATOM     48  C   UNL A   1      42.316  30.754  28.868  1.00  0.00     0.029 A 
ATOM     49  N   UNL A   1      43.835  29.255  28.201  1.00  0.00    -0.354 N 
ATOM     50  C   UNL A   1      42.746  25.136  27.482  1.00  0.00     0.074 A 
ATOM     51  C   UNL A   1      41.329  24.929  27.686  1.00  0.00     0.031 C 
ATOM     52  C   UNL A   1      43.502  31.382  28.805  1.00  0.00     0.029 A 
ATOM     53  C   UNL A   1      44.525  30.428  28.394  1.00  0.00     0.049 A 
ATOM     54  H   UNL A   1      44.263  28.420  27.903  1.00  0.00     0.167 HD
ATOM     55  C   UNL A   1      43.611  24.166  27.104  1.00  0.00     0.037 A 
ATOM     56  C   UNL A   1      45.838  30.700  28.262  1.00  0.00     0.037 A 
ATOM     57  C   UNL A   1      45.010  24.383  26.852  1.00  0.00     0.049 A 
ATOM     58  C   UNL A   1      46.775  29.605  27.830  1.00  0.00     0.074 A 
ATOM     59  C   UNL A   1      45.954  23.483  26.390  1.00  0.00     0.029 A 
ATOM     60  N   UNL A   1      45.665  25.591  27.036  1.00  0.00    -0.354 N 
ATOM     61  N   UNL A   1      46.510  28.354  27.544  1.00  0.00    -0.248 NA
ATOM     62  C   UNL A   1      48.195  29.963  27.698  1.00  0.00     0.031 C 
ATOM     63  C   UNL A   1      47.190  24.135  26.333  1.00  0.00     0.029 A 
ATOM     64  C   UNL A   1      47.006  25.454  26.716  1.00  0.00     0.049 A 
ATOM     65  H   UNL A   1      45.241  26.424  27.348  1.00  0.00     0.167 HD
ATOM     66  C   UNL A   1      47.720  27.785  27.169  1.00  0.00     0.074 A 
ATOM     67  C   UNL A   1      48.718  28.830  27.251  1.00  0.00     0.031 C 
ATOM     68  C   UNL A   1      47.982  26.511  26.789  1.00  0.00     0.037 A 
BRANCH  55  69
ATOM     69  C   UNL A   1      43.069  22.775  26.930  1.00  0.00     0.057 A 
ATOM     70  C   UNL A   1      42.753  21.961  28.025  1.00  0.00     0.134 A 
ATOM     71  C   UNL A   1      42.816  22.263  25.651  1.00  0.00     0.134 A 
ATOM     72  F   UNL A   1      42.981  22.387  29.277  1.00  0.00    -0.206 F 
ATOM     73  C   UNL A   1      42.227  20.679  27.855  1.00  0.00     0.040 A 
ATOM     74  C   UNL A   1      42.265  20.993  25.468  1.00  0.00     0.040 A 
ATOM     75  F   UNL A   1      43.088  22.992  24.558  1.00  0.00    -0.206 F 
ATOM     76  C   UNL A   1      41.974  20.195  26.573  1.00  0.00     0.006 A 
ENDBRANCH  55  69
BRANCH  56  77
ATOM     77  C   UNL A   1      46.348  32.071  28.517  1.00  0.00     0.057 A 
ATOM     78  C   UNL A   1      46.746  32.463  29.801  1.00  0.00     0.134 A 
ATOM     79  C   UNL A   1      46.431  33.026  27.497  1.00  0.00     0.134 A 
ATOM     80  F   UNL A   1      46.670  31.598  30.823  1.00  0.00    -0.206 F 
ATOM     81  C   UNL A   1      47.187  33.760  30.066  1.00  0.00     0.040 A 
ATOM     82  C   UNL A   1      46.895  34.319  27.743  1.00  0.00     0.040 A 
ATOM     83  F   UNL A   1      46.071  32.711  26.243  1.00  0.00    -0.206 F 
ATOM     84  C   UNL A   1      47.265  34.692  29.034  1.00  0.00     0.006 A 
ENDBRANCH  56  77
BRANCH  68  85
ATOM     85  C   UNL A   1      49.393  26.188  26.394  1.00  0.00     0.057 A 
ATOM     86  C   UNL A   1      49.884  26.468  25.114  1.00  0.00     0.134 A 
ATOM     87  C   UNL A   1      50.279  25.623  27.320  1.00  0.00     0.134 A 
ATOM     88  F   UNL A   1      49.081  26.998  24.177  1.00  0.00    -0.206 F 
ATOM     89  C   UNL A   1      51.203  26.180  24.762  1.00  0.00     0.040 A 
ATOM     90  C   UNL A   1      51.606  25.354  26.988  1.00  0.00     0.040 A 
ATOM     91  F   UNL A   1      49.872  25.338  28.566  1.00  0.00    -0.206 F 
ATOM     92  C   UNL A   1      52.070  25.628  25.703  1.00  0.00     0.006 A 
ENDBRANCH  68  85
ENDBRANCH  42  43
ENDBRANCH  34  37
ENDBRANCH  32  33
ENDBRANCH  31  32
ENDBRANCH   1  31
TORSDOF 15
ENDMDL
