MODEL 1
REMARK VINA RESULT:     -12.3      0.000      0.000
REMARK SMILES COc1c[nH]c(C[N@H+]2CCC[C@@H](c3ccc(C(=O)NCCCCCCNC(=O)c4ccc(-c5c6nc(c(-c7c(F)cccc7F)c7ccc([nH]7)c(-c7c(F)cccc7F)c7nc(c(-c8c(F)cccc8F)c8ccc5[nH]8)C=C7)C=C6)cc4)cc3)C2)cc1=O
REMARK SMILES IDX 21 1 20 2 19 3 17 4 18 5 16 7 13 8 14 9 84 10 15 11 83 12
REMARK SMILES IDX 12 13 8 14 9 15 85 16 10 18 11 19 7 20 6 21 3 22 4 23 87 24
REMARK SMILES IDX 5 25 86 26 88 27 2 29 1 30 22 31 23 32 24 33 25 34 26 35
REMARK SMILES IDX 27 36 28 38 29 39 30 40 82 41 31 42 81 43 32 44 33 45 34 46
REMARK SMILES IDX 75 47 35 48 80 49 74 50 76 51 36 52 79 53 73 54 72 55 37 57
REMARK SMILES IDX 63 58 46 59 62 60 47 61 50 62 61 63 77 64 48 65 49 66 60 68
REMARK SMILES IDX 78 69 51 70 38 71 39 72 44 73 40 74 41 75 43 76 45 77 42 78
REMARK SMILES IDX 64 79 65 80 70 81 66 82 67 83 69 84 71 85 68 86 52 87 53 88
REMARK SMILES IDX 58 89 54 90 55 91 57 92 59 93 56 94
REMARK H PARENT 19 6 8 17 5 28 26 37 76 56 50 67
REMARK Flexibility Score: inf
ROOT
ATOM      1  C   UNL A   1      33.059  32.124  27.353  1.00  0.00     0.021 C 
ENDROOT
BRANCH   1   2
ATOM      2  C   UNL A   1      32.735  30.660  27.047  1.00  0.00     0.116 C 
BRANCH   2   3
ATOM      3  N   UNL A   1      31.766  30.589  25.973  1.00  0.00    -0.352 N 
ATOM      4  C   UNL A   1      31.418  29.569  25.128  1.00  0.00     0.251 C 
ATOM      5  O   UNL A   1      30.557  29.796  24.276  1.00  0.00    -0.269 OA
ATOM      6  H   UNL A   1      31.266  31.424  25.824  1.00  0.00     0.163 HD
BRANCH   4   7
ATOM      7  C   UNL A   1      31.971  28.195  25.253  1.00  0.00     0.039 A 
ATOM      8  C   UNL A   1      32.859  25.555  25.730  1.00  0.00    -0.039 A 
ATOM      9  C   UNL A   1      31.496  25.881  25.805  1.00  0.00     0.005 A 
ATOM     10  C   UNL A   1      33.754  26.546  25.312  1.00  0.00     0.005 A 
ATOM     11  C   UNL A   1      31.060  27.188  25.589  1.00  0.00     0.014 A 
ATOM     12  C   UNL A   1      33.307  27.846  25.047  1.00  0.00     0.014 A 
BRANCH   8  13
ATOM     13  C   UNL A   1      33.372  24.167  26.090  1.00  0.00     0.074 C 
ATOM     14  N   UNL A   1      33.002  21.698  25.651  1.00  0.00    -0.329 N 
ATOM     15  C   UNL A   1      34.409  21.563  25.251  1.00  0.00     0.262 C 
ATOM     16  C   UNL A   1      32.509  23.065  25.434  1.00  0.00     0.270 C 
ATOM     17  H   UNL A   1      32.949  21.522  26.654  1.00  0.00     0.348 HD
ATOM     18  C   UNL A   1      35.305  22.577  25.966  1.00  0.00     0.062 C 
ATOM     19  C   UNL A   1      34.844  24.006  25.697  1.00  0.00     0.020 C 
BRANCH  14  20
ATOM     20  C   UNL A   1      32.143  20.680  25.000  1.00  0.00     0.317 C 
BRANCH  20  21
ATOM     21  C   UNL A   1      32.716  19.264  24.915  1.00  0.00     0.074 A 
ATOM     22  C   UNL A   1      33.427  16.499  24.939  1.00  0.00     0.182 A 
ATOM     23  C   UNL A   1      33.049  17.160  26.041  1.00  0.00     0.133 A 
ATOM     24  C   UNL A   1      33.550  17.318  23.680  1.00  0.00     0.223 A 
ATOM     25  N   UNL A   1      32.774  18.500  26.067  1.00  0.00    -0.357 N 
ATOM     26  C   UNL A   1      33.129  18.748  23.743  1.00  0.00     0.083 A 
ATOM     27  O   UNL A   1      33.946  16.852  22.615  1.00  0.00    -0.286 OA
ATOM     28  H   UNL A   1      32.611  18.935  26.935  1.00  0.00     0.166 HD
BRANCH  22  29
ATOM     29  O   UNL A   1      33.593  15.129  24.958  1.00  0.00    -0.491 OA
ATOM     30  C   UNL A   1      32.497  14.456  25.567  1.00  0.00     0.278 C 
ENDBRANCH  22  29
ENDBRANCH  20  21
ENDBRANCH  14  20
ENDBRANCH   8  13
ENDBRANCH   4   7
ENDBRANCH   2   3
ENDBRANCH   1   2
BRANCH   1  31
ATOM     31  C   UNL A   1      34.222  32.289  28.338  1.00  0.00     0.002 C 
BRANCH  31  32
ATOM     32  C   UNL A   1      34.388  33.706  28.898  1.00  0.00     0.002 C 
BRANCH  32  33
ATOM     33  C   UNL A   1      33.105  34.542  28.922  1.00  0.00     0.021 C 
BRANCH  33  34
ATOM     34  C   UNL A   1      33.303  35.971  29.415  1.00  0.00     0.116 C 
BRANCH  34  35
ATOM     35  N   UNL A   1      32.508  36.242  30.601  1.00  0.00    -0.352 N 
ATOM     36  C   UNL A   1      32.631  35.717  31.862  1.00  0.00     0.251 C 
ATOM     37  H   UNL A   1      31.780  36.893  30.483  1.00  0.00     0.163 HD
ATOM     38  O   UNL A   1      31.737  35.869  32.687  1.00  0.00    -0.269 OA
BRANCH  36  39
ATOM     39  C   UNL A   1      33.848  34.960  32.223  1.00  0.00     0.039 A 
ATOM     40  C   UNL A   1      35.092  35.585  32.109  1.00  0.00     0.014 A 
ATOM     41  C   UNL A   1      33.761  33.629  32.639  1.00  0.00     0.014 A 
ATOM     42  C   UNL A   1      36.251  34.883  32.448  1.00  0.00     0.010 A 
ATOM     43  C   UNL A   1      34.909  32.953  33.041  1.00  0.00     0.010 A 
ATOM     44  C   UNL A   1      36.166  33.568  32.932  1.00  0.00    -0.014 A 
BRANCH  44  45
ATOM     45  C   UNL A   1      37.384  32.801  33.290  1.00  0.00     0.031 A 
ATOM     46  C   UNL A   1      38.101  33.096  34.578  1.00  0.00     0.074 A 
ATOM     47  C   UNL A   1      37.872  31.882  32.435  1.00  0.00     0.049 A 
ATOM     48  N   UNL A   1      39.220  32.594  35.037  1.00  0.00    -0.248 NA
ATOM     49  C   UNL A   1      37.498  34.114  35.452  1.00  0.00     0.031 C 
ATOM     50  C   UNL A   1      37.288  31.535  31.139  1.00  0.00     0.029 A 
ATOM     51  N   UNL A   1      38.981  31.079  32.527  1.00  0.00    -0.354 N 
ATOM     52  C   UNL A   1      39.459  33.245  36.239  1.00  0.00     0.074 A 
ATOM     53  C   UNL A   1      38.402  34.216  36.414  1.00  0.00     0.031 C 
ATOM     54  C   UNL A   1      38.032  30.575  30.566  1.00  0.00     0.029 A 
ATOM     55  C   UNL A   1      39.162  30.263  31.437  1.00  0.00     0.049 A 
ATOM     56  H   UNL A   1      39.590  31.087  33.302  1.00  0.00     0.167 HD
ATOM     57  C   UNL A   1      40.457  33.037  37.131  1.00  0.00     0.037 A 
ATOM     58  C   UNL A   1      40.132  29.370  31.171  1.00  0.00     0.037 A 
ATOM     59  C   UNL A   1      41.490  32.047  36.970  1.00  0.00     0.049 A 
ATOM     60  C   UNL A   1      41.226  29.152  32.179  1.00  0.00     0.074 A 
ATOM     61  C   UNL A   1      42.515  31.721  37.839  1.00  0.00     0.029 A 
ATOM     62  N   UNL A   1      41.622  31.223  35.863  1.00  0.00    -0.354 N 
ATOM     63  N   UNL A   1      41.411  29.735  33.339  1.00  0.00    -0.248 NA
ATOM     64  C   UNL A   1      42.244  28.147  31.844  1.00  0.00     0.031 C 
ATOM     65  C   UNL A   1      43.291  30.722  37.242  1.00  0.00     0.029 A 
ATOM     66  C   UNL A   1      42.722  30.396  36.022  1.00  0.00     0.049 A 
ATOM     67  H   UNL A   1      41.024  31.223  35.082  1.00  0.00     0.167 HD
ATOM     68  C   UNL A   1      42.542  29.146  33.886  1.00  0.00     0.074 A 
ATOM     69  C   UNL A   1      42.998  28.153  32.935  1.00  0.00     0.031 C 
ATOM     70  C   UNL A   1      43.150  29.403  35.070  1.00  0.00     0.037 A 
BRANCH  57  71
ATOM     71  C   UNL A   1      40.472  33.893  38.364  1.00  0.00     0.057 A 
ATOM     72  C   UNL A   1      41.186  35.098  38.418  1.00  0.00     0.134 A 
ATOM     73  C   UNL A   1      39.745  33.522  39.502  1.00  0.00     0.134 A 
ATOM     74  F   UNL A   1      41.914  35.504  37.367  1.00  0.00    -0.206 F 
ATOM     75  C   UNL A   1      41.199  35.889  39.568  1.00  0.00     0.040 A 
ATOM     76  C   UNL A   1      39.728  34.318  40.649  1.00  0.00     0.040 A 
ATOM     77  F   UNL A   1      39.035  32.385  39.517  1.00  0.00    -0.206 F 
ATOM     78  C   UNL A   1      40.464  35.502  40.686  1.00  0.00     0.006 A 
ENDBRANCH  57  71
BRANCH  58  79
ATOM     79  C   UNL A   1      40.098  28.589  29.909  1.00  0.00     0.057 A 
ATOM     80  C   UNL A   1      40.791  29.024  28.774  1.00  0.00     0.134 A 
ATOM     81  C   UNL A   1      39.368  27.399  29.804  1.00  0.00     0.134 A 
ATOM     82  F   UNL A   1      41.494  30.166  28.809  1.00  0.00    -0.206 F 
ATOM     83  C   UNL A   1      40.744  28.316  27.572  1.00  0.00     0.040 A 
ATOM     84  C   UNL A   1      39.333  26.668  28.615  1.00  0.00     0.040 A 
ATOM     85  F   UNL A   1      38.690  26.924  30.858  1.00  0.00    -0.206 F 
ATOM     86  C   UNL A   1      40.016  27.131  27.491  1.00  0.00     0.006 A 
ENDBRANCH  58  79
BRANCH  70  87
ATOM     87  C   UNL A   1      44.345  28.568  35.423  1.00  0.00     0.057 A 
ATOM     88  C   UNL A   1      45.637  28.907  35.000  1.00  0.00     0.134 A 
ATOM     89  C   UNL A   1      44.205  27.432  36.230  1.00  0.00     0.134 A 
ATOM     90  F   UNL A   1      45.836  29.976  34.214  1.00  0.00    -0.206 F 
ATOM     91  C   UNL A   1      46.744  28.133  35.351  1.00  0.00     0.040 A 
ATOM     92  C   UNL A   1      45.307  26.665  36.608  1.00  0.00     0.040 A 
ATOM     93  F   UNL A   1      42.996  27.058  36.676  1.00  0.00    -0.206 F 
ATOM     94  C   UNL A   1      46.581  27.012  36.164  1.00  0.00     0.006 A 
ENDBRANCH  70  87
ENDBRANCH  44  45
ENDBRANCH  36  39
ENDBRANCH  34  35
ENDBRANCH  33  34
ENDBRANCH  32  33
ENDBRANCH  31  32
ENDBRANCH   1  31
TORSDOF 17
ENDMDL
MODEL 2
REMARK VINA RESULT:     -12.1      0.428      5.954
REMARK SMILES COc1c[nH]c(C[N@H+]2CCC[C@@H](c3ccc(C(=O)NCCCCCCNC(=O)c4ccc(-c5c6nc(c(-c7c(F)cccc7F)c7ccc([nH]7)c(-c7c(F)cccc7F)c7nc(c(-c8c(F)cccc8F)c8ccc5[nH]8)C=C7)C=C6)cc4)cc3)C2)cc1=O
REMARK SMILES IDX 21 1 20 2 19 3 17 4 18 5 16 7 13 8 14 9 84 10 15 11 83 12
REMARK SMILES IDX 12 13 8 14 9 15 85 16 10 18 11 19 7 20 6 21 3 22 4 23 87 24
REMARK SMILES IDX 5 25 86 26 88 27 2 29 1 30 22 31 23 32 24 33 25 34 26 35
REMARK SMILES IDX 27 36 28 38 29 39 30 40 82 41 31 42 81 43 32 44 33 45 34 46
REMARK SMILES IDX 75 47 35 48 80 49 74 50 76 51 36 52 79 53 73 54 72 55 37 57
REMARK SMILES IDX 63 58 46 59 62 60 47 61 50 62 61 63 77 64 48 65 49 66 60 68
REMARK SMILES IDX 78 69 51 70 38 71 39 72 44 73 40 74 41 75 43 76 45 77 42 78
REMARK SMILES IDX 64 79 65 80 70 81 66 82 67 83 69 84 71 85 68 86 52 87 53 88
REMARK SMILES IDX 58 89 54 90 55 91 57 92 59 93 56 94
REMARK H PARENT 19 6 8 17 5 28 26 37 76 56 50 67
REMARK Flexibility Score: inf
ROOT
ATOM      1  C   UNL A   1      33.386  32.199  27.542  1.00  0.00     0.021 C 
ENDROOT
BRANCH   1   2
ATOM      2  C   UNL A   1      33.039  30.754  27.177  1.00  0.00     0.116 C 
BRANCH   2   3
ATOM      3  N   UNL A   1      31.989  30.742  26.180  1.00  0.00    -0.352 N 
ATOM      4  C   UNL A   1      31.561  29.764  25.322  1.00  0.00     0.251 C 
ATOM      5  O   UNL A   1      30.641  30.038  24.550  1.00  0.00    -0.269 OA
ATOM      6  H   UNL A   1      31.494  31.589  26.105  1.00  0.00     0.163 HD
BRANCH   4   7
ATOM      7  C   UNL A   1      32.100  28.378  25.347  1.00  0.00     0.039 A 
ATOM      8  C   UNL A   1      33.012  25.722  25.660  1.00  0.00    -0.039 A 
ATOM      9  C   UNL A   1      31.700  26.079  26.008  1.00  0.00     0.005 A 
ATOM     10  C   UNL A   1      33.824  26.690  25.059  1.00  0.00     0.005 A 
ATOM     11  C   UNL A   1      31.256  27.394  25.871  1.00  0.00     0.014 A 
ATOM     12  C   UNL A   1      33.359  27.999  24.877  1.00  0.00     0.014 A 
BRANCH   8  13
ATOM     13  C   UNL A   1      33.559  24.326  25.923  1.00  0.00     0.074 C 
ATOM     14  N   UNL A   1      33.035  21.862  25.635  1.00  0.00    -0.329 N 
ATOM     15  C   UNL A   1      34.309  21.679  24.925  1.00  0.00     0.262 C 
ATOM     16  C   UNL A   1      32.541  23.240  25.508  1.00  0.00     0.270 C 
ATOM     17  H   UNL A   1      33.211  21.703  26.627  1.00  0.00     0.348 HD
ATOM     18  C   UNL A   1      35.370  22.678  25.393  1.00  0.00     0.062 C 
ATOM     19  C   UNL A   1      34.896  24.115  25.206  1.00  0.00     0.020 C 
BRANCH  14  20
ATOM     20  C   UNL A   1      32.024  20.860  25.221  1.00  0.00     0.317 C 
BRANCH  20  21
ATOM     21  C   UNL A   1      32.541  19.445  24.958  1.00  0.00     0.074 A 
ATOM     22  C   UNL A   1      33.164  16.673  24.671  1.00  0.00     0.182 A 
ATOM     23  C   UNL A   1      32.916  17.242  25.858  1.00  0.00     0.133 A 
ATOM     24  C   UNL A   1      33.190  17.598  23.481  1.00  0.00     0.223 A 
ATOM     25  N   UNL A   1      32.687  18.579  26.028  1.00  0.00    -0.357 N 
ATOM     26  C   UNL A   1      32.822  19.026  23.710  1.00  0.00     0.083 A 
ATOM     27  O   UNL A   1      33.466  17.220  22.346  1.00  0.00    -0.286 OA
ATOM     28  H   UNL A   1      32.623  18.939  26.942  1.00  0.00     0.166 HD
BRANCH  22  29
ATOM     29  O   UNL A   1      33.288  15.303  24.555  1.00  0.00    -0.491 OA
ATOM     30  C   UNL A   1      32.824  14.615  25.711  1.00  0.00     0.278 C 
ENDBRANCH  22  29
ENDBRANCH  20  21
ENDBRANCH  14  20
ENDBRANCH   8  13
ENDBRANCH   4   7
ENDBRANCH   2   3
ENDBRANCH   1   2
BRANCH   1  31
ATOM     31  C   UNL A   1      34.409  32.303  28.681  1.00  0.00     0.002 C 
BRANCH  31  32
ATOM     32  C   UNL A   1      34.453  33.667  29.377  1.00  0.00     0.002 C 
BRANCH  32  33
ATOM     33  C   UNL A   1      33.216  34.542  29.154  1.00  0.00     0.021 C 
BRANCH  33  34
ATOM     34  C   UNL A   1      33.349  35.960  29.701  1.00  0.00     0.116 C 
BRANCH  34  35
ATOM     35  N   UNL A   1      32.506  36.162  30.868  1.00  0.00    -0.352 N 
ATOM     36  C   UNL A   1      32.630  35.630  32.127  1.00  0.00     0.251 C 
ATOM     37  H   UNL A   1      31.740  36.766  30.738  1.00  0.00     0.163 HD
ATOM     38  O   UNL A   1      31.706  35.713  32.928  1.00  0.00    -0.269 OA
BRANCH  36  39
ATOM     39  C   UNL A   1      33.884  34.950  32.512  1.00  0.00     0.039 A 
ATOM     40  C   UNL A   1      33.823  33.642  32.999  1.00  0.00     0.014 A 
ATOM     41  C   UNL A   1      35.110  35.616  32.425  1.00  0.00     0.014 A 
ATOM     42  C   UNL A   1      35.000  32.987  33.366  1.00  0.00     0.010 A 
ATOM     43  C   UNL A   1      36.288  34.939  32.727  1.00  0.00     0.010 A 
ATOM     44  C   UNL A   1      36.241  33.625  33.217  1.00  0.00    -0.014 A 
BRANCH  44  45
ATOM     45  C   UNL A   1      37.504  32.951  33.608  1.00  0.00     0.031 A 
ATOM     46  C   UNL A   1      38.098  31.900  32.712  1.00  0.00     0.074 A 
ATOM     47  C   UNL A   1      38.081  33.243  34.789  1.00  0.00     0.049 A 
ATOM     48  N   UNL A   1      39.149  31.143  32.906  1.00  0.00    -0.248 NA
ATOM     49  C   UNL A   1      37.403  31.645  31.440  1.00  0.00     0.031 C 
ATOM     50  C   UNL A   1      37.579  34.214  35.761  1.00  0.00     0.029 A 
ATOM     51  N   UNL A   1      39.216  32.741  35.375  1.00  0.00    -0.354 N 
ATOM     52  C   UNL A   1      39.227  30.315  31.795  1.00  0.00     0.074 A 
ATOM     53  C   UNL A   1      38.091  30.622  30.955  1.00  0.00     0.031 C 
ATOM     54  C   UNL A   1      38.412  34.252  36.813  1.00  0.00     0.029 A 
ATOM     55  C   UNL A   1      39.486  33.286  36.607  1.00  0.00     0.049 A 
ATOM     56  H   UNL A   1      39.782  32.054  34.953  1.00  0.00     0.167 HD
ATOM     57  C   UNL A   1      40.175  29.397  31.489  1.00  0.00     0.037 A 
ATOM     58  C   UNL A   1      40.487  33.031  37.470  1.00  0.00     0.037 A 
ATOM     59  C   UNL A   1      41.322  29.116  32.310  1.00  0.00     0.049 A 
ATOM     60  C   UNL A   1      41.529  32.012  37.104  1.00  0.00     0.074 A 
ATOM     61  C   UNL A   1      42.367  28.244  32.064  1.00  0.00     0.029 A 
ATOM     62  N   UNL A   1      41.574  29.709  33.538  1.00  0.00    -0.354 N 
ATOM     63  N   UNL A   1      41.623  31.274  36.024  1.00  0.00    -0.248 NA
ATOM     64  C   UNL A   1      42.610  31.793  38.075  1.00  0.00     0.031 C 
ATOM     65  C   UNL A   1      43.234  28.281  33.161  1.00  0.00     0.029 A 
ATOM     66  C   UNL A   1      42.753  29.211  34.068  1.00  0.00     0.049 A 
ATOM     67  H   UNL A   1      41.002  30.385  33.968  1.00  0.00     0.167 HD
ATOM     68  C   UNL A   1      42.786  30.531  36.169  1.00  0.00     0.074 A 
ATOM     69  C   UNL A   1      43.370  30.913  37.438  1.00  0.00     0.031 C 
ATOM     70  C   UNL A   1      43.324  29.615  35.327  1.00  0.00     0.037 A 
BRANCH  57  71
ATOM     71  C   UNL A   1      40.010  28.637  30.205  1.00  0.00     0.057 A 
ATOM     72  C   UNL A   1      40.617  29.058  29.013  1.00  0.00     0.134 A 
ATOM     73  C   UNL A   1      39.257  27.456  30.163  1.00  0.00     0.134 A 
ATOM     74  F   UNL A   1      41.341  30.187  28.982  1.00  0.00    -0.206 F 
ATOM     75  C   UNL A   1      40.458  28.349  27.822  1.00  0.00     0.040 A 
ATOM     76  C   UNL A   1      39.113  26.724  28.983  1.00  0.00     0.040 A 
ATOM     77  F   UNL A   1      38.654  26.994  31.267  1.00  0.00    -0.206 F 
ATOM     78  C   UNL A   1      39.709  27.175  27.806  1.00  0.00     0.006 A 
ENDBRANCH  57  71
BRANCH  58  79
ATOM     79  C   UNL A   1      40.570  33.774  38.752  1.00  0.00     0.057 A 
ATOM     80  C   UNL A   1      39.814  33.382  39.862  1.00  0.00     0.134 A 
ATOM     81  C   UNL A   1      41.397  34.895  38.896  1.00  0.00     0.134 A 
ATOM     82  F   UNL A   1      38.991  32.326  39.779  1.00  0.00    -0.206 F 
ATOM     83  C   UNL A   1      39.860  34.089  41.065  1.00  0.00     0.040 A 
ATOM     84  C   UNL A   1      41.470  35.597  40.100  1.00  0.00     0.040 A 
ATOM     85  F   UNL A   1      42.153  35.316  37.872  1.00  0.00    -0.206 F 
ATOM     86  C   UNL A   1      40.694  35.199  41.187  1.00  0.00     0.006 A 
ENDBRANCH  58  79
BRANCH  70  87
ATOM     87  C   UNL A   1      44.631  28.997  35.730  1.00  0.00     0.057 A 
ATOM     88  C   UNL A   1      45.860  29.556  35.359  1.00  0.00     0.134 A 
ATOM     89  C   UNL A   1      44.656  27.849  36.532  1.00  0.00     0.134 A 
ATOM     90  F   UNL A   1      45.903  30.648  34.580  1.00  0.00    -0.206 F 
ATOM     91  C   UNL A   1      47.069  28.983  35.756  1.00  0.00     0.040 A 
ATOM     92  C   UNL A   1      45.858  27.282  36.956  1.00  0.00     0.040 A 
ATOM     93  F   UNL A   1      43.513  27.269  36.929  1.00  0.00    -0.206 F 
ATOM     94  C   UNL A   1      47.070  27.846  36.563  1.00  0.00     0.006 A 
ENDBRANCH  70  87
ENDBRANCH  44  45
ENDBRANCH  36  39
ENDBRANCH  34  35
ENDBRANCH  33  34
ENDBRANCH  32  33
ENDBRANCH  31  32
ENDBRANCH   1  31
TORSDOF 17
ENDMDL
MODEL 3
REMARK VINA RESULT:     -11.5      2.520      4.177
REMARK SMILES COc1c[nH]c(C[N@H+]2CCC[C@@H](c3ccc(C(=O)NCCCCCCNC(=O)c4ccc(-c5c6nc(c(-c7c(F)cccc7F)c7ccc([nH]7)c(-c7c(F)cccc7F)c7nc(c(-c8c(F)cccc8F)c8ccc5[nH]8)C=C7)C=C6)cc4)cc3)C2)cc1=O
REMARK SMILES IDX 21 1 20 2 19 3 17 4 18 5 16 7 13 8 14 9 84 10 15 11 83 12
REMARK SMILES IDX 12 13 8 14 9 15 85 16 10 18 11 19 7 20 6 21 3 22 4 23 87 24
REMARK SMILES IDX 5 25 86 26 88 27 2 29 1 30 22 31 23 32 24 33 25 34 26 35
REMARK SMILES IDX 27 36 28 38 29 39 30 40 82 41 31 42 81 43 32 44 33 45 34 46
REMARK SMILES IDX 75 47 35 48 80 49 74 50 76 51 36 52 79 53 73 54 72 55 37 57
REMARK SMILES IDX 63 58 46 59 62 60 47 61 50 62 61 63 77 64 48 65 49 66 60 68
REMARK SMILES IDX 78 69 51 70 38 71 39 72 44 73 40 74 41 75 43 76 45 77 42 78
REMARK SMILES IDX 64 79 65 80 70 81 66 82 67 83 69 84 71 85 68 86 52 87 53 88
REMARK SMILES IDX 58 89 54 90 55 91 57 92 59 93 56 94
REMARK H PARENT 19 6 8 17 5 28 26 37 76 56 50 67
REMARK Flexibility Score: inf
ROOT
ATOM      1  C   UNL A   1      33.571  30.739  26.805  1.00  0.00     0.021 C 
ENDROOT
BRANCH   1   2
ATOM      2  C   UNL A   1      32.044  30.653  26.836  1.00  0.00     0.116 C 
BRANCH   2   3
ATOM      3  N   UNL A   1      31.544  30.385  25.503  1.00  0.00    -0.352 N 
ATOM      4  C   UNL A   1      31.539  29.245  24.745  1.00  0.00     0.251 C 
ATOM      5  O   UNL A   1      31.055  29.307  23.614  1.00  0.00    -0.269 OA
ATOM      6  H   UNL A   1      31.132  31.163  25.063  1.00  0.00     0.163 HD
BRANCH   4   7
ATOM      7  C   UNL A   1      32.012  27.933  25.262  1.00  0.00     0.039 A 
ATOM      8  C   UNL A   1      33.014  25.390  25.977  1.00  0.00    -0.039 A 
ATOM      9  C   UNL A   1      33.797  26.291  25.240  1.00  0.00     0.005 A 
ATOM     10  C   UNL A   1      31.765  25.821  26.438  1.00  0.00     0.005 A 
ATOM     11  C   UNL A   1      33.295  27.539  24.870  1.00  0.00     0.014 A 
ATOM     12  C   UNL A   1      31.283  27.094  26.107  1.00  0.00     0.014 A 
BRANCH   8  13
ATOM     13  C   UNL A   1      33.491  23.976  26.279  1.00  0.00     0.074 C 
ATOM     14  N   UNL A   1      33.082  21.540  25.709  1.00  0.00    -0.329 N 
ATOM     15  C   UNL A   1      34.495  21.395  25.335  1.00  0.00     0.262 C 
ATOM     16  C   UNL A   1      32.622  22.926  25.550  1.00  0.00     0.270 C 
ATOM     17  H   UNL A   1      33.002  21.315  26.701  1.00  0.00     0.348 HD
ATOM     18  C   UNL A   1      35.393  22.353  26.120  1.00  0.00     0.062 C 
ATOM     19  C   UNL A   1      34.968  23.803  25.912  1.00  0.00     0.020 C 
BRANCH  14  20
ATOM     20  C   UNL A   1      32.218  20.573  24.988  1.00  0.00     0.317 C 
BRANCH  20  21
ATOM     21  C   UNL A   1      32.741  19.140  24.890  1.00  0.00     0.074 A 
ATOM     22  C   UNL A   1      33.347  16.349  24.867  1.00  0.00     0.182 A 
ATOM     23  C   UNL A   1      32.941  16.995  25.969  1.00  0.00     0.133 A 
ATOM     24  C   UNL A   1      33.561  17.196  23.640  1.00  0.00     0.223 A 
ATOM     25  N   UNL A   1      32.715  18.342  26.021  1.00  0.00    -0.357 N 
ATOM     26  C   UNL A   1      33.190  18.639  23.724  1.00  0.00     0.083 A 
ATOM     27  O   UNL A   1      33.990  16.745  22.581  1.00  0.00    -0.286 OA
ATOM     28  H   UNL A   1      32.527  18.760  26.892  1.00  0.00     0.166 HD
BRANCH  22  29
ATOM     29  O   UNL A   1      33.461  14.974  24.855  1.00  0.00    -0.491 OA
ATOM     30  C   UNL A   1      32.537  14.343  25.735  1.00  0.00     0.278 C 
ENDBRANCH  22  29
ENDBRANCH  20  21
ENDBRANCH  14  20
ENDBRANCH   8  13
ENDBRANCH   4   7
ENDBRANCH   2   3
ENDBRANCH   1   2
BRANCH   1  31
ATOM     31  C   UNL A   1      34.251  29.672  27.672  1.00  0.00     0.002 C 
BRANCH  31  32
ATOM     32  C   UNL A   1      35.726  29.421  27.336  1.00  0.00     0.002 C 
BRANCH  32  33
ATOM     33  C   UNL A   1      36.687  29.563  28.520  1.00  0.00     0.021 C 
BRANCH  33  34
ATOM     34  C   UNL A   1      36.003  29.907  29.839  1.00  0.00     0.116 C 
BRANCH  34  35
ATOM     35  N   UNL A   1      35.686  31.323  29.921  1.00  0.00    -0.352 N 
ATOM     36  C   UNL A   1      36.073  32.242  30.864  1.00  0.00     0.251 C 
ATOM     37  H   UNL A   1      35.115  31.672  29.200  1.00  0.00     0.163 HD
ATOM     38  O   UNL A   1      35.528  33.339  30.920  1.00  0.00    -0.269 OA
BRANCH  36  39
ATOM     39  C   UNL A   1      37.149  31.902  31.817  1.00  0.00     0.039 A 
ATOM     40  C   UNL A   1      38.477  32.127  31.447  1.00  0.00     0.014 A 
ATOM     41  C   UNL A   1      36.848  31.333  33.057  1.00  0.00     0.014 A 
ATOM     42  C   UNL A   1      39.505  31.812  32.338  1.00  0.00     0.010 A 
ATOM     43  C   UNL A   1      37.867  31.083  33.970  1.00  0.00     0.010 A 
ATOM     44  C   UNL A   1      39.206  31.303  33.612  1.00  0.00    -0.014 A 
BRANCH  44  45
ATOM     45  C   UNL A   1      40.281  30.954  34.572  1.00  0.00     0.031 A 
ATOM     46  C   UNL A   1      40.749  31.974  35.574  1.00  0.00     0.074 A 
ATOM     47  C   UNL A   1      40.872  29.746  34.506  1.00  0.00     0.049 A 
ATOM     48  N   UNL A   1      41.723  31.893  36.445  1.00  0.00    -0.248 NA
ATOM     49  C   UNL A   1      40.048  33.268  35.577  1.00  0.00     0.031 C 
ATOM     50  C   UNL A   1      40.534  28.688  33.554  1.00  0.00     0.029 A 
ATOM     51  N   UNL A   1      41.891  29.209  35.253  1.00  0.00    -0.354 N 
ATOM     52  C   UNL A   1      41.761  33.126  37.082  1.00  0.00     0.074 A 
ATOM     53  C   UNL A   1      40.750  33.955  36.464  1.00  0.00     0.031 C 
ATOM     54  C   UNL A   1      41.317  27.622  33.787  1.00  0.00     0.029 A 
ATOM     55  C   UNL A   1      42.233  27.932  34.880  1.00  0.00     0.049 A 
ATOM     56  H   UNL A   1      42.335  29.694  35.986  1.00  0.00     0.167 HD
ATOM     57  C   UNL A   1      42.550  33.524  38.108  1.00  0.00     0.037 A 
ATOM     58  C   UNL A   1      43.181  27.109  35.364  1.00  0.00     0.037 A 
ATOM     59  C   UNL A   1      43.533  32.686  38.743  1.00  0.00     0.049 A 
ATOM     60  C   UNL A   1      44.041  27.572  36.507  1.00  0.00     0.074 A 
ATOM     61  C   UNL A   1      44.346  32.977  39.824  1.00  0.00     0.029 A 
ATOM     62  N   UNL A   1      43.831  31.389  38.353  1.00  0.00    -0.354 N 
ATOM     63  N   UNL A   1      44.029  28.722  37.139  1.00  0.00    -0.248 NA
ATOM     64  C   UNL A   1      45.042  26.622  37.010  1.00  0.00     0.031 C 
ATOM     65  C   UNL A   1      45.163  31.867  40.066  1.00  0.00     0.029 A 
ATOM     66  C   UNL A   1      44.826  30.870  39.165  1.00  0.00     0.049 A 
ATOM     67  H   UNL A   1      43.398  30.908  37.611  1.00  0.00     0.167 HD
ATOM     68  C   UNL A   1      44.994  28.620  38.132  1.00  0.00     0.074 A 
ATOM     69  C   UNL A   1      45.566  27.295  38.025  1.00  0.00     0.031 C 
ATOM     70  C   UNL A   1      45.372  29.542  39.051  1.00  0.00     0.037 A 
BRANCH  57  71
ATOM     71  C   UNL A   1      42.374  34.928  38.610  1.00  0.00     0.057 A 
ATOM     72  C   UNL A   1      43.115  35.997  38.089  1.00  0.00     0.134 A 
ATOM     73  C   UNL A   1      41.436  35.219  39.609  1.00  0.00     0.134 A 
ATOM     74  F   UNL A   1      44.040  35.784  37.140  1.00  0.00    -0.206 F 
ATOM     75  C   UNL A   1      42.951  37.300  38.562  1.00  0.00     0.040 A 
ATOM     76  C   UNL A   1      41.243  36.523  40.071  1.00  0.00     0.040 A 
ATOM     77  F   UNL A   1      40.690  34.244  40.147  1.00  0.00    -0.206 F 
ATOM     78  C   UNL A   1      42.007  37.566  39.551  1.00  0.00     0.006 A 
ENDBRANCH  57  71
BRANCH  58  79
ATOM     79  C   UNL A   1      43.348  25.750  34.793  1.00  0.00     0.057 A 
ATOM     80  C   UNL A   1      42.657  24.656  35.326  1.00  0.00     0.134 A 
ATOM     81  C   UNL A   1      44.204  25.509  33.712  1.00  0.00     0.134 A 
ATOM     82  F   UNL A   1      41.836  24.821  36.373  1.00  0.00    -0.206 F 
ATOM     83  C   UNL A   1      42.827  23.366  34.818  1.00  0.00     0.040 A 
ATOM     84  C   UNL A   1      44.365  24.229  33.179  1.00  0.00     0.040 A 
ATOM     85  F   UNL A   1      44.888  26.517  33.151  1.00  0.00    -0.206 F 
ATOM     86  C   UNL A   1      43.681  23.151  33.738  1.00  0.00     0.006 A 
ENDBRANCH  58  79
BRANCH  70  87
ATOM     87  C   UNL A   1      46.422  29.133  40.041  1.00  0.00     0.057 A 
ATOM     88  C   UNL A   1      47.784  29.378  39.821  1.00  0.00     0.134 A 
ATOM     89  C   UNL A   1      46.061  28.522  41.248  1.00  0.00     0.134 A 
ATOM     90  F   UNL A   1      48.195  29.948  38.677  1.00  0.00    -0.206 F 
ATOM     91  C   UNL A   1      48.750  29.010  40.757  1.00  0.00     0.040 A 
ATOM     92  C   UNL A   1      47.016  28.174  42.204  1.00  0.00     0.040 A 
ATOM     93  F   UNL A   1      44.773  28.269  41.525  1.00  0.00    -0.206 F 
ATOM     94  C   UNL A   1      48.366  28.413  41.957  1.00  0.00     0.006 A 
ENDBRANCH  70  87
ENDBRANCH  44  45
ENDBRANCH  36  39
ENDBRANCH  34  35
ENDBRANCH  33  34
ENDBRANCH  32  33
ENDBRANCH  31  32
ENDBRANCH   1  31
TORSDOF 17
ENDMDL
