MODEL 1
REMARK VINA RESULT:     -10.8      0.000      0.000
REMARK SMILES CC[C@@](C)(NS(=O)(=O)c1ccc(F)c(F)c1)C(=O)NCCCCCCNC(=O)c1ccc(-c2c3nc(c(-c4c(F)cccc4F)c4ccc([nH]4)c(-c4c(F)cccc4F)c4nc(c(-c5c(F)cccc5F)c5ccc2[nH]5)C=C4)C=C3)cc1
REMARK SMILES IDX 22 1 21 2 20 3 19 4 17 5 18 6 3 8 4 9 2 10 1 11 5 12 6 14
REMARK SMILES IDX 7 15 8 16 9 17 10 18 16 19 11 20 14 21 12 22 15 23 13 24
REMARK SMILES IDX 23 25 24 26 25 27 26 28 27 29 28 31 29 32 30 33 82 34 31 35
REMARK SMILES IDX 81 36 32 37 33 38 34 39 75 40 35 41 80 42 74 43 76 44 36 45
REMARK SMILES IDX 79 46 73 47 72 48 37 50 63 51 46 52 62 53 47 54 50 55 61 56
REMARK SMILES IDX 77 57 48 58 49 59 60 61 78 62 51 63 38 64 39 65 44 66 40 67
REMARK SMILES IDX 41 68 43 69 45 70 42 71 64 72 65 73 70 74 66 75 67 76 69 77
REMARK SMILES IDX 71 78 68 79 52 80 53 81 58 82 54 83 55 84 57 85 59 86 56 87
REMARK H PARENT 19 7 5 13 26 30 76 49 50 60
REMARK Flexibility Score: inf
ROOT
ATOM      1  C   UNL A   1      37.799  22.462  25.501  1.00  0.00     0.002 C 
ENDROOT
BRANCH   1   2
ATOM      2  C   UNL A   1      36.777  23.534  25.880  1.00  0.00     0.021 C 
BRANCH   2   3
ATOM      3  C   UNL A   1      35.742  23.960  24.827  1.00  0.00     0.116 C 
BRANCH   3   4
ATOM      4  N   UNL A   1      34.630  24.758  25.324  1.00  0.00    -0.354 N 
ATOM      5  C   UNL A   1      33.274  24.763  25.223  1.00  0.00     0.241 C 
ATOM      6  O   UNL A   1      32.746  25.563  26.012  1.00  0.00    -0.273 OA
ATOM      7  H   UNL A   1      34.948  25.498  25.889  1.00  0.00     0.163 HD
BRANCH   5   8
ATOM      8  C   UNL A   1      32.395  23.995  24.197  1.00  0.00     0.108 C 
ATOM      9  C   UNL A   1      30.911  24.346  24.339  1.00  0.00     0.040 C 
BRANCH   8  10
ATOM     10  C   UNL A   1      32.829  24.380  22.714  1.00  0.00     0.030 C 
ATOM     11  C   UNL A   1      33.342  23.317  21.759  1.00  0.00     0.006 C 
ENDBRANCH   8  10
BRANCH   8  12
ATOM     12  N   UNL A   1      32.609  22.520  24.108  1.00  0.00    -0.196 NA
ATOM     13  H   UNL A   1      33.523  22.437  23.663  1.00  0.00     0.142 HD
BRANCH  12  14
ATOM     14  S   UNL A   1      32.627  21.340  25.255  1.00  0.00     0.241 S 
ATOM     15  O   UNL A   1      33.584  21.703  26.265  1.00  0.00    -0.207 OA
ATOM     16  O   UNL A   1      31.224  21.203  25.602  1.00  0.00    -0.207 OA
BRANCH  14  17
ATOM     17  C   UNL A   1      33.063  19.782  24.504  1.00  0.00     0.085 A 
ATOM     18  C   UNL A   1      32.274  19.132  23.554  1.00  0.00     0.025 A 
ATOM     19  C   UNL A   1      34.238  19.157  24.940  1.00  0.00     0.064 A 
ATOM     20  C   UNL A   1      32.711  17.959  22.929  1.00  0.00     0.044 A 
ATOM     21  C   UNL A   1      34.642  17.955  24.357  1.00  0.00     0.160 A 
ATOM     22  C   UNL A   1      33.902  17.377  23.332  1.00  0.00     0.158 A 
ATOM     23  F   UNL A   1      35.758  17.357  24.793  1.00  0.00    -0.204 F 
ATOM     24  F   UNL A   1      34.318  16.252  22.738  1.00  0.00    -0.204 F 
ENDBRANCH  14  17
ENDBRANCH  12  14
ENDBRANCH   8  12
ENDBRANCH   5   8
ENDBRANCH   3   4
ENDBRANCH   2   3
ENDBRANCH   1   2
BRANCH   1  25
ATOM     25  C   UNL A   1      37.317  21.373  24.549  1.00  0.00     0.002 C 
BRANCH  25  26
ATOM     26  C   UNL A   1      38.084  20.052  24.609  1.00  0.00     0.021 C 
BRANCH  26  27
ATOM     27  C   UNL A   1      38.716  19.716  25.957  1.00  0.00     0.116 C 
BRANCH  27  28
ATOM     28  N   UNL A   1      39.966  18.977  25.833  1.00  0.00    -0.352 N 
ATOM     29  C   UNL A   1      41.246  19.434  26.053  1.00  0.00     0.251 C 
ATOM     30  H   UNL A   1      39.885  18.035  25.558  1.00  0.00     0.163 HD
ATOM     31  O   UNL A   1      42.227  18.750  25.791  1.00  0.00    -0.269 OA
BRANCH  29  32
ATOM     32  C   UNL A   1      41.411  20.796  26.594  1.00  0.00     0.039 A 
ATOM     33  C   UNL A   1      41.519  20.975  27.974  1.00  0.00     0.014 A 
ATOM     34  C   UNL A   1      41.573  21.869  25.714  1.00  0.00     0.014 A 
ATOM     35  C   UNL A   1      41.865  22.231  28.472  1.00  0.00     0.010 A 
ATOM     36  C   UNL A   1      41.989  23.099  26.209  1.00  0.00     0.010 A 
ATOM     37  C   UNL A   1      42.141  23.292  27.593  1.00  0.00    -0.014 A 
BRANCH  37  38
ATOM     38  C   UNL A   1      42.584  24.616  28.099  1.00  0.00     0.031 A 
ATOM     39  C   UNL A   1      41.568  25.697  28.341  1.00  0.00     0.074 A 
ATOM     40  C   UNL A   1      43.896  24.865  28.271  1.00  0.00     0.049 A 
ATOM     41  N   UNL A   1      41.753  26.935  28.722  1.00  0.00    -0.248 NA
ATOM     42  C   UNL A   1      40.160  25.351  28.089  1.00  0.00     0.031 C 
ATOM     43  C   UNL A   1      44.982  23.918  28.011  1.00  0.00     0.029 A 
ATOM     44  N   UNL A   1      44.543  25.998  28.698  1.00  0.00    -0.354 N 
ATOM     45  C   UNL A   1      40.492  27.516  28.733  1.00  0.00     0.074 A 
ATOM     46  C   UNL A   1      39.557  26.517  28.268  1.00  0.00     0.031 C 
ATOM     47  C   UNL A   1      46.156  24.501  28.307  1.00  0.00     0.029 A 
ATOM     48  C   UNL A   1      45.910  25.871  28.747  1.00  0.00     0.049 A 
ATOM     49  H   UNL A   1      44.070  26.827  28.945  1.00  0.00     0.167 HD
ATOM     50  C   UNL A   1      40.139  28.764  29.123  1.00  0.00     0.037 A 
ATOM     51  C   UNL A   1      46.855  26.759  29.108  1.00  0.00     0.037 A 
ATOM     52  C   UNL A   1      41.067  29.743  29.624  1.00  0.00     0.049 A 
ATOM     53  C   UNL A   1      46.436  28.134  29.555  1.00  0.00     0.074 A 
ATOM     54  C   UNL A   1      40.802  31.007  30.121  1.00  0.00     0.029 A 
ATOM     55  N   UNL A   1      42.441  29.565  29.690  1.00  0.00    -0.354 N 
ATOM     56  N   UNL A   1      45.230  28.642  29.645  1.00  0.00    -0.248 NA
ATOM     57  C   UNL A   1      47.507  29.056  29.959  1.00  0.00     0.031 C 
ATOM     58  C   UNL A   1      42.020  31.609  30.448  1.00  0.00     0.029 A 
ATOM     59  C   UNL A   1      43.039  30.704  30.199  1.00  0.00     0.049 A 
ATOM     60  H   UNL A   1      42.918  28.748  29.416  1.00  0.00     0.167 HD
ATOM     61  C   UNL A   1      45.395  29.927  30.143  1.00  0.00     0.074 A 
ATOM     62  C   UNL A   1      46.816  30.116  30.349  1.00  0.00     0.031 C 
ATOM     63  C   UNL A   1      44.455  30.868  30.408  1.00  0.00     0.037 A 
BRANCH  50  64
ATOM     64  C   UNL A   1      38.688  29.134  29.031  1.00  0.00     0.057 A 
ATOM     65  C   UNL A   1      37.828  29.041  30.134  1.00  0.00     0.134 A 
ATOM     66  C   UNL A   1      38.148  29.614  27.831  1.00  0.00     0.134 A 
ATOM     67  F   UNL A   1      38.280  28.576  31.309  1.00  0.00    -0.206 F 
ATOM     68  C   UNL A   1      36.480  29.384  30.040  1.00  0.00     0.040 A 
ATOM     69  C   UNL A   1      36.807  29.988  27.733  1.00  0.00     0.040 A 
ATOM     70  F   UNL A   1      38.916  29.733  26.737  1.00  0.00    -0.206 F 
ATOM     71  C   UNL A   1      35.967  29.866  28.838  1.00  0.00     0.006 A 
ENDBRANCH  50  64
BRANCH  51  72
ATOM     72  C   UNL A   1      48.291  26.375  29.093  1.00  0.00     0.057 A 
ATOM     73  C   UNL A   1      48.894  25.796  30.216  1.00  0.00     0.134 A 
ATOM     74  C   UNL A   1      49.098  26.598  27.971  1.00  0.00     0.134 A 
ATOM     75  F   UNL A   1      48.178  25.574  31.328  1.00  0.00    -0.206 F 
ATOM     76  C   UNL A   1      50.254  25.475  30.234  1.00  0.00     0.040 A 
ATOM     77  C   UNL A   1      50.453  26.258  27.966  1.00  0.00     0.040 A 
ATOM     78  F   UNL A   1      48.581  27.143  26.861  1.00  0.00    -0.206 F 
ATOM     79  C   UNL A   1      51.036  25.703  29.104  1.00  0.00     0.006 A 
ENDBRANCH  51  72
BRANCH  63  80
ATOM     80  C   UNL A   1      44.929  32.170  30.982  1.00  0.00     0.057 A 
ATOM     81  C   UNL A   1      45.318  33.240  30.167  1.00  0.00     0.134 A 
ATOM     82  C   UNL A   1      44.950  32.369  32.368  1.00  0.00     0.134 A 
ATOM     83  F   UNL A   1      45.330  33.108  28.832  1.00  0.00    -0.206 F 
ATOM     84  C   UNL A   1      45.731  34.456  30.711  1.00  0.00     0.040 A 
ATOM     85  C   UNL A   1      45.335  33.590  32.923  1.00  0.00     0.040 A 
ATOM     86  F   UNL A   1      44.581  31.387  33.204  1.00  0.00    -0.206 F 
ATOM     87  C   UNL A   1      45.733  34.636  32.094  1.00  0.00     0.006 A 
ENDBRANCH  63  80
ENDBRANCH  37  38
ENDBRANCH  29  32
ENDBRANCH  27  28
ENDBRANCH  26  27
ENDBRANCH  25  26
ENDBRANCH   1  25
TORSDOF 17
ENDMDL
MODEL 2
REMARK VINA RESULT:     -10.7      4.717      9.271
REMARK SMILES CC[C@@](C)(NS(=O)(=O)c1ccc(F)c(F)c1)C(=O)NCCCCCCNC(=O)c1ccc(-c2c3nc(c(-c4c(F)cccc4F)c4ccc([nH]4)c(-c4c(F)cccc4F)c4nc(c(-c5c(F)cccc5F)c5ccc2[nH]5)C=C4)C=C3)cc1
REMARK SMILES IDX 22 1 21 2 20 3 19 4 17 5 18 6 3 8 4 9 2 10 1 11 5 12 6 14
REMARK SMILES IDX 7 15 8 16 9 17 10 18 16 19 11 20 14 21 12 22 15 23 13 24
REMARK SMILES IDX 23 25 24 26 25 27 26 28 27 29 28 31 29 32 30 33 82 34 31 35
REMARK SMILES IDX 81 36 32 37 33 38 34 39 75 40 35 41 80 42 74 43 76 44 36 45
REMARK SMILES IDX 79 46 73 47 72 48 37 50 63 51 46 52 62 53 47 54 50 55 61 56
REMARK SMILES IDX 77 57 48 58 49 59 60 61 78 62 51 63 38 64 39 65 44 66 40 67
REMARK SMILES IDX 41 68 43 69 45 70 42 71 64 72 65 73 70 74 66 75 67 76 69 77
REMARK SMILES IDX 71 78 68 79 52 80 53 81 58 82 54 83 55 84 57 85 59 86 56 87
REMARK H PARENT 19 7 5 13 26 30 76 49 50 60
REMARK Flexibility Score: inf
ROOT
ATOM      1  C   UNL A   1      32.621  29.703  27.276  1.00  0.00     0.002 C 
ENDROOT
BRANCH   1   2
ATOM      2  C   UNL A   1      32.028  28.336  27.618  1.00  0.00     0.021 C 
BRANCH   2   3
ATOM      3  C   UNL A   1      31.460  27.481  26.475  1.00  0.00     0.116 C 
BRANCH   3   4
ATOM      4  N   UNL A   1      31.249  26.074  26.787  1.00  0.00    -0.354 N 
ATOM      5  C   UNL A   1      31.925  24.902  26.646  1.00  0.00     0.241 C 
ATOM      6  O   UNL A   1      31.384  23.970  27.262  1.00  0.00    -0.273 OA
ATOM      7  H   UNL A   1      30.377  25.932  27.219  1.00  0.00     0.163 HD
BRANCH   5   8
ATOM      8  C   UNL A   1      33.162  24.621  25.749  1.00  0.00     0.108 C 
ATOM      9  C   UNL A   1      33.915  25.907  25.395  1.00  0.00     0.040 C 
BRANCH   8  10
ATOM     10  C   UNL A   1      34.186  23.675  26.516  1.00  0.00     0.030 C 
ATOM     11  C   UNL A   1      34.980  22.623  25.762  1.00  0.00     0.006 C 
ENDBRANCH   8  10
BRANCH   8  12
ATOM     12  N   UNL A   1      32.935  23.765  24.548  1.00  0.00    -0.196 NA
ATOM     13  H   UNL A   1      32.350  23.007  24.901  1.00  0.00     0.142 HD
BRANCH  12  14
ATOM     14  S   UNL A   1      32.293  24.091  23.068  1.00  0.00     0.241 S 
ATOM     15  O   UNL A   1      33.372  24.277  22.136  1.00  0.00    -0.207 OA
ATOM     16  O   UNL A   1      31.350  23.004  22.876  1.00  0.00    -0.207 OA
BRANCH  14  17
ATOM     17  C   UNL A   1      31.281  25.557  23.163  1.00  0.00     0.085 A 
ATOM     18  C   UNL A   1      31.724  26.829  22.798  1.00  0.00     0.025 A 
ATOM     19  C   UNL A   1      29.989  25.422  23.686  1.00  0.00     0.064 A 
ATOM     20  C   UNL A   1      30.857  27.927  22.804  1.00  0.00     0.044 A 
ATOM     21  C   UNL A   1      29.145  26.532  23.746  1.00  0.00     0.160 A 
ATOM     22  C   UNL A   1      29.564  27.770  23.275  1.00  0.00     0.158 A 
ATOM     23  F   UNL A   1      27.917  26.395  24.264  1.00  0.00    -0.204 F 
ATOM     24  F   UNL A   1      28.736  28.822  23.286  1.00  0.00    -0.204 F 
ENDBRANCH  14  17
ENDBRANCH  12  14
ENDBRANCH   8  12
ENDBRANCH   5   8
ENDBRANCH   3   4
ENDBRANCH   2   3
ENDBRANCH   1   2
BRANCH   1  25
ATOM     25  C   UNL A   1      31.868  30.528  26.238  1.00  0.00     0.002 C 
BRANCH  25  26
ATOM     26  C   UNL A   1      31.545  31.967  26.640  1.00  0.00     0.021 C 
BRANCH  26  27
ATOM     27  C   UNL A   1      32.663  32.719  27.357  1.00  0.00     0.116 C 
BRANCH  27  28
ATOM     28  N   UNL A   1      32.334  34.114  27.620  1.00  0.00    -0.352 N 
ATOM     29  C   UNL A   1      32.930  34.969  28.520  1.00  0.00     0.251 C 
ATOM     30  H   UNL A   1      31.596  34.491  27.089  1.00  0.00     0.163 HD
ATOM     31  O   UNL A   1      32.479  36.086  28.741  1.00  0.00    -0.269 OA
BRANCH  29  32
ATOM     32  C   UNL A   1      34.123  34.493  29.242  1.00  0.00     0.039 A 
ATOM     33  C   UNL A   1      33.967  33.830  30.460  1.00  0.00     0.014 A 
ATOM     34  C   UNL A   1      35.381  34.609  28.643  1.00  0.00     0.014 A 
ATOM     35  C   UNL A   1      35.072  33.214  31.048  1.00  0.00     0.010 A 
ATOM     36  C   UNL A   1      36.462  33.932  29.193  1.00  0.00     0.010 A 
ATOM     37  C   UNL A   1      36.319  33.227  30.400  1.00  0.00    -0.014 A 
BRANCH  37  38
ATOM     38  C   UNL A   1      37.490  32.514  30.970  1.00  0.00     0.031 A 
ATOM     39  C   UNL A   1      38.098  32.995  32.258  1.00  0.00     0.074 A 
ATOM     40  C   UNL A   1      38.045  31.487  30.298  1.00  0.00     0.049 A 
ATOM     41  N   UNL A   1      39.155  32.552  32.890  1.00  0.00    -0.248 NA
ATOM     42  C   UNL A   1      37.451  34.148  32.905  1.00  0.00     0.031 C 
ATOM     43  C   UNL A   1      37.585  30.968  29.009  1.00  0.00     0.029 A 
ATOM     44  N   UNL A   1      39.128  30.700  30.603  1.00  0.00    -0.354 N 
ATOM     45  C   UNL A   1      39.310  33.384  33.991  1.00  0.00     0.074 A 
ATOM     46  C   UNL A   1      38.276  34.391  33.913  1.00  0.00     0.031 C 
ATOM     47  C   UNL A   1      38.363  29.935  28.646  1.00  0.00     0.029 A 
ATOM     48  C   UNL A   1      39.395  29.738  29.659  1.00  0.00     0.049 A 
ATOM     49  H   UNL A   1      39.664  30.815  31.422  1.00  0.00     0.167 HD
ATOM     50  C   UNL A   1      40.216  33.300  34.993  1.00  0.00     0.037 A 
ATOM     51  C   UNL A   1      40.364  28.803  29.619  1.00  0.00     0.037 A 
ATOM     52  C   UNL A   1      41.218  32.272  35.089  1.00  0.00     0.049 A 
ATOM     53  C   UNL A   1      41.348  28.718  30.755  1.00  0.00     0.074 A 
ATOM     54  C   UNL A   1      42.131  32.049  36.104  1.00  0.00     0.029 A 
ATOM     55  N   UNL A   1      41.436  31.294  34.129  1.00  0.00    -0.354 N 
ATOM     56  N   UNL A   1      41.428  29.457  31.835  1.00  0.00    -0.248 NA
ATOM     57  C   UNL A   1      42.370  27.666  30.670  1.00  0.00     0.031 C 
ATOM     58  C   UNL A   1      42.931  30.962  35.738  1.00  0.00     0.029 A 
ATOM     59  C   UNL A   1      42.485  30.479  34.518  1.00  0.00     0.049 A 
ATOM     60  H   UNL A   1      40.921  31.195  33.295  1.00  0.00     0.167 HD
ATOM     61  C   UNL A   1      42.486  28.941  32.572  1.00  0.00     0.074 A 
ATOM     62  C   UNL A   1      43.008  27.818  31.821  1.00  0.00     0.031 C 
ATOM     63  C   UNL A   1      42.982  29.358  33.763  1.00  0.00     0.037 A 
BRANCH  50  64
ATOM     64  C   UNL A   1      40.156  34.343  36.070  1.00  0.00     0.057 A 
ATOM     65  C   UNL A   1      40.882  35.539  35.984  1.00  0.00     0.134 A 
ATOM     66  C   UNL A   1      39.341  34.162  37.195  1.00  0.00     0.134 A 
ATOM     67  F   UNL A   1      41.692  35.768  34.939  1.00  0.00    -0.206 F 
ATOM     68  C   UNL A   1      40.823  36.503  36.991  1.00  0.00     0.040 A 
ATOM     69  C   UNL A   1      39.251  35.133  38.194  1.00  0.00     0.040 A 
ATOM     70  F   UNL A   1      38.615  33.043  37.338  1.00  0.00    -0.206 F 
ATOM     71  C   UNL A   1      40.000  36.304  38.097  1.00  0.00     0.006 A 
ENDBRANCH  50  64
BRANCH  51  72
ATOM     72  C   UNL A   1      40.440  27.850  28.482  1.00  0.00     0.057 A 
ATOM     73  C   UNL A   1      41.170  28.160  27.328  1.00  0.00     0.134 A 
ATOM     74  C   UNL A   1      39.768  26.622  28.507  1.00  0.00     0.134 A 
ATOM     75  F   UNL A   1      41.820  29.330  27.235  1.00  0.00    -0.206 F 
ATOM     76  C   UNL A   1      41.211  27.296  26.231  1.00  0.00     0.040 A 
ATOM     77  C   UNL A   1      39.821  25.737  27.427  1.00  0.00     0.040 A 
ATOM     78  F   UNL A   1      39.056  26.260  29.583  1.00  0.00    -0.206 F 
ATOM     79  C   UNL A   1      40.537  26.078  26.281  1.00  0.00     0.006 A 
ENDBRANCH  51  72
BRANCH  63  80
ATOM     80  C   UNL A   1      44.121  28.575  34.345  1.00  0.00     0.057 A 
ATOM     81  C   UNL A   1      43.909  27.448  35.150  1.00  0.00     0.134 A 
ATOM     82  C   UNL A   1      45.446  28.925  34.056  1.00  0.00     0.134 A 
ATOM     83  F   UNL A   1      42.663  27.068  35.472  1.00  0.00    -0.206 F 
ATOM     84  C   UNL A   1      44.976  26.711  35.664  1.00  0.00     0.040 A 
ATOM     85  C   UNL A   1      46.520  28.179  34.542  1.00  0.00     0.040 A 
ATOM     86  F   UNL A   1      45.716  29.988  33.282  1.00  0.00    -0.206 F 
ATOM     87  C   UNL A   1      46.286  27.072  35.354  1.00  0.00     0.006 A 
ENDBRANCH  63  80
ENDBRANCH  37  38
ENDBRANCH  29  32
ENDBRANCH  27  28
ENDBRANCH  26  27
ENDBRANCH  25  26
ENDBRANCH   1  25
TORSDOF 17
ENDMDL
MODEL 3
REMARK VINA RESULT:     -10.6      4.626      8.890
REMARK SMILES CC[C@@](C)(NS(=O)(=O)c1ccc(F)c(F)c1)C(=O)NCCCCCCNC(=O)c1ccc(-c2c3nc(c(-c4c(F)cccc4F)c4ccc([nH]4)c(-c4c(F)cccc4F)c4nc(c(-c5c(F)cccc5F)c5ccc2[nH]5)C=C4)C=C3)cc1
REMARK SMILES IDX 22 1 21 2 20 3 19 4 17 5 18 6 3 8 4 9 2 10 1 11 5 12 6 14
REMARK SMILES IDX 7 15 8 16 9 17 10 18 16 19 11 20 14 21 12 22 15 23 13 24
REMARK SMILES IDX 23 25 24 26 25 27 26 28 27 29 28 31 29 32 30 33 82 34 31 35
REMARK SMILES IDX 81 36 32 37 33 38 34 39 75 40 35 41 80 42 74 43 76 44 36 45
REMARK SMILES IDX 79 46 73 47 72 48 37 50 63 51 46 52 62 53 47 54 50 55 61 56
REMARK SMILES IDX 77 57 48 58 49 59 60 61 78 62 51 63 38 64 39 65 44 66 40 67
REMARK SMILES IDX 41 68 43 69 45 70 42 71 64 72 65 73 70 74 66 75 67 76 69 77
REMARK SMILES IDX 71 78 68 79 52 80 53 81 58 82 54 83 55 84 57 85 59 86 56 87
REMARK H PARENT 19 7 5 13 26 30 76 49 50 60
REMARK Flexibility Score: inf
ROOT
ATOM      1  C   UNL A   1      32.435  29.693  27.166  1.00  0.00     0.002 C 
ENDROOT
BRANCH   1   2
ATOM      2  C   UNL A   1      31.750  28.342  27.371  1.00  0.00     0.021 C 
BRANCH   2   3
ATOM      3  C   UNL A   1      32.283  27.128  26.594  1.00  0.00     0.116 C 
BRANCH   3   4
ATOM      4  N   UNL A   1      31.430  25.948  26.608  1.00  0.00    -0.354 N 
ATOM      5  C   UNL A   1      30.853  25.115  25.701  1.00  0.00     0.241 C 
ATOM      6  O   UNL A   1      30.356  24.110  26.235  1.00  0.00    -0.273 OA
ATOM      7  H   UNL A   1      31.210  25.679  27.529  1.00  0.00     0.163 HD
BRANCH   5   8
ATOM      8  C   UNL A   1      30.672  25.351  24.176  1.00  0.00     0.108 C 
ATOM      9  C   UNL A   1      30.293  24.063  23.439  1.00  0.00     0.040 C 
BRANCH   8  10
ATOM     10  C   UNL A   1      29.499  26.398  23.924  1.00  0.00     0.030 C 
ATOM     11  C   UNL A   1      29.805  27.876  23.764  1.00  0.00     0.006 C 
ENDBRANCH   8  10
BRANCH   8  12
ATOM     12  N   UNL A   1      31.770  26.085  23.480  1.00  0.00    -0.196 NA
ATOM     13  H   UNL A   1      31.892  26.925  24.045  1.00  0.00     0.142 HD
BRANCH  12  14
ATOM     14  S   UNL A   1      33.308  25.653  23.090  1.00  0.00     0.241 S 
ATOM     15  O   UNL A   1      33.330  25.243  21.712  1.00  0.00    -0.207 OA
ATOM     16  O   UNL A   1      34.086  26.802  23.515  1.00  0.00    -0.207 OA
BRANCH  14  17
ATOM     17  C   UNL A   1      33.845  24.324  24.152  1.00  0.00     0.085 A 
ATOM     18  C   UNL A   1      34.550  24.518  25.340  1.00  0.00     0.025 A 
ATOM     19  C   UNL A   1      33.587  23.013  23.733  1.00  0.00     0.064 A 
ATOM     20  C   UNL A   1      34.863  23.444  26.181  1.00  0.00     0.044 A 
ATOM     21  C   UNL A   1      33.954  21.940  24.546  1.00  0.00     0.160 A 
ATOM     22  C   UNL A   1      34.555  22.155  25.780  1.00  0.00     0.158 A 
ATOM     23  F   UNL A   1      33.719  20.689  24.128  1.00  0.00    -0.204 F 
ATOM     24  F   UNL A   1      34.859  21.127  26.582  1.00  0.00    -0.204 F 
ENDBRANCH  14  17
ENDBRANCH  12  14
ENDBRANCH   8  12
ENDBRANCH   5   8
ENDBRANCH   3   4
ENDBRANCH   2   3
ENDBRANCH   1   2
BRANCH   1  25
ATOM     25  C   UNL A   1      31.756  30.658  26.200  1.00  0.00     0.002 C 
BRANCH  25  26
ATOM     26  C   UNL A   1      31.457  32.051  26.754  1.00  0.00     0.021 C 
BRANCH  26  27
ATOM     27  C   UNL A   1      32.656  32.808  27.320  1.00  0.00     0.116 C 
BRANCH  27  28
ATOM     28  N   UNL A   1      32.359  34.202  27.623  1.00  0.00    -0.352 N 
ATOM     29  C   UNL A   1      32.949  35.007  28.570  1.00  0.00     0.251 C 
ATOM     30  H   UNL A   1      31.650  34.619  27.082  1.00  0.00     0.163 HD
ATOM     31  O   UNL A   1      32.524  36.129  28.817  1.00  0.00    -0.269 OA
BRANCH  29  32
ATOM     32  C   UNL A   1      34.105  34.470  29.312  1.00  0.00     0.039 A 
ATOM     33  C   UNL A   1      33.891  33.786  30.510  1.00  0.00     0.014 A 
ATOM     34  C   UNL A   1      35.381  34.553  28.749  1.00  0.00     0.014 A 
ATOM     35  C   UNL A   1      34.956  33.116  31.112  1.00  0.00     0.010 A 
ATOM     36  C   UNL A   1      36.422  33.824  29.312  1.00  0.00     0.010 A 
ATOM     37  C   UNL A   1      36.220  33.097  30.498  1.00  0.00    -0.014 A 
BRANCH  37  38
ATOM     38  C   UNL A   1      37.348  32.329  31.082  1.00  0.00     0.031 A 
ATOM     39  C   UNL A   1      37.863  32.687  32.448  1.00  0.00     0.074 A 
ATOM     40  C   UNL A   1      37.950  31.364  30.359  1.00  0.00     0.049 A 
ATOM     41  N   UNL A   1      38.873  32.182  33.110  1.00  0.00    -0.248 NA
ATOM     42  C   UNL A   1      37.172  33.780  33.150  1.00  0.00     0.031 C 
ATOM     43  C   UNL A   1      37.582  30.967  28.999  1.00  0.00     0.029 A 
ATOM     44  N   UNL A   1      39.009  30.546  30.667  1.00  0.00    -0.354 N 
ATOM     45  C   UNL A   1      38.949  32.909  34.290  1.00  0.00     0.074 A 
ATOM     46  C   UNL A   1      37.923  33.925  34.232  1.00  0.00     0.031 C 
ATOM     47  C   UNL A   1      38.385  29.967  28.599  1.00  0.00     0.029 A 
ATOM     48  C   UNL A   1      39.343  29.672  29.661  1.00  0.00     0.049 A 
ATOM     49  H   UNL A   1      39.486  30.583  31.529  1.00  0.00     0.167 HD
ATOM     50  C   UNL A   1      39.782  32.729  35.342  1.00  0.00     0.037 A 
ATOM     51  C   UNL A   1      40.312  28.739  29.604  1.00  0.00     0.037 A 
ATOM     52  C   UNL A   1      40.775  31.691  35.413  1.00  0.00     0.049 A 
ATOM     53  C   UNL A   1      41.213  28.546  30.793  1.00  0.00     0.074 A 
ATOM     54  C   UNL A   1      41.614  31.371  36.466  1.00  0.00     0.029 A 
ATOM     55  N   UNL A   1      41.062  30.803  34.387  1.00  0.00    -0.354 N 
ATOM     56  N   UNL A   1      41.217  29.183  31.940  1.00  0.00    -0.248 NA
ATOM     57  C   UNL A   1      42.240  27.499  30.686  1.00  0.00     0.031 C 
ATOM     58  C   UNL A   1      42.439  30.317  36.060  1.00  0.00     0.029 A 
ATOM     59  C   UNL A   1      42.081  29.950  34.773  1.00  0.00     0.049 A 
ATOM     60  H   UNL A   1      40.607  30.783  33.513  1.00  0.00     0.167 HD
ATOM     61  C   UNL A   1      42.220  28.595  32.699  1.00  0.00     0.074 A 
ATOM     62  C   UNL A   1      42.795  27.542  31.888  1.00  0.00     0.031 C 
ATOM     63  C   UNL A   1      42.630  28.899  33.955  1.00  0.00     0.037 A 
BRANCH  50  64
ATOM     64  C   UNL A   1      39.646  33.671  36.503  1.00  0.00     0.057 A 
ATOM     65  C   UNL A   1      40.321  34.898  36.544  1.00  0.00     0.134 A 
ATOM     66  C   UNL A   1      38.807  33.358  37.580  1.00  0.00     0.134 A 
ATOM     67  F   UNL A   1      41.149  35.252  35.549  1.00  0.00    -0.206 F 
ATOM     68  C   UNL A   1      40.191  35.767  37.628  1.00  0.00     0.040 A 
ATOM     69  C   UNL A   1      38.647  34.232  38.656  1.00  0.00     0.040 A 
ATOM     70  F   UNL A   1      38.128  32.202  37.602  1.00  0.00    -0.206 F 
ATOM     71  C   UNL A   1      39.345  35.438  38.685  1.00  0.00     0.006 A 
ENDBRANCH  50  64
BRANCH  51  72
ATOM     72  C   UNL A   1      40.469  27.893  28.392  1.00  0.00     0.057 A 
ATOM     73  C   UNL A   1      39.848  26.641  28.303  1.00  0.00     0.134 A 
ATOM     74  C   UNL A   1      41.258  28.299  27.310  1.00  0.00     0.134 A 
ATOM     75  F   UNL A   1      39.095  26.186  29.315  1.00  0.00    -0.206 F 
ATOM     76  C   UNL A   1      40.026  25.812  27.192  1.00  0.00     0.040 A 
ATOM     77  C   UNL A   1      41.423  27.492  26.182  1.00  0.00     0.040 A 
ATOM     78  F   UNL A   1      41.874  29.489  27.329  1.00  0.00    -0.206 F 
ATOM     79  C   UNL A   1      40.812  26.241  26.125  1.00  0.00     0.006 A 
ENDBRANCH  51  72
BRANCH  63  80
ATOM     80  C   UNL A   1      43.726  28.060  34.542  1.00  0.00     0.057 A 
ATOM     81  C   UNL A   1      45.073  28.431  34.448  1.00  0.00     0.134 A 
ATOM     82  C   UNL A   1      43.423  26.890  35.250  1.00  0.00     0.134 A 
ATOM     83  F   UNL A   1      45.429  29.534  33.772  1.00  0.00    -0.206 F 
ATOM     84  C   UNL A   1      46.082  27.656  35.021  1.00  0.00     0.040 A 
ATOM     85  C   UNL A   1      44.422  26.123  35.851  1.00  0.00     0.040 A 
ATOM     86  F   UNL A   1      42.151  26.484  35.385  1.00  0.00    -0.206 F 
ATOM     87  C   UNL A   1      45.757  26.502  35.732  1.00  0.00     0.006 A 
ENDBRANCH  63  80
ENDBRANCH  37  38
ENDBRANCH  29  32
ENDBRANCH  27  28
ENDBRANCH  26  27
ENDBRANCH  25  26
ENDBRANCH   1  25
TORSDOF 17
ENDMDL
