MODEL 1
REMARK VINA RESULT:     -12.3      0.000      0.000
REMARK SMILES Cc1ccccc1CSCC(=O)Nc1ccc(C)c(C(=O)NCCCCCCNC(=O)c2ccc(-c3c4nc(c(-c5c(F)cccc5F)c5ccc([nH]5)c(-c5c(F)cccc5F)c5nc(c(-c6c(F)cccc6F)c6ccc3[nH]6)C=C5)C=C4)cc2)c1
REMARK SMILES IDX 24 1 23 2 22 3 20 4 21 5 19 7 14 8 15 9 86 10 16 11 17 12
REMARK SMILES IDX 18 13 13 14 11 15 12 16 10 18 9 19 8 20 7 21 1 22 2 23 3 24
REMARK SMILES IDX 4 25 6 26 5 27 25 28 26 29 27 30 28 31 29 32 30 33 31 35
REMARK SMILES IDX 32 36 33 37 85 38 34 39 84 40 35 41 36 42 37 43 78 44 38 45
REMARK SMILES IDX 83 46 77 47 79 48 39 49 82 50 76 51 75 52 40 54 66 55 49 56
REMARK SMILES IDX 65 57 50 58 53 59 64 60 80 61 51 62 52 63 63 65 81 66 54 67
REMARK SMILES IDX 41 68 42 69 47 70 43 71 44 72 46 73 48 74 45 75 67 76 68 77
REMARK SMILES IDX 73 78 69 79 70 80 72 81 74 82 71 83 55 84 56 85 61 86 57 87
REMARK SMILES IDX 58 88 60 89 62 90 59 91
REMARK H PARENT 22 6 13 17 29 34 79 53 53 64
REMARK Flexibility Score: inf
ROOT
ATOM      1  C   UNL A   1      33.309  28.931  24.632  1.00  0.00     0.021 C 
ENDROOT
BRANCH   1   2
ATOM      2  C   UNL A   1      33.231  28.906  23.111  1.00  0.00     0.116 C 
BRANCH   2   3
ATOM      3  N   UNL A   1      31.940  29.058  22.491  1.00  0.00    -0.352 N 
ATOM      4  C   UNL A   1      30.879  28.174  22.447  1.00  0.00     0.251 C 
ATOM      5  O   UNL A   1      29.809  28.595  22.003  1.00  0.00    -0.269 OA
ATOM      6  H   UNL A   1      31.792  29.917  22.031  1.00  0.00     0.163 HD
BRANCH   4   7
ATOM      7  C   UNL A   1      30.989  26.714  22.793  1.00  0.00     0.044 A 
ATOM      8  C   UNL A   1      30.326  25.005  24.398  1.00  0.00     0.042 A 
ATOM      9  C   UNL A   1      30.744  24.024  23.517  1.00  0.00     0.026 A 
ATOM     10  C   UNL A   1      30.310  26.331  23.975  1.00  0.00     0.040 A 
ATOM     11  C   UNL A   1      31.478  24.376  22.398  1.00  0.00     0.006 A 
ATOM     12  C   UNL A   1      31.734  25.725  22.121  1.00  0.00    -0.038 A 
ATOM     13  C   UNL A   1      32.906  25.975  21.218  1.00  0.00     0.045 C 
BRANCH   8  14
ATOM     14  N   UNL A   1      29.903  24.656  25.681  1.00  0.00    -0.325 N 
ATOM     15  C   UNL A   1      30.486  23.746  26.535  1.00  0.00     0.234 C 
ATOM     16  O   UNL A   1      29.815  23.335  27.487  1.00  0.00    -0.274 OA
ATOM     17  H   UNL A   1      29.097  25.113  26.015  1.00  0.00     0.169 HD
BRANCH  15  18
ATOM     18  C   UNL A   1      31.989  23.451  26.468  1.00  0.00     0.170 C 
BRANCH  18  19
ATOM     19  S   UNL A   1      32.550  21.772  26.092  1.00  0.00    -0.147 SA
BRANCH  19  20
ATOM     20  C   UNL A   1      33.542  22.038  24.588  1.00  0.00     0.105 C 
BRANCH  20  21
ATOM     21  C   UNL A   1      34.996  22.294  24.887  1.00  0.00    -0.035 A 
ATOM     22  C   UNL A   1      34.776  24.864  24.889  1.00  0.00     0.044 C 
ATOM     23  C   UNL A   1      35.555  23.582  25.006  1.00  0.00    -0.047 A 
ATOM     24  C   UNL A   1      36.940  23.702  25.226  1.00  0.00     0.004 A 
ATOM     25  C   UNL A   1      37.753  22.580  25.374  1.00  0.00     0.000 A 
ATOM     26  C   UNL A   1      35.833  21.171  25.075  1.00  0.00     0.005 A 
ATOM     27  C   UNL A   1      37.197  21.312  25.313  1.00  0.00     0.000 A 
ENDBRANCH  20  21
ENDBRANCH  19  20
ENDBRANCH  18  19
ENDBRANCH  15  18
ENDBRANCH   8  14
ENDBRANCH   4   7
ENDBRANCH   2   3
ENDBRANCH   1   2
BRANCH   1  28
ATOM     28  C   UNL A   1      32.031  29.135  25.452  1.00  0.00     0.002 C 
BRANCH  28  29
ATOM     29  C   UNL A   1      31.493  30.550  25.701  1.00  0.00     0.002 C 
BRANCH  29  30
ATOM     30  C   UNL A   1      32.047  31.354  26.874  1.00  0.00     0.021 C 
BRANCH  30  31
ATOM     31  C   UNL A   1      33.346  30.856  27.488  1.00  0.00     0.116 C 
BRANCH  31  32
ATOM     32  N   UNL A   1      34.138  31.877  28.160  1.00  0.00    -0.352 N 
ATOM     33  C   UNL A   1      35.351  31.768  28.822  1.00  0.00     0.251 C 
ATOM     34  H   UNL A   1      33.754  32.783  28.139  1.00  0.00     0.163 HD
ATOM     35  O   UNL A   1      35.837  32.748  29.367  1.00  0.00    -0.269 OA
BRANCH  33  36
ATOM     36  C   UNL A   1      36.140  30.509  28.734  1.00  0.00     0.039 A 
ATOM     37  C   UNL A   1      36.277  29.750  29.905  1.00  0.00     0.014 A 
ATOM     38  C   UNL A   1      36.923  30.215  27.625  1.00  0.00     0.014 A 
ATOM     39  C   UNL A   1      37.388  28.928  30.060  1.00  0.00     0.010 A 
ATOM     40  C   UNL A   1      38.086  29.500  27.813  1.00  0.00     0.010 A 
ATOM     41  C   UNL A   1      38.355  28.930  29.061  1.00  0.00    -0.014 A 
BRANCH  41  42
ATOM     42  C   UNL A   1      39.729  28.491  29.259  1.00  0.00     0.031 A 
ATOM     43  C   UNL A   1      40.152  27.152  28.813  1.00  0.00     0.074 A 
ATOM     44  C   UNL A   1      40.636  29.401  29.675  1.00  0.00     0.049 A 
ATOM     45  N   UNL A   1      41.272  26.596  29.126  1.00  0.00    -0.248 NA
ATOM     46  C   UNL A   1      39.294  26.293  28.008  1.00  0.00     0.031 C 
ATOM     47  C   UNL A   1      42.090  29.327  29.564  1.00  0.00     0.029 A 
ATOM     48  N   UNL A   1      40.406  30.518  30.492  1.00  0.00    -0.354 N 
ATOM     49  C   UNL A   1      41.416  25.467  28.349  1.00  0.00     0.074 A 
ATOM     50  C   UNL A   1      40.116  25.273  27.754  1.00  0.00     0.031 C 
ATOM     51  C   UNL A   1      42.637  30.147  30.475  1.00  0.00     0.029 A 
ATOM     52  C   UNL A   1      41.552  30.635  31.308  1.00  0.00     0.049 A 
ATOM     53  H   UNL A   1      39.611  31.099  30.494  1.00  0.00     0.167 HD
ATOM     54  C   UNL A   1      42.664  24.932  28.206  1.00  0.00     0.037 A 
ATOM     55  C   UNL A   1      41.480  30.455  32.659  1.00  0.00     0.037 A 
ATOM     56  C   UNL A   1      43.600  25.562  29.147  1.00  0.00     0.049 A 
ATOM     57  C   UNL A   1      42.352  29.334  33.174  1.00  0.00     0.074 A 
ATOM     58  C   UNL A   1      44.566  26.545  29.007  1.00  0.00     0.029 A 
ATOM     59  N   UNL A   1      43.398  25.404  30.515  1.00  0.00    -0.354 N 
ATOM     60  N   UNL A   1      42.787  28.351  32.435  1.00  0.00    -0.248 NA
ATOM     61  C   UNL A   1      42.795  29.229  34.561  1.00  0.00     0.031 C 
ATOM     62  C   UNL A   1      44.895  27.026  30.301  1.00  0.00     0.029 A 
ATOM     63  C   UNL A   1      44.149  26.318  31.228  1.00  0.00     0.049 A 
ATOM     64  H   UNL A   1      42.803  24.732  30.920  1.00  0.00     0.167 HD
ATOM     65  C   UNL A   1      43.536  27.496  33.203  1.00  0.00     0.074 A 
ATOM     66  C   UNL A   1      43.525  28.100  34.523  1.00  0.00     0.031 C 
ATOM     67  C   UNL A   1      44.094  26.361  32.683  1.00  0.00     0.037 A 
BRANCH  54  68
ATOM     68  C   UNL A   1      43.113  24.063  27.040  1.00  0.00     0.057 A 
ATOM     69  C   UNL A   1      42.893  22.669  27.062  1.00  0.00     0.134 A 
ATOM     70  C   UNL A   1      43.842  24.495  25.917  1.00  0.00     0.134 A 
ATOM     71  F   UNL A   1      42.138  22.088  28.004  1.00  0.00    -0.206 F 
ATOM     72  C   UNL A   1      43.440  21.783  26.118  1.00  0.00     0.040 A 
ATOM     73  C   UNL A   1      44.420  23.622  24.981  1.00  0.00     0.040 A 
ATOM     74  F   UNL A   1      44.000  25.784  25.617  1.00  0.00    -0.206 F 
ATOM     75  C   UNL A   1      44.235  22.256  25.088  1.00  0.00     0.006 A 
ENDBRANCH  54  68
BRANCH  55  76
ATOM     76  C   UNL A   1      40.166  30.851  33.233  1.00  0.00     0.057 A 
ATOM     77  C   UNL A   1      39.910  32.219  33.434  1.00  0.00     0.134 A 
ATOM     78  C   UNL A   1      39.063  29.994  33.206  1.00  0.00     0.134 A 
ATOM     79  F   UNL A   1      40.927  33.097  33.471  1.00  0.00    -0.206 F 
ATOM     80  C   UNL A   1      38.609  32.729  33.482  1.00  0.00     0.040 A 
ATOM     81  C   UNL A   1      37.754  30.493  33.267  1.00  0.00     0.040 A 
ATOM     82  F   UNL A   1      39.223  28.680  32.995  1.00  0.00    -0.206 F 
ATOM     83  C   UNL A   1      37.525  31.865  33.363  1.00  0.00     0.006 A 
ENDBRANCH  55  76
BRANCH  67  84
ATOM     84  C   UNL A   1      44.716  25.227  33.469  1.00  0.00     0.057 A 
ATOM     85  C   UNL A   1      43.993  24.274  34.202  1.00  0.00     0.134 A 
ATOM     86  C   UNL A   1      46.105  24.971  33.378  1.00  0.00     0.134 A 
ATOM     87  F   UNL A   1      42.656  24.312  34.280  1.00  0.00    -0.206 F 
ATOM     88  C   UNL A   1      44.607  23.190  34.845  1.00  0.00     0.040 A 
ATOM     89  C   UNL A   1      46.720  23.862  33.966  1.00  0.00     0.040 A 
ATOM     90  F   UNL A   1      46.929  25.774  32.688  1.00  0.00    -0.206 F 
ATOM     91  C   UNL A   1      45.972  22.972  34.719  1.00  0.00     0.006 A 
ENDBRANCH  67  84
ENDBRANCH  41  42
ENDBRANCH  33  36
ENDBRANCH  31  32
ENDBRANCH  30  31
ENDBRANCH  29  30
ENDBRANCH  28  29
ENDBRANCH   1  28
TORSDOF 18
ENDMDL
MODEL 2
REMARK VINA RESULT:     -12.2      3.308      8.454
REMARK SMILES Cc1ccccc1CSCC(=O)Nc1ccc(C)c(C(=O)NCCCCCCNC(=O)c2ccc(-c3c4nc(c(-c5c(F)cccc5F)c5ccc([nH]5)c(-c5c(F)cccc5F)c5nc(c(-c6c(F)cccc6F)c6ccc3[nH]6)C=C5)C=C4)cc2)c1
REMARK SMILES IDX 24 1 23 2 22 3 20 4 21 5 19 7 14 8 15 9 86 10 16 11 17 12
REMARK SMILES IDX 18 13 13 14 11 15 12 16 10 18 9 19 8 20 7 21 1 22 2 23 3 24
REMARK SMILES IDX 4 25 6 26 5 27 25 28 26 29 27 30 28 31 29 32 30 33 31 35
REMARK SMILES IDX 32 36 33 37 85 38 34 39 84 40 35 41 36 42 37 43 78 44 38 45
REMARK SMILES IDX 83 46 77 47 79 48 39 49 82 50 76 51 75 52 40 54 66 55 49 56
REMARK SMILES IDX 65 57 50 58 53 59 64 60 80 61 51 62 52 63 63 65 81 66 54 67
REMARK SMILES IDX 41 68 42 69 47 70 43 71 44 72 46 73 48 74 45 75 67 76 68 77
REMARK SMILES IDX 73 78 69 79 70 80 72 81 74 82 71 83 55 84 56 85 61 86 57 87
REMARK SMILES IDX 58 88 60 89 62 90 59 91
REMARK H PARENT 22 6 13 17 29 34 79 53 53 64
REMARK Flexibility Score: inf
ROOT
ATOM      1  C   UNL A   1      35.438  22.429  26.168  1.00  0.00     0.021 C 
ENDROOT
BRANCH   1   2
ATOM      2  C   UNL A   1      35.336  21.204  25.269  1.00  0.00     0.116 C 
BRANCH   2   3
ATOM      3  N   UNL A   1      34.205  20.329  25.433  1.00  0.00    -0.352 N 
ATOM      4  C   UNL A   1      32.887  20.522  25.063  1.00  0.00     0.251 C 
ATOM      5  O   UNL A   1      32.127  19.556  25.152  1.00  0.00    -0.269 OA
ATOM      6  H   UNL A   1      34.398  19.468  25.871  1.00  0.00     0.163 HD
BRANCH   4   7
ATOM      7  C   UNL A   1      32.310  21.857  24.680  1.00  0.00     0.044 A 
ATOM      8  C   UNL A   1      32.093  23.473  22.870  1.00  0.00     0.042 A 
ATOM      9  C   UNL A   1      31.107  24.131  23.583  1.00  0.00     0.026 A 
ATOM     10  C   UNL A   1      32.581  22.261  23.351  1.00  0.00     0.040 A 
ATOM     11  C   UNL A   1      30.886  23.801  24.908  1.00  0.00     0.006 A 
ATOM     12  C   UNL A   1      31.606  22.757  25.504  1.00  0.00    -0.038 A 
ATOM     13  C   UNL A   1      31.664  22.802  27.002  1.00  0.00     0.045 C 
BRANCH   8  14
ATOM     14  N   UNL A   1      32.566  24.013  21.673  1.00  0.00    -0.325 N 
ATOM     15  C   UNL A   1      32.932  25.319  21.433  1.00  0.00     0.234 C 
ATOM     16  O   UNL A   1      33.025  25.686  20.256  1.00  0.00    -0.274 OA
ATOM     17  H   UNL A   1      32.650  23.390  20.915  1.00  0.00     0.169 HD
BRANCH  15  18
ATOM     18  C   UNL A   1      33.460  26.212  22.561  1.00  0.00     0.170 C 
BRANCH  18  19
ATOM     19  S   UNL A   1      33.933  27.921  22.196  1.00  0.00    -0.147 SA
BRANCH  19  20
ATOM     20  C   UNL A   1      32.652  28.861  23.087  1.00  0.00     0.105 C 
BRANCH  20  21
ATOM     21  C   UNL A   1      32.520  28.444  24.529  1.00  0.00    -0.035 A 
ATOM     22  C   UNL A   1      30.153  27.454  24.260  1.00  0.00     0.044 C 
ATOM     23  C   UNL A   1      31.374  27.820  25.060  1.00  0.00    -0.047 A 
ATOM     24  C   UNL A   1      31.337  27.529  26.436  1.00  0.00     0.004 A 
ATOM     25  C   UNL A   1      32.423  27.804  27.267  1.00  0.00     0.000 A 
ATOM     26  C   UNL A   1      33.621  28.681  25.381  1.00  0.00     0.005 A 
ATOM     27  C   UNL A   1      33.572  28.368  26.736  1.00  0.00     0.000 A 
ENDBRANCH  20  21
ENDBRANCH  19  20
ENDBRANCH  18  19
ENDBRANCH  15  18
ENDBRANCH   8  14
ENDBRANCH   4   7
ENDBRANCH   2   3
ENDBRANCH   1   2
BRANCH   1  28
ATOM     28  C   UNL A   1      36.368  23.581  25.776  1.00  0.00     0.002 C 
BRANCH  28  29
ATOM     29  C   UNL A   1      37.885  23.445  25.961  1.00  0.00     0.002 C 
BRANCH  29  30
ATOM     30  C   UNL A   1      38.532  22.076  25.767  1.00  0.00     0.021 C 
BRANCH  30  31
ATOM     31  C   UNL A   1      39.761  21.779  26.611  1.00  0.00     0.116 C 
BRANCH  31  32
ATOM     32  N   UNL A   1      40.667  20.787  26.047  1.00  0.00    -0.352 N 
ATOM     33  C   UNL A   1      42.053  20.753  26.036  1.00  0.00     0.251 C 
ATOM     34  H   UNL A   1      40.227  20.024  25.607  1.00  0.00     0.163 HD
ATOM     35  O   UNL A   1      42.634  19.844  25.462  1.00  0.00    -0.269 OA
BRANCH  33  36
ATOM     36  C   UNL A   1      42.830  21.723  26.854  1.00  0.00     0.039 A 
ATOM     37  C   UNL A   1      42.632  21.700  28.242  1.00  0.00     0.014 A 
ATOM     38  C   UNL A   1      43.523  22.778  26.274  1.00  0.00     0.014 A 
ATOM     39  C   UNL A   1      42.850  22.857  28.983  1.00  0.00     0.010 A 
ATOM     40  C   UNL A   1      43.626  23.960  26.972  1.00  0.00     0.010 A 
ATOM     41  C   UNL A   1      43.207  24.017  28.305  1.00  0.00    -0.014 A 
BRANCH  41  42
ATOM     42  C   UNL A   1      43.043  25.358  28.847  1.00  0.00     0.031 A 
ATOM     43  C   UNL A   1      41.905  26.194  28.428  1.00  0.00     0.074 A 
ATOM     44  C   UNL A   1      43.838  25.734  29.873  1.00  0.00     0.049 A 
ATOM     45  N   UNL A   1      41.788  27.452  28.683  1.00  0.00    -0.248 NA
ATOM     46  C   UNL A   1      40.813  25.672  27.618  1.00  0.00     0.031 C 
ATOM     47  C   UNL A   1      43.616  26.820  30.823  1.00  0.00     0.029 A 
ATOM     48  N   UNL A   1      45.150  25.308  30.132  1.00  0.00    -0.354 N 
ATOM     49  C   UNL A   1      40.508  27.835  28.345  1.00  0.00     0.074 A 
ATOM     50  C   UNL A   1      39.986  26.719  27.595  1.00  0.00     0.031 C 
ATOM     51  C   UNL A   1      44.793  27.171  31.363  1.00  0.00     0.029 A 
ATOM     52  C   UNL A   1      45.822  26.438  30.646  1.00  0.00     0.049 A 
ATOM     53  H   UNL A   1      45.522  24.409  29.985  1.00  0.00     0.167 HD
ATOM     54  C   UNL A   1      40.016  28.994  28.874  1.00  0.00     0.037 A 
ATOM     55  C   UNL A   1      46.847  27.024  29.961  1.00  0.00     0.037 A 
ATOM     56  C   UNL A   1      41.088  29.749  29.534  1.00  0.00     0.049 A 
ATOM     57  C   UNL A   1      46.599  28.472  29.609  1.00  0.00     0.074 A 
ATOM     58  C   UNL A   1      41.459  29.906  30.860  1.00  0.00     0.029 A 
ATOM     59  N   UNL A   1      42.149  30.233  28.773  1.00  0.00    -0.354 N 
ATOM     60  N   UNL A   1      45.414  29.013  29.543  1.00  0.00    -0.248 NA
ATOM     61  C   UNL A   1      47.665  29.420  29.298  1.00  0.00     0.031 C 
ATOM     62  C   UNL A   1      42.779  30.425  30.890  1.00  0.00     0.029 A 
ATOM     63  C   UNL A   1      43.201  30.609  29.584  1.00  0.00     0.049 A 
ATOM     64  H   UNL A   1      42.149  30.300  27.790  1.00  0.00     0.167 HD
ATOM     65  C   UNL A   1      45.531  30.332  29.185  1.00  0.00     0.074 A 
ATOM     66  C   UNL A   1      46.962  30.542  29.061  1.00  0.00     0.031 C 
ATOM     67  C   UNL A   1      44.436  31.133  29.016  1.00  0.00     0.037 A 
BRANCH  54  68
ATOM     68  C   UNL A   1      38.539  29.314  29.054  1.00  0.00     0.057 A 
ATOM     69  C   UNL A   1      37.775  29.800  27.970  1.00  0.00     0.134 A 
ATOM     70  C   UNL A   1      37.821  29.263  30.263  1.00  0.00     0.134 A 
ATOM     71  F   UNL A   1      38.261  29.831  26.722  1.00  0.00    -0.206 F 
ATOM     72  C   UNL A   1      36.466  30.290  28.104  1.00  0.00     0.040 A 
ATOM     73  C   UNL A   1      36.523  29.775  30.420  1.00  0.00     0.040 A 
ATOM     74  F   UNL A   1      38.300  28.670  31.357  1.00  0.00    -0.206 F 
ATOM     75  C   UNL A   1      35.844  30.308  29.340  1.00  0.00     0.006 A 
ENDBRANCH  54  68
BRANCH  55  76
ATOM     76  C   UNL A   1      47.624  26.062  29.135  1.00  0.00     0.057 A 
ATOM     77  C   UNL A   1      47.329  25.969  27.763  1.00  0.00     0.134 A 
ATOM     78  C   UNL A   1      48.859  25.560  29.556  1.00  0.00     0.134 A 
ATOM     79  F   UNL A   1      46.159  26.432  27.293  1.00  0.00    -0.206 F 
ATOM     80  C   UNL A   1      48.268  25.510  26.834  1.00  0.00     0.040 A 
ATOM     81  C   UNL A   1      49.802  25.085  28.635  1.00  0.00     0.040 A 
ATOM     82  F   UNL A   1      49.224  25.634  30.844  1.00  0.00    -0.206 F 
ATOM     83  C   UNL A   1      49.523  25.099  27.268  1.00  0.00     0.006 A 
ENDBRANCH  55  76
BRANCH  67  84
ATOM     84  C   UNL A   1      44.421  32.509  28.387  1.00  0.00     0.057 A 
ATOM     85  C   UNL A   1      44.741  33.697  29.062  1.00  0.00     0.134 A 
ATOM     86  C   UNL A   1      44.220  32.658  26.994  1.00  0.00     0.134 A 
ATOM     87  F   UNL A   1      45.073  33.702  30.359  1.00  0.00    -0.206 F 
ATOM     88  C   UNL A   1      44.797  34.942  28.416  1.00  0.00     0.040 A 
ATOM     89  C   UNL A   1      44.331  33.883  26.331  1.00  0.00     0.040 A 
ATOM     90  F   UNL A   1      43.935  31.611  26.205  1.00  0.00    -0.206 F 
ATOM     91  C   UNL A   1      44.605  35.037  27.045  1.00  0.00     0.006 A 
ENDBRANCH  67  84
ENDBRANCH  41  42
ENDBRANCH  33  36
ENDBRANCH  31  32
ENDBRANCH  30  31
ENDBRANCH  29  30
ENDBRANCH  28  29
ENDBRANCH   1  28
TORSDOF 18
ENDMDL
MODEL 3
REMARK VINA RESULT:     -11.9      3.330      8.634
REMARK SMILES Cc1ccccc1CSCC(=O)Nc1ccc(C)c(C(=O)NCCCCCCNC(=O)c2ccc(-c3c4nc(c(-c5c(F)cccc5F)c5ccc([nH]5)c(-c5c(F)cccc5F)c5nc(c(-c6c(F)cccc6F)c6ccc3[nH]6)C=C5)C=C4)cc2)c1
REMARK SMILES IDX 24 1 23 2 22 3 20 4 21 5 19 7 14 8 15 9 86 10 16 11 17 12
REMARK SMILES IDX 18 13 13 14 11 15 12 16 10 18 9 19 8 20 7 21 1 22 2 23 3 24
REMARK SMILES IDX 4 25 6 26 5 27 25 28 26 29 27 30 28 31 29 32 30 33 31 35
REMARK SMILES IDX 32 36 33 37 85 38 34 39 84 40 35 41 36 42 37 43 78 44 38 45
REMARK SMILES IDX 83 46 77 47 79 48 39 49 82 50 76 51 75 52 40 54 66 55 49 56
REMARK SMILES IDX 65 57 50 58 53 59 64 60 80 61 51 62 52 63 63 65 81 66 54 67
REMARK SMILES IDX 41 68 42 69 47 70 43 71 44 72 46 73 48 74 45 75 67 76 68 77
REMARK SMILES IDX 73 78 69 79 70 80 72 81 74 82 71 83 55 84 56 85 61 86 57 87
REMARK SMILES IDX 58 88 60 89 62 90 59 91
REMARK H PARENT 22 6 13 17 29 34 79 53 53 64
REMARK Flexibility Score: inf
ROOT
ATOM      1  C   UNL A   1      35.057  23.603  26.516  1.00  0.00     0.021 C 
ENDROOT
BRANCH   1   2
ATOM      2  C   UNL A   1      33.749  23.142  25.888  1.00  0.00     0.116 C 
BRANCH   2   3
ATOM      3  N   UNL A   1      32.571  23.101  26.715  1.00  0.00    -0.352 N 
ATOM      4  C   UNL A   1      31.333  23.680  26.505  1.00  0.00     0.251 C 
ATOM      5  O   UNL A   1      30.423  23.363  27.274  1.00  0.00    -0.269 OA
ATOM      6  H   UNL A   1      32.660  22.588  27.550  1.00  0.00     0.163 HD
BRANCH   4   7
ATOM      7  C   UNL A   1      31.069  24.750  25.482  1.00  0.00     0.044 A 
ATOM      8  C   UNL A   1      31.161  25.283  23.107  1.00  0.00     0.042 A 
ATOM      9  C   UNL A   1      30.387  26.407  23.335  1.00  0.00     0.026 A 
ATOM     10  C   UNL A   1      31.371  24.384  24.148  1.00  0.00     0.040 A 
ATOM     11  C   UNL A   1      30.151  26.823  24.633  1.00  0.00     0.006 A 
ATOM     12  C   UNL A   1      30.632  26.069  25.712  1.00  0.00    -0.038 A 
ATOM     13  C   UNL A   1      30.762  26.823  27.003  1.00  0.00     0.045 C 
BRANCH   8  14
ATOM     14  N   UNL A   1      31.696  25.050  21.839  1.00  0.00    -0.325 N 
ATOM     15  C   UNL A   1      32.740  25.718  21.237  1.00  0.00     0.234 C 
ATOM     16  O   UNL A   1      32.875  25.597  20.015  1.00  0.00    -0.274 OA
ATOM     17  H   UNL A   1      31.282  24.325  21.316  1.00  0.00     0.169 HD
BRANCH  15  18
ATOM     18  C   UNL A   1      33.846  26.370  22.073  1.00  0.00     0.170 C 
BRANCH  18  19
ATOM     19  S   UNL A   1      33.628  28.064  22.672  1.00  0.00    -0.147 SA
BRANCH  19  20
ATOM     20  C   UNL A   1      33.827  27.854  24.470  1.00  0.00     0.105 C 
BRANCH  20  21
ATOM     21  C   UNL A   1      33.176  28.958  25.261  1.00  0.00    -0.035 A 
ATOM     22  C   UNL A   1      34.941  28.956  27.143  1.00  0.00     0.044 C 
ATOM     23  C   UNL A   1      33.678  29.443  26.485  1.00  0.00    -0.047 A 
ATOM     24  C   UNL A   1      32.953  30.437  27.169  1.00  0.00     0.004 A 
ATOM     25  C   UNL A   1      31.782  30.977  26.639  1.00  0.00     0.000 A 
ATOM     26  C   UNL A   1      32.007  29.544  24.727  1.00  0.00     0.005 A 
ATOM     27  C   UNL A   1      31.316  30.540  25.409  1.00  0.00     0.000 A 
ENDBRANCH  20  21
ENDBRANCH  19  20
ENDBRANCH  18  19
ENDBRANCH  15  18
ENDBRANCH   8  14
ENDBRANCH   4   7
ENDBRANCH   2   3
ENDBRANCH   1   2
BRANCH   1  28
ATOM     28  C   UNL A   1      36.206  24.069  25.616  1.00  0.00     0.002 C 
BRANCH  28  29
ATOM     29  C   UNL A   1      37.660  23.906  26.075  1.00  0.00     0.002 C 
BRANCH  29  30
ATOM     30  C   UNL A   1      38.326  22.539  25.944  1.00  0.00     0.021 C 
BRANCH  30  31
ATOM     31  C   UNL A   1      39.687  22.378  26.604  1.00  0.00     0.116 C 
BRANCH  31  32
ATOM     32  N   UNL A   1      40.465  21.240  26.134  1.00  0.00    -0.352 N 
ATOM     33  C   UNL A   1      41.840  21.073  26.062  1.00  0.00     0.251 C 
ATOM     34  H   UNL A   1      39.934  20.473  25.821  1.00  0.00     0.163 HD
ATOM     35  O   UNL A   1      42.303  20.046  25.588  1.00  0.00    -0.269 OA
BRANCH  33  36
ATOM     36  C   UNL A   1      42.747  22.061  26.707  1.00  0.00     0.039 A 
ATOM     37  C   UNL A   1      42.823  22.049  28.107  1.00  0.00     0.014 A 
ATOM     38  C   UNL A   1      43.299  23.118  25.995  1.00  0.00     0.014 A 
ATOM     39  C   UNL A   1      43.164  23.216  28.783  1.00  0.00     0.010 A 
ATOM     40  C   UNL A   1      43.519  24.309  26.652  1.00  0.00     0.010 A 
ATOM     41  C   UNL A   1      43.366  24.373  28.040  1.00  0.00    -0.014 A 
BRANCH  41  42
ATOM     42  C   UNL A   1      43.292  25.717  28.594  1.00  0.00     0.031 A 
ATOM     43  C   UNL A   1      42.028  26.473  28.543  1.00  0.00     0.074 A 
ATOM     44  C   UNL A   1      44.339  26.169  29.318  1.00  0.00     0.049 A 
ATOM     45  N   UNL A   1      41.914  27.728  28.810  1.00  0.00    -0.248 NA
ATOM     46  C   UNL A   1      40.775  25.864  28.117  1.00  0.00     0.031 C 
ATOM     47  C   UNL A   1      44.352  27.266  30.280  1.00  0.00     0.029 A 
ATOM     48  N   UNL A   1      45.691  25.829  29.160  1.00  0.00    -0.354 N 
ATOM     49  C   UNL A   1      40.571  28.025  28.883  1.00  0.00     0.074 A 
ATOM     50  C   UNL A   1      39.915  26.859  28.343  1.00  0.00     0.031 C 
ATOM     51  C   UNL A   1      45.614  27.702  30.424  1.00  0.00     0.029 A 
ATOM     52  C   UNL A   1      46.415  27.011  29.429  1.00  0.00     0.049 A 
ATOM     53  H   UNL A   1      46.058  24.949  28.912  1.00  0.00     0.167 HD
ATOM     54  C   UNL A   1      40.193  29.168  29.528  1.00  0.00     0.037 A 
ATOM     55  C   UNL A   1      47.137  27.636  28.454  1.00  0.00     0.037 A 
ATOM     56  C   UNL A   1      41.365  30.004  29.815  1.00  0.00     0.049 A 
ATOM     57  C   UNL A   1      46.699  29.056  28.183  1.00  0.00     0.074 A 
ATOM     58  C   UNL A   1      42.118  30.220  30.959  1.00  0.00     0.029 A 
ATOM     59  N   UNL A   1      42.104  30.527  28.757  1.00  0.00    -0.354 N 
ATOM     60  N   UNL A   1      45.519  29.524  28.484  1.00  0.00    -0.248 NA
ATOM     61  C   UNL A   1      47.552  30.056  27.548  1.00  0.00     0.031 C 
ATOM     62  C   UNL A   1      43.345  30.817  30.572  1.00  0.00     0.029 A 
ATOM     63  C   UNL A   1      43.329  30.987  29.198  1.00  0.00     0.049 A 
ATOM     64  H   UNL A   1      41.795  30.565  27.823  1.00  0.00     0.167 HD
ATOM     65  C   UNL A   1      45.434  30.837  28.096  1.00  0.00     0.074 A 
ATOM     66  C   UNL A   1      46.739  31.127  27.531  1.00  0.00     0.031 C 
ATOM     67  C   UNL A   1      44.290  31.567  28.268  1.00  0.00     0.037 A 
BRANCH  54  68
ATOM     68  C   UNL A   1      38.827  29.405  30.156  1.00  0.00     0.057 A 
ATOM     69  C   UNL A   1      37.818  30.084  29.438  1.00  0.00     0.134 A 
ATOM     70  C   UNL A   1      38.454  29.088  31.476  1.00  0.00     0.134 A 
ATOM     71  F   UNL A   1      37.955  30.383  28.140  1.00  0.00    -0.206 F 
ATOM     72  C   UNL A   1      36.606  30.502  30.013  1.00  0.00     0.040 A 
ATOM     73  C   UNL A   1      37.261  29.523  32.074  1.00  0.00     0.040 A 
ATOM     74  F   UNL A   1      39.189  28.296  32.257  1.00  0.00    -0.206 F 
ATOM     75  C   UNL A   1      36.335  30.249  31.347  1.00  0.00     0.006 A 
ENDBRANCH  54  68
BRANCH  55  76
ATOM     76  C   UNL A   1      47.680  26.698  27.435  1.00  0.00     0.057 A 
ATOM     77  C   UNL A   1      46.970  26.533  26.233  1.00  0.00     0.134 A 
ATOM     78  C   UNL A   1      49.019  26.297  27.444  1.00  0.00     0.134 A 
ATOM     79  F   UNL A   1      45.680  26.897  26.157  1.00  0.00    -0.206 F 
ATOM     80  C   UNL A   1      47.595  26.104  25.058  1.00  0.00     0.040 A 
ATOM     81  C   UNL A   1      49.652  25.852  26.275  1.00  0.00     0.040 A 
ATOM     82  F   UNL A   1      49.770  26.445  28.545  1.00  0.00    -0.206 F 
ATOM     83  C   UNL A   1      48.951  25.795  25.071  1.00  0.00     0.006 A 
ENDBRANCH  55  76
BRANCH  67  84
ATOM     84  C   UNL A   1      43.991  32.921  27.663  1.00  0.00     0.057 A 
ATOM     85  C   UNL A   1      43.927  33.182  26.286  1.00  0.00     0.134 A 
ATOM     86  C   UNL A   1      43.598  34.002  28.488  1.00  0.00     0.134 A 
ATOM     87  F   UNL A   1      44.155  32.226  25.377  1.00  0.00    -0.206 F 
ATOM     88  C   UNL A   1      43.563  34.435  25.770  1.00  0.00     0.040 A 
ATOM     89  C   UNL A   1      43.177  35.236  27.983  1.00  0.00     0.040 A 
ATOM     90  F   UNL A   1      43.578  33.901  29.825  1.00  0.00    -0.206 F 
ATOM     91  C   UNL A   1      43.174  35.463  26.618  1.00  0.00     0.006 A 
ENDBRANCH  67  84
ENDBRANCH  41  42
ENDBRANCH  33  36
ENDBRANCH  31  32
ENDBRANCH  30  31
ENDBRANCH  29  30
ENDBRANCH  28  29
ENDBRANCH   1  28
TORSDOF 18
ENDMDL
