MODEL 1
REMARK VINA RESULT:     -11.8      0.000      0.000
REMARK SMILES CCc1c(C(=O)NCC(=O)NCCCCCCNC(=O)c2ccc(-c3c4nc(c(-c5c(F)cccc5F)c5ccc([nH]5)c(-c5c(F)cccc5F)c5nc(c(-c6c(F)cccc6F)c6ccc3[nH]6)C=C5)C=C4)cc2)nnn1-c1ccc(Cl)cc1
REMARK SMILES IDX 14 1 13 2 12 3 11 4 9 5 10 6 8 8 7 9 5 10 6 11 4 13 3 14
REMARK SMILES IDX 77 15 75 16 76 17 2 18 1 19 78 20 79 21 84 22 80 23 83 24
REMARK SMILES IDX 81 25 82 26 15 27 16 28 17 29 18 30 19 31 20 33 21 34 22 35
REMARK SMILES IDX 74 36 23 37 73 38 24 39 25 40 26 41 67 42 27 43 72 44 66 45
REMARK SMILES IDX 68 46 28 47 71 48 65 49 64 50 29 52 55 53 38 54 54 55 39 56
REMARK SMILES IDX 42 57 53 58 69 59 40 60 41 61 52 63 70 64 43 65 30 66 31 67
REMARK SMILES IDX 36 68 32 69 33 70 35 71 37 72 34 73 56 74 57 75 62 76 58 77
REMARK SMILES IDX 59 78 61 79 63 80 60 81 44 82 45 83 50 84 46 85 47 86 49 87
REMARK SMILES IDX 51 88 48 89
REMARK H PARENT 11 7 7 12 18 32 68 51 42 62
REMARK Flexibility Score: inf
ROOT
ATOM      1  C   UNL A   1      39.905  20.645  26.248  1.00  0.00     0.002 C 
ENDROOT
BRANCH   1   2
ATOM      2  C   UNL A   1      39.473  22.096  26.465  1.00  0.00     0.021 C 
BRANCH   2   3
ATOM      3  C   UNL A   1      38.169  22.444  25.761  1.00  0.00     0.116 C 
BRANCH   3   4
ATOM      4  N   UNL A   1      37.460  21.258  25.345  1.00  0.00    -0.355 N 
ATOM      5  C   UNL A   1      36.138  20.956  25.357  1.00  0.00     0.239 C 
ATOM      6  O   UNL A   1      35.828  19.826  24.962  1.00  0.00    -0.273 OA
ATOM      7  H   UNL A   1      38.037  20.542  24.992  1.00  0.00     0.163 HD
BRANCH   5   8
ATOM      8  C   UNL A   1      35.033  21.988  25.623  1.00  0.00     0.216 C 
BRANCH   8   9
ATOM      9  N   UNL A   1      34.319  22.088  26.874  1.00  0.00    -0.342 N 
ATOM     10  C   UNL A   1      33.178  22.697  27.324  1.00  0.00     0.274 C 
ATOM     11  O   UNL A   1      32.842  22.316  28.452  1.00  0.00    -0.267 OA
ATOM     12  H   UNL A   1      34.772  21.588  27.592  1.00  0.00     0.164 HD
BRANCH  10  13
ATOM     13  C   UNL A   1      32.432  23.789  26.671  1.00  0.00     0.174 A 
ATOM     14  C   UNL A   1      32.690  24.839  25.781  1.00  0.00     0.077 A 
ATOM     15  N   UNL A   1      31.459  25.496  25.674  1.00  0.00    -0.217 N 
ATOM     16  N   UNL A   1      31.123  23.930  27.105  1.00  0.00    -0.124 NA
ATOM     17  N   UNL A   1      30.601  25.023  26.591  1.00  0.00    -0.061 NA
BRANCH  14  18
ATOM     18  C   UNL A   1      33.922  25.402  25.153  1.00  0.00     0.055 C 
ATOM     19  C   UNL A   1      33.978  25.233  23.643  1.00  0.00     0.011 C 
ENDBRANCH  14  18
BRANCH  15  20
ATOM     20  C   UNL A   1      31.067  26.570  24.836  1.00  0.00     0.067 A 
ATOM     21  C   UNL A   1      31.355  27.887  25.222  1.00  0.00     0.030 A 
ATOM     22  C   UNL A   1      30.385  26.327  23.637  1.00  0.00     0.030 A 
ATOM     23  C   UNL A   1      31.032  28.946  24.368  1.00  0.00     0.023 A 
ATOM     24  C   UNL A   1      30.045  27.390  22.798  1.00  0.00     0.023 A 
ATOM     25  C   UNL A   1      30.386  28.693  23.158  1.00  0.00     0.041 A 
ATOM     26  Cl  UNL A   1      29.999  29.994  22.103  1.00  0.00    -0.084 Cl
ENDBRANCH  15  20
ENDBRANCH  10  13
ENDBRANCH   8   9
ENDBRANCH   5   8
ENDBRANCH   3   4
ENDBRANCH   2   3
ENDBRANCH   1   2
BRANCH   1  27
ATOM     27  C   UNL A   1      41.402  20.358  26.456  1.00  0.00     0.002 C 
BRANCH  27  28
ATOM     28  C   UNL A   1      41.965  19.094  25.788  1.00  0.00     0.021 C 
BRANCH  28  29
ATOM     29  C   UNL A   1      43.410  18.793  26.147  1.00  0.00     0.116 C 
BRANCH  29  30
ATOM     30  N   UNL A   1      44.305  18.839  24.982  1.00  0.00    -0.352 N 
ATOM     31  C   UNL A   1      44.646  19.918  24.193  1.00  0.00     0.251 C 
ATOM     32  H   UNL A   1      44.719  17.981  24.731  1.00  0.00     0.163 HD
ATOM     33  O   UNL A   1      45.088  19.757  23.050  1.00  0.00    -0.269 OA
BRANCH  31  34
ATOM     34  C   UNL A   1      44.500  21.272  24.743  1.00  0.00     0.039 A 
ATOM     35  C   UNL A   1      43.630  22.232  24.220  1.00  0.00     0.014 A 
ATOM     36  C   UNL A   1      45.258  21.551  25.870  1.00  0.00     0.014 A 
ATOM     37  C   UNL A   1      43.515  23.452  24.886  1.00  0.00     0.010 A 
ATOM     38  C   UNL A   1      44.906  22.587  26.674  1.00  0.00     0.010 A 
ATOM     39  C   UNL A   1      44.166  23.611  26.119  1.00  0.00    -0.014 A 
BRANCH  39  40
ATOM     40  C   UNL A   1      44.061  24.811  26.931  1.00  0.00     0.031 A 
ATOM     41  C   UNL A   1      45.141  25.789  26.677  1.00  0.00     0.074 A 
ATOM     42  C   UNL A   1      42.943  25.110  27.632  1.00  0.00     0.049 A 
ATOM     43  N   UNL A   1      46.129  26.079  27.452  1.00  0.00    -0.248 NA
ATOM     44  C   UNL A   1      45.243  26.376  25.330  1.00  0.00     0.031 C 
ATOM     45  C   UNL A   1      41.662  24.386  27.684  1.00  0.00     0.029 A 
ATOM     46  N   UNL A   1      42.682  26.206  28.392  1.00  0.00    -0.354 N 
ATOM     47  C   UNL A   1      46.839  27.074  26.790  1.00  0.00     0.074 A 
ATOM     48  C   UNL A   1      46.397  27.038  25.422  1.00  0.00     0.031 C 
ATOM     49  C   UNL A   1      40.711  25.172  28.238  1.00  0.00     0.029 A 
ATOM     50  C   UNL A   1      41.343  26.375  28.740  1.00  0.00     0.049 A 
ATOM     51  H   UNL A   1      43.386  26.835  28.674  1.00  0.00     0.167 HD
ATOM     52  C   UNL A   1      47.504  28.031  27.494  1.00  0.00     0.037 A 
ATOM     53  C   UNL A   1      40.809  27.447  29.377  1.00  0.00     0.037 A 
ATOM     54  C   UNL A   1      47.645  27.644  28.878  1.00  0.00     0.049 A 
ATOM     55  C   UNL A   1      41.932  28.166  30.031  1.00  0.00     0.074 A 
ATOM     56  C   UNL A   1      48.221  26.573  29.536  1.00  0.00     0.029 A 
ATOM     57  N   UNL A   1      46.779  28.213  29.782  1.00  0.00    -0.354 N 
ATOM     58  N   UNL A   1      42.621  27.675  31.025  1.00  0.00    -0.248 NA
ATOM     59  C   UNL A   1      42.601  29.201  29.259  1.00  0.00     0.031 C 
ATOM     60  C   UNL A   1      47.320  26.267  30.600  1.00  0.00     0.029 A 
ATOM     61  C   UNL A   1      46.296  27.214  30.587  1.00  0.00     0.049 A 
ATOM     62  H   UNL A   1      46.548  29.168  29.842  1.00  0.00     0.167 HD
ATOM     63  C   UNL A   1      43.938  28.006  30.738  1.00  0.00     0.074 A 
ATOM     64  C   UNL A   1      43.854  29.009  29.676  1.00  0.00     0.031 C 
ATOM     65  C   UNL A   1      44.971  27.221  31.168  1.00  0.00     0.037 A 
BRANCH  52  66
ATOM     66  C   UNL A   1      47.647  29.468  27.049  1.00  0.00     0.057 A 
ATOM     67  C   UNL A   1      48.907  30.083  27.157  1.00  0.00     0.134 A 
ATOM     68  C   UNL A   1      46.571  30.347  26.806  1.00  0.00     0.134 A 
ATOM     69  F   UNL A   1      50.010  29.357  27.394  1.00  0.00    -0.206 F 
ATOM     70  C   UNL A   1      49.069  31.473  27.118  1.00  0.00     0.040 A 
ATOM     71  C   UNL A   1      46.731  31.732  26.712  1.00  0.00     0.040 A 
ATOM     72  F   UNL A   1      45.299  29.941  26.749  1.00  0.00    -0.206 F 
ATOM     73  C   UNL A   1      47.977  32.303  26.904  1.00  0.00     0.006 A 
ENDBRANCH  52  66
BRANCH  53  74
ATOM     74  C   UNL A   1      39.477  28.074  29.198  1.00  0.00     0.057 A 
ATOM     75  C   UNL A   1      38.564  28.160  30.261  1.00  0.00     0.134 A 
ATOM     76  C   UNL A   1      39.186  28.865  28.073  1.00  0.00     0.134 A 
ATOM     77  F   UNL A   1      38.774  27.474  31.394  1.00  0.00    -0.206 F 
ATOM     78  C   UNL A   1      37.447  29.006  30.220  1.00  0.00     0.040 A 
ATOM     79  C   UNL A   1      38.074  29.713  28.019  1.00  0.00     0.040 A 
ATOM     80  F   UNL A   1      40.023  28.911  27.026  1.00  0.00    -0.206 F 
ATOM     81  C   UNL A   1      37.208  29.798  29.102  1.00  0.00     0.006 A 
ENDBRANCH  53  74
BRANCH  65  82
ATOM     82  C   UNL A   1      44.661  26.132  32.162  1.00  0.00     0.057 A 
ATOM     83  C   UNL A   1      44.411  24.793  31.823  1.00  0.00     0.134 A 
ATOM     84  C   UNL A   1      44.769  26.423  33.526  1.00  0.00     0.134 A 
ATOM     85  F   UNL A   1      44.383  24.392  30.547  1.00  0.00    -0.206 F 
ATOM     86  C   UNL A   1      44.238  23.801  32.795  1.00  0.00     0.040 A 
ATOM     87  C   UNL A   1      44.630  25.438  34.506  1.00  0.00     0.040 A 
ATOM     88  F   UNL A   1      45.060  27.670  33.928  1.00  0.00    -0.206 F 
ATOM     89  C   UNL A   1      44.354  24.122  34.143  1.00  0.00     0.006 A 
ENDBRANCH  65  82
ENDBRANCH  39  40
ENDBRANCH  31  34
ENDBRANCH  29  30
ENDBRANCH  28  29
ENDBRANCH  27  28
ENDBRANCH   1  27
TORSDOF 17
ENDMDL
MODEL 2
REMARK VINA RESULT:     -11.3      1.570      2.219
REMARK SMILES CCc1c(C(=O)NCC(=O)NCCCCCCNC(=O)c2ccc(-c3c4nc(c(-c5c(F)cccc5F)c5ccc([nH]5)c(-c5c(F)cccc5F)c5nc(c(-c6c(F)cccc6F)c6ccc3[nH]6)C=C5)C=C4)cc2)nnn1-c1ccc(Cl)cc1
REMARK SMILES IDX 14 1 13 2 12 3 11 4 9 5 10 6 8 8 7 9 5 10 6 11 4 13 3 14
REMARK SMILES IDX 77 15 75 16 76 17 2 18 1 19 78 20 79 21 84 22 80 23 83 24
REMARK SMILES IDX 81 25 82 26 15 27 16 28 17 29 18 30 19 31 20 33 21 34 22 35
REMARK SMILES IDX 74 36 23 37 73 38 24 39 25 40 26 41 67 42 27 43 72 44 66 45
REMARK SMILES IDX 68 46 28 47 71 48 65 49 64 50 29 52 55 53 38 54 54 55 39 56
REMARK SMILES IDX 42 57 53 58 69 59 40 60 41 61 52 63 70 64 43 65 30 66 31 67
REMARK SMILES IDX 36 68 32 69 33 70 35 71 37 72 34 73 56 74 57 75 62 76 58 77
REMARK SMILES IDX 59 78 61 79 63 80 60 81 44 82 45 83 50 84 46 85 47 86 49 87
REMARK SMILES IDX 51 88 48 89
REMARK H PARENT 11 7 7 12 18 32 68 51 42 62
REMARK Flexibility Score: inf
ROOT
ATOM      1  C   UNL A   1      39.772  21.289  26.459  1.00  0.00     0.002 C 
ENDROOT
BRANCH   1   2
ATOM      2  C   UNL A   1      39.595  22.765  26.098  1.00  0.00     0.021 C 
BRANCH   2   3
ATOM      3  C   UNL A   1      38.169  23.260  26.290  1.00  0.00     0.116 C 
BRANCH   3   4
ATOM      4  N   UNL A   1      37.210  22.201  26.090  1.00  0.00    -0.355 N 
ATOM      5  C   UNL A   1      36.187  22.075  25.210  1.00  0.00     0.239 C 
ATOM      6  O   UNL A   1      35.503  21.049  25.303  1.00  0.00    -0.273 OA
ATOM      7  H   UNL A   1      37.316  21.436  26.702  1.00  0.00     0.163 HD
BRANCH   5   8
ATOM      8  C   UNL A   1      35.979  23.008  24.008  1.00  0.00     0.216 C 
BRANCH   8   9
ATOM      9  N   UNL A   1      34.890  22.871  23.070  1.00  0.00    -0.342 N 
ATOM     10  C   UNL A   1      33.978  23.700  22.475  1.00  0.00     0.274 C 
ATOM     11  O   UNL A   1      33.359  23.153  21.554  1.00  0.00    -0.267 OA
ATOM     12  H   UNL A   1      34.773  21.935  22.784  1.00  0.00     0.164 HD
BRANCH  10  13
ATOM     13  C   UNL A   1      33.607  25.065  22.892  1.00  0.00     0.174 A 
ATOM     14  C   UNL A   1      33.027  25.693  24.001  1.00  0.00     0.077 A 
ATOM     15  N   UNL A   1      32.951  27.038  23.621  1.00  0.00    -0.217 N 
ATOM     16  N   UNL A   1      33.753  26.028  21.905  1.00  0.00    -0.124 NA
ATOM     17  N   UNL A   1      33.244  27.168  22.318  1.00  0.00    -0.061 NA
BRANCH  14  18
ATOM     18  C   UNL A   1      32.404  25.214  25.271  1.00  0.00     0.055 C 
ATOM     19  C   UNL A   1      33.299  24.299  26.091  1.00  0.00     0.011 C 
ENDBRANCH  14  18
BRANCH  15  20
ATOM     20  C   UNL A   1      32.552  28.176  24.367  1.00  0.00     0.067 A 
ATOM     21  C   UNL A   1      33.407  28.688  25.354  1.00  0.00     0.030 A 
ATOM     22  C   UNL A   1      31.311  28.781  24.136  1.00  0.00     0.030 A 
ATOM     23  C   UNL A   1      33.050  29.850  26.046  1.00  0.00     0.023 A 
ATOM     24  C   UNL A   1      30.950  29.928  24.846  1.00  0.00     0.023 A 
ATOM     25  C   UNL A   1      31.828  30.468  25.784  1.00  0.00     0.041 A 
ATOM     26  Cl  UNL A   1      31.393  31.903  26.626  1.00  0.00    -0.084 Cl
ENDBRANCH  15  20
ENDBRANCH  10  13
ENDBRANCH   8   9
ENDBRANCH   5   8
ENDBRANCH   3   4
ENDBRANCH   2   3
ENDBRANCH   1   2
BRANCH   1  27
ATOM     27  C   UNL A   1      41.187  20.878  26.903  1.00  0.00     0.002 C 
BRANCH  27  28
ATOM     28  C   UNL A   1      41.841  19.714  26.143  1.00  0.00     0.021 C 
BRANCH  28  29
ATOM     29  C   UNL A   1      43.264  19.410  26.579  1.00  0.00     0.116 C 
BRANCH  29  30
ATOM     30  N   UNL A   1      44.222  19.461  25.465  1.00  0.00    -0.352 N 
ATOM     31  C   UNL A   1      44.554  20.528  24.656  1.00  0.00     0.251 C 
ATOM     32  H   UNL A   1      44.691  18.617  25.271  1.00  0.00     0.163 HD
ATOM     33  O   UNL A   1      45.069  20.349  23.546  1.00  0.00    -0.269 OA
BRANCH  31  34
ATOM     34  C   UNL A   1      44.309  21.891  25.144  1.00  0.00     0.039 A 
ATOM     35  C   UNL A   1      43.343  22.746  24.608  1.00  0.00     0.014 A 
ATOM     36  C   UNL A   1      45.076  22.290  26.229  1.00  0.00     0.014 A 
ATOM     37  C   UNL A   1      43.145  23.984  25.218  1.00  0.00     0.010 A 
ATOM     38  C   UNL A   1      44.661  23.332  26.993  1.00  0.00     0.010 A 
ATOM     39  C   UNL A   1      43.819  24.261  26.417  1.00  0.00    -0.014 A 
BRANCH  39  40
ATOM     40  C   UNL A   1      43.637  25.487  27.173  1.00  0.00     0.031 A 
ATOM     41  C   UNL A   1      44.602  26.548  26.814  1.00  0.00     0.074 A 
ATOM     42  C   UNL A   1      42.530  25.716  27.918  1.00  0.00     0.049 A 
ATOM     43  N   UNL A   1      45.594  26.972  27.520  1.00  0.00    -0.248 NA
ATOM     44  C   UNL A   1      44.580  27.068  25.436  1.00  0.00     0.031 C 
ATOM     45  C   UNL A   1      41.330  24.878  28.074  1.00  0.00     0.029 A 
ATOM     46  N   UNL A   1      42.201  26.822  28.636  1.00  0.00    -0.354 N 
ATOM     47  C   UNL A   1      46.170  27.993  26.773  1.00  0.00     0.074 A 
ATOM     48  C   UNL A   1      45.668  27.841  25.433  1.00  0.00     0.031 C 
ATOM     49  C   UNL A   1      40.335  25.598  28.640  1.00  0.00     0.029 A 
ATOM     50  C   UNL A   1      40.870  26.881  29.047  1.00  0.00     0.049 A 
ATOM     51  H   UNL A   1      42.853  27.529  28.848  1.00  0.00     0.167 HD
ATOM     52  C   UNL A   1      46.772  29.045  27.391  1.00  0.00     0.037 A 
ATOM     53  C   UNL A   1      40.266  27.931  29.658  1.00  0.00     0.037 A 
ATOM     54  C   UNL A   1      47.017  28.750  28.784  1.00  0.00     0.049 A 
ATOM     55  C   UNL A   1      41.344  28.788  30.215  1.00  0.00     0.074 A 
ATOM     56  C   UNL A   1      47.727  27.775  29.461  1.00  0.00     0.029 A 
ATOM     57  N   UNL A   1      46.145  29.282  29.703  1.00  0.00    -0.354 N 
ATOM     58  N   UNL A   1      42.125  28.419  31.193  1.00  0.00    -0.248 NA
ATOM     59  C   UNL A   1      41.869  29.838  29.357  1.00  0.00     0.031 C 
ATOM     60  C   UNL A   1      46.913  27.443  30.586  1.00  0.00     0.029 A 
ATOM     61  C   UNL A   1      45.801  28.287  30.581  1.00  0.00     0.049 A 
ATOM     62  H   UNL A   1      45.824  30.212  29.728  1.00  0.00     0.167 HD
ATOM     63  C   UNL A   1      43.388  28.858  30.820  1.00  0.00     0.074 A 
ATOM     64  C   UNL A   1      43.155  29.789  29.716  1.00  0.00     0.031 C 
ATOM     65  C   UNL A   1      44.512  28.198  31.231  1.00  0.00     0.037 A 
BRANCH  52  66
ATOM     66  C   UNL A   1      46.752  30.463  26.869  1.00  0.00     0.057 A 
ATOM     67  C   UNL A   1      47.952  31.197  26.870  1.00  0.00     0.134 A 
ATOM     68  C   UNL A   1      45.585  31.226  26.651  1.00  0.00     0.134 A 
ATOM     69  F   UNL A   1      49.131  30.589  27.072  1.00  0.00    -0.206 F 
ATOM     70  C   UNL A   1      47.979  32.592  26.753  1.00  0.00     0.040 A 
ATOM     71  C   UNL A   1      45.607  32.612  26.480  1.00  0.00     0.040 A 
ATOM     72  F   UNL A   1      44.356  30.701  26.692  1.00  0.00    -0.206 F 
ATOM     73  C   UNL A   1      46.802  33.305  26.567  1.00  0.00     0.006 A 
ENDBRANCH  52  66
BRANCH  53  74
ATOM     74  C   UNL A   1      38.872  28.417  29.520  1.00  0.00     0.057 A 
ATOM     75  C   UNL A   1      38.032  28.548  30.637  1.00  0.00     0.134 A 
ATOM     76  C   UNL A   1      38.429  29.046  28.343  1.00  0.00     0.134 A 
ATOM     77  F   UNL A   1      38.385  28.017  31.817  1.00  0.00    -0.206 F 
ATOM     78  C   UNL A   1      36.841  29.286  30.596  1.00  0.00     0.040 A 
ATOM     79  C   UNL A   1      37.242  29.785  28.287  1.00  0.00     0.040 A 
ATOM     80  F   UNL A   1      39.182  29.041  27.233  1.00  0.00    -0.206 F 
ATOM     81  C   UNL A   1      36.450  29.921  29.421  1.00  0.00     0.006 A 
ENDBRANCH  53  74
BRANCH  65  82
ATOM     82  C   UNL A   1      44.359  27.141  32.294  1.00  0.00     0.057 A 
ATOM     83  C   UNL A   1      44.173  27.407  33.659  1.00  0.00     0.134 A 
ATOM     84  C   UNL A   1      44.243  25.806  31.894  1.00  0.00     0.134 A 
ATOM     85  F   UNL A   1      44.169  28.659  34.130  1.00  0.00    -0.206 F 
ATOM     86  C   UNL A   1      43.925  26.389  34.587  1.00  0.00     0.040 A 
ATOM     87  C   UNL A   1      43.964  24.783  32.803  1.00  0.00     0.040 A 
ATOM     88  F   UNL A   1      44.354  25.478  30.597  1.00  0.00    -0.206 F 
ATOM     89  C   UNL A   1      43.812  25.070  34.158  1.00  0.00     0.006 A 
ENDBRANCH  65  82
ENDBRANCH  39  40
ENDBRANCH  31  34
ENDBRANCH  29  30
ENDBRANCH  28  29
ENDBRANCH  27  28
ENDBRANCH   1  27
TORSDOF 17
ENDMDL
MODEL 3
REMARK VINA RESULT:     -11.2      4.783      9.823
REMARK SMILES CCc1c(C(=O)NCC(=O)NCCCCCCNC(=O)c2ccc(-c3c4nc(c(-c5c(F)cccc5F)c5ccc([nH]5)c(-c5c(F)cccc5F)c5nc(c(-c6c(F)cccc6F)c6ccc3[nH]6)C=C5)C=C4)cc2)nnn1-c1ccc(Cl)cc1
REMARK SMILES IDX 14 1 13 2 12 3 11 4 9 5 10 6 8 8 7 9 5 10 6 11 4 13 3 14
REMARK SMILES IDX 77 15 75 16 76 17 2 18 1 19 78 20 79 21 84 22 80 23 83 24
REMARK SMILES IDX 81 25 82 26 15 27 16 28 17 29 18 30 19 31 20 33 21 34 22 35
REMARK SMILES IDX 74 36 23 37 73 38 24 39 25 40 26 41 67 42 27 43 72 44 66 45
REMARK SMILES IDX 68 46 28 47 71 48 65 49 64 50 29 52 55 53 38 54 54 55 39 56
REMARK SMILES IDX 42 57 53 58 69 59 40 60 41 61 52 63 70 64 43 65 30 66 31 67
REMARK SMILES IDX 36 68 32 69 33 70 35 71 37 72 34 73 56 74 57 75 62 76 58 77
REMARK SMILES IDX 59 78 61 79 63 80 60 81 44 82 45 83 50 84 46 85 47 86 49 87
REMARK SMILES IDX 51 88 48 89
REMARK H PARENT 11 7 7 12 18 32 68 51 42 62
REMARK Flexibility Score: inf
ROOT
ATOM      1  C   UNL A   1      32.628  29.744  26.737  1.00  0.00     0.002 C 
ENDROOT
BRANCH   1   2
ATOM      2  C   UNL A   1      32.678  28.256  26.383  1.00  0.00     0.021 C 
BRANCH   2   3
ATOM      3  C   UNL A   1      31.341  27.712  25.900  1.00  0.00     0.116 C 
BRANCH   3   4
ATOM      4  N   UNL A   1      31.016  26.462  26.541  1.00  0.00    -0.355 N 
ATOM      5  C   UNL A   1      30.731  25.240  26.026  1.00  0.00     0.239 C 
ATOM      6  O   UNL A   1      30.453  24.351  26.839  1.00  0.00    -0.273 OA
ATOM      7  H   UNL A   1      30.996  26.502  27.525  1.00  0.00     0.163 HD
BRANCH   5   8
ATOM      8  C   UNL A   1      30.942  24.869  24.551  1.00  0.00     0.216 C 
BRANCH   8   9
ATOM      9  N   UNL A   1      32.239  24.817  23.919  1.00  0.00    -0.342 N 
ATOM     10  C   UNL A   1      33.022  23.861  23.330  1.00  0.00     0.274 C 
ATOM     11  O   UNL A   1      33.989  24.338  22.724  1.00  0.00    -0.267 OA
ATOM     12  H   UNL A   1      32.675  25.701  23.910  1.00  0.00     0.164 HD
BRANCH  10  13
ATOM     13  C   UNL A   1      32.888  22.397  23.453  1.00  0.00     0.174 A 
ATOM     14  C   UNL A   1      33.478  21.355  24.178  1.00  0.00     0.077 A 
ATOM     15  N   UNL A   1      32.837  20.208  23.696  1.00  0.00    -0.217 N 
ATOM     16  N   UNL A   1      32.020  21.821  22.538  1.00  0.00    -0.124 NA
ATOM     17  N   UNL A   1      32.097  20.510  22.619  1.00  0.00    -0.061 NA
BRANCH  14  18
ATOM     18  C   UNL A   1      34.634  21.255  25.118  1.00  0.00     0.055 C 
ATOM     19  C   UNL A   1      35.958  21.699  24.519  1.00  0.00     0.011 C 
ENDBRANCH  14  18
BRANCH  15  20
ATOM     20  C   UNL A   1      32.935  18.860  24.124  1.00  0.00     0.067 A 
ATOM     21  C   UNL A   1      32.543  18.520  25.427  1.00  0.00     0.030 A 
ATOM     22  C   UNL A   1      33.430  17.873  23.265  1.00  0.00     0.030 A 
ATOM     23  C   UNL A   1      32.573  17.182  25.833  1.00  0.00     0.023 A 
ATOM     24  C   UNL A   1      33.478  16.541  23.682  1.00  0.00     0.023 A 
ATOM     25  C   UNL A   1      33.033  16.199  24.958  1.00  0.00     0.041 A 
ATOM     26  Cl  UNL A   1      33.058  14.552  25.453  1.00  0.00    -0.084 Cl
ENDBRANCH  15  20
ENDBRANCH  10  13
ENDBRANCH   8   9
ENDBRANCH   5   8
ENDBRANCH   3   4
ENDBRANCH   2   3
ENDBRANCH   1   2
BRANCH   1  27
ATOM     27  C   UNL A   1      31.431  30.524  26.167  1.00  0.00     0.002 C 
BRANCH  27  28
ATOM     28  C   UNL A   1      31.343  32.016  26.524  1.00  0.00     0.021 C 
BRANCH  28  29
ATOM     29  C   UNL A   1      32.615  32.588  27.125  1.00  0.00     0.116 C 
BRANCH  29  30
ATOM     30  N   UNL A   1      32.427  33.940  27.671  1.00  0.00    -0.352 N 
ATOM     31  C   UNL A   1      33.054  34.535  28.747  1.00  0.00     0.251 C 
ATOM     32  H   UNL A   1      31.762  34.496  27.205  1.00  0.00     0.163 HD
ATOM     33  O   UNL A   1      32.547  35.504  29.323  1.00  0.00    -0.269 OA
BRANCH  31  34
ATOM     34  C   UNL A   1      34.355  34.014  29.185  1.00  0.00     0.039 A 
ATOM     35  C   UNL A   1      34.560  33.365  30.405  1.00  0.00     0.014 A 
ATOM     36  C   UNL A   1      35.398  34.161  28.282  1.00  0.00     0.014 A 
ATOM     37  C   UNL A   1      35.823  32.836  30.667  1.00  0.00     0.010 A 
ATOM     38  C   UNL A   1      36.501  33.379  28.404  1.00  0.00     0.010 A 
ATOM     39  C   UNL A   1      36.788  32.854  29.647  1.00  0.00    -0.014 A 
BRANCH  39  40
ATOM     40  C   UNL A   1      38.110  32.271  29.786  1.00  0.00     0.031 A 
ATOM     41  C   UNL A   1      38.182  30.863  29.338  1.00  0.00     0.074 A 
ATOM     42  C   UNL A   1      39.207  33.024  30.035  1.00  0.00     0.049 A 
ATOM     43  N   UNL A   1      38.302  29.814  30.078  1.00  0.00    -0.248 NA
ATOM     44  C   UNL A   1      37.899  30.570  27.923  1.00  0.00     0.031 C 
ATOM     45  C   UNL A   1      39.317  34.488  30.152  1.00  0.00     0.029 A 
ATOM     46  N   UNL A   1      40.503  32.631  30.144  1.00  0.00    -0.354 N 
ATOM     47  C   UNL A   1      38.363  28.743  29.194  1.00  0.00     0.074 A 
ATOM     48  C   UNL A   1      37.875  29.236  27.933  1.00  0.00     0.031 C 
ATOM     49  C   UNL A   1      40.615  34.859  30.086  1.00  0.00     0.029 A 
ATOM     50  C   UNL A   1      41.437  33.665  30.102  1.00  0.00     0.049 A 
ATOM     51  H   UNL A   1      40.763  31.686  30.245  1.00  0.00     0.167 HD
ATOM     52  C   UNL A   1      39.088  27.634  29.503  1.00  0.00     0.037 A 
ATOM     53  C   UNL A   1      42.786  33.527  30.061  1.00  0.00     0.037 A 
ATOM     54  C   UNL A   1      39.419  27.613  30.909  1.00  0.00     0.049 A 
ATOM     55  C   UNL A   1      43.094  32.151  30.528  1.00  0.00     0.074 A 
ATOM     56  C   UNL A   1      38.687  27.624  32.082  1.00  0.00     0.029 A 
ATOM     57  N   UNL A   1      40.691  27.998  31.262  1.00  0.00    -0.354 N 
ATOM     58  N   UNL A   1      42.896  31.743  31.751  1.00  0.00    -0.248 NA
ATOM     59  C   UNL A   1      43.149  31.103  29.521  1.00  0.00     0.031 C 
ATOM     60  C   UNL A   1      39.417  28.477  32.964  1.00  0.00     0.029 A 
ATOM     61  C   UNL A   1      40.590  28.868  32.317  1.00  0.00     0.049 A 
ATOM     62  H   UNL A   1      41.526  27.702  30.833  1.00  0.00     0.167 HD
ATOM     63  C   UNL A   1      42.367  30.467  31.616  1.00  0.00     0.074 A 
ATOM     64  C   UNL A   1      42.615  30.099  30.222  1.00  0.00     0.031 C 
ATOM     65  C   UNL A   1      41.512  29.956  32.553  1.00  0.00     0.037 A 
BRANCH  52  66
ATOM     66  C   UNL A   1      39.848  26.806  28.494  1.00  0.00     0.057 A 
ATOM     67  C   UNL A   1      40.767  27.453  27.648  1.00  0.00     0.134 A 
ATOM     68  C   UNL A   1      39.513  25.489  28.116  1.00  0.00     0.134 A 
ATOM     69  F   UNL A   1      41.163  28.711  27.895  1.00  0.00    -0.206 F 
ATOM     70  C   UNL A   1      41.245  26.866  26.470  1.00  0.00     0.040 A 
ATOM     71  C   UNL A   1      40.025  24.876  26.970  1.00  0.00     0.040 A 
ATOM     72  F   UNL A   1      38.601  24.757  28.763  1.00  0.00    -0.206 F 
ATOM     73  C   UNL A   1      40.866  25.576  26.122  1.00  0.00     0.006 A 
ENDBRANCH  52  66
BRANCH  53  74
ATOM     74  C   UNL A   1      43.790  34.357  29.354  1.00  0.00     0.057 A 
ATOM     75  C   UNL A   1      44.112  34.122  28.008  1.00  0.00     0.134 A 
ATOM     76  C   UNL A   1      44.234  35.580  29.887  1.00  0.00     0.134 A 
ATOM     77  F   UNL A   1      43.699  33.003  27.396  1.00  0.00    -0.206 F 
ATOM     78  C   UNL A   1      44.805  35.061  27.230  1.00  0.00     0.040 A 
ATOM     79  C   UNL A   1      44.928  36.525  29.122  1.00  0.00     0.040 A 
ATOM     80  F   UNL A   1      43.929  35.938  31.143  1.00  0.00    -0.206 F 
ATOM     81  C   UNL A   1      45.202  36.274  27.783  1.00  0.00     0.006 A 
ENDBRANCH  53  74
BRANCH  65  82
ATOM     82  C   UNL A   1      41.356  30.710  33.848  1.00  0.00     0.057 A 
ATOM     83  C   UNL A   1      40.386  31.697  34.082  1.00  0.00     0.134 A 
ATOM     84  C   UNL A   1      42.122  30.312  34.948  1.00  0.00     0.134 A 
ATOM     85  F   UNL A   1      39.539  32.081  33.120  1.00  0.00    -0.206 F 
ATOM     86  C   UNL A   1      40.215  32.286  35.339  1.00  0.00     0.040 A 
ATOM     87  C   UNL A   1      41.940  30.868  36.216  1.00  0.00     0.040 A 
ATOM     88  F   UNL A   1      43.033  29.335  34.817  1.00  0.00    -0.206 F 
ATOM     89  C   UNL A   1      40.990  31.866  36.415  1.00  0.00     0.006 A 
ENDBRANCH  65  82
ENDBRANCH  39  40
ENDBRANCH  31  34
ENDBRANCH  29  30
ENDBRANCH  28  29
ENDBRANCH  27  28
ENDBRANCH   1  27
TORSDOF 17
ENDMDL
