MODEL 1
REMARK VINA RESULT:     -10.6      0.000      0.000
REMARK SMILES CCN(C=O)[C@](C)(C(=O)NCCCCCCNC(=O)c1ccc(-c2c3nc(c(-c4c(F)cccc4F)c4ccc([nH]4)c(-c4c(F)cccc4F)c4nc(c(-c5c(F)cccc5F)c5ccc2[nH]5)C=C4)C=C3)cc1)c1cc(F)c(C)cc1F
REMARK SMILES IDX 13 1 12 2 11 3 10 4 8 5 9 6 6 8 7 9 3 10 2 11 1 12 4 13 5 14
REMARK SMILES IDX 74 15 75 16 81 17 76 18 80 19 82 20 77 21 78 22 79 23 14 24
REMARK SMILES IDX 15 25 16 26 17 27 18 28 19 30 20 31 21 32 73 33 22 34 72 35
REMARK SMILES IDX 23 36 24 37 25 38 66 39 26 40 71 41 65 42 67 43 27 44 70 45
REMARK SMILES IDX 64 46 63 47 28 49 54 50 37 51 53 52 38 53 41 54 52 55 68 56
REMARK SMILES IDX 39 57 40 58 51 60 69 61 42 62 29 63 30 64 35 65 31 66 32 67
REMARK SMILES IDX 34 68 36 69 33 70 55 71 56 72 61 73 57 74 58 75 60 76 62 77
REMARK SMILES IDX 59 78 43 79 44 80 49 81 45 82 46 83 48 84 50 85 47 86
REMARK H PARENT 10 7 17 29 67 48 41 59
REMARK Flexibility Score: inf
ROOT
ATOM      1  C   UNL A   1      38.677  22.192  25.961  1.00  0.00     0.002 C 
ENDROOT
BRANCH   1   2
ATOM      2  C   UNL A   1      37.888  23.492  26.167  1.00  0.00     0.021 C 
BRANCH   2   3
ATOM      3  C   UNL A   1      36.439  23.400  25.681  1.00  0.00     0.116 C 
BRANCH   3   4
ATOM      4  N   UNL A   1      35.601  22.940  26.770  1.00  0.00    -0.354 N 
ATOM      5  C   UNL A   1      34.273  22.612  26.812  1.00  0.00     0.250 C 
ATOM      6  O   UNL A   1      33.778  22.571  27.945  1.00  0.00    -0.272 OA
ATOM      7  H   UNL A   1      36.069  22.848  27.630  1.00  0.00     0.163 HD
BRANCH   5   8
ATOM      8  C   UNL A   1      33.397  22.476  25.489  1.00  0.00     0.147 C 
ATOM      9  C   UNL A   1      31.957  22.755  26.038  1.00  0.00     0.051 C 
BRANCH   8  10
ATOM     10  N   UNL A   1      33.795  23.477  24.421  1.00  0.00    -0.327 N 
BRANCH  10  11
ATOM     11  C   UNL A   1      33.162  24.801  24.362  1.00  0.00     0.117 C 
ATOM     12  C   UNL A   1      33.902  25.860  25.186  1.00  0.00     0.027 C 
ENDBRANCH  10  11
BRANCH  10  13
ATOM     13  C   UNL A   1      34.377  23.063  23.223  1.00  0.00     0.341 C 
ATOM     14  O   UNL A   1      34.026  23.339  22.084  1.00  0.00    -0.279 OA
ENDBRANCH  10  13
ENDBRANCH   8  10
BRANCH   8  15
ATOM     15  C   UNL A   1      33.465  21.050  24.892  1.00  0.00     0.026 A 
ATOM     16  C   UNL A   1      34.556  20.198  25.145  1.00  0.00     0.049 A 
ATOM     17  C   UNL A   1      32.474  20.560  24.020  1.00  0.00     0.129 A 
ATOM     18  C   UNL A   1      34.611  18.919  24.584  1.00  0.00     0.126 A 
ATOM     19  C   UNL A   1      32.536  19.290  23.450  1.00  0.00     0.046 A 
ATOM     20  F   UNL A   1      31.444  21.327  23.641  1.00  0.00    -0.207 F 
ATOM     21  F   UNL A   1      35.655  18.129  24.873  1.00  0.00    -0.207 F 
ATOM     22  C   UNL A   1      33.614  18.454  23.726  1.00  0.00    -0.012 A 
ATOM     23  C   UNL A   1      33.691  17.086  23.125  1.00  0.00     0.047 C 
ENDBRANCH   8  15
ENDBRANCH   5   8
ENDBRANCH   3   4
ENDBRANCH   2   3
ENDBRANCH   1   2
BRANCH   1  24
ATOM     24  C   UNL A   1      38.045  21.224  24.956  1.00  0.00     0.002 C 
BRANCH  24  25
ATOM     25  C   UNL A   1      38.625  19.809  24.990  1.00  0.00     0.021 C 
BRANCH  25  26
ATOM     26  C   UNL A   1      39.460  19.512  26.229  1.00  0.00     0.116 C 
BRANCH  26  27
ATOM     27  N   UNL A   1      40.754  18.946  25.886  1.00  0.00    -0.352 N 
ATOM     28  C   UNL A   1      41.976  19.565  25.825  1.00  0.00     0.251 C 
ATOM     29  H   UNL A   1      40.753  17.986  25.666  1.00  0.00     0.163 HD
ATOM     30  O   UNL A   1      42.936  19.002  25.311  1.00  0.00    -0.269 OA
BRANCH  28  31
ATOM     31  C   UNL A   1      42.120  20.929  26.370  1.00  0.00     0.039 A 
ATOM     32  C   UNL A   1      42.036  21.118  27.750  1.00  0.00     0.014 A 
ATOM     33  C   UNL A   1      42.348  22.015  25.518  1.00  0.00     0.014 A 
ATOM     34  C   UNL A   1      42.231  22.392  28.282  1.00  0.00     0.010 A 
ATOM     35  C   UNL A   1      42.620  23.268  26.055  1.00  0.00     0.010 A 
ATOM     36  C   UNL A   1      42.557  23.471  27.442  1.00  0.00    -0.014 A 
BRANCH  36  37
ATOM     37  C   UNL A   1      42.830  24.819  27.997  1.00  0.00     0.031 A 
ATOM     38  C   UNL A   1      44.221  25.187  28.434  1.00  0.00     0.074 A 
ATOM     39  C   UNL A   1      41.816  25.690  28.159  1.00  0.00     0.049 A 
ATOM     40  N   UNL A   1      44.646  26.291  28.994  1.00  0.00    -0.248 NA
ATOM     41  C   UNL A   1      45.269  24.170  28.243  1.00  0.00     0.031 C 
ATOM     42  C   UNL A   1      40.415  25.431  27.816  1.00  0.00     0.029 A 
ATOM     43  N   UNL A   1      41.803  26.966  28.662  1.00  0.00    -0.354 N 
ATOM     44  C   UNL A   1      46.001  26.097  29.230  1.00  0.00     0.074 A 
ATOM     45  C   UNL A   1      46.316  24.751  28.807  1.00  0.00     0.031 C 
ATOM     46  C   UNL A   1      39.686  26.523  28.095  1.00  0.00     0.029 A 
ATOM     47  C   UNL A   1      40.556  27.541  28.675  1.00  0.00     0.049 A 
ATOM     48  H   UNL A   1      42.613  27.426  28.982  1.00  0.00     0.167 HD
ATOM     49  C   UNL A   1      46.905  26.972  29.731  1.00  0.00     0.037 A 
ATOM     50  C   UNL A   1      40.157  28.750  29.116  1.00  0.00     0.037 A 
ATOM     51  C   UNL A   1      46.589  28.318  30.131  1.00  0.00     0.049 A 
ATOM     52  C   UNL A   1      41.180  29.696  29.681  1.00  0.00     0.074 A 
ATOM     53  C   UNL A   1      47.446  29.301  30.596  1.00  0.00     0.029 A 
ATOM     54  N   UNL A   1      45.317  28.868  30.119  1.00  0.00    -0.354 N 
ATOM     55  N   UNL A   1      42.471  29.526  29.832  1.00  0.00    -0.248 NA
ATOM     56  C   UNL A   1      40.691  31.006  30.134  1.00  0.00     0.031 C 
ATOM     57  C   UNL A   1      46.682  30.428  30.916  1.00  0.00     0.029 A 
ATOM     58  C   UNL A   1      45.360  30.169  30.595  1.00  0.00     0.049 A 
ATOM     59  H   UNL A   1      44.502  28.404  29.817  1.00  0.00     0.167 HD
ATOM     60  C   UNL A   1      42.952  30.715  30.365  1.00  0.00     0.074 A 
ATOM     61  C   UNL A   1      41.817  31.604  30.497  1.00  0.00     0.031 C 
ATOM     62  C   UNL A   1      44.221  31.043  30.714  1.00  0.00     0.037 A 
BRANCH  49  63
ATOM     63  C   UNL A   1      48.323  26.499  29.877  1.00  0.00     0.057 A 
ATOM     64  C   UNL A   1      49.287  26.730  28.887  1.00  0.00     0.134 A 
ATOM     65  C   UNL A   1      48.742  25.844  31.043  1.00  0.00     0.134 A 
ATOM     66  F   UNL A   1      48.952  27.343  27.741  1.00  0.00    -0.206 F 
ATOM     67  C   UNL A   1      50.608  26.305  29.038  1.00  0.00     0.040 A 
ATOM     68  C   UNL A   1      50.066  25.440  31.219  1.00  0.00     0.040 A 
ATOM     69  F   UNL A   1      47.873  25.595  32.034  1.00  0.00    -0.206 F 
ATOM     70  C   UNL A   1      51.002  25.665  30.211  1.00  0.00     0.006 A 
ENDBRANCH  49  63
BRANCH  50  71
ATOM     71  C   UNL A   1      38.727  29.141  29.028  1.00  0.00     0.057 A 
ATOM     72  C   UNL A   1      37.883  29.060  30.142  1.00  0.00     0.134 A 
ATOM     73  C   UNL A   1      38.164  29.587  27.825  1.00  0.00     0.134 A 
ATOM     74  F   UNL A   1      38.359  28.623  31.317  1.00  0.00    -0.206 F 
ATOM     75  C   UNL A   1      36.528  29.383  30.059  1.00  0.00     0.040 A 
ATOM     76  C   UNL A   1      36.817  29.941  27.735  1.00  0.00     0.040 A 
ATOM     77  F   UNL A   1      38.919  29.696  26.723  1.00  0.00    -0.206 F 
ATOM     78  C   UNL A   1      35.992  29.830  28.853  1.00  0.00     0.006 A 
ENDBRANCH  50  71
BRANCH  62  79
ATOM     79  C   UNL A   1      44.455  32.432  31.233  1.00  0.00     0.057 A 
ATOM     80  C   UNL A   1      44.420  32.729  32.601  1.00  0.00     0.134 A 
ATOM     81  C   UNL A   1      44.758  33.479  30.352  1.00  0.00     0.134 A 
ATOM     82  F   UNL A   1      44.124  31.776  33.497  1.00  0.00    -0.206 F 
ATOM     83  C   UNL A   1      44.653  34.023  33.072  1.00  0.00     0.040 A 
ATOM     84  C   UNL A   1      45.024  34.768  30.812  1.00  0.00     0.040 A 
ATOM     85  F   UNL A   1      44.818  33.261  29.029  1.00  0.00    -0.206 F 
ATOM     86  C   UNL A   1      44.964  35.045  32.176  1.00  0.00     0.006 A 
ENDBRANCH  62  79
ENDBRANCH  36  37
ENDBRANCH  28  31
ENDBRANCH  26  27
ENDBRANCH  25  26
ENDBRANCH  24  25
ENDBRANCH   1  24
TORSDOF 17
ENDMDL
MODEL 2
REMARK VINA RESULT:     -10.6      1.804      6.448
REMARK SMILES CCN(C=O)[C@](C)(C(=O)NCCCCCCNC(=O)c1ccc(-c2c3nc(c(-c4c(F)cccc4F)c4ccc([nH]4)c(-c4c(F)cccc4F)c4nc(c(-c5c(F)cccc5F)c5ccc2[nH]5)C=C4)C=C3)cc1)c1cc(F)c(C)cc1F
REMARK SMILES IDX 13 1 12 2 11 3 10 4 8 5 9 6 6 8 7 9 3 10 2 11 1 12 4 13 5 14
REMARK SMILES IDX 74 15 75 16 81 17 76 18 80 19 82 20 77 21 78 22 79 23 14 24
REMARK SMILES IDX 15 25 16 26 17 27 18 28 19 30 20 31 21 32 73 33 22 34 72 35
REMARK SMILES IDX 23 36 24 37 25 38 66 39 26 40 71 41 65 42 67 43 27 44 70 45
REMARK SMILES IDX 64 46 63 47 28 49 54 50 37 51 53 52 38 53 41 54 52 55 68 56
REMARK SMILES IDX 39 57 40 58 51 60 69 61 42 62 29 63 30 64 35 65 31 66 32 67
REMARK SMILES IDX 34 68 36 69 33 70 55 71 56 72 61 73 57 74 58 75 60 76 62 77
REMARK SMILES IDX 59 78 43 79 44 80 49 81 45 82 46 83 48 84 50 85 47 86
REMARK H PARENT 10 7 17 29 67 48 41 59
REMARK Flexibility Score: inf
ROOT
ATOM      1  C   UNL A   1      37.004  21.954  23.988  1.00  0.00     0.002 C 
ENDROOT
BRANCH   1   2
ATOM      2  C   UNL A   1      37.039  23.323  24.680  1.00  0.00     0.021 C 
BRANCH   2   3
ATOM      3  C   UNL A   1      35.872  23.539  25.647  1.00  0.00     0.116 C 
BRANCH   3   4
ATOM      4  N   UNL A   1      34.967  24.523  25.086  1.00  0.00    -0.354 N 
ATOM      5  C   UNL A   1      33.602  24.543  24.988  1.00  0.00     0.250 C 
ATOM      6  O   UNL A   1      33.147  25.356  24.174  1.00  0.00    -0.272 OA
ATOM      7  H   UNL A   1      35.413  25.316  24.711  1.00  0.00     0.163 HD
BRANCH   5   8
ATOM      8  C   UNL A   1      32.688  23.471  25.731  1.00  0.00     0.147 C 
ATOM      9  C   UNL A   1      33.467  23.276  27.075  1.00  0.00     0.051 C 
BRANCH   8  10
ATOM     10  N   UNL A   1      31.277  23.973  25.968  1.00  0.00    -0.327 N 
BRANCH  10  11
ATOM     11  C   UNL A   1      31.012  25.407  26.145  1.00  0.00     0.117 C 
ATOM     12  C   UNL A   1      29.883  25.926  25.248  1.00  0.00     0.027 C 
ENDBRANCH  10  11
BRANCH  10  13
ATOM     13  C   UNL A   1      30.290  23.137  26.487  1.00  0.00     0.341 C 
ATOM     14  O   UNL A   1      29.844  23.119  27.626  1.00  0.00    -0.279 OA
ENDBRANCH  10  13
ENDBRANCH   8  10
BRANCH   8  15
ATOM     15  C   UNL A   1      32.623  22.130  24.961  1.00  0.00     0.026 A 
ATOM     16  C   UNL A   1      33.094  20.933  25.528  1.00  0.00     0.049 A 
ATOM     17  C   UNL A   1      32.149  22.056  23.637  1.00  0.00     0.129 A 
ATOM     18  C   UNL A   1      33.044  19.733  24.813  1.00  0.00     0.126 A 
ATOM     19  C   UNL A   1      32.112  20.862  22.919  1.00  0.00     0.046 A 
ATOM     20  F   UNL A   1      31.767  23.155  22.974  1.00  0.00    -0.207 F 
ATOM     21  F   UNL A   1      33.478  18.609  25.401  1.00  0.00    -0.207 F 
ATOM     22  C   UNL A   1      32.565  19.683  23.503  1.00  0.00    -0.012 A 
ATOM     23  C   UNL A   1      32.528  18.393  22.746  1.00  0.00     0.047 C 
ENDBRANCH   8  15
ENDBRANCH   5   8
ENDBRANCH   3   4
ENDBRANCH   2   3
ENDBRANCH   1   2
BRANCH   1  24
ATOM     24  C   UNL A   1      36.703  20.782  24.926  1.00  0.00     0.002 C 
BRANCH  24  25
ATOM     25  C   UNL A   1      37.812  19.730  25.001  1.00  0.00     0.021 C 
BRANCH  25  26
ATOM     26  C   UNL A   1      39.058  20.197  25.744  1.00  0.00     0.116 C 
BRANCH  26  27
ATOM     27  N   UNL A   1      40.036  19.130  25.880  1.00  0.00    -0.352 N 
ATOM     28  C   UNL A   1      41.390  19.223  26.073  1.00  0.00     0.251 C 
ATOM     29  H   UNL A   1      39.677  18.215  25.826  1.00  0.00     0.163 HD
ATOM     30  O   UNL A   1      42.108  18.236  25.952  1.00  0.00    -0.269 OA
BRANCH  28  31
ATOM     31  C   UNL A   1      41.981  20.532  26.411  1.00  0.00     0.039 A 
ATOM     32  C   UNL A   1      42.288  21.422  25.381  1.00  0.00     0.014 A 
ATOM     33  C   UNL A   1      42.224  20.880  27.744  1.00  0.00     0.014 A 
ATOM     34  C   UNL A   1      42.791  22.685  25.691  1.00  0.00     0.010 A 
ATOM     35  C   UNL A   1      42.650  22.166  28.055  1.00  0.00     0.010 A 
ATOM     36  C   UNL A   1      42.945  23.079  27.031  1.00  0.00    -0.014 A 
BRANCH  36  37
ATOM     37  C   UNL A   1      43.418  24.441  27.379  1.00  0.00     0.031 A 
ATOM     38  C   UNL A   1      42.434  25.496  27.803  1.00  0.00     0.074 A 
ATOM     39  C   UNL A   1      44.725  24.742  27.260  1.00  0.00     0.049 A 
ATOM     40  N   UNL A   1      42.645  26.755  28.091  1.00  0.00    -0.248 NA
ATOM     41  C   UNL A   1      41.020  25.092  27.886  1.00  0.00     0.031 C 
ATOM     42  C   UNL A   1      45.769  23.817  26.815  1.00  0.00     0.029 A 
ATOM     43  N   UNL A   1      45.399  25.913  27.495  1.00  0.00    -0.354 N 
ATOM     44  C   UNL A   1      41.396  27.292  28.378  1.00  0.00     0.074 A 
ATOM     45  C   UNL A   1      40.426  26.239  28.173  1.00  0.00     0.031 C 
ATOM     46  C   UNL A   1      46.953  24.449  26.833  1.00  0.00     0.029 A 
ATOM     47  C   UNL A   1      46.748  25.832  27.248  1.00  0.00     0.049 A 
ATOM     48  H   UNL A   1      44.957  26.735  27.811  1.00  0.00     0.167 HD
ATOM     49  C   UNL A   1      41.091  28.542  28.798  1.00  0.00     0.037 A 
ATOM     50  C   UNL A   1      47.709  26.772  27.337  1.00  0.00     0.037 A 
ATOM     51  C   UNL A   1      42.063  29.580  29.020  1.00  0.00     0.049 A 
ATOM     52  C   UNL A   1      47.339  28.157  27.792  1.00  0.00     0.074 A 
ATOM     53  C   UNL A   1      41.860  30.862  29.501  1.00  0.00     0.029 A 
ATOM     54  N   UNL A   1      43.421  29.457  28.769  1.00  0.00    -0.354 N 
ATOM     55  N   UNL A   1      46.164  28.630  28.130  1.00  0.00    -0.248 NA
ATOM     56  C   UNL A   1      48.430  29.137  27.883  1.00  0.00     0.031 C 
ATOM     57  C   UNL A   1      43.088  31.531  29.490  1.00  0.00     0.029 A 
ATOM     58  C   UNL A   1      44.066  30.648  29.060  1.00  0.00     0.049 A 
ATOM     59  H   UNL A   1      43.863  28.642  28.435  1.00  0.00     0.167 HD
ATOM     60  C   UNL A   1      46.379  29.951  28.503  1.00  0.00     0.074 A 
ATOM     61  C   UNL A   1      47.799  30.199  28.365  1.00  0.00     0.031 C 
ATOM     62  C   UNL A   1      45.481  30.876  28.924  1.00  0.00     0.037 A 
BRANCH  49  63
ATOM     63  C   UNL A   1      39.643  28.858  29.044  1.00  0.00     0.057 A 
ATOM     64  C   UNL A   1      38.794  29.293  28.017  1.00  0.00     0.134 A 
ATOM     65  C   UNL A   1      39.079  28.682  30.315  1.00  0.00     0.134 A 
ATOM     66  F   UNL A   1      39.271  29.493  26.779  1.00  0.00    -0.206 F 
ATOM     67  C   UNL A   1      37.445  29.566  28.249  1.00  0.00     0.040 A 
ATOM     68  C   UNL A   1      37.725  28.923  30.553  1.00  0.00     0.040 A 
ATOM     69  F   UNL A   1      39.832  28.263  31.342  1.00  0.00    -0.206 F 
ATOM     70  C   UNL A   1      36.905  29.373  29.520  1.00  0.00     0.006 A 
ENDBRANCH  49  63
BRANCH  50  71
ATOM     71  C   UNL A   1      49.116  26.433  27.002  1.00  0.00     0.057 A 
ATOM     72  C   UNL A   1      49.595  26.542  25.691  1.00  0.00     0.134 A 
ATOM     73  C   UNL A   1      50.010  25.976  27.979  1.00  0.00     0.134 A 
ATOM     74  F   UNL A   1      48.782  26.956  24.708  1.00  0.00    -0.206 F 
ATOM     75  C   UNL A   1      50.902  26.184  25.358  1.00  0.00     0.040 A 
ATOM     76  C   UNL A   1      51.328  25.643  27.664  1.00  0.00     0.040 A 
ATOM     77  F   UNL A   1      49.617  25.858  29.255  1.00  0.00    -0.206 F 
ATOM     78  C   UNL A   1      51.775  25.737  26.348  1.00  0.00     0.006 A 
ENDBRANCH  50  71
BRANCH  62  79
ATOM     79  C   UNL A   1      46.013  32.228  29.303  1.00  0.00     0.057 A 
ATOM     80  C   UNL A   1      46.471  32.510  30.596  1.00  0.00     0.134 A 
ATOM     81  C   UNL A   1      46.105  33.249  28.348  1.00  0.00     0.134 A 
ATOM     82  F   UNL A   1      46.400  31.580  31.561  1.00  0.00    -0.206 F 
ATOM     83  C   UNL A   1      46.977  33.767  30.933  1.00  0.00     0.040 A 
ATOM     84  C   UNL A   1      46.638  34.499  28.664  1.00  0.00     0.040 A 
ATOM     85  F   UNL A   1      45.694  33.043  27.088  1.00  0.00    -0.206 F 
ATOM     86  C   UNL A   1      47.068  34.763  29.962  1.00  0.00     0.006 A 
ENDBRANCH  62  79
ENDBRANCH  36  37
ENDBRANCH  28  31
ENDBRANCH  26  27
ENDBRANCH  25  26
ENDBRANCH  24  25
ENDBRANCH   1  24
TORSDOF 17
ENDMDL
MODEL 3
REMARK VINA RESULT:     -10.5      4.682      9.175
REMARK SMILES CCN(C=O)[C@](C)(C(=O)NCCCCCCNC(=O)c1ccc(-c2c3nc(c(-c4c(F)cccc4F)c4ccc([nH]4)c(-c4c(F)cccc4F)c4nc(c(-c5c(F)cccc5F)c5ccc2[nH]5)C=C4)C=C3)cc1)c1cc(F)c(C)cc1F
REMARK SMILES IDX 13 1 12 2 11 3 10 4 8 5 9 6 6 8 7 9 3 10 2 11 1 12 4 13 5 14
REMARK SMILES IDX 74 15 75 16 81 17 76 18 80 19 82 20 77 21 78 22 79 23 14 24
REMARK SMILES IDX 15 25 16 26 17 27 18 28 19 30 20 31 21 32 73 33 22 34 72 35
REMARK SMILES IDX 23 36 24 37 25 38 66 39 26 40 71 41 65 42 67 43 27 44 70 45
REMARK SMILES IDX 64 46 63 47 28 49 54 50 37 51 53 52 38 53 41 54 52 55 68 56
REMARK SMILES IDX 39 57 40 58 51 60 69 61 42 62 29 63 30 64 35 65 31 66 32 67
REMARK SMILES IDX 34 68 36 69 33 70 55 71 56 72 61 73 57 74 58 75 60 76 62 77
REMARK SMILES IDX 59 78 43 79 44 80 49 81 45 82 46 83 48 84 50 85 47 86
REMARK H PARENT 10 7 17 29 67 48 41 59
REMARK Flexibility Score: inf
ROOT
ATOM      1  C   UNL A   1      32.542  29.480  26.574  1.00  0.00     0.002 C 
ENDROOT
BRANCH   1   2
ATOM      2  C   UNL A   1      31.750  28.446  27.385  1.00  0.00     0.021 C 
BRANCH   2   3
ATOM      3  C   UNL A   1      31.711  27.065  26.726  1.00  0.00     0.116 C 
BRANCH   3   4
ATOM      4  N   UNL A   1      33.036  26.733  26.240  1.00  0.00    -0.354 N 
ATOM      5  C   UNL A   1      33.445  25.958  25.189  1.00  0.00     0.250 C 
ATOM      6  O   UNL A   1      34.630  25.604  25.228  1.00  0.00    -0.272 OA
ATOM      7  H   UNL A   1      33.770  27.135  26.758  1.00  0.00     0.163 HD
BRANCH   5   8
ATOM      8  C   UNL A   1      32.422  25.408  24.100  1.00  0.00     0.147 C 
ATOM      9  C   UNL A   1      33.355  25.235  22.855  1.00  0.00     0.051 C 
BRANCH   8  10
ATOM     10  N   UNL A   1      31.784  24.095  24.510  1.00  0.00    -0.327 N 
BRANCH  10  11
ATOM     11  C   UNL A   1      31.968  23.565  25.867  1.00  0.00     0.117 C 
ATOM     12  C   UNL A   1      30.656  23.443  26.650  1.00  0.00     0.027 C 
ENDBRANCH  10  11
BRANCH  10  13
ATOM     13  C   UNL A   1      31.425  23.138  23.562  1.00  0.00     0.341 C 
ATOM     14  O   UNL A   1      31.969  22.065  23.336  1.00  0.00    -0.279 OA
ENDBRANCH  10  13
ENDBRANCH   8  10
BRANCH   8  15
ATOM     15  C   UNL A   1      31.306  26.433  23.783  1.00  0.00     0.026 A 
ATOM     16  C   UNL A   1      29.949  26.133  24.001  1.00  0.00     0.049 A 
ATOM     17  C   UNL A   1      31.588  27.684  23.204  1.00  0.00     0.129 A 
ATOM     18  C   UNL A   1      28.952  27.062  23.693  1.00  0.00     0.126 A 
ATOM     19  C   UNL A   1      30.593  28.605  22.884  1.00  0.00     0.046 A 
ATOM     20  F   UNL A   1      32.839  28.028  22.869  1.00  0.00    -0.207 F 
ATOM     21  F   UNL A   1      27.673  26.747  23.942  1.00  0.00    -0.207 F 
ATOM     22  C   UNL A   1      29.256  28.300  23.124  1.00  0.00    -0.012 A 
ATOM     23  C   UNL A   1      28.177  29.280  22.789  1.00  0.00     0.047 C 
ENDBRANCH   8  15
ENDBRANCH   5   8
ENDBRANCH   3   4
ENDBRANCH   2   3
ENDBRANCH   1   2
BRANCH   1  24
ATOM     24  C   UNL A   1      31.671  30.486  25.815  1.00  0.00     0.002 C 
BRANCH  24  25
ATOM     25  C   UNL A   1      31.407  31.790  26.571  1.00  0.00     0.021 C 
BRANCH  25  26
ATOM     26  C   UNL A   1      32.645  32.382  27.234  1.00  0.00     0.116 C 
BRANCH  26  27
ATOM     27  N   UNL A   1      32.477  33.797  27.524  1.00  0.00    -0.352 N 
ATOM     28  C   UNL A   1      33.105  34.563  28.471  1.00  0.00     0.251 C 
ATOM     29  H   UNL A   1      31.822  34.271  26.961  1.00  0.00     0.163 HD
ATOM     30  O   UNL A   1      32.699  35.690  28.734  1.00  0.00    -0.269 OA
BRANCH  28  31
ATOM     31  C   UNL A   1      34.269  34.009  29.189  1.00  0.00     0.039 A 
ATOM     32  C   UNL A   1      34.053  33.133  30.255  1.00  0.00     0.014 A 
ATOM     33  C   UNL A   1      35.570  34.348  28.803  1.00  0.00     0.014 A 
ATOM     34  C   UNL A   1      35.145  32.556  30.902  1.00  0.00     0.010 A 
ATOM     35  C   UNL A   1      36.654  33.711  29.397  1.00  0.00     0.010 A 
ATOM     36  C   UNL A   1      36.452  32.815  30.457  1.00  0.00    -0.014 A 
BRANCH  36  37
ATOM     37  C   UNL A   1      37.621  32.159  31.093  1.00  0.00     0.031 A 
ATOM     38  C   UNL A   1      38.354  31.060  30.374  1.00  0.00     0.074 A 
ATOM     39  C   UNL A   1      37.987  32.515  32.340  1.00  0.00     0.049 A 
ATOM     40  N   UNL A   1      39.359  30.330  30.787  1.00  0.00    -0.248 NA
ATOM     41  C   UNL A   1      37.877  30.716  29.025  1.00  0.00     0.031 C 
ATOM     42  C   UNL A   1      37.326  33.535  33.157  1.00  0.00     0.029 A 
ATOM     43  N   UNL A   1      38.999  32.054  33.142  1.00  0.00    -0.354 N 
ATOM     44  C   UNL A   1      39.625  29.438  29.755  1.00  0.00     0.074 A 
ATOM     45  C   UNL A   1      38.641  29.678  28.724  1.00  0.00     0.031 C 
ATOM     46  C   UNL A   1      37.965  33.639  34.333  1.00  0.00     0.029 A 
ATOM     47  C   UNL A   1      39.051  32.665  34.370  1.00  0.00     0.049 A 
ATOM     48  H   UNL A   1      39.630  31.350  32.863  1.00  0.00     0.167 HD
ATOM     49  C   UNL A   1      40.615  28.519  29.669  1.00  0.00     0.037 A 
ATOM     50  C   UNL A   1      39.876  32.457  35.415  1.00  0.00     0.037 A 
ATOM     51  C   UNL A   1      41.605  28.299  30.691  1.00  0.00     0.049 A 
ATOM     52  C   UNL A   1      40.959  31.420  35.296  1.00  0.00     0.074 A 
ATOM     53  C   UNL A   1      42.684  27.433  30.672  1.00  0.00     0.029 A 
ATOM     54  N   UNL A   1      41.632  28.946  31.917  1.00  0.00    -0.354 N 
ATOM     55  N   UNL A   1      41.244  30.633  34.287  1.00  0.00    -0.248 NA
ATOM     56  C   UNL A   1      41.838  31.245  36.460  1.00  0.00     0.031 C 
ATOM     57  C   UNL A   1      43.332  27.517  31.909  1.00  0.00     0.029 A 
ATOM     58  C   UNL A   1      42.693  28.478  32.675  1.00  0.00     0.049 A 
ATOM     59  H   UNL A   1      40.991  29.636  32.207  1.00  0.00     0.167 HD
ATOM     60  C   UNL A   1      42.353  29.895  34.681  1.00  0.00     0.074 A 
ATOM     61  C   UNL A   1      42.697  30.338  36.016  1.00  0.00     0.031 C 
ATOM     62  C   UNL A   1      43.026  28.935  33.999  1.00  0.00     0.037 A 
BRANCH  49  63
ATOM     63  C   UNL A   1      40.678  27.680  28.424  1.00  0.00     0.057 A 
ATOM     64  C   UNL A   1      39.986  26.467  28.312  1.00  0.00     0.134 A 
ATOM     65  C   UNL A   1      41.403  28.113  27.306  1.00  0.00     0.134 A 
ATOM     66  F   UNL A   1      39.281  25.988  29.349  1.00  0.00    -0.206 F 
ATOM     67  C   UNL A   1      40.034  25.702  27.146  1.00  0.00     0.040 A 
ATOM     68  C   UNL A   1      41.435  27.373  26.124  1.00  0.00     0.040 A 
ATOM     69  F   UNL A   1      42.085  29.268  27.341  1.00  0.00    -0.206 F 
ATOM     70  C   UNL A   1      40.753  26.160  26.043  1.00  0.00     0.006 A 
ENDBRANCH  49  63
BRANCH  50  71
ATOM     71  C   UNL A   1      39.722  33.255  36.658  1.00  0.00     0.057 A 
ATOM     72  C   UNL A   1      38.842  32.856  37.671  1.00  0.00     0.134 A 
ATOM     73  C   UNL A   1      40.436  34.444  36.856  1.00  0.00     0.134 A 
ATOM     74  F   UNL A   1      38.117  31.736  37.531  1.00  0.00    -0.206 F 
ATOM     75  C   UNL A   1      38.657  33.621  38.823  1.00  0.00     0.040 A 
ATOM     76  C   UNL A   1      40.282  35.204  38.017  1.00  0.00     0.040 A 
ATOM     77  F   UNL A   1      41.302  34.877  35.930  1.00  0.00    -0.206 F 
ATOM     78  C   UNL A   1      39.382  34.798  39.000  1.00  0.00     0.006 A 
ENDBRANCH  50  71
BRANCH  62  79
ATOM     79  C   UNL A   1      44.226  28.330  34.669  1.00  0.00     0.057 A 
ATOM     80  C   UNL A   1      44.139  27.160  35.433  1.00  0.00     0.134 A 
ATOM     81  C   UNL A   1      45.494  28.906  34.511  1.00  0.00     0.134 A 
ATOM     82  F   UNL A   1      42.954  26.565  35.634  1.00  0.00    -0.206 F 
ATOM     83  C   UNL A   1      45.265  26.599  36.039  1.00  0.00     0.040 A 
ATOM     84  C   UNL A   1      46.632  28.337  35.084  1.00  0.00     0.040 A 
ATOM     85  F   UNL A   1      45.651  30.021  33.782  1.00  0.00    -0.206 F 
ATOM     86  C   UNL A   1      46.518  27.184  35.858  1.00  0.00     0.006 A 
ENDBRANCH  62  79
ENDBRANCH  36  37
ENDBRANCH  28  31
ENDBRANCH  26  27
ENDBRANCH  25  26
ENDBRANCH  24  25
ENDBRANCH   1  24
TORSDOF 17
ENDMDL
