MODEL 1
REMARK VINA RESULT:     -11.3      0.000      0.000
REMARK SMILES CCN(C(=O)N[C@@H]1CCOC1)[C@H]1COC[C@H]1C(=O)NCCCCCCNC(=O)c1ccc(-c2c3nc(c(-c4c(F)cccc4F)c4ccc([nH]4)c(-c4c(F)cccc4F)c4nc(c(-c5c(F)cccc5F)c5ccc2[nH]5)C=C4)C=C3)cc1
REMARK SMILES IDX 22 1 21 2 20 3 19 4 17 5 18 6 16 8 12 9 13 10 14 11 15 12
REMARK SMILES IDX 3 13 2 14 1 15 4 16 5 17 6 18 7 20 8 21 11 22 9 23 10 24
REMARK SMILES IDX 23 25 24 26 25 27 26 28 27 29 28 31 29 32 30 33 82 34 31 35
REMARK SMILES IDX 81 36 32 37 33 38 34 39 75 40 35 41 80 42 74 43 76 44 36 45
REMARK SMILES IDX 79 46 73 47 72 48 37 50 63 51 46 52 62 53 47 54 50 55 61 56
REMARK SMILES IDX 77 57 48 58 49 59 60 61 78 62 51 63 38 64 39 65 44 66 40 67
REMARK SMILES IDX 41 68 43 69 45 70 42 71 64 72 65 73 70 74 66 75 67 76 69 77
REMARK SMILES IDX 71 78 68 79 52 80 53 81 58 82 54 83 55 84 57 85 59 86 56 87
REMARK H PARENT 19 7 6 19 26 30 76 49 50 60
REMARK Flexibility Score: inf
ROOT
ATOM      1  C   UNL A   1      32.424  29.806  27.133  1.00  0.00     0.002 C 
ENDROOT
BRANCH   1   2
ATOM      2  C   UNL A   1      31.800  28.466  27.539  1.00  0.00     0.021 C 
BRANCH   2   3
ATOM      3  C   UNL A   1      31.632  27.424  26.438  1.00  0.00     0.116 C 
BRANCH   3   4
ATOM      4  N   UNL A   1      31.303  26.120  26.976  1.00  0.00    -0.356 N 
ATOM      5  C   UNL A   1      31.326  24.870  26.459  1.00  0.00     0.227 C 
ATOM      6  O   UNL A   1      30.915  23.974  27.209  1.00  0.00    -0.275 OA
ATOM      7  H   UNL A   1      31.000  26.150  27.912  1.00  0.00     0.163 HD
BRANCH   5   8
ATOM      8  C   UNL A   1      31.899  24.491  25.109  1.00  0.00     0.129 C 
ATOM      9  C   UNL A   1      33.132  23.602  24.879  1.00  0.00     0.127 C 
ATOM     10  C   UNL A   1      33.041  23.538  23.338  1.00  0.00     0.186 C 
ATOM     11  O   UNL A   1      31.649  23.399  23.017  1.00  0.00    -0.378 OA
ATOM     12  C   UNL A   1      30.911  24.114  24.021  1.00  0.00     0.176 C 
BRANCH   9  13
ATOM     13  N   UNL A   1      33.263  22.298  25.611  1.00  0.00    -0.319 N 
BRANCH  13  14
ATOM     14  C   UNL A   1      32.911  21.079  24.905  1.00  0.00     0.118 C 
ATOM     15  C   UNL A   1      34.068  20.107  24.772  1.00  0.00     0.027 C 
ENDBRANCH  13  14
BRANCH  13  16
ATOM     16  C   UNL A   1      34.112  22.296  26.678  1.00  0.00     0.318 C 
ATOM     17  O   UNL A   1      33.693  22.015  27.809  1.00  0.00    -0.249 OA
ATOM     18  N   UNL A   1      35.413  22.595  26.676  1.00  0.00    -0.333 N 
ATOM     19  H   UNL A   1      35.659  22.590  27.629  1.00  0.00     0.165 HD
BRANCH  18  20
ATOM     20  C   UNL A   1      36.683  22.935  25.980  1.00  0.00     0.112 C 
ATOM     21  C   UNL A   1      36.820  23.682  24.670  1.00  0.00     0.056 C 
ATOM     22  C   UNL A   1      37.433  21.636  25.615  1.00  0.00     0.185 C 
ATOM     23  C   UNL A   1      36.711  22.601  23.631  1.00  0.00     0.162 C 
ATOM     24  O   UNL A   1      37.397  21.478  24.184  1.00  0.00    -0.379 OA
ENDBRANCH  18  20
ENDBRANCH  13  16
ENDBRANCH   9  13
ENDBRANCH   5   8
ENDBRANCH   3   4
ENDBRANCH   2   3
ENDBRANCH   1   2
BRANCH   1  25
ATOM     25  C   UNL A   1      31.627  30.645  26.128  1.00  0.00     0.002 C 
BRANCH  25  26
ATOM     26  C   UNL A   1      31.371  32.109  26.504  1.00  0.00     0.021 C 
BRANCH  26  27
ATOM     27  C   UNL A   1      32.510  32.829  27.226  1.00  0.00     0.116 C 
BRANCH  27  28
ATOM     28  N   UNL A   1      32.188  34.180  27.644  1.00  0.00    -0.352 N 
ATOM     29  C   UNL A   1      32.878  35.009  28.498  1.00  0.00     0.251 C 
ATOM     30  H   UNL A   1      31.362  34.556  27.264  1.00  0.00     0.163 HD
ATOM     31  O   UNL A   1      32.462  36.137  28.733  1.00  0.00    -0.269 OA
BRANCH  29  32
ATOM     32  C   UNL A   1      34.095  34.527  29.194  1.00  0.00     0.039 A 
ATOM     33  C   UNL A   1      33.959  34.094  30.517  1.00  0.00     0.014 A 
ATOM     34  C   UNL A   1      35.351  34.498  28.577  1.00  0.00     0.014 A 
ATOM     35  C   UNL A   1      35.058  33.562  31.196  1.00  0.00     0.010 A 
ATOM     36  C   UNL A   1      36.445  33.935  29.247  1.00  0.00     0.010 A 
ATOM     37  C   UNL A   1      36.304  33.443  30.555  1.00  0.00    -0.014 A 
BRANCH  37  38
ATOM     38  C   UNL A   1      37.420  32.731  31.233  1.00  0.00     0.031 A 
ATOM     39  C   UNL A   1      38.061  31.517  30.627  1.00  0.00     0.074 A 
ATOM     40  C   UNL A   1      37.858  33.188  32.423  1.00  0.00     0.049 A 
ATOM     41  N   UNL A   1      39.074  30.813  31.068  1.00  0.00    -0.248 NA
ATOM     42  C   UNL A   1      37.486  31.021  29.369  1.00  0.00     0.031 C 
ATOM     43  C   UNL A   1      37.303  34.338  33.141  1.00  0.00     0.029 A 
ATOM     44  N   UNL A   1      38.872  32.746  33.238  1.00  0.00    -0.354 N 
ATOM     45  C   UNL A   1      39.267  29.799  30.141  1.00  0.00     0.074 A 
ATOM     46  C   UNL A   1      38.235  29.952  29.134  1.00  0.00     0.031 C 
ATOM     47  C   UNL A   1      37.995  34.523  34.275  1.00  0.00     0.029 A 
ATOM     48  C   UNL A   1      39.026  33.494  34.381  1.00  0.00     0.049 A 
ATOM     49  H   UNL A   1      39.435  31.968  33.023  1.00  0.00     0.167 HD
ATOM     50  C   UNL A   1      40.224  28.839  30.119  1.00  0.00     0.037 A 
ATOM     51  C   UNL A   1      39.897  33.368  35.399  1.00  0.00     0.037 A 
ATOM     52  C   UNL A   1      41.254  28.684  31.117  1.00  0.00     0.049 A 
ATOM     53  C   UNL A   1      40.930  32.278  35.365  1.00  0.00     0.074 A 
ATOM     54  C   UNL A   1      42.300  27.776  31.141  1.00  0.00     0.029 A 
ATOM     55  N   UNL A   1      41.363  29.446  32.269  1.00  0.00    -0.354 N 
ATOM     56  N   UNL A   1      41.148  31.375  34.441  1.00  0.00    -0.248 NA
ATOM     57  C   UNL A   1      41.843  32.192  36.515  1.00  0.00     0.031 C 
ATOM     58  C   UNL A   1      43.013  27.957  32.332  1.00  0.00     0.029 A 
ATOM     59  C   UNL A   1      42.438  29.008  33.028  1.00  0.00     0.049 A 
ATOM     60  H   UNL A   1      40.766  30.190  32.514  1.00  0.00     0.167 HD
ATOM     61  C   UNL A   1      42.232  30.629  34.886  1.00  0.00     0.074 A 
ATOM     62  C   UNL A   1      42.639  31.195  36.155  1.00  0.00     0.031 C 
ATOM     63  C   UNL A   1      42.835  29.570  34.293  1.00  0.00     0.037 A 
BRANCH  50  64
ATOM     64  C   UNL A   1      40.209  27.871  28.973  1.00  0.00     0.057 A 
ATOM     65  C   UNL A   1      40.936  28.112  27.800  1.00  0.00     0.134 A 
ATOM     66  C   UNL A   1      39.512  26.661  29.066  1.00  0.00     0.134 A 
ATOM     67  F   UNL A   1      41.621  29.255  27.647  1.00  0.00    -0.206 F 
ATOM     68  C   UNL A   1      40.953  27.190  26.752  1.00  0.00     0.040 A 
ATOM     69  C   UNL A   1      39.539  25.722  28.033  1.00  0.00     0.040 A 
ATOM     70  F   UNL A   1      38.805  26.364  30.167  1.00  0.00    -0.206 F 
ATOM     71  C   UNL A   1      40.259  25.988  26.870  1.00  0.00     0.006 A 
ENDBRANCH  50  64
BRANCH  51  72
ATOM     72  C   UNL A   1      39.842  34.315  36.539  1.00  0.00     0.057 A 
ATOM     73  C   UNL A   1      40.488  35.555  36.481  1.00  0.00     0.134 A 
ATOM     74  C   UNL A   1      39.154  33.999  37.716  1.00  0.00     0.134 A 
ATOM     75  F   UNL A   1      41.182  35.904  35.388  1.00  0.00    -0.206 F 
ATOM     76  C   UNL A   1      40.465  36.443  37.559  1.00  0.00     0.040 A 
ATOM     77  C   UNL A   1      39.103  34.886  38.793  1.00  0.00     0.040 A 
ATOM     78  F   UNL A   1      38.512  32.827  37.832  1.00  0.00    -0.206 F 
ATOM     79  C   UNL A   1      39.765  36.109  38.718  1.00  0.00     0.006 A 
ENDBRANCH  51  72
BRANCH  63  80
ATOM     80  C   UNL A   1      44.008  28.962  35.004  1.00  0.00     0.057 A 
ATOM     81  C   UNL A   1      43.848  27.941  35.951  1.00  0.00     0.134 A 
ATOM     82  C   UNL A   1      45.314  29.383  34.723  1.00  0.00     0.134 A 
ATOM     83  F   UNL A   1      42.622  27.504  36.276  1.00  0.00    -0.206 F 
ATOM     84  C   UNL A   1      44.943  27.374  36.605  1.00  0.00     0.040 A 
ATOM     85  C   UNL A   1      46.419  28.808  35.354  1.00  0.00     0.040 A 
ATOM     86  F   UNL A   1      45.538  30.353  33.823  1.00  0.00    -0.206 F 
ATOM     87  C   UNL A   1      46.234  27.805  36.302  1.00  0.00     0.006 A 
ENDBRANCH  63  80
ENDBRANCH  37  38
ENDBRANCH  29  32
ENDBRANCH  27  28
ENDBRANCH  26  27
ENDBRANCH  25  26
ENDBRANCH   1  25
TORSDOF 17
ENDMDL
MODEL 2
REMARK VINA RESULT:     -11.1      4.671      9.171
REMARK SMILES CCN(C(=O)N[C@@H]1CCOC1)[C@H]1COC[C@H]1C(=O)NCCCCCCNC(=O)c1ccc(-c2c3nc(c(-c4c(F)cccc4F)c4ccc([nH]4)c(-c4c(F)cccc4F)c4nc(c(-c5c(F)cccc5F)c5ccc2[nH]5)C=C4)C=C3)cc1
REMARK SMILES IDX 22 1 21 2 20 3 19 4 17 5 18 6 16 8 12 9 13 10 14 11 15 12
REMARK SMILES IDX 3 13 2 14 1 15 4 16 5 17 6 18 7 20 8 21 11 22 9 23 10 24
REMARK SMILES IDX 23 25 24 26 25 27 26 28 27 29 28 31 29 32 30 33 82 34 31 35
REMARK SMILES IDX 81 36 32 37 33 38 34 39 75 40 35 41 80 42 74 43 76 44 36 45
REMARK SMILES IDX 79 46 73 47 72 48 37 50 63 51 46 52 62 53 47 54 50 55 61 56
REMARK SMILES IDX 77 57 48 58 49 59 60 61 78 62 51 63 38 64 39 65 44 66 40 67
REMARK SMILES IDX 41 68 43 69 45 70 42 71 64 72 65 73 70 74 66 75 67 76 69 77
REMARK SMILES IDX 71 78 68 79 52 80 53 81 58 82 54 83 55 84 57 85 59 86 56 87
REMARK H PARENT 19 7 6 19 26 30 76 49 50 60
REMARK Flexibility Score: inf
ROOT
ATOM      1  C   UNL A   1      39.661  23.441  26.399  1.00  0.00     0.002 C 
ENDROOT
BRANCH   1   2
ATOM      2  C   UNL A   1      38.272  24.078  26.521  1.00  0.00     0.021 C 
BRANCH   2   3
ATOM      3  C   UNL A   1      37.103  23.299  25.928  1.00  0.00     0.116 C 
BRANCH   3   4
ATOM      4  N   UNL A   1      37.186  23.215  24.485  1.00  0.00    -0.356 N 
ATOM      5  C   UNL A   1      36.259  23.113  23.505  1.00  0.00     0.227 C 
ATOM      6  O   UNL A   1      36.706  23.007  22.355  1.00  0.00    -0.275 OA
ATOM      7  H   UNL A   1      38.111  23.238  24.146  1.00  0.00     0.163 HD
BRANCH   5   8
ATOM      8  C   UNL A   1      34.762  23.222  23.703  1.00  0.00     0.129 C 
ATOM      9  C   UNL A   1      33.828  22.072  24.117  1.00  0.00     0.127 C 
ATOM     10  C   UNL A   1      32.538  22.909  24.256  1.00  0.00     0.186 C 
ATOM     11  O   UNL A   1      32.918  24.145  24.878  1.00  0.00    -0.378 OA
ATOM     12  C   UNL A   1      34.249  24.450  24.432  1.00  0.00     0.176 C 
BRANCH   9  13
ATOM     13  N   UNL A   1      34.196  21.186  25.271  1.00  0.00    -0.319 N 
BRANCH  13  14
ATOM     14  C   UNL A   1      33.392  21.264  26.477  1.00  0.00     0.118 C 
ATOM     15  C   UNL A   1      34.006  22.139  27.553  1.00  0.00     0.027 C 
ENDBRANCH  13  14
BRANCH  13  16
ATOM     16  C   UNL A   1      34.931  20.080  24.963  1.00  0.00     0.318 C 
ATOM     17  O   UNL A   1      36.167  20.114  25.023  1.00  0.00    -0.249 OA
ATOM     18  N   UNL A   1      34.474  18.893  24.556  1.00  0.00    -0.333 N 
ATOM     19  H   UNL A   1      35.288  18.389  24.330  1.00  0.00     0.165 HD
BRANCH  18  20
ATOM     20  C   UNL A   1      33.370  17.938  24.267  1.00  0.00     0.112 C 
ATOM     21  C   UNL A   1      32.473  17.264  25.284  1.00  0.00     0.056 C 
ATOM     22  C   UNL A   1      33.942  16.690  23.560  1.00  0.00     0.185 C 
ATOM     23  C   UNL A   1      33.240  16.031  25.673  1.00  0.00     0.162 C 
ATOM     24  O   UNL A   1      33.855  15.576  24.469  1.00  0.00    -0.379 OA
ENDBRANCH  18  20
ENDBRANCH  13  16
ENDBRANCH   9  13
ENDBRANCH   5   8
ENDBRANCH   3   4
ENDBRANCH   2   3
ENDBRANCH   1   2
BRANCH   1  25
ATOM     25  C   UNL A   1      39.817  22.044  27.009  1.00  0.00     0.002 C 
BRANCH  25  26
ATOM     26  C   UNL A   1      40.156  20.905  26.040  1.00  0.00     0.021 C 
BRANCH  26  27
ATOM     27  C   UNL A   1      41.168  19.874  26.539  1.00  0.00     0.116 C 
BRANCH  27  28
ATOM     28  N   UNL A   1      42.342  19.739  25.698  1.00  0.00    -0.352 N 
ATOM     29  C   UNL A   1      43.330  20.660  25.438  1.00  0.00     0.251 C 
ATOM     30  H   UNL A   1      42.447  18.868  25.252  1.00  0.00     0.163 HD
ATOM     31  O   UNL A   1      44.266  20.371  24.702  1.00  0.00    -0.269 OA
BRANCH  29  32
ATOM     32  C   UNL A   1      43.241  22.034  25.990  1.00  0.00     0.039 A 
ATOM     33  C   UNL A   1      43.341  22.184  27.377  1.00  0.00     0.014 A 
ATOM     34  C   UNL A   1      43.060  23.158  25.178  1.00  0.00     0.014 A 
ATOM     35  C   UNL A   1      43.337  23.461  27.944  1.00  0.00     0.010 A 
ATOM     36  C   UNL A   1      43.088  24.440  25.744  1.00  0.00     0.010 A 
ATOM     37  C   UNL A   1      43.247  24.604  27.130  1.00  0.00    -0.014 A 
BRANCH  37  38
ATOM     38  C   UNL A   1      43.405  25.955  27.732  1.00  0.00     0.031 A 
ATOM     39  C   UNL A   1      44.758  26.566  27.948  1.00  0.00     0.074 A 
ATOM     40  C   UNL A   1      42.302  26.640  28.094  1.00  0.00     0.049 A 
ATOM     41  N   UNL A   1      45.061  27.752  28.415  1.00  0.00    -0.248 NA
ATOM     42  C   UNL A   1      45.923  25.738  27.607  1.00  0.00     0.031 C 
ATOM     43  C   UNL A   1      40.927  26.151  27.970  1.00  0.00     0.029 A 
ATOM     44  N   UNL A   1      42.160  27.894  28.636  1.00  0.00    -0.354 N 
ATOM     45  C   UNL A   1      46.448  27.819  28.416  1.00  0.00     0.074 A 
ATOM     46  C   UNL A   1      46.928  26.535  27.943  1.00  0.00     0.031 C 
ATOM     47  C   UNL A   1      40.083  27.100  28.402  1.00  0.00     0.029 A 
ATOM     48  C   UNL A   1      40.853  28.255  28.856  1.00  0.00     0.049 A 
ATOM     49  H   UNL A   1      42.923  28.479  28.846  1.00  0.00     0.167 HD
ATOM     50  C   UNL A   1      47.247  28.858  28.759  1.00  0.00     0.037 A 
ATOM     51  C   UNL A   1      40.330  29.386  29.366  1.00  0.00     0.037 A 
ATOM     52  C   UNL A   1      46.775  30.138  29.227  1.00  0.00     0.049 A 
ATOM     53  C   UNL A   1      41.240  30.513  29.767  1.00  0.00     0.074 A 
ATOM     54  C   UNL A   1      47.513  31.267  29.540  1.00  0.00     0.029 A 
ATOM     55  N   UNL A   1      45.446  30.457  29.457  1.00  0.00    -0.354 N 
ATOM     56  N   UNL A   1      42.545  30.588  29.687  1.00  0.00    -0.248 NA
ATOM     57  C   UNL A   1      40.602  31.714  30.325  1.00  0.00     0.031 C 
ATOM     58  C   UNL A   1      46.636  32.253  30.006  1.00  0.00     0.029 A 
ATOM     59  C   UNL A   1      45.346  31.753  29.941  1.00  0.00     0.049 A 
ATOM     60  H   UNL A   1      44.684  29.853  29.301  1.00  0.00     0.167 HD
ATOM     61  C   UNL A   1      42.883  31.849  30.163  1.00  0.00     0.074 A 
ATOM     62  C   UNL A   1      41.644  32.511  30.514  1.00  0.00     0.031 C 
ATOM     63  C   UNL A   1      44.111  32.405  30.295  1.00  0.00     0.037 A 
BRANCH  50  64
ATOM     64  C   UNL A   1      48.729  28.660  28.643  1.00  0.00     0.057 A 
ATOM     65  C   UNL A   1      49.428  29.011  27.481  1.00  0.00     0.134 A 
ATOM     66  C   UNL A   1      49.475  28.172  29.723  1.00  0.00     0.134 A 
ATOM     67  F   UNL A   1      48.772  29.480  26.409  1.00  0.00    -0.206 F 
ATOM     68  C   UNL A   1      50.813  28.863  27.390  1.00  0.00     0.040 A 
ATOM     69  C   UNL A   1      50.863  28.041  29.653  1.00  0.00     0.040 A 
ATOM     70  F   UNL A   1      48.868  27.828  30.870  1.00  0.00    -0.206 F 
ATOM     71  C   UNL A   1      51.535  28.383  28.481  1.00  0.00     0.006 A 
ENDBRANCH  50  64
BRANCH  51  72
ATOM     72  C   UNL A   1      38.860  29.519  29.513  1.00  0.00     0.057 A 
ATOM     73  C   UNL A   1      38.046  29.808  28.412  1.00  0.00     0.134 A 
ATOM     74  C   UNL A   1      38.236  29.372  30.757  1.00  0.00     0.134 A 
ATOM     75  F   UNL A   1      38.590  29.982  27.198  1.00  0.00    -0.206 F 
ATOM     76  C   UNL A   1      36.665  29.962  28.544  1.00  0.00     0.040 A 
ATOM     77  C   UNL A   1      36.854  29.501  30.901  1.00  0.00     0.040 A 
ATOM     78  F   UNL A   1      38.961  29.092  31.850  1.00  0.00    -0.206 F 
ATOM     79  C   UNL A   1      36.065  29.803  29.792  1.00  0.00     0.006 A 
ENDBRANCH  51  72
BRANCH  63  80
ATOM     80  C   UNL A   1      44.176  33.805  30.831  1.00  0.00     0.057 A 
ATOM     81  C   UNL A   1      44.096  34.922  29.988  1.00  0.00     0.134 A 
ATOM     82  C   UNL A   1      44.296  34.042  32.206  1.00  0.00     0.134 A 
ATOM     83  F   UNL A   1      43.996  34.764  28.660  1.00  0.00    -0.206 F 
ATOM     84  C   UNL A   1      44.151  36.223  30.492  1.00  0.00     0.040 A 
ATOM     85  C   UNL A   1      44.329  35.337  32.725  1.00  0.00     0.040 A 
ATOM     86  F   UNL A   1      44.373  33.017  33.069  1.00  0.00    -0.206 F 
ATOM     87  C   UNL A   1      44.262  36.432  31.866  1.00  0.00     0.006 A 
ENDBRANCH  63  80
ENDBRANCH  37  38
ENDBRANCH  29  32
ENDBRANCH  27  28
ENDBRANCH  26  27
ENDBRANCH  25  26
ENDBRANCH   1  25
TORSDOF 17
ENDMDL
MODEL 3
REMARK VINA RESULT:     -11.1      1.511      2.141
REMARK SMILES CCN(C(=O)N[C@@H]1CCOC1)[C@H]1COC[C@H]1C(=O)NCCCCCCNC(=O)c1ccc(-c2c3nc(c(-c4c(F)cccc4F)c4ccc([nH]4)c(-c4c(F)cccc4F)c4nc(c(-c5c(F)cccc5F)c5ccc2[nH]5)C=C4)C=C3)cc1
REMARK SMILES IDX 22 1 21 2 20 3 19 4 17 5 18 6 16 8 12 9 13 10 14 11 15 12
REMARK SMILES IDX 3 13 2 14 1 15 4 16 5 17 6 18 7 20 8 21 11 22 9 23 10 24
REMARK SMILES IDX 23 25 24 26 25 27 26 28 27 29 28 31 29 32 30 33 82 34 31 35
REMARK SMILES IDX 81 36 32 37 33 38 34 39 75 40 35 41 80 42 74 43 76 44 36 45
REMARK SMILES IDX 79 46 73 47 72 48 37 50 63 51 46 52 62 53 47 54 50 55 61 56
REMARK SMILES IDX 77 57 48 58 49 59 60 61 78 62 51 63 38 64 39 65 44 66 40 67
REMARK SMILES IDX 41 68 43 69 45 70 42 71 64 72 65 73 70 74 66 75 67 76 69 77
REMARK SMILES IDX 71 78 68 79 52 80 53 81 58 82 54 83 55 84 57 85 59 86 56 87
REMARK H PARENT 19 7 6 19 26 30 76 49 50 60
REMARK Flexibility Score: inf
ROOT
ATOM      1  C   UNL A   1      32.245  29.765  27.185  1.00  0.00     0.002 C 
ENDROOT
BRANCH   1   2
ATOM      2  C   UNL A   1      31.406  28.542  27.572  1.00  0.00     0.021 C 
BRANCH   2   3
ATOM      3  C   UNL A   1      31.986  27.174  27.230  1.00  0.00     0.116 C 
BRANCH   3   4
ATOM      4  N   UNL A   1      31.041  26.354  26.501  1.00  0.00    -0.356 N 
ATOM      5  C   UNL A   1      30.453  26.469  25.288  1.00  0.00     0.227 C 
ATOM      6  O   UNL A   1      29.634  25.585  25.005  1.00  0.00    -0.275 OA
ATOM      7  H   UNL A   1      30.770  25.544  26.991  1.00  0.00     0.163 HD
BRANCH   5   8
ATOM      8  C   UNL A   1      30.796  27.512  24.245  1.00  0.00     0.129 C 
ATOM      9  C   UNL A   1      32.179  27.717  23.606  1.00  0.00     0.127 C 
ATOM     10  C   UNL A   1      31.764  28.799  22.585  1.00  0.00     0.186 C 
ATOM     11  O   UNL A   1      30.486  28.403  22.068  1.00  0.00    -0.378 OA
ATOM     12  C   UNL A   1      29.791  27.729  23.129  1.00  0.00     0.176 C 
BRANCH   9  13
ATOM     13  N   UNL A   1      32.943  26.537  23.079  1.00  0.00    -0.319 N 
BRANCH  13  14
ATOM     14  C   UNL A   1      33.278  26.515  21.667  1.00  0.00     0.118 C 
ATOM     15  C   UNL A   1      32.402  25.578  20.857  1.00  0.00     0.027 C 
ENDBRANCH  13  14
BRANCH  13  16
ATOM     16  C   UNL A   1      33.652  25.826  24.001  1.00  0.00     0.318 C 
ATOM     17  O   UNL A   1      34.028  26.363  25.051  1.00  0.00    -0.249 OA
ATOM     18  N   UNL A   1      34.043  24.553  23.913  1.00  0.00    -0.333 N 
ATOM     19  H   UNL A   1      34.615  24.424  24.704  1.00  0.00     0.165 HD
BRANCH  18  20
ATOM     20  C   UNL A   1      34.063  23.227  23.237  1.00  0.00     0.112 C 
ATOM     21  C   UNL A   1      32.860  22.380  22.880  1.00  0.00     0.056 C 
ATOM     22  C   UNL A   1      34.839  22.217  24.110  1.00  0.00     0.185 C 
ATOM     23  C   UNL A   1      32.608  21.577  24.126  1.00  0.00     0.162 C 
ATOM     24  O   UNL A   1      33.902  21.259  24.636  1.00  0.00    -0.379 OA
ENDBRANCH  18  20
ENDBRANCH  13  16
ENDBRANCH   9  13
ENDBRANCH   5   8
ENDBRANCH   3   4
ENDBRANCH   2   3
ENDBRANCH   1   2
BRANCH   1  25
ATOM     25  C   UNL A   1      31.649  30.678  26.108  1.00  0.00     0.002 C 
BRANCH  25  26
ATOM     26  C   UNL A   1      31.403  32.139  26.503  1.00  0.00     0.021 C 
BRANCH  26  27
ATOM     27  C   UNL A   1      32.552  32.846  27.223  1.00  0.00     0.116 C 
BRANCH  27  28
ATOM     28  N   UNL A   1      32.247  34.201  27.639  1.00  0.00    -0.352 N 
ATOM     29  C   UNL A   1      32.927  35.008  28.522  1.00  0.00     0.251 C 
ATOM     30  H   UNL A   1      31.442  34.598  27.235  1.00  0.00     0.163 HD
ATOM     31  O   UNL A   1      32.529  36.144  28.752  1.00  0.00    -0.269 OA
BRANCH  29  32
ATOM     32  C   UNL A   1      34.110  34.493  29.253  1.00  0.00     0.039 A 
ATOM     33  C   UNL A   1      33.895  33.907  30.505  1.00  0.00     0.014 A 
ATOM     34  C   UNL A   1      35.407  34.581  28.738  1.00  0.00     0.014 A 
ATOM     35  C   UNL A   1      34.963  33.341  31.205  1.00  0.00     0.010 A 
ATOM     36  C   UNL A   1      36.473  33.985  29.425  1.00  0.00     0.010 A 
ATOM     37  C   UNL A   1      36.257  33.342  30.655  1.00  0.00    -0.014 A 
BRANCH  37  38
ATOM     38  C   UNL A   1      37.350  32.598  31.336  1.00  0.00     0.031 A 
ATOM     39  C   UNL A   1      38.039  31.437  30.678  1.00  0.00     0.074 A 
ATOM     40  C   UNL A   1      37.724  32.975  32.575  1.00  0.00     0.049 A 
ATOM     41  N   UNL A   1      39.041  30.717  31.118  1.00  0.00    -0.248 NA
ATOM     42  C   UNL A   1      37.533  31.025  29.362  1.00  0.00     0.031 C 
ATOM     43  C   UNL A   1      37.117  34.064  33.343  1.00  0.00     0.029 A 
ATOM     44  N   UNL A   1      38.705  32.490  33.405  1.00  0.00    -0.354 N 
ATOM     45  C   UNL A   1      39.294  29.773  30.133  1.00  0.00     0.074 A 
ATOM     46  C   UNL A   1      38.310  29.985  29.090  1.00  0.00     0.031 C 
ATOM     47  C   UNL A   1      37.751  34.177  34.520  1.00  0.00     0.029 A 
ATOM     48  C   UNL A   1      38.792  33.156  34.604  1.00  0.00     0.049 A 
ATOM     49  H   UNL A   1      39.289  31.736  33.164  1.00  0.00     0.167 HD
ATOM     50  C   UNL A   1      40.267  28.830  30.091  1.00  0.00     0.037 A 
ATOM     51  C   UNL A   1      39.615  32.970  35.653  1.00  0.00     0.037 A 
ATOM     52  C   UNL A   1      41.250  28.617  31.124  1.00  0.00     0.049 A 
ATOM     53  C   UNL A   1      40.666  31.897  35.593  1.00  0.00     0.074 A 
ATOM     54  C   UNL A   1      42.308  27.723  31.136  1.00  0.00     0.029 A 
ATOM     55  N   UNL A   1      41.292  29.298  32.331  1.00  0.00    -0.354 N 
ATOM     56  N   UNL A   1      40.942  31.065  34.619  1.00  0.00    -0.248 NA
ATOM     57  C   UNL A   1      41.523  31.743  36.777  1.00  0.00     0.031 C 
ATOM     58  C   UNL A   1      42.960  27.829  32.370  1.00  0.00     0.029 A 
ATOM     59  C   UNL A   1      42.336  28.820  33.109  1.00  0.00     0.049 A 
ATOM     60  H   UNL A   1      40.671  30.014  32.597  1.00  0.00     0.167 HD
ATOM     61  C   UNL A   1      42.015  30.304  35.064  1.00  0.00     0.074 A 
ATOM     62  C   UNL A   1      42.352  30.784  36.387  1.00  0.00     0.031 C 
ATOM     63  C   UNL A   1      42.663  29.297  34.428  1.00  0.00     0.037 A 
BRANCH  50  64
ATOM     64  C   UNL A   1      40.322  27.945  28.881  1.00  0.00     0.057 A 
ATOM     65  C   UNL A   1      41.093  28.282  27.760  1.00  0.00     0.134 A 
ATOM     66  C   UNL A   1      39.649  26.718  28.858  1.00  0.00     0.134 A 
ATOM     67  F   UNL A   1      41.757  29.446  27.717  1.00  0.00    -0.206 F 
ATOM     68  C   UNL A   1      41.174  27.437  26.652  1.00  0.00     0.040 A 
ATOM     69  C   UNL A   1      39.741  25.855  27.764  1.00  0.00     0.040 A 
ATOM     70  F   UNL A   1      38.903  26.330  29.904  1.00  0.00    -0.206 F 
ATOM     71  C   UNL A   1      40.503  26.216  26.655  1.00  0.00     0.006 A 
ENDBRANCH  50  64
BRANCH  51  72
ATOM     72  C   UNL A   1      39.490  33.834  36.852  1.00  0.00     0.057 A 
ATOM     73  C   UNL A   1      40.142  35.069  36.924  1.00  0.00     0.134 A 
ATOM     74  C   UNL A   1      38.727  33.439  37.957  1.00  0.00     0.134 A 
ATOM     75  F   UNL A   1      40.906  35.490  35.905  1.00  0.00    -0.206 F 
ATOM     76  C   UNL A   1      40.054  35.877  38.059  1.00  0.00     0.040 A 
ATOM     77  C   UNL A   1      38.610  34.247  39.089  1.00  0.00     0.040 A 
ATOM     78  F   UNL A   1      38.076  32.267  37.947  1.00  0.00    -0.206 F 
ATOM     79  C   UNL A   1      39.280  35.467  39.144  1.00  0.00     0.006 A 
ENDBRANCH  51  72
BRANCH  63  80
ATOM     80  C   UNL A   1      43.810  28.655  35.151  1.00  0.00     0.057 A 
ATOM     81  C   UNL A   1      43.627  27.540  35.981  1.00  0.00     0.134 A 
ATOM     82  C   UNL A   1      45.115  29.139  34.999  1.00  0.00     0.134 A 
ATOM     83  F   UNL A   1      42.400  27.036  36.181  1.00  0.00    -0.206 F 
ATOM     84  C   UNL A   1      44.698  26.942  36.647  1.00  0.00     0.040 A 
ATOM     85  C   UNL A   1      46.198  28.536  35.642  1.00  0.00     0.040 A 
ATOM     86  F   UNL A   1      45.360  30.200  34.216  1.00  0.00    -0.206 F 
ATOM     87  C   UNL A   1      45.990  27.438  36.473  1.00  0.00     0.006 A 
ENDBRANCH  63  80
ENDBRANCH  37  38
ENDBRANCH  29  32
ENDBRANCH  27  28
ENDBRANCH  26  27
ENDBRANCH  25  26
ENDBRANCH   1  25
TORSDOF 17
ENDMDL
