MODEL 1
REMARK VINA RESULT:     -12.3      0.000      0.000
REMARK SMILES O=C(COc1ccc(Br)cc1/C=C1\C(=O)Nc2ccc(Br)cc21)NCCCCCCNC(=O)c1ccc(-c2c3nc(c(-c4c(F)cccc4F)c4ccc([nH]4)c(-c4c(F)cccc4F)c4nc(c(-c5c(F)cccc5F)c5ccc2[nH]5)C=C4)C=C3)cc1
REMARK SMILES IDX 27 1 26 2 25 3 24 4 1 5 2 6 3 8 4 9 5 10 6 11 11 12 7 13
REMARK SMILES IDX 10 14 8 15 9 16 12 17 13 18 14 19 23 20 15 21 16 22 17 23
REMARK SMILES IDX 22 24 18 26 20 27 19 28 21 29 28 30 29 31 30 32 31 33 32 34
REMARK SMILES IDX 33 36 34 37 35 38 87 39 36 40 86 41 37 42 38 43 39 44 80 45
REMARK SMILES IDX 40 46 85 47 79 48 81 49 41 50 84 51 78 52 77 53 42 55 68 56
REMARK SMILES IDX 51 57 67 58 52 59 55 60 66 61 82 62 53 63 54 64 65 66 83 67
REMARK SMILES IDX 56 68 43 69 44 70 49 71 45 72 46 73 48 74 50 75 47 76 69 77
REMARK SMILES IDX 70 78 75 79 71 80 72 81 74 82 76 83 73 84 57 85 58 86 63 87
REMARK SMILES IDX 59 88 60 89 62 90 64 91 61 92
REMARK H PARENT 24 7 16 25 31 35 81 54 55 65
REMARK Flexibility Score: inf
ROOT
ATOM      1  C   UNL A   1      36.835  22.338  25.469  1.00  0.00     0.002 C 
ENDROOT
BRANCH   1   2
ATOM      2  C   UNL A   1      36.515  23.700  24.846  1.00  0.00     0.021 C 
BRANCH   2   3
ATOM      3  C   UNL A   1      35.320  24.431  25.451  1.00  0.00     0.116 C 
BRANCH   3   4
ATOM      4  N   UNL A   1      34.596  25.283  24.518  1.00  0.00    -0.353 N 
ATOM      5  O   UNL A   1      33.547  26.553  26.118  1.00  0.00    -0.271 OA
ATOM      6  C   UNL A   1      33.877  26.386  24.946  1.00  0.00     0.257 C 
ATOM      7  H   UNL A   1      34.617  25.068  23.557  1.00  0.00     0.163 HD
BRANCH   6   8
ATOM      8  C   UNL A   1      33.550  27.430  23.848  1.00  0.00     0.329 C 
BRANCH   8   9
ATOM      9  O   UNL A   1      32.714  27.088  22.733  1.00  0.00    -0.483 OA
BRANCH   9  10
ATOM     10  C   UNL A   1      31.371  27.347  22.925  1.00  0.00     0.127 A 
ATOM     11  C   UNL A   1      30.890  28.635  22.613  1.00  0.00     0.048 A 
ATOM     12  C   UNL A   1      30.468  26.328  23.326  1.00  0.00     0.018 A 
ATOM     13  C   UNL A   1      29.561  28.993  22.787  1.00  0.00     0.019 A 
ATOM     14  C   UNL A   1      29.124  26.728  23.441  1.00  0.00     0.027 A 
ATOM     15  C   UNL A   1      28.679  28.032  23.213  1.00  0.00     0.018 A 
ATOM     16  Br  UNL A   1      26.858  28.469  23.473  1.00  0.00    -0.051 Br
BRANCH  12  17
ATOM     17  C   UNL A   1      30.896  24.919  23.655  1.00  0.00     0.026 C 
ATOM     18  C   UNL A   1      30.922  24.260  24.842  1.00  0.00     0.050 C 
ATOM     19  C   UNL A   1      30.519  24.762  26.214  1.00  0.00     0.256 C 
ATOM     20  C   UNL A   1      31.754  23.070  25.144  1.00  0.00     0.012 A 
ATOM     21  O   UNL A   1      29.479  25.262  26.583  1.00  0.00    -0.269 OA
ATOM     22  N   UNL A   1      31.514  24.313  27.059  1.00  0.00    -0.321 N 
ATOM     23  C   UNL A   1      32.204  23.269  26.462  1.00  0.00     0.049 A 
ATOM     24  C   UNL A   1      32.016  21.862  24.523  1.00  0.00     0.026 A 
ATOM     25  H   UNL A   1      31.704  24.679  27.953  1.00  0.00     0.170 HD
ATOM     26  C   UNL A   1      33.044  22.405  27.133  1.00  0.00     0.028 A 
ATOM     27  C   UNL A   1      32.791  20.924  25.230  1.00  0.00     0.018 A 
ATOM     28  C   UNL A   1      33.342  21.208  26.495  1.00  0.00     0.018 A 
ATOM     29  Br  UNL A   1      33.031  19.182  24.523  1.00  0.00    -0.051 Br
ENDBRANCH  12  17
ENDBRANCH   9  10
ENDBRANCH   8   9
ENDBRANCH   6   8
ENDBRANCH   3   4
ENDBRANCH   2   3
ENDBRANCH   1   2
BRANCH   1  30
ATOM     30  C   UNL A   1      37.094  21.192  24.487  1.00  0.00     0.002 C 
BRANCH  30  31
ATOM     31  C   UNL A   1      37.862  19.991  25.044  1.00  0.00     0.021 C 
BRANCH  31  32
ATOM     32  C   UNL A   1      39.167  20.315  25.765  1.00  0.00     0.116 C 
BRANCH  32  33
ATOM     33  N   UNL A   1      40.106  19.202  25.794  1.00  0.00    -0.352 N 
ATOM     34  C   UNL A   1      41.452  19.196  26.084  1.00  0.00     0.251 C 
ATOM     35  H   UNL A   1      39.721  18.323  25.574  1.00  0.00     0.163 HD
ATOM     36  O   UNL A   1      42.109  18.167  25.958  1.00  0.00    -0.269 OA
BRANCH  34  37
ATOM     37  C   UNL A   1      42.120  20.448  26.505  1.00  0.00     0.039 A 
ATOM     38  C   UNL A   1      42.158  20.821  27.849  1.00  0.00     0.014 A 
ATOM     39  C   UNL A   1      42.679  21.281  25.530  1.00  0.00     0.014 A 
ATOM     40  C   UNL A   1      42.576  22.102  28.197  1.00  0.00     0.010 A 
ATOM     41  C   UNL A   1      43.174  22.538  25.893  1.00  0.00     0.010 A 
ATOM     42  C   UNL A   1      43.066  22.985  27.219  1.00  0.00    -0.014 A 
BRANCH  42  43
ATOM     43  C   UNL A   1      43.409  24.380  27.600  1.00  0.00     0.031 A 
ATOM     44  C   UNL A   1      44.833  24.868  27.514  1.00  0.00     0.074 A 
ATOM     45  C   UNL A   1      42.432  25.234  27.959  1.00  0.00     0.049 A 
ATOM     46  N   UNL A   1      45.319  26.056  27.780  1.00  0.00    -0.248 NA
ATOM     47  C   UNL A   1      45.846  23.895  27.074  1.00  0.00     0.031 C 
ATOM     48  C   UNL A   1      41.012  24.894  28.067  1.00  0.00     0.029 A 
ATOM     49  N   UNL A   1      42.481  26.567  28.278  1.00  0.00    -0.354 N 
ATOM     50  C   UNL A   1      46.689  25.968  27.558  1.00  0.00     0.074 A 
ATOM     51  C   UNL A   1      46.964  24.602  27.165  1.00  0.00     0.031 C 
ATOM     52  C   UNL A   1      40.320  25.999  28.383  1.00  0.00     0.029 A 
ATOM     53  C   UNL A   1      41.250  27.110  28.553  1.00  0.00     0.049 A 
ATOM     54  H   UNL A   1      43.318  27.085  28.307  1.00  0.00     0.167 HD
ATOM     55  C   UNL A   1      47.631  26.937  27.656  1.00  0.00     0.037 A 
ATOM     56  C   UNL A   1      40.909  28.361  28.916  1.00  0.00     0.037 A 
ATOM     57  C   UNL A   1      47.360  28.302  28.027  1.00  0.00     0.049 A 
ATOM     58  C   UNL A   1      41.980  29.402  29.068  1.00  0.00     0.074 A 
ATOM     59  C   UNL A   1      48.246  29.361  28.130  1.00  0.00     0.029 A 
ATOM     60  N   UNL A   1      46.107  28.796  28.354  1.00  0.00    -0.354 N 
ATOM     61  N   UNL A   1      43.267  29.304  28.842  1.00  0.00    -0.248 NA
ATOM     62  C   UNL A   1      41.548  30.727  29.534  1.00  0.00     0.031 C 
ATOM     63  C   UNL A   1      47.534  30.488  28.558  1.00  0.00     0.029 A 
ATOM     64  C   UNL A   1      46.199  30.140  28.682  1.00  0.00     0.049 A 
ATOM     65  H   UNL A   1      45.275  28.271  28.355  1.00  0.00     0.167 HD
ATOM     66  C   UNL A   1      43.798  30.556  29.127  1.00  0.00     0.074 A 
ATOM     67  C   UNL A   1      42.689  31.401  29.519  1.00  0.00     0.031 C 
ATOM     68  C   UNL A   1      45.088  30.966  29.075  1.00  0.00     0.037 A 
BRANCH  55  69
ATOM     69  C   UNL A   1      49.053  26.548  27.372  1.00  0.00     0.057 A 
ATOM     70  C   UNL A   1      49.593  26.702  26.089  1.00  0.00     0.134 A 
ATOM     71  C   UNL A   1      49.880  25.994  28.358  1.00  0.00     0.134 A 
ATOM     72  F   UNL A   1      48.854  27.221  25.097  1.00  0.00    -0.206 F 
ATOM     73  C   UNL A   1      50.904  26.321  25.796  1.00  0.00     0.040 A 
ATOM     74  C   UNL A   1      51.201  25.630  28.084  1.00  0.00     0.040 A 
ATOM     75  F   UNL A   1      49.429  25.832  29.611  1.00  0.00    -0.206 F 
ATOM     76  C   UNL A   1      51.713  25.789  26.798  1.00  0.00     0.006 A 
ENDBRANCH  55  69
BRANCH  56  77
ATOM     77  C   UNL A   1      39.488  28.696  29.176  1.00  0.00     0.057 A 
ATOM     78  C   UNL A   1      38.922  28.533  30.446  1.00  0.00     0.134 A 
ATOM     79  C   UNL A   1      38.666  29.200  28.162  1.00  0.00     0.134 A 
ATOM     80  F   UNL A   1      39.658  28.051  31.459  1.00  0.00    -0.206 F 
ATOM     81  C   UNL A   1      37.588  28.852  30.697  1.00  0.00     0.040 A 
ATOM     82  C   UNL A   1      37.337  29.548  28.406  1.00  0.00     0.040 A 
ATOM     83  F   UNL A   1      39.158  29.398  26.930  1.00  0.00    -0.206 F 
ATOM     84  C   UNL A   1      36.793  29.369  29.676  1.00  0.00     0.006 A 
ENDBRANCH  56  77
BRANCH  68  85
ATOM     85  C   UNL A   1      45.357  32.397  29.433  1.00  0.00     0.057 A 
ATOM     86  C   UNL A   1      45.300  33.402  28.459  1.00  0.00     0.134 A 
ATOM     87  C   UNL A   1      45.682  32.779  30.741  1.00  0.00     0.134 A 
ATOM     88  F   UNL A   1      45.001  33.100  27.186  1.00  0.00    -0.206 F 
ATOM     89  C   UNL A   1      45.554  34.737  28.774  1.00  0.00     0.040 A 
ATOM     90  C   UNL A   1      45.913  34.115  31.073  1.00  0.00     0.040 A 
ATOM     91  F   UNL A   1      45.736  31.866  31.722  1.00  0.00    -0.206 F 
ATOM     92  C   UNL A   1      45.854  35.098  30.087  1.00  0.00     0.006 A 
ENDBRANCH  68  85
ENDBRANCH  42  43
ENDBRANCH  34  37
ENDBRANCH  32  33
ENDBRANCH  31  32
ENDBRANCH  30  31
ENDBRANCH   1  30
TORSDOF 16
ENDMDL
MODEL 2
REMARK VINA RESULT:     -12.1      5.799     10.605
REMARK SMILES O=C(COc1ccc(Br)cc1/C=C1\C(=O)Nc2ccc(Br)cc21)NCCCCCCNC(=O)c1ccc(-c2c3nc(c(-c4c(F)cccc4F)c4ccc([nH]4)c(-c4c(F)cccc4F)c4nc(c(-c5c(F)cccc5F)c5ccc2[nH]5)C=C4)C=C3)cc1
REMARK SMILES IDX 27 1 26 2 25 3 24 4 1 5 2 6 3 8 4 9 5 10 6 11 11 12 7 13
REMARK SMILES IDX 10 14 8 15 9 16 12 17 13 18 14 19 23 20 15 21 16 22 17 23
REMARK SMILES IDX 22 24 18 26 20 27 19 28 21 29 28 30 29 31 30 32 31 33 32 34
REMARK SMILES IDX 33 36 34 37 35 38 87 39 36 40 86 41 37 42 38 43 39 44 80 45
REMARK SMILES IDX 40 46 85 47 79 48 81 49 41 50 84 51 78 52 77 53 42 55 68 56
REMARK SMILES IDX 51 57 67 58 52 59 55 60 66 61 82 62 53 63 54 64 65 66 83 67
REMARK SMILES IDX 56 68 43 69 44 70 49 71 45 72 46 73 48 74 50 75 47 76 69 77
REMARK SMILES IDX 70 78 75 79 71 80 72 81 74 82 76 83 73 84 57 85 58 86 63 87
REMARK SMILES IDX 59 88 60 89 62 90 64 91 61 92
REMARK H PARENT 24 7 16 25 31 35 81 54 55 65
REMARK Flexibility Score: inf
ROOT
ATOM      1  C   UNL A   1      35.413  32.840  28.149  1.00  0.00     0.002 C 
ENDROOT
BRANCH   1   2
ATOM      2  C   UNL A   1      35.316  31.333  27.892  1.00  0.00     0.021 C 
BRANCH   2   3
ATOM      3  C   UNL A   1      33.933  30.825  27.494  1.00  0.00     0.116 C 
BRANCH   3   4
ATOM      4  N   UNL A   1      33.872  30.201  26.181  1.00  0.00    -0.353 N 
ATOM      5  O   UNL A   1      34.408  28.085  26.896  1.00  0.00    -0.271 OA
ATOM      6  C   UNL A   1      33.970  28.829  26.021  1.00  0.00     0.257 C 
ATOM      7  H   UNL A   1      33.759  30.769  25.384  1.00  0.00     0.163 HD
BRANCH   6   8
ATOM      8  C   UNL A   1      33.447  28.280  24.669  1.00  0.00     0.329 C 
BRANCH   8   9
ATOM      9  O   UNL A   1      33.693  26.921  24.281  1.00  0.00    -0.483 OA
BRANCH   9  10
ATOM     10  C   UNL A   1      32.877  25.994  24.899  1.00  0.00     0.127 A 
ATOM     11  C   UNL A   1      31.482  26.118  24.730  1.00  0.00     0.048 A 
ATOM     12  C   UNL A   1      33.413  24.883  25.601  1.00  0.00     0.018 A 
ATOM     13  C   UNL A   1      30.583  25.243  25.324  1.00  0.00     0.019 A 
ATOM     14  C   UNL A   1      32.462  23.999  26.143  1.00  0.00     0.027 A 
ATOM     15  C   UNL A   1      31.082  24.185  26.041  1.00  0.00     0.018 A 
ATOM     16  Br  UNL A   1      29.899  22.969  26.876  1.00  0.00    -0.051 Br
BRANCH  12  17
ATOM     17  C   UNL A   1      34.892  24.663  25.806  1.00  0.00     0.026 C 
ATOM     18  C   UNL A   1      35.777  23.908  25.107  1.00  0.00     0.050 C 
ATOM     19  C   UNL A   1      35.529  23.045  23.886  1.00  0.00     0.256 C 
ATOM     20  C   UNL A   1      37.071  23.403  25.626  1.00  0.00     0.012 A 
ATOM     21  O   UNL A   1      35.024  23.331  22.823  1.00  0.00    -0.269 OA
ATOM     22  N   UNL A   1      36.225  21.878  24.132  1.00  0.00    -0.321 N 
ATOM     23  C   UNL A   1      37.184  22.098  25.110  1.00  0.00     0.049 A 
ATOM     24  C   UNL A   1      38.147  23.948  26.302  1.00  0.00     0.026 A 
ATOM     25  H   UNL A   1      36.065  21.018  23.680  1.00  0.00     0.170 HD
ATOM     26  C   UNL A   1      38.235  21.247  25.377  1.00  0.00     0.028 A 
ATOM     27  C   UNL A   1      39.273  23.128  26.502  1.00  0.00     0.018 A 
ATOM     28  C   UNL A   1      39.300  21.780  26.091  1.00  0.00     0.018 A 
ATOM     29  Br  UNL A   1      40.850  23.864  27.251  1.00  0.00    -0.051 Br
ENDBRANCH  12  17
ENDBRANCH   9  10
ENDBRANCH   8   9
ENDBRANCH   6   8
ENDBRANCH   3   4
ENDBRANCH   2   3
ENDBRANCH   1   2
BRANCH   1  30
ATOM     30  C   UNL A   1      34.501  33.397  29.246  1.00  0.00     0.002 C 
BRANCH  30  31
ATOM     31  C   UNL A   1      33.465  34.430  28.800  1.00  0.00     0.021 C 
BRANCH  31  32
ATOM     32  C   UNL A   1      33.553  35.794  29.477  1.00  0.00     0.116 C 
BRANCH  32  33
ATOM     33  N   UNL A   1      32.528  36.009  30.489  1.00  0.00    -0.352 N 
ATOM     34  C   UNL A   1      32.526  35.670  31.823  1.00  0.00     0.251 C 
ATOM     35  H   UNL A   1      31.715  36.465  30.171  1.00  0.00     0.163 HD
ATOM     36  O   UNL A   1      31.520  35.842  32.505  1.00  0.00    -0.269 OA
BRANCH  34  37
ATOM     37  C   UNL A   1      33.726  35.050  32.427  1.00  0.00     0.039 A 
ATOM     38  C   UNL A   1      34.929  35.753  32.509  1.00  0.00     0.014 A 
ATOM     39  C   UNL A   1      33.656  33.728  32.878  1.00  0.00     0.014 A 
ATOM     40  C   UNL A   1      36.097  35.081  32.858  1.00  0.00     0.010 A 
ATOM     41  C   UNL A   1      34.817  33.077  33.307  1.00  0.00     0.010 A 
ATOM     42  C   UNL A   1      36.059  33.729  33.237  1.00  0.00    -0.014 A 
BRANCH  42  43
ATOM     43  C   UNL A   1      37.331  33.008  33.506  1.00  0.00     0.031 A 
ATOM     44  C   UNL A   1      38.075  33.226  34.799  1.00  0.00     0.074 A 
ATOM     45  C   UNL A   1      37.787  32.105  32.617  1.00  0.00     0.049 A 
ATOM     46  N   UNL A   1      39.184  32.670  35.219  1.00  0.00    -0.248 NA
ATOM     47  C   UNL A   1      37.499  34.196  35.745  1.00  0.00     0.031 C 
ATOM     48  C   UNL A   1      37.155  31.789  31.336  1.00  0.00     0.029 A 
ATOM     49  N   UNL A   1      38.876  31.272  32.667  1.00  0.00    -0.354 N 
ATOM     50  C   UNL A   1      39.448  33.232  36.463  1.00  0.00     0.074 A 
ATOM     51  C   UNL A   1      38.399  34.198  36.718  1.00  0.00     0.031 C 
ATOM     52  C   UNL A   1      37.839  30.800  30.742  1.00  0.00     0.029 A 
ATOM     53  C   UNL A   1      38.987  30.452  31.571  1.00  0.00     0.049 A 
ATOM     54  H   UNL A   1      39.515  31.263  33.416  1.00  0.00     0.167 HD
ATOM     55  C   UNL A   1      40.460  32.962  37.323  1.00  0.00     0.037 A 
ATOM     56  C   UNL A   1      39.919  29.530  31.262  1.00  0.00     0.037 A 
ATOM     57  C   UNL A   1      41.494  31.989  37.084  1.00  0.00     0.049 A 
ATOM     58  C   UNL A   1      41.058  29.288  32.210  1.00  0.00     0.074 A 
ATOM     59  C   UNL A   1      42.547  31.628  37.906  1.00  0.00     0.029 A 
ATOM     60  N   UNL A   1      41.603  31.220  35.935  1.00  0.00    -0.354 N 
ATOM     61  N   UNL A   1      41.284  29.820  33.385  1.00  0.00    -0.248 NA
ATOM     62  C   UNL A   1      42.077  28.320  31.780  1.00  0.00     0.031 C 
ATOM     63  C   UNL A   1      43.317  30.668  37.238  1.00  0.00     0.029 A 
ATOM     64  C   UNL A   1      42.719  30.403  36.017  1.00  0.00     0.049 A 
ATOM     65  H   UNL A   1      40.980  31.252  35.173  1.00  0.00     0.167 HD
ATOM     66  C   UNL A   1      42.463  29.245  33.842  1.00  0.00     0.074 A 
ATOM     67  C   UNL A   1      42.891  28.305  32.826  1.00  0.00     0.031 C 
ATOM     68  C   UNL A   1      43.135  29.478  34.995  1.00  0.00     0.037 A 
BRANCH  55  69
ATOM     69  C   UNL A   1      40.506  33.746  38.603  1.00  0.00     0.057 A 
ATOM     70  C   UNL A   1      41.346  34.859  38.729  1.00  0.00     0.134 A 
ATOM     71  C   UNL A   1      39.743  33.383  39.721  1.00  0.00     0.134 A 
ATOM     72  F   UNL A   1      42.108  35.257  37.699  1.00  0.00    -0.206 F 
ATOM     73  C   UNL A   1      41.425  35.585  39.919  1.00  0.00     0.040 A 
ATOM     74  C   UNL A   1      39.795  34.114  40.910  1.00  0.00     0.040 A 
ATOM     75  F   UNL A   1      38.907  32.335  39.662  1.00  0.00    -0.206 F 
ATOM     76  C   UNL A   1      40.643  35.216  41.012  1.00  0.00     0.006 A 
ENDBRANCH  55  69
BRANCH  56  77
ATOM     77  C   UNL A   1      39.822  28.776  29.989  1.00  0.00     0.057 A 
ATOM     78  C   UNL A   1      40.437  29.239  28.820  1.00  0.00     0.134 A 
ATOM     79  C   UNL A   1      39.124  27.566  29.916  1.00  0.00     0.134 A 
ATOM     80  F   UNL A   1      41.120  30.394  28.825  1.00  0.00    -0.206 F 
ATOM     81  C   UNL A   1      40.354  28.531  27.622  1.00  0.00     0.040 A 
ATOM     82  C   UNL A   1      39.054  26.834  28.731  1.00  0.00     0.040 A 
ATOM     83  F   UNL A   1      38.532  27.062  31.009  1.00  0.00    -0.206 F 
ATOM     84  C   UNL A   1      39.667  27.320  27.577  1.00  0.00     0.006 A 
ENDBRANCH  56  77
BRANCH  68  85
ATOM     85  C   UNL A   1      44.388  28.687  35.220  1.00  0.00     0.057 A 
ATOM     86  C   UNL A   1      45.630  29.176  34.793  1.00  0.00     0.134 A 
ATOM     87  C   UNL A   1      44.366  27.437  35.853  1.00  0.00     0.134 A 
ATOM     88  F   UNL A   1      45.718  30.364  34.175  1.00  0.00    -0.206 F 
ATOM     89  C   UNL A   1      46.805  28.450  34.989  1.00  0.00     0.040 A 
ATOM     90  C   UNL A   1      45.539  26.713  36.076  1.00  0.00     0.040 A 
ATOM     91  F   UNL A   1      43.211  26.922  36.299  1.00  0.00    -0.206 F 
ATOM     92  C   UNL A   1      46.763  27.218  35.640  1.00  0.00     0.006 A 
ENDBRANCH  68  85
ENDBRANCH  42  43
ENDBRANCH  34  37
ENDBRANCH  32  33
ENDBRANCH  31  32
ENDBRANCH  30  31
ENDBRANCH   1  30
TORSDOF 16
ENDMDL
MODEL 3
REMARK VINA RESULT:     -11.6      5.475     10.026
REMARK SMILES O=C(COc1ccc(Br)cc1/C=C1\C(=O)Nc2ccc(Br)cc21)NCCCCCCNC(=O)c1ccc(-c2c3nc(c(-c4c(F)cccc4F)c4ccc([nH]4)c(-c4c(F)cccc4F)c4nc(c(-c5c(F)cccc5F)c5ccc2[nH]5)C=C4)C=C3)cc1
REMARK SMILES IDX 27 1 26 2 25 3 24 4 1 5 2 6 3 8 4 9 5 10 6 11 11 12 7 13
REMARK SMILES IDX 10 14 8 15 9 16 12 17 13 18 14 19 23 20 15 21 16 22 17 23
REMARK SMILES IDX 22 24 18 26 20 27 19 28 21 29 28 30 29 31 30 32 31 33 32 34
REMARK SMILES IDX 33 36 34 37 35 38 87 39 36 40 86 41 37 42 38 43 39 44 80 45
REMARK SMILES IDX 40 46 85 47 79 48 81 49 41 50 84 51 78 52 77 53 42 55 68 56
REMARK SMILES IDX 51 57 67 58 52 59 55 60 66 61 82 62 53 63 54 64 65 66 83 67
REMARK SMILES IDX 56 68 43 69 44 70 49 71 45 72 46 73 48 74 50 75 47 76 69 77
REMARK SMILES IDX 70 78 75 79 71 80 72 81 74 82 76 83 73 84 57 85 58 86 63 87
REMARK SMILES IDX 59 88 60 89 62 90 64 91 61 92
REMARK H PARENT 24 7 16 25 31 35 81 54 55 65
REMARK Flexibility Score: inf
ROOT
ATOM      1  C   UNL A   1      34.816  31.860  27.683  1.00  0.00     0.002 C 
ENDROOT
BRANCH   1   2
ATOM      2  C   UNL A   1      34.943  30.420  28.191  1.00  0.00     0.021 C 
BRANCH   2   3
ATOM      3  C   UNL A   1      34.063  29.397  27.480  1.00  0.00     0.116 C 
BRANCH   3   4
ATOM      4  N   UNL A   1      34.363  29.218  26.066  1.00  0.00    -0.353 N 
ATOM      5  O   UNL A   1      33.573  27.067  25.923  1.00  0.00    -0.271 OA
ATOM      6  C   UNL A   1      33.944  28.099  25.368  1.00  0.00     0.257 C 
ATOM      7  H   UNL A   1      34.879  29.913  25.594  1.00  0.00     0.163 HD
BRANCH   6   8
ATOM      8  C   UNL A   1      33.931  28.247  23.825  1.00  0.00     0.329 C 
BRANCH   8   9
ATOM      9  O   UNL A   1      33.107  27.400  23.011  1.00  0.00    -0.483 OA
BRANCH   9  10
ATOM     10  C   UNL A   1      31.762  27.712  23.041  1.00  0.00     0.127 A 
ATOM     11  C   UNL A   1      31.379  29.036  22.741  1.00  0.00     0.048 A 
ATOM     12  C   UNL A   1      30.774  26.719  23.265  1.00  0.00     0.018 A 
ATOM     13  C   UNL A   1      30.053  29.447  22.760  1.00  0.00     0.019 A 
ATOM     14  C   UNL A   1      29.443  27.175  23.226  1.00  0.00     0.027 A 
ATOM     15  C   UNL A   1      29.085  28.508  23.014  1.00  0.00     0.018 A 
ATOM     16  Br  UNL A   1      27.265  29.017  23.060  1.00  0.00    -0.051 Br
BRANCH  12  17
ATOM     17  C   UNL A   1      31.097  25.276  23.569  1.00  0.00     0.026 C 
ATOM     18  C   UNL A   1      31.076  24.597  24.744  1.00  0.00     0.050 C 
ATOM     19  C   UNL A   1      30.714  25.104  26.126  1.00  0.00     0.256 C 
ATOM     20  C   UNL A   1      31.820  23.344  25.024  1.00  0.00     0.012 A 
ATOM     21  O   UNL A   1      29.715  25.673  26.506  1.00  0.00    -0.269 OA
ATOM     22  N   UNL A   1      31.675  24.568  26.960  1.00  0.00    -0.321 N 
ATOM     23  C   UNL A   1      32.285  23.486  26.344  1.00  0.00     0.049 A 
ATOM     24  C   UNL A   1      31.991  22.131  24.382  1.00  0.00     0.026 A 
ATOM     25  H   UNL A   1      31.893  24.904  27.860  1.00  0.00     0.170 HD
ATOM     26  C   UNL A   1      33.060  22.552  26.997  1.00  0.00     0.028 A 
ATOM     27  C   UNL A   1      32.696  21.126  25.070  1.00  0.00     0.018 A 
ATOM     28  C   UNL A   1      33.269  21.347  26.339  1.00  0.00     0.018 A 
ATOM     29  Br  UNL A   1      32.806  19.384  24.333  1.00  0.00    -0.051 Br
ENDBRANCH  12  17
ENDBRANCH   9  10
ENDBRANCH   8   9
ENDBRANCH   6   8
ENDBRANCH   3   4
ENDBRANCH   2   3
ENDBRANCH   1   2
BRANCH   1  30
ATOM     30  C   UNL A   1      34.764  32.951  28.757  1.00  0.00     0.002 C 
BRANCH  30  31
ATOM     31  C   UNL A   1      33.539  33.867  28.724  1.00  0.00     0.021 C 
BRANCH  31  32
ATOM     32  C   UNL A   1      33.759  35.287  29.240  1.00  0.00     0.116 C 
BRANCH  32  33
ATOM     33  N   UNL A   1      32.799  35.691  30.257  1.00  0.00    -0.352 N 
ATOM     34  C   UNL A   1      32.831  35.503  31.620  1.00  0.00     0.251 C 
ATOM     35  H   UNL A   1      32.007  36.171  29.920  1.00  0.00     0.163 HD
ATOM     36  O   UNL A   1      31.872  35.827  32.315  1.00  0.00    -0.269 OA
BRANCH  34  37
ATOM     37  C   UNL A   1      34.009  34.863  32.247  1.00  0.00     0.039 A 
ATOM     38  C   UNL A   1      35.182  35.587  32.469  1.00  0.00     0.014 A 
ATOM     39  C   UNL A   1      33.950  33.506  32.578  1.00  0.00     0.014 A 
ATOM     40  C   UNL A   1      36.346  34.916  32.835  1.00  0.00     0.010 A 
ATOM     41  C   UNL A   1      35.102  32.849  33.026  1.00  0.00     0.010 A 
ATOM     42  C   UNL A   1      36.325  33.536  33.095  1.00  0.00    -0.014 A 
BRANCH  42  43
ATOM     43  C   UNL A   1      37.598  32.826  33.384  1.00  0.00     0.031 A 
ATOM     44  C   UNL A   1      38.334  33.072  34.677  1.00  0.00     0.074 A 
ATOM     45  C   UNL A   1      38.064  31.908  32.516  1.00  0.00     0.049 A 
ATOM     46  N   UNL A   1      39.444  32.529  35.114  1.00  0.00    -0.248 NA
ATOM     47  C   UNL A   1      37.749  34.058  35.600  1.00  0.00     0.031 C 
ATOM     48  C   UNL A   1      37.439  31.563  31.237  1.00  0.00     0.029 A 
ATOM     49  N   UNL A   1      39.155  31.080  32.587  1.00  0.00    -0.354 N 
ATOM     50  C   UNL A   1      39.698  33.118  36.348  1.00  0.00     0.074 A 
ATOM     51  C   UNL A   1      38.644  34.083  36.578  1.00  0.00     0.031 C 
ATOM     52  C   UNL A   1      38.132  30.567  30.666  1.00  0.00     0.029 A 
ATOM     53  C   UNL A   1      39.277  30.240  31.509  1.00  0.00     0.049 A 
ATOM     54  H   UNL A   1      39.790  31.089  33.340  1.00  0.00     0.167 HD
ATOM     55  C   UNL A   1      40.706  32.869  37.218  1.00  0.00     0.037 A 
ATOM     56  C   UNL A   1      40.214  29.316  31.223  1.00  0.00     0.037 A 
ATOM     57  C   UNL A   1      41.746  31.896  37.004  1.00  0.00     0.049 A 
ATOM     58  C   UNL A   1      41.349  29.098  32.181  1.00  0.00     0.074 A 
ATOM     59  C   UNL A   1      42.797  31.556  37.838  1.00  0.00     0.029 A 
ATOM     60  N   UNL A   1      41.865  31.106  35.871  1.00  0.00    -0.354 N 
ATOM     61  N   UNL A   1      41.567  29.654  33.347  1.00  0.00    -0.248 NA
ATOM     62  C   UNL A   1      42.375  28.127  31.776  1.00  0.00     0.031 C 
ATOM     63  C   UNL A   1      43.574  30.587  37.193  1.00  0.00     0.029 A 
ATOM     64  C   UNL A   1      42.985  30.295  35.974  1.00  0.00     0.049 A 
ATOM     65  H   UNL A   1      41.247  31.119  35.105  1.00  0.00     0.167 HD
ATOM     66  C   UNL A   1      42.745  29.093  33.821  1.00  0.00     0.074 A 
ATOM     67  C   UNL A   1      43.183  28.136  32.826  1.00  0.00     0.031 C 
ATOM     68  C   UNL A   1      43.410  29.352  34.974  1.00  0.00     0.037 A 
BRANCH  55  69
ATOM     69  C   UNL A   1      40.742  33.678  38.482  1.00  0.00     0.057 A 
ATOM     70  C   UNL A   1      41.587  34.789  38.596  1.00  0.00     0.134 A 
ATOM     71  C   UNL A   1      39.964  33.342  39.598  1.00  0.00     0.134 A 
ATOM     72  F   UNL A   1      42.363  35.162  37.567  1.00  0.00    -0.206 F 
ATOM     73  C   UNL A   1      41.656  35.538  39.772  1.00  0.00     0.040 A 
ATOM     74  C   UNL A   1      40.007  34.096  40.773  1.00  0.00     0.040 A 
ATOM     75  F   UNL A   1      39.124  32.297  39.551  1.00  0.00    -0.206 F 
ATOM     76  C   UNL A   1      40.860  35.196  40.863  1.00  0.00     0.006 A 
ENDBRANCH  55  69
BRANCH  56  77
ATOM     77  C   UNL A   1      40.127  28.537  29.965  1.00  0.00     0.057 A 
ATOM     78  C   UNL A   1      39.371  27.361  29.887  1.00  0.00     0.134 A 
ATOM     79  C   UNL A   1      40.787  28.958  28.805  1.00  0.00     0.134 A 
ATOM     80  F   UNL A   1      38.717  26.903  30.965  1.00  0.00    -0.206 F 
ATOM     81  C   UNL A   1      39.282  26.627  28.705  1.00  0.00     0.040 A 
ATOM     82  C   UNL A   1      40.685  28.248  27.609  1.00  0.00     0.040 A 
ATOM     83  F   UNL A   1      41.509  30.088  28.813  1.00  0.00    -0.206 F 
ATOM     84  C   UNL A   1      39.935  27.075  27.558  1.00  0.00     0.006 A 
ENDBRANCH  56  77
BRANCH  68  85
ATOM     85  C   UNL A   1      44.666  28.571  35.220  1.00  0.00     0.057 A 
ATOM     86  C   UNL A   1      45.906  29.051  34.779  1.00  0.00     0.134 A 
ATOM     87  C   UNL A   1      44.647  27.340  35.888  1.00  0.00     0.134 A 
ATOM     88  F   UNL A   1      45.990  30.221  34.127  1.00  0.00    -0.206 F 
ATOM     89  C   UNL A   1      47.083  28.334  34.995  1.00  0.00     0.040 A 
ATOM     90  C   UNL A   1      45.822  26.627  36.132  1.00  0.00     0.040 A 
ATOM     91  F   UNL A   1      43.494  26.835  36.350  1.00  0.00    -0.206 F 
ATOM     92  C   UNL A   1      47.044  27.122  35.681  1.00  0.00     0.006 A 
ENDBRANCH  68  85
ENDBRANCH  42  43
ENDBRANCH  34  37
ENDBRANCH  32  33
ENDBRANCH  31  32
ENDBRANCH  30  31
ENDBRANCH   1  30
TORSDOF 16
ENDMDL
