MODEL 1
REMARK VINA RESULT:     -12.8      0.000      0.000
REMARK SMILES Cc1cc(C(=O)N[C@@H]2C(=O)N3C(C(=O)NCCCCCCNC(=O)c4ccc(-c5c6nc(c(-c7c(F)cccc7F)c7ccc([nH]7)c(-c7c(F)cccc7F)c7nc(c(-c8c(F)cccc8F)c8ccc5[nH]8)C=C7)C=C6)cc4)=C(CSc4nnc(C)s4)CS[C@H]23)n(C)n1
REMARK SMILES IDX 18 1 17 2 16 3 15 4 13 5 14 6 12 8 8 9 9 10 90 11 10 12
REMARK SMILES IDX 11 13 89 14 88 15 79 16 7 17 5 18 6 19 4 21 1 22 2 23 3 24
REMARK SMILES IDX 93 25 91 26 92 27 80 28 81 29 82 30 83 31 87 32 84 33 85 34
REMARK SMILES IDX 86 35 19 36 20 37 21 38 22 39 23 40 24 42 25 43 26 44 78 45
REMARK SMILES IDX 27 46 77 47 28 48 29 49 30 50 71 51 31 52 76 53 70 54 72 55
REMARK SMILES IDX 32 56 75 57 69 58 68 59 33 61 59 62 42 63 58 64 43 65 46 66
REMARK SMILES IDX 57 67 73 68 44 69 45 70 56 72 74 73 47 74 34 75 35 76 40 77
REMARK SMILES IDX 36 78 37 79 39 80 41 81 38 82 60 83 61 84 66 85 62 86 63 87
REMARK SMILES IDX 65 88 67 89 64 90 48 91 49 92 54 93 50 94 51 95 53 96 55 97
REMARK SMILES IDX 52 98
REMARK H PARENT 15 7 7 20 22 41 72 60 46 71
REMARK Flexibility Score: inf
ROOT
ATOM      1  C   UNL A   1      35.739  21.037  25.185  1.00  0.00     0.002 C 
ENDROOT
BRANCH   1   2
ATOM      2  C   UNL A   1      35.209  22.038  26.203  1.00  0.00     0.021 C 
BRANCH   2   3
ATOM      3  C   UNL A   1      34.415  21.463  27.384  1.00  0.00     0.116 C 
BRANCH   3   4
ATOM      4  N   UNL A   1      33.156  22.163  27.539  1.00  0.00    -0.351 N 
ATOM      5  C   UNL A   1      32.167  22.675  26.773  1.00  0.00     0.268 C 
ATOM      6  O   UNL A   1      31.189  23.010  27.456  1.00  0.00    -0.268 OA
ATOM      7  H   UNL A   1      32.962  22.312  28.493  1.00  0.00     0.163 HD
BRANCH   5   8
ATOM      8  C   UNL A   1      32.048  22.690  25.235  1.00  0.00     0.111 C 
ATOM      9  C   UNL A   1      32.178  25.793  23.724  1.00  0.00     0.206 C 
ATOM     10  C   UNL A   1      32.827  25.059  24.931  1.00  0.00     0.253 C 
ATOM     11  C   UNL A   1      31.622  24.377  23.402  1.00  0.00     0.181 C 
ATOM     12  O   UNL A   1      33.789  25.285  25.642  1.00  0.00    -0.272 OA
ATOM     13  N   UNL A   1      31.983  23.994  24.752  1.00  0.00    -0.290 N 
ATOM     14  S   UNL A   1      32.578  23.361  22.237  1.00  0.00    -0.129 SA
ATOM     15  C   UNL A   1      31.754  21.892  22.848  1.00  0.00     0.106 C 
ATOM     16  C   UNL A   1      32.097  21.673  24.317  1.00  0.00    -0.020 C 
BRANCH   9  17
ATOM     17  N   UNL A   1      33.080  26.482  22.760  1.00  0.00    -0.336 N 
ATOM     18  C   UNL A   1      33.438  27.816  22.684  1.00  0.00     0.270 C 
ATOM     19  O   UNL A   1      34.225  28.145  21.799  1.00  0.00    -0.268 OA
ATOM     20  H   UNL A   1      33.482  25.902  22.075  1.00  0.00     0.164 HD
BRANCH  18  21
ATOM     21  C   UNL A   1      32.816  28.760  23.586  1.00  0.00     0.126 A 
ATOM     22  C   UNL A   1      31.975  30.005  26.903  1.00  0.00     0.069 C 
ATOM     23  C   UNL A   1      32.119  29.731  25.453  1.00  0.00     0.060 A 
ATOM     24  C   UNL A   1      33.283  29.353  24.749  1.00  0.00     0.059 A 
ATOM     25  N   UNL A   1      31.051  29.715  24.656  1.00  0.00    -0.178 NA
ATOM     26  N   UNL A   1      31.520  29.218  23.488  1.00  0.00    -0.263 N 
ATOM     27  C   UNL A   1      30.605  29.160  22.372  1.00  0.00     0.174 C 
ENDBRANCH  18  21
ENDBRANCH   9  17
BRANCH  16  28
ATOM     28  C   UNL A   1      32.671  20.287  24.492  1.00  0.00     0.111 C 
BRANCH  28  29
ATOM     29  S   UNL A   1      32.188  19.240  23.130  1.00  0.00    -0.089 SA
BRANCH  29  30
ATOM     30  C   UNL A   1      32.862  17.687  23.405  1.00  0.00     0.174 A 
ATOM     31  N   UNL A   1      33.520  16.979  22.518  1.00  0.00    -0.132 NA
ATOM     32  S   UNL A   1      33.018  17.135  25.018  1.00  0.00    -0.091 S 
ATOM     33  N   UNL A   1      34.433  16.142  23.145  1.00  0.00    -0.143 NA
ATOM     34  C   UNL A   1      34.393  16.282  24.457  1.00  0.00     0.115 A 
ATOM     35  C   UNL A   1      35.452  15.894  25.415  1.00  0.00     0.081 C 
ENDBRANCH  29  30
ENDBRANCH  28  29
ENDBRANCH  16  28
ENDBRANCH   5   8
ENDBRANCH   3   4
ENDBRANCH   2   3
ENDBRANCH   1   2
BRANCH   1  36
ATOM     36  C   UNL A   1      37.172  21.294  24.729  1.00  0.00     0.002 C 
BRANCH  36  37
ATOM     37  C   UNL A   1      38.129  20.110  24.886  1.00  0.00     0.021 C 
BRANCH  37  38
ATOM     38  C   UNL A   1      39.052  20.182  26.100  1.00  0.00     0.116 C 
BRANCH  38  39
ATOM     39  N   UNL A   1      40.126  19.205  26.024  1.00  0.00    -0.352 N 
ATOM     40  C   UNL A   1      41.483  19.402  26.031  1.00  0.00     0.251 C 
ATOM     41  H   UNL A   1      39.837  18.266  25.959  1.00  0.00     0.163 HD
ATOM     42  O   UNL A   1      42.246  18.499  25.702  1.00  0.00    -0.269 OA
BRANCH  40  43
ATOM     43  C   UNL A   1      42.022  20.713  26.437  1.00  0.00     0.039 A 
ATOM     44  C   UNL A   1      42.334  21.661  25.460  1.00  0.00     0.014 A 
ATOM     45  C   UNL A   1      42.230  20.993  27.790  1.00  0.00     0.014 A 
ATOM     46  C   UNL A   1      42.809  22.917  25.845  1.00  0.00     0.010 A 
ATOM     47  C   UNL A   1      42.629  22.267  28.175  1.00  0.00     0.010 A 
ATOM     48  C   UNL A   1      42.934  23.236  27.207  1.00  0.00    -0.014 A 
BRANCH  48  49
ATOM     49  C   UNL A   1      43.421  24.563  27.659  1.00  0.00     0.031 A 
ATOM     50  C   UNL A   1      42.428  25.602  28.100  1.00  0.00     0.074 A 
ATOM     51  C   UNL A   1      44.731  24.862  27.582  1.00  0.00     0.049 A 
ATOM     52  N   UNL A   1      42.619  26.865  28.380  1.00  0.00    -0.248 NA
ATOM     53  C   UNL A   1      41.025  25.167  28.205  1.00  0.00     0.031 C 
ATOM     54  C   UNL A   1      45.787  23.948  27.143  1.00  0.00     0.029 A 
ATOM     55  N   UNL A   1      45.395  26.032  27.852  1.00  0.00    -0.354 N 
ATOM     56  C   UNL A   1      41.362  27.380  28.667  1.00  0.00     0.074 A 
ATOM     57  C   UNL A   1      40.410  26.308  28.476  1.00  0.00     0.031 C 
ATOM     58  C   UNL A   1      46.967  24.588  27.183  1.00  0.00     0.029 A 
ATOM     59  C   UNL A   1      46.745  25.968  27.607  1.00  0.00     0.049 A 
ATOM     60  H   UNL A   1      44.947  26.841  28.189  1.00  0.00     0.167 HD
ATOM     61  C   UNL A   1      41.032  28.629  29.074  1.00  0.00     0.037 A 
ATOM     62  C   UNL A   1      47.693  26.920  27.696  1.00  0.00     0.037 A 
ATOM     63  C   UNL A   1      41.988  29.682  29.290  1.00  0.00     0.049 A 
ATOM     64  C   UNL A   1      47.301  28.305  28.137  1.00  0.00     0.074 A 
ATOM     65  C   UNL A   1      41.765  30.967  29.749  1.00  0.00     0.029 A 
ATOM     66  N   UNL A   1      43.351  29.568  29.058  1.00  0.00    -0.354 N 
ATOM     67  N   UNL A   1      46.116  28.768  28.453  1.00  0.00    -0.248 NA
ATOM     68  C   UNL A   1      48.379  29.299  28.238  1.00  0.00     0.031 C 
ATOM     69  C   UNL A   1      42.989  31.646  29.754  1.00  0.00     0.029 A 
ATOM     70  C   UNL A   1      43.980  30.766  29.352  1.00  0.00     0.049 A 
ATOM     71  H   UNL A   1      43.804  28.755  28.735  1.00  0.00     0.167 HD
ATOM     72  C   UNL A   1      46.310  30.091  28.827  1.00  0.00     0.074 A 
ATOM     73  C   UNL A   1      47.728  30.356  28.703  1.00  0.00     0.031 C 
ATOM     74  C   UNL A   1      45.398  31.003  29.243  1.00  0.00     0.037 A 
BRANCH  61  75
ATOM     75  C   UNL A   1      39.578  28.919  29.309  1.00  0.00     0.057 A 
ATOM     76  C   UNL A   1      38.990  28.786  30.574  1.00  0.00     0.134 A 
ATOM     77  C   UNL A   1      38.758  29.358  28.260  1.00  0.00     0.134 A 
ATOM     78  F   UNL A   1      39.714  28.358  31.619  1.00  0.00    -0.206 F 
ATOM     79  C   UNL A   1      37.634  29.047  30.781  1.00  0.00     0.040 A 
ATOM     80  C   UNL A   1      37.408  29.652  28.462  1.00  0.00     0.040 A 
ATOM     81  F   UNL A   1      39.256  29.513  27.025  1.00  0.00    -0.206 F 
ATOM     82  C   UNL A   1      36.841  29.487  29.724  1.00  0.00     0.006 A 
ENDBRANCH  61  75
BRANCH  62  83
ATOM     83  C   UNL A   1      49.107  26.596  27.381  1.00  0.00     0.057 A 
ATOM     84  C   UNL A   1      49.973  26.117  28.370  1.00  0.00     0.134 A 
ATOM     85  C   UNL A   1      49.631  26.765  26.094  1.00  0.00     0.134 A 
ATOM     86  F   UNL A   1      49.534  25.950  29.627  1.00  0.00    -0.206 F 
ATOM     87  C   UNL A   1      51.313  25.836  28.098  1.00  0.00     0.040 A 
ATOM     88  C   UNL A   1      50.962  26.464  25.801  1.00  0.00     0.040 A 
ATOM     89  F   UNL A   1      48.852  27.211  25.097  1.00  0.00    -0.206 F 
ATOM     90  C   UNL A   1      51.809  26.006  26.808  1.00  0.00     0.006 A 
ENDBRANCH  62  83
BRANCH  74  91
ATOM     91  C   UNL A   1      45.906  32.354  29.652  1.00  0.00     0.057 A 
ATOM     92  C   UNL A   1      45.944  33.437  28.764  1.00  0.00     0.134 A 
ATOM     93  C   UNL A   1      46.309  32.587  30.973  1.00  0.00     0.134 A 
ATOM     94  F   UNL A   1      45.583  33.277  27.481  1.00  0.00    -0.206 F 
ATOM     95  C   UNL A   1      46.380  34.698  29.171  1.00  0.00     0.040 A 
ATOM     96  C   UNL A   1      46.720  33.850  31.400  1.00  0.00     0.040 A 
ATOM     97  F   UNL A   1      46.288  31.595  31.876  1.00  0.00    -0.206 F 
ATOM     98  C   UNL A   1      46.760  34.909  30.497  1.00  0.00     0.006 A 
ENDBRANCH  74  91
ENDBRANCH  48  49
ENDBRANCH  40  43
ENDBRANCH  38  39
ENDBRANCH  37  38
ENDBRANCH  36  37
ENDBRANCH   1  36
TORSDOF 18
ENDMDL
MODEL 2
REMARK VINA RESULT:     -12.8      1.411      5.866
REMARK SMILES Cc1cc(C(=O)N[C@@H]2C(=O)N3C(C(=O)NCCCCCCNC(=O)c4ccc(-c5c6nc(c(-c7c(F)cccc7F)c7ccc([nH]7)c(-c7c(F)cccc7F)c7nc(c(-c8c(F)cccc8F)c8ccc5[nH]8)C=C7)C=C6)cc4)=C(CSc4nnc(C)s4)CS[C@H]23)n(C)n1
REMARK SMILES IDX 18 1 17 2 16 3 15 4 13 5 14 6 12 8 8 9 9 10 90 11 10 12
REMARK SMILES IDX 11 13 89 14 88 15 79 16 7 17 5 18 6 19 4 21 1 22 2 23 3 24
REMARK SMILES IDX 93 25 91 26 92 27 80 28 81 29 82 30 83 31 87 32 84 33 85 34
REMARK SMILES IDX 86 35 19 36 20 37 21 38 22 39 23 40 24 42 25 43 26 44 78 45
REMARK SMILES IDX 27 46 77 47 28 48 29 49 30 50 71 51 31 52 76 53 70 54 72 55
REMARK SMILES IDX 32 56 75 57 69 58 68 59 33 61 59 62 42 63 58 64 43 65 46 66
REMARK SMILES IDX 57 67 73 68 44 69 45 70 56 72 74 73 47 74 34 75 35 76 40 77
REMARK SMILES IDX 36 78 37 79 39 80 41 81 38 82 60 83 61 84 66 85 62 86 63 87
REMARK SMILES IDX 65 88 67 89 64 90 48 91 49 92 54 93 50 94 51 95 53 96 55 97
REMARK SMILES IDX 52 98
REMARK H PARENT 15 7 7 20 22 41 72 60 46 71
REMARK Flexibility Score: inf
ROOT
ATOM      1  C   UNL A   1      35.877  21.212  25.066  1.00  0.00     0.002 C 
ENDROOT
BRANCH   1   2
ATOM      2  C   UNL A   1      35.405  22.123  26.191  1.00  0.00     0.021 C 
BRANCH   2   3
ATOM      3  C   UNL A   1      34.583  21.466  27.310  1.00  0.00     0.116 C 
BRANCH   3   4
ATOM      4  N   UNL A   1      33.328  22.165  27.495  1.00  0.00    -0.351 N 
ATOM      5  C   UNL A   1      32.323  22.680  26.753  1.00  0.00     0.268 C 
ATOM      6  O   UNL A   1      31.359  23.011  27.459  1.00  0.00    -0.268 OA
ATOM      7  H   UNL A   1      33.154  22.308  28.453  1.00  0.00     0.163 HD
BRANCH   5   8
ATOM      8  C   UNL A   1      32.172  22.703  25.218  1.00  0.00     0.111 C 
ATOM      9  C   UNL A   1      32.247  25.816  23.722  1.00  0.00     0.206 C 
ATOM     10  C   UNL A   1      32.926  25.079  24.912  1.00  0.00     0.253 C 
ATOM     11  C   UNL A   1      31.694  24.397  23.404  1.00  0.00     0.181 C 
ATOM     12  O   UNL A   1      33.901  25.309  25.603  1.00  0.00    -0.272 OA
ATOM     13  N   UNL A   1      32.086  24.010  24.745  1.00  0.00    -0.290 N 
ATOM     14  S   UNL A   1      32.633  23.395  22.214  1.00  0.00    -0.129 SA
ATOM     15  C   UNL A   1      31.833  21.917  22.833  1.00  0.00     0.106 C 
ATOM     16  C   UNL A   1      32.208  21.692  24.293  1.00  0.00    -0.020 C 
BRANCH   9  17
ATOM     17  N   UNL A   1      33.123  26.517  22.744  1.00  0.00    -0.336 N 
ATOM     18  C   UNL A   1      33.473  27.853  22.672  1.00  0.00     0.270 C 
ATOM     19  O   UNL A   1      34.238  28.193  21.771  1.00  0.00    -0.268 OA
ATOM     20  H   UNL A   1      33.511  25.945  22.045  1.00  0.00     0.164 HD
BRANCH  18  21
ATOM     21  C   UNL A   1      32.869  28.786  23.596  1.00  0.00     0.126 A 
ATOM     22  C   UNL A   1      32.106  30.003  26.942  1.00  0.00     0.069 C 
ATOM     23  C   UNL A   1      32.213  29.740  25.487  1.00  0.00     0.060 A 
ATOM     24  C   UNL A   1      33.361  29.376  24.750  1.00  0.00     0.059 A 
ATOM     25  N   UNL A   1      31.125  29.722  24.718  1.00  0.00    -0.178 NA
ATOM     26  N   UNL A   1      31.567  29.236  23.535  1.00  0.00    -0.263 N 
ATOM     27  C   UNL A   1      30.624  29.179  22.443  1.00  0.00     0.174 C 
ENDBRANCH  18  21
ENDBRANCH   9  17
BRANCH  16  28
ATOM     28  C   UNL A   1      32.796  20.309  24.448  1.00  0.00     0.111 C 
BRANCH  28  29
ATOM     29  S   UNL A   1      32.199  19.234  23.154  1.00  0.00    -0.089 SA
BRANCH  29  30
ATOM     30  C   UNL A   1      32.872  17.679  23.421  1.00  0.00     0.174 A 
ATOM     31  N   UNL A   1      33.533  16.978  22.530  1.00  0.00    -0.132 NA
ATOM     32  S   UNL A   1      33.023  17.115  25.030  1.00  0.00    -0.091 S 
ATOM     33  N   UNL A   1      34.443  16.135  23.155  1.00  0.00    -0.143 NA
ATOM     34  C   UNL A   1      34.398  16.266  24.467  1.00  0.00     0.115 A 
ATOM     35  C   UNL A   1      35.454  15.871  25.426  1.00  0.00     0.081 C 
ENDBRANCH  29  30
ENDBRANCH  28  29
ENDBRANCH  16  28
ENDBRANCH   5   8
ENDBRANCH   3   4
ENDBRANCH   2   3
ENDBRANCH   1   2
BRANCH   1  36
ATOM     36  C   UNL A   1      37.332  21.411  24.656  1.00  0.00     0.002 C 
BRANCH  36  37
ATOM     37  C   UNL A   1      38.217  20.167  24.765  1.00  0.00     0.021 C 
BRANCH  37  38
ATOM     38  C   UNL A   1      38.967  20.022  26.088  1.00  0.00     0.116 C 
BRANCH  38  39
ATOM     39  N   UNL A   1      40.179  19.232  25.940  1.00  0.00    -0.352 N 
ATOM     40  C   UNL A   1      41.489  19.635  25.971  1.00  0.00     0.251 C 
ATOM     41  H   UNL A   1      40.038  18.268  25.799  1.00  0.00     0.163 HD
ATOM     42  O   UNL A   1      42.380  18.890  25.576  1.00  0.00    -0.269 OA
BRANCH  40  43
ATOM     43  C   UNL A   1      41.822  20.977  26.484  1.00  0.00     0.039 A 
ATOM     44  C   UNL A   1      42.213  21.977  25.590  1.00  0.00     0.014 A 
ATOM     45  C   UNL A   1      41.759  21.236  27.855  1.00  0.00     0.014 A 
ATOM     46  C   UNL A   1      42.492  23.259  26.069  1.00  0.00     0.010 A 
ATOM     47  C   UNL A   1      41.962  22.529  28.321  1.00  0.00     0.010 A 
ATOM     48  C   UNL A   1      42.342  23.549  27.435  1.00  0.00    -0.014 A 
BRANCH  48  49
ATOM     49  C   UNL A   1      42.614  24.900  27.983  1.00  0.00     0.031 A 
ATOM     50  C   UNL A   1      43.996  25.233  28.473  1.00  0.00     0.074 A 
ATOM     51  C   UNL A   1      41.610  25.785  28.129  1.00  0.00     0.049 A 
ATOM     52  N   UNL A   1      44.414  26.286  29.127  1.00  0.00    -0.248 NA
ATOM     53  C   UNL A   1      45.042  24.227  28.222  1.00  0.00     0.031 C 
ATOM     54  C   UNL A   1      40.222  25.567  27.719  1.00  0.00     0.029 A 
ATOM     55  N   UNL A   1      41.600  27.039  28.684  1.00  0.00    -0.354 N 
ATOM     56  C   UNL A   1      45.758  26.057  29.388  1.00  0.00     0.074 A 
ATOM     57  C   UNL A   1      46.074  24.744  28.870  1.00  0.00     0.031 C 
ATOM     58  C   UNL A   1      39.497  26.655  28.027  1.00  0.00     0.029 A 
ATOM     59  C   UNL A   1      40.358  27.626  28.696  1.00  0.00     0.049 A 
ATOM     60  H   UNL A   1      42.407  27.477  29.040  1.00  0.00     0.167 HD
ATOM     61  C   UNL A   1      46.655  26.876  29.988  1.00  0.00     0.037 A 
ATOM     62  C   UNL A   1      39.958  28.806  29.205  1.00  0.00     0.037 A 
ATOM     63  C   UNL A   1      46.339  28.192  30.476  1.00  0.00     0.049 A 
ATOM     64  C   UNL A   1      40.969  29.695  29.880  1.00  0.00     0.074 A 
ATOM     65  C   UNL A   1      47.184  29.122  31.053  1.00  0.00     0.029 A 
ATOM     66  N   UNL A   1      45.076  28.763  30.442  1.00  0.00    -0.354 N 
ATOM     67  N   UNL A   1      42.248  29.489  30.078  1.00  0.00    -0.248 NA
ATOM     68  C   UNL A   1      40.481  30.981  30.398  1.00  0.00     0.031 C 
ATOM     69  C   UNL A   1      46.422  30.240  31.409  1.00  0.00     0.029 A 
ATOM     70  C   UNL A   1      45.115  30.028  31.003  1.00  0.00     0.049 A 
ATOM     71  H   UNL A   1      44.270  28.332  30.072  1.00  0.00     0.167 HD
ATOM     72  C   UNL A   1      42.726  30.632  30.706  1.00  0.00     0.074 A 
ATOM     73  C   UNL A   1      41.599  31.529  30.852  1.00  0.00     0.031 C 
ATOM     74  C   UNL A   1      43.985  30.916  31.119  1.00  0.00     0.037 A 
BRANCH  61  75
ATOM     75  C   UNL A   1      48.058  26.366  30.149  1.00  0.00     0.057 A 
ATOM     76  C   UNL A   1      48.477  25.703  31.311  1.00  0.00     0.134 A 
ATOM     77  C   UNL A   1      48.998  26.522  29.122  1.00  0.00     0.134 A 
ATOM     78  F   UNL A   1      47.631  25.532  32.338  1.00  0.00    -0.206 F 
ATOM     79  C   UNL A   1      49.786  25.242  31.458  1.00  0.00     0.040 A 
ATOM     80  C   UNL A   1      50.302  26.038  29.245  1.00  0.00     0.040 A 
ATOM     81  F   UNL A   1      48.664  27.142  27.981  1.00  0.00    -0.206 F 
ATOM     82  C   UNL A   1      50.701  25.404  30.420  1.00  0.00     0.006 A 
ENDBRANCH  61  75
BRANCH  62  83
ATOM     83  C   UNL A   1      38.540  29.230  29.082  1.00  0.00     0.057 A 
ATOM     84  C   UNL A   1      38.035  29.709  27.868  1.00  0.00     0.134 A 
ATOM     85  C   UNL A   1      37.659  29.174  30.168  1.00  0.00     0.134 A 
ATOM     86  F   UNL A   1      38.835  29.802  26.795  1.00  0.00    -0.206 F 
ATOM     87  C   UNL A   1      36.713  30.139  27.743  1.00  0.00     0.040 A 
ATOM     88  C   UNL A   1      36.328  29.576  30.052  1.00  0.00     0.040 A 
ATOM     89  F   UNL A   1      38.077  28.714  31.357  1.00  0.00    -0.206 F 
ATOM     90  C   UNL A   1      35.854  30.068  28.837  1.00  0.00     0.006 A 
ENDBRANCH  62  83
BRANCH  74  91
ATOM     91  C   UNL A   1      44.230  32.272  31.713  1.00  0.00     0.057 A 
ATOM     92  C   UNL A   1      44.556  33.383  30.925  1.00  0.00     0.134 A 
ATOM     93  C   UNL A   1      44.077  32.477  33.090  1.00  0.00     0.134 A 
ATOM     94  F   UNL A   1      44.729  33.251  29.601  1.00  0.00    -0.206 F 
ATOM     95  C   UNL A   1      44.738  34.646  31.489  1.00  0.00     0.040 A 
ATOM     96  C   UNL A   1      44.228  33.741  33.661  1.00  0.00     0.040 A 
ATOM     97  F   UNL A   1      43.755  31.457  33.899  1.00  0.00    -0.206 F 
ATOM     98  C   UNL A   1      44.565  34.829  32.861  1.00  0.00     0.006 A 
ENDBRANCH  74  91
ENDBRANCH  48  49
ENDBRANCH  40  43
ENDBRANCH  38  39
ENDBRANCH  37  38
ENDBRANCH  36  37
ENDBRANCH   1  36
TORSDOF 18
ENDMDL
MODEL 3
REMARK VINA RESULT:     -12.5      5.572     10.855
REMARK SMILES Cc1cc(C(=O)N[C@@H]2C(=O)N3C(C(=O)NCCCCCCNC(=O)c4ccc(-c5c6nc(c(-c7c(F)cccc7F)c7ccc([nH]7)c(-c7c(F)cccc7F)c7nc(c(-c8c(F)cccc8F)c8ccc5[nH]8)C=C7)C=C6)cc4)=C(CSc4nnc(C)s4)CS[C@H]23)n(C)n1
REMARK SMILES IDX 18 1 17 2 16 3 15 4 13 5 14 6 12 8 8 9 9 10 90 11 10 12
REMARK SMILES IDX 11 13 89 14 88 15 79 16 7 17 5 18 6 19 4 21 1 22 2 23 3 24
REMARK SMILES IDX 93 25 91 26 92 27 80 28 81 29 82 30 83 31 87 32 84 33 85 34
REMARK SMILES IDX 86 35 19 36 20 37 21 38 22 39 23 40 24 42 25 43 26 44 78 45
REMARK SMILES IDX 27 46 77 47 28 48 29 49 30 50 71 51 31 52 76 53 70 54 72 55
REMARK SMILES IDX 32 56 75 57 69 58 68 59 33 61 59 62 42 63 58 64 43 65 46 66
REMARK SMILES IDX 57 67 73 68 44 69 45 70 56 72 74 73 47 74 34 75 35 76 40 77
REMARK SMILES IDX 36 78 37 79 39 80 41 81 38 82 60 83 61 84 66 85 62 86 63 87
REMARK SMILES IDX 65 88 67 89 64 90 48 91 49 92 54 93 50 94 51 95 53 96 55 97
REMARK SMILES IDX 52 98
REMARK H PARENT 15 7 7 20 22 41 72 60 46 71
REMARK Flexibility Score: inf
ROOT
ATOM      1  C   UNL A   1      34.103  32.067  28.618  1.00  0.00     0.002 C 
ENDROOT
BRANCH   1   2
ATOM      2  C   UNL A   1      34.942  31.291  27.612  1.00  0.00     0.021 C 
BRANCH   2   3
ATOM      3  C   UNL A   1      34.315  30.016  27.031  1.00  0.00     0.116 C 
BRANCH   3   4
ATOM      4  N   UNL A   1      33.032  30.310  26.426  1.00  0.00    -0.351 N 
ATOM      5  C   UNL A   1      32.213  29.816  25.471  1.00  0.00     0.268 C 
ATOM      6  O   UNL A   1      31.104  30.369  25.493  1.00  0.00    -0.268 OA
ATOM      7  H   UNL A   1      32.638  31.115  26.832  1.00  0.00     0.163 HD
BRANCH   5   8
ATOM      8  C   UNL A   1      32.420  28.585  24.564  1.00  0.00     0.111 C 
ATOM      9  C   UNL A   1      33.331  25.655  26.150  1.00  0.00     0.206 C 
ATOM     10  C   UNL A   1      32.420  26.887  26.415  1.00  0.00     0.253 C 
ATOM     11  C   UNL A   1      33.446  26.282  24.731  1.00  0.00     0.181 C 
ATOM     12  O   UNL A   1      31.534  27.128  27.213  1.00  0.00    -0.272 OA
ATOM     13  N   UNL A   1      32.908  27.505  25.293  1.00  0.00    -0.290 N 
ATOM     14  S   UNL A   1      32.296  25.672  23.464  1.00  0.00    -0.129 SA
ATOM     15  C   UNL A   1      32.595  27.144  22.488  1.00  0.00     0.106 C 
ATOM     16  C   UNL A   1      32.117  28.378  23.244  1.00  0.00    -0.020 C 
BRANCH   9  17
ATOM     17  N   UNL A   1      32.740  24.300  26.326  1.00  0.00    -0.336 N 
ATOM     18  C   UNL A   1      33.340  23.057  26.245  1.00  0.00     0.270 C 
ATOM     19  O   UNL A   1      32.637  22.070  26.452  1.00  0.00    -0.268 OA
ATOM     20  H   UNL A   1      31.778  24.287  26.531  1.00  0.00     0.164 HD
BRANCH  18  21
ATOM     21  C   UNL A   1      34.728  22.975  25.847  1.00  0.00     0.126 A 
ATOM     22  C   UNL A   1      38.226  23.961  26.060  1.00  0.00     0.069 C 
ATOM     23  C   UNL A   1      36.902  23.390  25.718  1.00  0.00     0.060 A 
ATOM     24  C   UNL A   1      35.892  22.945  26.599  1.00  0.00     0.059 A 
ATOM     25  N   UNL A   1      36.486  23.347  24.453  1.00  0.00    -0.178 NA
ATOM     26  N   UNL A   1      35.185  22.989  24.547  1.00  0.00    -0.263 N 
ATOM     27  C   UNL A   1      34.464  22.766  23.315  1.00  0.00     0.174 C 
ENDBRANCH  18  21
ENDBRANCH   9  17
BRANCH  16  28
ATOM     28  C   UNL A   1      31.138  29.140  22.382  1.00  0.00     0.111 C 
BRANCH  28  29
ATOM     29  S   UNL A   1      29.468  28.615  22.727  1.00  0.00    -0.089 SA
BRANCH  29  30
ATOM     30  C   UNL A   1      28.461  30.000  22.638  1.00  0.00     0.174 A 
ATOM     31  N   UNL A   1      27.449  30.252  23.434  1.00  0.00    -0.132 NA
ATOM     32  S   UNL A   1      28.979  31.333  21.696  1.00  0.00    -0.091 S 
ATOM     33  N   UNL A   1      27.248  31.622  23.545  1.00  0.00    -0.143 NA
ATOM     34  C   UNL A   1      28.124  32.296  22.824  1.00  0.00     0.115 A 
ATOM     35  C   UNL A   1      28.495  33.719  22.997  1.00  0.00     0.081 C 
ENDBRANCH  29  30
ENDBRANCH  28  29
ENDBRANCH  16  28
ENDBRANCH   5   8
ENDBRANCH   3   4
ENDBRANCH   2   3
ENDBRANCH   1   2
BRANCH   1  36
ATOM     36  C   UNL A   1      34.317  33.577  28.594  1.00  0.00     0.002 C 
BRANCH  36  37
ATOM     37  C   UNL A   1      33.096  34.415  28.982  1.00  0.00     0.021 C 
BRANCH  37  38
ATOM     38  C   UNL A   1      33.393  35.880  29.297  1.00  0.00     0.116 C 
BRANCH  38  39
ATOM     39  N   UNL A   1      32.636  36.352  30.446  1.00  0.00    -0.352 N 
ATOM     40  C   UNL A   1      32.702  35.949  31.755  1.00  0.00     0.251 C 
ATOM     41  H   UNL A   1      31.983  37.064  30.256  1.00  0.00     0.163 HD
ATOM     42  O   UNL A   1      31.821  36.263  32.549  1.00  0.00    -0.269 OA
BRANCH  40  43
ATOM     43  C   UNL A   1      33.844  35.131  32.204  1.00  0.00     0.039 A 
ATOM     44  C   UNL A   1      33.620  33.831  32.663  1.00  0.00     0.014 A 
ATOM     45  C   UNL A   1      35.135  35.663  32.182  1.00  0.00     0.014 A 
ATOM     46  C   UNL A   1      34.704  33.041  33.053  1.00  0.00     0.010 A 
ATOM     47  C   UNL A   1      36.219  34.853  32.498  1.00  0.00     0.010 A 
ATOM     48  C   UNL A   1      36.013  33.539  32.947  1.00  0.00    -0.014 A 
BRANCH  48  49
ATOM     49  C   UNL A   1      37.193  32.730  33.338  1.00  0.00     0.031 A 
ATOM     50  C   UNL A   1      37.902  33.034  34.628  1.00  0.00     0.074 A 
ATOM     51  C   UNL A   1      37.678  31.796  32.498  1.00  0.00     0.049 A 
ATOM     52  N   UNL A   1      39.034  32.563  35.084  1.00  0.00    -0.248 NA
ATOM     53  C   UNL A   1      37.268  34.031  35.507  1.00  0.00     0.031 C 
ATOM     54  C   UNL A   1      37.095  31.431  31.206  1.00  0.00     0.029 A 
ATOM     55  N   UNL A   1      38.790  30.999  32.598  1.00  0.00    -0.354 N 
ATOM     56  C   UNL A   1      39.260  33.223  36.284  1.00  0.00     0.074 A 
ATOM     57  C   UNL A   1      38.176  34.166  36.461  1.00  0.00     0.031 C 
ATOM     58  C   UNL A   1      37.848  30.475  30.639  1.00  0.00     0.029 A 
ATOM     59  C   UNL A   1      38.990  30.192  31.505  1.00  0.00     0.049 A 
ATOM     60  H   UNL A   1      39.389  31.005  33.380  1.00  0.00     0.167 HD
ATOM     61  C   UNL A   1      40.268  33.046  37.170  1.00  0.00     0.037 A 
ATOM     62  C   UNL A   1      39.991  29.337  31.225  1.00  0.00     0.037 A 
ATOM     63  C   UNL A   1      41.327  32.087  37.001  1.00  0.00     0.049 A 
ATOM     64  C   UNL A   1      41.109  29.166  32.218  1.00  0.00     0.074 A 
ATOM     65  C   UNL A   1      42.369  31.793  37.862  1.00  0.00     0.029 A 
ATOM     66  N   UNL A   1      41.477  31.267  35.892  1.00  0.00    -0.354 N 
ATOM     67  N   UNL A   1      41.286  29.760  33.373  1.00  0.00    -0.248 NA
ATOM     68  C   UNL A   1      42.163  28.202  31.872  1.00  0.00     0.031 C 
ATOM     69  C   UNL A   1      43.175  30.824  37.254  1.00  0.00     0.029 A 
ATOM     70  C   UNL A   1      42.604  30.476  36.040  1.00  0.00     0.049 A 
ATOM     71  H   UNL A   1      40.871  31.249  35.116  1.00  0.00     0.167 HD
ATOM     72  C   UNL A   1      42.447  29.216  33.909  1.00  0.00     0.074 A 
ATOM     73  C   UNL A   1      42.929  28.241  32.953  1.00  0.00     0.031 C 
ATOM     74  C   UNL A   1      43.055  29.494  35.087  1.00  0.00     0.037 A 
BRANCH  61  75
ATOM     75  C   UNL A   1      40.271  33.911  38.398  1.00  0.00     0.057 A 
ATOM     76  C   UNL A   1      40.974  35.122  38.450  1.00  0.00     0.134 A 
ATOM     77  C   UNL A   1      39.544  33.538  39.537  1.00  0.00     0.134 A 
ATOM     78  F   UNL A   1      41.701  35.532  37.400  1.00  0.00    -0.206 F 
ATOM     79  C   UNL A   1      40.981  35.915  39.599  1.00  0.00     0.040 A 
ATOM     80  C   UNL A   1      39.518  34.338  40.681  1.00  0.00     0.040 A 
ATOM     81  F   UNL A   1      38.844  32.395  39.554  1.00  0.00    -0.206 F 
ATOM     82  C   UNL A   1      40.246  35.526  40.717  1.00  0.00     0.006 A 
ENDBRANCH  61  75
BRANCH  62  83
ATOM     83  C   UNL A   1      39.976  28.559  29.960  1.00  0.00     0.057 A 
ATOM     84  C   UNL A   1      40.645  29.022  28.821  1.00  0.00     0.134 A 
ATOM     85  C   UNL A   1      39.290  27.344  29.853  1.00  0.00     0.134 A 
ATOM     86  F   UNL A   1      41.307  30.189  28.857  1.00  0.00    -0.206 F 
ATOM     87  C   UNL A   1      40.616  28.319  27.617  1.00  0.00     0.040 A 
ATOM     88  C   UNL A   1      39.273  26.616  28.662  1.00  0.00     0.040 A 
ATOM     89  F   UNL A   1      38.637  26.838  30.910  1.00  0.00    -0.206 F 
ATOM     90  C   UNL A   1      39.932  27.108  27.537  1.00  0.00     0.006 A 
ENDBRANCH  62  83
BRANCH  74  91
ATOM     91  C   UNL A   1      44.275  28.695  35.442  1.00  0.00     0.057 A 
ATOM     92  C   UNL A   1      45.567  29.116  35.104  1.00  0.00     0.134 A 
ATOM     93  C   UNL A   1      44.153  27.514  36.186  1.00  0.00     0.134 A 
ATOM     94  F   UNL A   1      45.750  30.232  34.381  1.00  0.00    -0.206 F 
ATOM     95  C   UNL A   1      46.693  28.384  35.479  1.00  0.00     0.040 A 
ATOM     96  C   UNL A   1      45.273  26.788  36.591  1.00  0.00     0.040 A 
ATOM     97  F   UNL A   1      42.945  27.060  36.551  1.00  0.00    -0.206 F 
ATOM     98  C   UNL A   1      46.548  27.219  36.234  1.00  0.00     0.006 A 
ENDBRANCH  74  91
ENDBRANCH  48  49
ENDBRANCH  40  43
ENDBRANCH  38  39
ENDBRANCH  37  38
ENDBRANCH  36  37
ENDBRANCH   1  36
TORSDOF 18
ENDMDL
