MODEL 1
REMARK VINA RESULT:     -12.2      0.000      0.000
REMARK SMILES COc1cccc([C@H]2CC(c3ccc(S(C)(=O)=O)cc3)=NN2c2ccc(C(=O)NCCCCCCNC(=O)c3ccc(-c4c5nc(c(-c6c(F)cccc6F)c6ccc([nH]6)c(-c6c(F)cccc6F)c6nc(c(-c7c(F)cccc7F)c7ccc4[nH]7)C=C6)C=C5)cc3)cc2)c1
REMARK SMILES IDX 32 1 31 2 30 3 29 4 27 5 28 6 26 8 23 9 24 10 94 11 25 12
REMARK SMILES IDX 93 13 22 14 8 15 9 16 10 17 21 18 7 19 3 20 4 21 95 22 5 23
REMARK SMILES IDX 6 24 2 25 1 26 11 27 12 28 20 29 13 30 19 31 14 32 15 33
REMARK SMILES IDX 16 34 17 35 18 36 33 37 34 38 35 39 36 40 37 41 38 43 39 44
REMARK SMILES IDX 40 45 92 46 41 47 91 48 42 49 43 50 44 51 85 52 45 53 90 54
REMARK SMILES IDX 84 55 86 56 46 57 89 58 83 59 82 60 47 62 73 63 56 64 72 65
REMARK SMILES IDX 57 66 60 67 71 68 87 69 58 70 59 71 70 73 88 74 61 75 48 76
REMARK SMILES IDX 49 77 54 78 50 79 51 80 53 81 55 82 52 83 74 84 75 85 80 86
REMARK SMILES IDX 76 87 77 88 79 89 81 90 78 91 62 92 63 93 68 94 64 95 65 96
REMARK SMILES IDX 67 97 69 98 66 99
REMARK H PARENT 29 7 36 42 86 61 60 72
REMARK Flexibility Score: inf
ROOT
ATOM      1  C   UNL A   1      37.063  23.213  25.247  1.00  0.00     0.002 C 
ENDROOT
BRANCH   1   2
ATOM      2  C   UNL A   1      36.666  21.885  24.586  1.00  0.00     0.021 C 
BRANCH   2   3
ATOM      3  C   UNL A   1      35.689  21.064  25.429  1.00  0.00     0.116 C 
BRANCH   3   4
ATOM      4  N   UNL A   1      34.506  20.758  24.648  1.00  0.00    -0.352 N 
ATOM      5  C   UNL A   1      33.423  21.512  24.281  1.00  0.00     0.251 C 
ATOM      6  O   UNL A   1      32.542  20.959  23.623  1.00  0.00    -0.269 OA
ATOM      7  H   UNL A   1      34.477  19.830  24.320  1.00  0.00     0.163 HD
BRANCH   5   8
ATOM      8  C   UNL A   1      33.308  22.965  24.578  1.00  0.00     0.039 A 
ATOM      9  C   UNL A   1      33.314  25.755  25.011  1.00  0.00     0.060 A 
ATOM     10  C   UNL A   1      33.701  25.222  23.778  1.00  0.00     0.029 A 
ATOM     11  C   UNL A   1      32.852  24.881  25.997  1.00  0.00     0.029 A 
ATOM     12  C   UNL A   1      33.717  23.843  23.567  1.00  0.00     0.016 A 
ATOM     13  C   UNL A   1      32.811  23.501  25.769  1.00  0.00     0.016 A 
BRANCH   9  14
ATOM     14  N   UNL A   1      33.411  27.115  25.234  1.00  0.00    -0.257 N 
ATOM     15  C   UNL A   1      33.072  28.141  24.248  1.00  0.00     0.144 C 
ATOM     16  C   UNL A   1      33.381  29.441  25.005  1.00  0.00     0.091 C 
ATOM     17  C   UNL A   1      33.983  28.873  26.261  1.00  0.00     0.071 C 
ATOM     18  N   UNL A   1      33.988  27.582  26.363  1.00  0.00    -0.176 NA
BRANCH  15  19
ATOM     19  C   UNL A   1      31.625  28.027  23.796  1.00  0.00    -0.019 A 
ATOM     20  C   UNL A   1      29.767  28.777  22.403  1.00  0.00     0.119 A 
ATOM     21  C   UNL A   1      28.913  27.915  23.090  1.00  0.00     0.046 A 
ATOM     22  C   UNL A   1      31.114  28.840  22.764  1.00  0.00     0.052 A 
ATOM     23  C   UNL A   1      29.402  27.097  24.107  1.00  0.00     0.004 A 
ATOM     24  C   UNL A   1      30.752  27.150  24.457  1.00  0.00     0.006 A 
BRANCH  20  25
ATOM     25  O   UNL A   1      29.170  29.539  21.436  1.00  0.00    -0.497 OA
ATOM     26  C   UNL A   1      28.002  30.246  21.839  1.00  0.00     0.278 C 
ENDBRANCH  20  25
ENDBRANCH  15  19
BRANCH  17  27
ATOM     27  C   UNL A   1      34.562  29.739  27.292  1.00  0.00    -0.002 A 
ATOM     28  C   UNL A   1      33.936  30.962  27.557  1.00  0.00     0.011 A 
ATOM     29  C   UNL A   1      35.735  29.371  27.952  1.00  0.00     0.011 A 
ATOM     30  C   UNL A   1      34.481  31.825  28.505  1.00  0.00     0.021 A 
ATOM     31  C   UNL A   1      36.298  30.247  28.883  1.00  0.00     0.021 A 
ATOM     32  C   UNL A   1      35.671  31.469  29.149  1.00  0.00     0.067 A 
BRANCH  32  33
ATOM     33  S   UNL A   1      36.381  32.597  30.327  1.00  0.00     0.175 S 
ATOM     34  C   UNL A   1      34.979  33.436  31.022  1.00  0.00     0.163 C 
ATOM     35  O   UNL A   1      36.994  31.787  31.360  1.00  0.00    -0.224 OA
ATOM     36  O   UNL A   1      37.153  33.575  29.584  1.00  0.00    -0.224 OA
ENDBRANCH  32  33
ENDBRANCH  17  27
ENDBRANCH   9  14
ENDBRANCH   5   8
ENDBRANCH   3   4
ENDBRANCH   2   3
ENDBRANCH   1   2
BRANCH   1  37
ATOM     37  C   UNL A   1      38.315  23.142  26.129  1.00  0.00     0.002 C 
BRANCH  37  38
ATOM     38  C   UNL A   1      38.664  24.440  26.862  1.00  0.00     0.021 C 
BRANCH  38  39
ATOM     39  C   UNL A   1      40.160  24.683  27.033  1.00  0.00     0.116 C 
BRANCH  39  40
ATOM     40  N   UNL A   1      40.930  23.472  26.810  1.00  0.00    -0.352 N 
ATOM     41  C   UNL A   1      42.240  23.333  26.435  1.00  0.00     0.251 C 
ATOM     42  H   UNL A   1      40.439  22.630  26.947  1.00  0.00     0.163 HD
ATOM     43  O   UNL A   1      42.666  22.239  26.080  1.00  0.00    -0.269 OA
BRANCH  41  44
ATOM     44  C   UNL A   1      43.147  24.502  26.454  1.00  0.00     0.039 A 
ATOM     45  C   UNL A   1      43.400  25.176  25.257  1.00  0.00     0.014 A 
ATOM     46  C   UNL A   1      43.792  24.894  27.632  1.00  0.00     0.014 A 
ATOM     47  C   UNL A   1      44.283  26.258  25.243  1.00  0.00     0.010 A 
ATOM     48  C   UNL A   1      44.622  26.012  27.630  1.00  0.00     0.010 A 
ATOM     49  C   UNL A   1      44.894  26.689  26.432  1.00  0.00    -0.014 A 
BRANCH  49  50
ATOM     50  C   UNL A   1      45.870  27.806  26.428  1.00  0.00     0.031 A 
ATOM     51  C   UNL A   1      47.339  27.513  26.297  1.00  0.00     0.074 A 
ATOM     52  C   UNL A   1      45.443  29.073  26.584  1.00  0.00     0.049 A 
ATOM     53  N   UNL A   1      48.355  28.337  26.334  1.00  0.00    -0.248 NA
ATOM     54  C   UNL A   1      47.719  26.100  26.130  1.00  0.00     0.031 C 
ATOM     55  C   UNL A   1      44.048  29.482  26.757  1.00  0.00     0.029 A 
ATOM     56  N   UNL A   1      46.145  30.250  26.630  1.00  0.00    -0.354 N 
ATOM     57  C   UNL A   1      49.490  27.543  26.215  1.00  0.00     0.074 A 
ATOM     58  C   UNL A   1      49.041  26.169  26.154  1.00  0.00     0.031 C 
ATOM     59  C   UNL A   1      43.996  30.819  26.870  1.00  0.00     0.029 A 
ATOM     60  C   UNL A   1      45.352  31.357  26.805  1.00  0.00     0.049 A 
ATOM     61  H   UNL A   1      47.124  30.298  26.544  1.00  0.00     0.167 HD
ATOM     62  C   UNL A   1      50.787  27.926  26.139  1.00  0.00     0.037 A 
ATOM     63  C   UNL A   1      45.683  32.659  26.902  1.00  0.00     0.037 A 
ATOM     64  C   UNL A   1      51.228  29.295  26.162  1.00  0.00     0.049 A 
ATOM     65  C   UNL A   1      47.129  33.059  26.795  1.00  0.00     0.074 A 
ATOM     66  C   UNL A   1      52.515  29.789  26.040  1.00  0.00     0.029 A 
ATOM     67  N   UNL A   1      50.389  30.389  26.307  1.00  0.00    -0.354 N 
ATOM     68  N   UNL A   1      48.187  32.302  26.632  1.00  0.00    -0.248 NA
ATOM     69  C   UNL A   1      47.424  34.497  26.875  1.00  0.00     0.031 C 
ATOM     70  C   UNL A   1      52.458  31.183  26.141  1.00  0.00     0.029 A 
ATOM     71  C   UNL A   1      51.132  31.557  26.286  1.00  0.00     0.049 A 
ATOM     72  H   UNL A   1      49.411  30.343  26.408  1.00  0.00     0.167 HD
ATOM     73  C   UNL A   1      49.267  33.171  26.557  1.00  0.00     0.074 A 
ATOM     74  C   UNL A   1      48.736  34.512  26.685  1.00  0.00     0.031 C 
ATOM     75  C   UNL A   1      50.582  32.884  26.396  1.00  0.00     0.037 A 
BRANCH  62  76
ATOM     76  C   UNL A   1      51.818  26.843  26.017  1.00  0.00     0.057 A 
ATOM     77  C   UNL A   1      52.188  26.314  24.773  1.00  0.00     0.134 A 
ATOM     78  C   UNL A   1      52.466  26.339  27.151  1.00  0.00     0.134 A 
ATOM     79  F   UNL A   1      51.595  26.744  23.648  1.00  0.00    -0.206 F 
ATOM     80  C   UNL A   1      53.144  25.303  24.664  1.00  0.00     0.040 A 
ATOM     81  C   UNL A   1      53.444  25.347  27.053  1.00  0.00     0.040 A 
ATOM     82  F   UNL A   1      52.163  26.805  28.372  1.00  0.00    -0.206 F 
ATOM     83  C   UNL A   1      53.779  24.822  25.807  1.00  0.00     0.006 A 
ENDBRANCH  62  76
BRANCH  63  84
ATOM     84  C   UNL A   1      44.625  33.684  27.075  1.00  0.00     0.057 A 
ATOM     85  C   UNL A   1      44.194  34.064  28.351  1.00  0.00     0.134 A 
ATOM     86  C   UNL A   1      44.015  34.299  25.976  1.00  0.00     0.134 A 
ATOM     87  F   UNL A   1      44.730  33.496  29.442  1.00  0.00    -0.206 F 
ATOM     88  C   UNL A   1      43.180  35.006  28.530  1.00  0.00     0.040 A 
ATOM     89  C   UNL A   1      43.015  35.260  26.141  1.00  0.00     0.040 A 
ATOM     90  F   UNL A   1      44.389  33.984  24.728  1.00  0.00    -0.206 F 
ATOM     91  C   UNL A   1      42.590  35.611  27.422  1.00  0.00     0.006 A 
ENDBRANCH  63  84
BRANCH  75  92
ATOM     92  C   UNL A   1      51.530  34.042  26.304  1.00  0.00     0.057 A 
ATOM     93  C   UNL A   1      51.848  34.640  25.079  1.00  0.00     0.134 A 
ATOM     94  C   UNL A   1      52.099  34.588  27.461  1.00  0.00     0.134 A 
ATOM     95  F   UNL A   1      51.344  34.155  23.934  1.00  0.00    -0.206 F 
ATOM     96  C   UNL A   1      52.717  35.730  25.006  1.00  0.00     0.040 A 
ATOM     97  C   UNL A   1      52.951  35.692  27.403  1.00  0.00     0.040 A 
ATOM     98  F   UNL A   1      51.827  34.065  28.666  1.00  0.00    -0.206 F 
ATOM     99  C   UNL A   1      53.266  36.262  26.171  1.00  0.00     0.006 A 
ENDBRANCH  75  92
ENDBRANCH  49  50
ENDBRANCH  41  44
ENDBRANCH  39  40
ENDBRANCH  38  39
ENDBRANCH  37  38
ENDBRANCH   1  37
TORSDOF 18
ENDMDL
MODEL 2
REMARK VINA RESULT:     -12.1      0.403      5.790
REMARK SMILES COc1cccc([C@H]2CC(c3ccc(S(C)(=O)=O)cc3)=NN2c2ccc(C(=O)NCCCCCCNC(=O)c3ccc(-c4c5nc(c(-c6c(F)cccc6F)c6ccc([nH]6)c(-c6c(F)cccc6F)c6nc(c(-c7c(F)cccc7F)c7ccc4[nH]7)C=C6)C=C5)cc3)cc2)c1
REMARK SMILES IDX 32 1 31 2 30 3 29 4 27 5 28 6 26 8 23 9 24 10 94 11 25 12
REMARK SMILES IDX 93 13 22 14 8 15 9 16 10 17 21 18 7 19 3 20 4 21 95 22 5 23
REMARK SMILES IDX 6 24 2 25 1 26 11 27 12 28 20 29 13 30 19 31 14 32 15 33
REMARK SMILES IDX 16 34 17 35 18 36 33 37 34 38 35 39 36 40 37 41 38 43 39 44
REMARK SMILES IDX 40 45 92 46 41 47 91 48 42 49 43 50 44 51 85 52 45 53 90 54
REMARK SMILES IDX 84 55 86 56 46 57 89 58 83 59 82 60 47 62 73 63 56 64 72 65
REMARK SMILES IDX 57 66 60 67 71 68 87 69 58 70 59 71 70 73 88 74 61 75 48 76
REMARK SMILES IDX 49 77 54 78 50 79 51 80 53 81 55 82 52 83 74 84 75 85 80 86
REMARK SMILES IDX 76 87 77 88 79 89 81 90 78 91 62 92 63 93 68 94 64 95 65 96
REMARK SMILES IDX 67 97 69 98 66 99
REMARK H PARENT 29 7 36 42 86 61 60 72
REMARK Flexibility Score: inf
ROOT
ATOM      1  C   UNL A   1      37.146  23.572  25.655  1.00  0.00     0.002 C 
ENDROOT
BRANCH   1   2
ATOM      2  C   UNL A   1      36.858  22.317  24.820  1.00  0.00     0.021 C 
BRANCH   2   3
ATOM      3  C   UNL A   1      35.991  21.293  25.555  1.00  0.00     0.116 C 
BRANCH   3   4
ATOM      4  N   UNL A   1      34.842  20.950  24.741  1.00  0.00    -0.352 N 
ATOM      5  C   UNL A   1      33.744  21.668  24.345  1.00  0.00     0.251 C 
ATOM      6  O   UNL A   1      32.901  21.088  23.661  1.00  0.00    -0.269 OA
ATOM      7  H   UNL A   1      34.853  20.022  24.410  1.00  0.00     0.163 HD
BRANCH   5   8
ATOM      8  C   UNL A   1      33.572  23.115  24.641  1.00  0.00     0.039 A 
ATOM      9  C   UNL A   1      33.469  25.904  25.074  1.00  0.00     0.060 A 
ATOM     10  C   UNL A   1      33.883  25.387  23.843  1.00  0.00     0.029 A 
ATOM     11  C   UNL A   1      33.037  25.012  26.058  1.00  0.00     0.029 A 
ATOM     12  C   UNL A   1      33.952  24.009  23.632  1.00  0.00     0.016 A 
ATOM     13  C   UNL A   1      33.049  23.632  25.830  1.00  0.00     0.016 A 
BRANCH   9  14
ATOM     14  N   UNL A   1      33.513  27.267  25.297  1.00  0.00    -0.257 N 
ATOM     15  C   UNL A   1      33.143  28.279  24.309  1.00  0.00     0.144 C 
ATOM     16  C   UNL A   1      33.397  29.589  25.068  1.00  0.00     0.091 C 
ATOM     17  C   UNL A   1      34.010  29.045  26.329  1.00  0.00     0.071 C 
ATOM     18  N   UNL A   1      34.062  27.755  26.431  1.00  0.00    -0.176 NA
BRANCH  15  19
ATOM     19  C   UNL A   1      31.706  28.111  23.844  1.00  0.00    -0.019 A 
ATOM     20  C   UNL A   1      29.835  28.784  22.430  1.00  0.00     0.119 A 
ATOM     21  C   UNL A   1      29.006  27.897  23.115  1.00  0.00     0.046 A 
ATOM     22  C   UNL A   1      31.176  28.898  22.802  1.00  0.00     0.052 A 
ATOM     23  C   UNL A   1      29.515  27.104  24.142  1.00  0.00     0.004 A 
ATOM     24  C   UNL A   1      30.859  27.207  24.504  1.00  0.00     0.006 A 
BRANCH  20  25
ATOM     25  O   UNL A   1      29.219  29.518  21.453  1.00  0.00    -0.497 OA
ATOM     26  C   UNL A   1      27.998  30.146  21.827  1.00  0.00     0.278 C 
ENDBRANCH  20  25
ENDBRANCH  15  19
BRANCH  17  27
ATOM     27  C   UNL A   1      34.547  29.932  27.363  1.00  0.00    -0.002 A 
ATOM     28  C   UNL A   1      35.653  29.498  28.100  1.00  0.00     0.011 A 
ATOM     29  C   UNL A   1      33.935  31.157  27.636  1.00  0.00     0.011 A 
ATOM     30  C   UNL A   1      36.167  30.302  29.115  1.00  0.00     0.021 A 
ATOM     31  C   UNL A   1      34.430  31.952  28.672  1.00  0.00     0.021 A 
ATOM     32  C   UNL A   1      35.539  31.517  29.407  1.00  0.00     0.067 A 
BRANCH  32  33
ATOM     33  S   UNL A   1      36.176  32.517  30.733  1.00  0.00     0.175 S 
ATOM     34  C   UNL A   1      34.800  32.698  31.838  1.00  0.00     0.163 C 
ATOM     35  O   UNL A   1      37.199  31.730  31.393  1.00  0.00    -0.224 OA
ATOM     36  O   UNL A   1      36.475  33.827  30.187  1.00  0.00    -0.224 OA
ENDBRANCH  32  33
ENDBRANCH  17  27
ENDBRANCH   9  14
ENDBRANCH   5   8
ENDBRANCH   3   4
ENDBRANCH   2   3
ENDBRANCH   1   2
BRANCH   1  37
ATOM     37  C   UNL A   1      38.525  23.594  26.325  1.00  0.00     0.002 C 
BRANCH  37  38
ATOM     38  C   UNL A   1      38.834  24.861  27.128  1.00  0.00     0.021 C 
BRANCH  38  39
ATOM     39  C   UNL A   1      40.288  24.985  27.572  1.00  0.00     0.116 C 
BRANCH  39  40
ATOM     40  N   UNL A   1      40.998  23.725  27.441  1.00  0.00    -0.352 N 
ATOM     41  C   UNL A   1      42.296  23.495  27.065  1.00  0.00     0.251 C 
ATOM     42  H   UNL A   1      40.472  22.920  27.651  1.00  0.00     0.163 HD
ATOM     43  O   UNL A   1      42.667  22.357  26.796  1.00  0.00    -0.269 OA
BRANCH  41  44
ATOM     44  C   UNL A   1      43.256  24.618  26.981  1.00  0.00     0.039 A 
ATOM     45  C   UNL A   1      43.546  25.161  25.726  1.00  0.00     0.014 A 
ATOM     46  C   UNL A   1      43.911  25.093  28.121  1.00  0.00     0.014 A 
ATOM     47  C   UNL A   1      44.478  26.196  25.617  1.00  0.00     0.010 A 
ATOM     48  C   UNL A   1      44.792  26.167  28.019  1.00  0.00     0.010 A 
ATOM     49  C   UNL A   1      45.101  26.711  26.764  1.00  0.00    -0.014 A 
BRANCH  49  50
ATOM     50  C   UNL A   1      46.127  27.778  26.662  1.00  0.00     0.031 A 
ATOM     51  C   UNL A   1      45.711  29.222  26.721  1.00  0.00     0.074 A 
ATOM     52  C   UNL A   1      47.420  27.453  26.475  1.00  0.00     0.049 A 
ATOM     53  N   UNL A   1      46.440  30.301  26.589  1.00  0.00    -0.248 NA
ATOM     54  C   UNL A   1      44.277  29.489  26.927  1.00  0.00     0.031 C 
ATOM     55  C   UNL A   1      47.944  26.090  26.366  1.00  0.00     0.029 A 
ATOM     56  N   UNL A   1      48.528  28.249  26.339  1.00  0.00    -0.354 N 
ATOM     57  C   UNL A   1      45.554  31.368  26.677  1.00  0.00     0.074 A 
ATOM     58  C   UNL A   1      44.229  30.808  26.823  1.00  0.00     0.031 C 
ATOM     59  C   UNL A   1      49.275  26.146  26.199  1.00  0.00     0.029 A 
ATOM     60  C   UNL A   1      49.693  27.544  26.161  1.00  0.00     0.049 A 
ATOM     61  H   UNL A   1      48.493  29.232  26.365  1.00  0.00     0.167 HD
ATOM     62  C   UNL A   1      45.824  32.695  26.660  1.00  0.00     0.037 A 
ATOM     63  C   UNL A   1      50.956  27.980  25.988  1.00  0.00     0.037 A 
ATOM     64  C   UNL A   1      47.146  33.250  26.553  1.00  0.00     0.049 A 
ATOM     65  C   UNL A   1      51.231  29.458  25.994  1.00  0.00     0.074 A 
ATOM     66  C   UNL A   1      47.529  34.580  26.577  1.00  0.00     0.029 A 
ATOM     67  N   UNL A   1      48.304  32.501  26.409  1.00  0.00    -0.354 N 
ATOM     68  N   UNL A   1      50.390  30.455  26.128  1.00  0.00    -0.248 NA
ATOM     69  C   UNL A   1      52.633  29.870  25.834  1.00  0.00     0.031 C 
ATOM     70  C   UNL A   1      48.919  34.637  26.420  1.00  0.00     0.029 A 
ATOM     71  C   UNL A   1      49.402  33.341  26.335  1.00  0.00     0.049 A 
ATOM     72  H   UNL A   1      48.340  31.518  26.366  1.00  0.00     0.167 HD
ATOM     73  C   UNL A   1      51.162  31.609  26.103  1.00  0.00     0.074 A 
ATOM     74  C   UNL A   1      52.540  31.187  25.948  1.00  0.00     0.031 C 
ATOM     75  C   UNL A   1      50.767  32.902  26.199  1.00  0.00     0.037 A 
BRANCH  62  76
ATOM     76  C   UNL A   1      44.659  33.636  26.770  1.00  0.00     0.057 A 
ATOM     77  C   UNL A   1      44.209  34.110  28.009  1.00  0.00     0.134 A 
ATOM     78  C   UNL A   1      43.996  34.090  25.624  1.00  0.00     0.134 A 
ATOM     79  F   UNL A   1      44.794  33.702  29.146  1.00  0.00    -0.206 F 
ATOM     80  C   UNL A   1      43.123  34.981  28.107  1.00  0.00     0.040 A 
ATOM     81  C   UNL A   1      42.924  34.982  25.707  1.00  0.00     0.040 A 
ATOM     82  F   UNL A   1      44.378  33.679  24.406  1.00  0.00    -0.206 F 
ATOM     83  C   UNL A   1      42.481  35.424  26.952  1.00  0.00     0.006 A 
ENDBRANCH  62  76
BRANCH  63  84
ATOM     84  C   UNL A   1      52.063  27.004  25.832  1.00  0.00     0.057 A 
ATOM     85  C   UNL A   1      52.797  26.567  26.939  1.00  0.00     0.134 A 
ATOM     86  C   UNL A   1      52.418  26.495  24.577  1.00  0.00     0.134 A 
ATOM     87  F   UNL A   1      52.515  27.034  28.164  1.00  0.00    -0.206 F 
ATOM     88  C   UNL A   1      53.860  25.671  26.804  1.00  0.00     0.040 A 
ATOM     89  C   UNL A   1      53.463  25.581  24.431  1.00  0.00     0.040 A 
ATOM     90  F   UNL A   1      51.746  26.869  23.479  1.00  0.00    -0.206 F 
ATOM     91  C   UNL A   1      54.192  25.172  25.547  1.00  0.00     0.006 A 
ENDBRANCH  63  84
BRANCH  75  92
ATOM     92  C   UNL A   1      51.839  33.949  26.186  1.00  0.00     0.057 A 
ATOM     93  C   UNL A   1      52.469  34.377  27.361  1.00  0.00     0.134 A 
ATOM     94  C   UNL A   1      52.273  34.506  24.976  1.00  0.00     0.134 A 
ATOM     95  F   UNL A   1      52.089  33.890  28.552  1.00  0.00    -0.206 F 
ATOM     96  C   UNL A   1      53.480  35.339  27.335  1.00  0.00     0.040 A 
ATOM     97  C   UNL A   1      53.299  35.452  24.936  1.00  0.00     0.040 A 
ATOM     98  F   UNL A   1      51.716  34.131  23.815  1.00  0.00    -0.206 F 
ATOM     99  C   UNL A   1      53.900  35.874  26.120  1.00  0.00     0.006 A 
ENDBRANCH  75  92
ENDBRANCH  49  50
ENDBRANCH  41  44
ENDBRANCH  39  40
ENDBRANCH  38  39
ENDBRANCH  37  38
ENDBRANCH   1  37
TORSDOF 18
ENDMDL
MODEL 3
REMARK VINA RESULT:     -11.9      3.345      8.819
REMARK SMILES COc1cccc([C@H]2CC(c3ccc(S(C)(=O)=O)cc3)=NN2c2ccc(C(=O)NCCCCCCNC(=O)c3ccc(-c4c5nc(c(-c6c(F)cccc6F)c6ccc([nH]6)c(-c6c(F)cccc6F)c6nc(c(-c7c(F)cccc7F)c7ccc4[nH]7)C=C6)C=C5)cc3)cc2)c1
REMARK SMILES IDX 32 1 31 2 30 3 29 4 27 5 28 6 26 8 23 9 24 10 94 11 25 12
REMARK SMILES IDX 93 13 22 14 8 15 9 16 10 17 21 18 7 19 3 20 4 21 95 22 5 23
REMARK SMILES IDX 6 24 2 25 1 26 11 27 12 28 20 29 13 30 19 31 14 32 15 33
REMARK SMILES IDX 16 34 17 35 18 36 33 37 34 38 35 39 36 40 37 41 38 43 39 44
REMARK SMILES IDX 40 45 92 46 41 47 91 48 42 49 43 50 44 51 85 52 45 53 90 54
REMARK SMILES IDX 84 55 86 56 46 57 89 58 83 59 82 60 47 62 73 63 56 64 72 65
REMARK SMILES IDX 57 66 60 67 71 68 87 69 58 70 59 71 70 73 88 74 61 75 48 76
REMARK SMILES IDX 49 77 54 78 50 79 51 80 53 81 55 82 52 83 74 84 75 85 80 86
REMARK SMILES IDX 76 87 77 88 79 89 81 90 78 91 62 92 63 93 68 94 64 95 65 96
REMARK SMILES IDX 67 97 69 98 66 99
REMARK H PARENT 29 7 36 42 86 61 60 72
REMARK Flexibility Score: inf
ROOT
ATOM      1  C   UNL A   1      37.341  30.444  30.583  1.00  0.00     0.002 C 
ENDROOT
BRANCH   1   2
ATOM      2  C   UNL A   1      36.816  29.320  29.679  1.00  0.00     0.021 C 
BRANCH   2   3
ATOM      3  C   UNL A   1      36.640  29.754  28.223  1.00  0.00     0.116 C 
BRANCH   3   4
ATOM      4  N   UNL A   1      35.571  30.729  28.129  1.00  0.00    -0.352 N 
ATOM      5  C   UNL A   1      34.282  30.644  27.672  1.00  0.00     0.251 C 
ATOM      6  O   UNL A   1      33.602  31.669  27.693  1.00  0.00    -0.269 OA
ATOM      7  H   UNL A   1      35.820  31.624  28.456  1.00  0.00     0.163 HD
BRANCH   5   8
ATOM      8  C   UNL A   1      33.662  29.366  27.230  1.00  0.00     0.039 A 
ATOM      9  C   UNL A   1      32.593  26.983  26.156  1.00  0.00     0.060 A 
ATOM     10  C   UNL A   1      33.898  27.382  25.852  1.00  0.00     0.029 A 
ATOM     11  C   UNL A   1      31.859  27.750  27.063  1.00  0.00     0.029 A 
ATOM     12  C   UNL A   1      34.422  28.568  26.365  1.00  0.00     0.016 A 
ATOM     13  C   UNL A   1      32.402  28.910  27.626  1.00  0.00     0.016 A 
BRANCH   9  14
ATOM     14  N   UNL A   1      32.057  25.863  25.550  1.00  0.00    -0.257 N 
ATOM     15  C   UNL A   1      30.680  25.762  25.069  1.00  0.00     0.144 C 
ATOM     16  C   UNL A   1      30.626  24.329  24.520  1.00  0.00     0.091 C 
ATOM     17  C   UNL A   1      31.987  23.840  24.936  1.00  0.00     0.071 C 
ATOM     18  N   UNL A   1      32.760  24.709  25.505  1.00  0.00    -0.176 NA
BRANCH  15  19
ATOM     19  C   UNL A   1      30.370  26.827  24.029  1.00  0.00    -0.019 A 
ATOM     20  C   UNL A   1      28.806  28.367  22.963  1.00  0.00     0.119 A 
ATOM     21  C   UNL A   1      29.769  28.668  22.001  1.00  0.00     0.046 A 
ATOM     22  C   UNL A   1      29.103  27.441  23.965  1.00  0.00     0.052 A 
ATOM     23  C   UNL A   1      31.030  28.077  22.054  1.00  0.00     0.004 A 
ATOM     24  C   UNL A   1      31.332  27.163  23.064  1.00  0.00     0.006 A 
BRANCH  20  25
ATOM     25  O   UNL A   1      27.603  28.997  22.799  1.00  0.00    -0.497 OA
ATOM     26  C   UNL A   1      27.658  30.414  22.674  1.00  0.00     0.278 C 
ENDBRANCH  20  25
ENDBRANCH  15  19
BRANCH  17  27
ATOM     27  C   UNL A   1      32.393  22.447  24.736  1.00  0.00    -0.002 A 
ATOM     28  C   UNL A   1      32.158  21.861  23.488  1.00  0.00     0.011 A 
ATOM     29  C   UNL A   1      32.953  21.713  25.784  1.00  0.00     0.011 A 
ATOM     30  C   UNL A   1      32.500  20.527  23.277  1.00  0.00     0.021 A 
ATOM     31  C   UNL A   1      33.270  20.368  25.582  1.00  0.00     0.021 A 
ATOM     32  C   UNL A   1      33.037  19.784  24.332  1.00  0.00     0.067 A 
BRANCH  32  33
ATOM     33  S   UNL A   1      33.430  18.070  24.064  1.00  0.00     0.175 S 
ATOM     34  C   UNL A   1      32.529  17.215  25.333  1.00  0.00     0.163 C 
ATOM     35  O   UNL A   1      32.869  17.711  22.777  1.00  0.00    -0.224 OA
ATOM     36  O   UNL A   1      34.844  17.898  24.339  1.00  0.00    -0.224 OA
ENDBRANCH  32  33
ENDBRANCH  17  27
ENDBRANCH   9  14
ENDBRANCH   5   8
ENDBRANCH   3   4
ENDBRANCH   2   3
ENDBRANCH   1   2
BRANCH   1  37
ATOM     37  C   UNL A   1      36.582  30.611  31.905  1.00  0.00     0.002 C 
BRANCH  37  38
ATOM     38  C   UNL A   1      35.500  31.695  31.897  1.00  0.00     0.021 C 
BRANCH  38  39
ATOM     39  C   UNL A   1      35.904  32.981  31.184  1.00  0.00     0.116 C 
BRANCH  39  40
ATOM     40  N   UNL A   1      36.390  33.983  32.117  1.00  0.00    -0.352 N 
ATOM     41  C   UNL A   1      37.667  34.208  32.562  1.00  0.00     0.251 C 
ATOM     42  H   UNL A   1      35.704  34.587  32.482  1.00  0.00     0.163 HD
ATOM     43  O   UNL A   1      37.863  34.954  33.515  1.00  0.00    -0.269 OA
BRANCH  41  44
ATOM     44  C   UNL A   1      38.812  33.550  31.896  1.00  0.00     0.039 A 
ATOM     45  C   UNL A   1      39.046  33.813  30.543  1.00  0.00     0.014 A 
ATOM     46  C   UNL A   1      39.616  32.634  32.583  1.00  0.00     0.014 A 
ATOM     47  C   UNL A   1      40.097  33.173  29.884  1.00  0.00     0.010 A 
ATOM     48  C   UNL A   1      40.703  32.046  31.941  1.00  0.00     0.010 A 
ATOM     49  C   UNL A   1      40.939  32.291  30.580  1.00  0.00    -0.014 A 
BRANCH  49  50
ATOM     50  C   UNL A   1      42.032  31.568  29.885  1.00  0.00     0.031 A 
ATOM     51  C   UNL A   1      43.345  32.259  29.641  1.00  0.00     0.074 A 
ATOM     52  C   UNL A   1      41.832  30.314  29.439  1.00  0.00     0.049 A 
ATOM     53  N   UNL A   1      44.401  31.827  29.000  1.00  0.00    -0.248 NA
ATOM     54  C   UNL A   1      43.479  33.629  30.162  1.00  0.00     0.031 C 
ATOM     55  C   UNL A   1      40.591  29.551  29.584  1.00  0.00     0.029 A 
ATOM     56  N   UNL A   1      42.671  29.463  28.767  1.00  0.00    -0.354 N 
ATOM     57  C   UNL A   1      45.313  32.875  29.024  1.00  0.00     0.074 A 
ATOM     58  C   UNL A   1      44.669  33.981  29.699  1.00  0.00     0.031 C 
ATOM     59  C   UNL A   1      40.758  28.337  29.034  1.00  0.00     0.029 A 
ATOM     60  C   UNL A   1      42.104  28.247  28.476  1.00  0.00     0.049 A 
ATOM     61  H   UNL A   1      43.593  29.701  28.517  1.00  0.00     0.167 HD
ATOM     62  C   UNL A   1      46.580  32.907  28.548  1.00  0.00     0.037 A 
ATOM     63  C   UNL A   1      42.614  27.181  27.831  1.00  0.00     0.037 A 
ATOM     64  C   UNL A   1      47.232  31.794  27.911  1.00  0.00     0.049 A 
ATOM     65  C   UNL A   1      44.031  27.234  27.329  1.00  0.00     0.074 A 
ATOM     66  C   UNL A   1      48.530  31.709  27.440  1.00  0.00     0.029 A 
ATOM     67  N   UNL A   1      46.634  30.568  27.665  1.00  0.00    -0.354 N 
ATOM     68  N   UNL A   1      44.898  28.214  27.404  1.00  0.00    -0.248 NA
ATOM     69  C   UNL A   1      44.543  26.027  26.664  1.00  0.00     0.031 C 
ATOM     70  C   UNL A   1      48.709  30.438  26.882  1.00  0.00     0.029 A 
ATOM     71  C   UNL A   1      47.534  29.721  27.041  1.00  0.00     0.049 A 
ATOM     72  H   UNL A   1      45.707  30.333  27.900  1.00  0.00     0.167 HD
ATOM     73  C   UNL A   1      46.066  27.733  26.826  1.00  0.00     0.074 A 
ATOM     74  C   UNL A   1      45.798  26.371  26.413  1.00  0.00     0.031 C 
ATOM     75  C   UNL A   1      47.254  28.362  26.653  1.00  0.00     0.037 A 
BRANCH  62  76
ATOM     76  C   UNL A   1      47.345  34.188  28.709  1.00  0.00     0.057 A 
ATOM     77  C   UNL A   1      47.317  35.191  27.732  1.00  0.00     0.134 A 
ATOM     78  C   UNL A   1      48.098  34.431  29.864  1.00  0.00     0.134 A 
ATOM     79  F   UNL A   1      46.625  35.014  26.595  1.00  0.00    -0.206 F 
ATOM     80  C   UNL A   1      48.033  36.379  27.884  1.00  0.00     0.040 A 
ATOM     81  C   UNL A   1      48.798  35.627  30.040  1.00  0.00     0.040 A 
ATOM     82  F   UNL A   1      48.164  33.516  30.841  1.00  0.00    -0.206 F 
ATOM     83  C   UNL A   1      48.772  36.602  29.044  1.00  0.00     0.006 A 
ENDBRANCH  62  76
BRANCH  63  84
ATOM     84  C   UNL A   1      41.794  25.957  27.653  1.00  0.00     0.057 A 
ATOM     85  C   UNL A   1      40.809  25.890  26.663  1.00  0.00     0.134 A 
ATOM     86  C   UNL A   1      41.968  24.835  28.471  1.00  0.00     0.134 A 
ATOM     87  F   UNL A   1      40.585  26.941  25.860  1.00  0.00    -0.206 F 
ATOM     88  C   UNL A   1      40.011  24.756  26.501  1.00  0.00     0.040 A 
ATOM     89  C   UNL A   1      41.192  23.686  28.306  1.00  0.00     0.040 A 
ATOM     90  F   UNL A   1      42.901  24.835  29.434  1.00  0.00    -0.206 F 
ATOM     91  C   UNL A   1      40.204  23.648  27.323  1.00  0.00     0.006 A 
ENDBRANCH  63  84
BRANCH  75  92
ATOM     92  C   UNL A   1      48.364  27.571  26.032  1.00  0.00     0.057 A 
ATOM     93  C   UNL A   1      48.490  27.437  24.644  1.00  0.00     0.134 A 
ATOM     94  C   UNL A   1      49.342  26.968  26.834  1.00  0.00     0.134 A 
ATOM     95  F   UNL A   1      47.579  27.981  23.823  1.00  0.00    -0.206 F 
ATOM     96  C   UNL A   1      49.540  26.714  24.075  1.00  0.00     0.040 A 
ATOM     97  C   UNL A   1      50.408  26.262  26.276  1.00  0.00     0.040 A 
ATOM     98  F   UNL A   1      49.282  27.067  28.171  1.00  0.00    -0.206 F 
ATOM     99  C   UNL A   1      50.505  26.129  24.892  1.00  0.00     0.006 A 
ENDBRANCH  75  92
ENDBRANCH  49  50
ENDBRANCH  41  44
ENDBRANCH  39  40
ENDBRANCH  38  39
ENDBRANCH  37  38
ENDBRANCH   1  37
TORSDOF 18
ENDMDL
