MODEL 1
REMARK VINA RESULT:     -12.3      0.000      0.000
REMARK SMILES Cc1cc2cc(-c3ccc([C@@H](C)C(=O)NCCCCCCNC(=O)c4ccc(-c5c6nc(c(-c7c(F)cccc7F)c7ccc([nH]7)c(-c7c(F)cccc7F)c7nc(c(-c8c(F)cccc8F)c8ccc5[nH]8)C=C7)C=C6)cc4)cc3)ccc2[nH]1
REMARK SMILES IDX 18 1 17 2 16 3 15 4 13 5 14 6 11 8 12 9 10 10 7 11 8 12
REMARK SMILES IDX 80 13 9 14 79 15 6 16 1 17 2 18 3 19 84 20 4 21 83 22 5 24
REMARK SMILES IDX 82 25 81 26 19 27 20 28 21 29 22 30 23 31 24 33 25 34 26 35
REMARK SMILES IDX 78 36 27 37 77 38 28 39 29 40 30 41 71 42 31 43 76 44 70 45
REMARK SMILES IDX 72 46 32 47 75 48 69 49 68 50 33 52 59 53 42 54 58 55 43 56
REMARK SMILES IDX 46 57 57 58 73 59 44 60 45 61 56 63 74 64 47 65 34 66 35 67
REMARK SMILES IDX 40 68 36 69 37 70 39 71 41 72 38 73 60 74 61 75 66 76 62 77
REMARK SMILES IDX 63 78 65 79 67 80 64 81 48 82 49 83 54 84 50 85 51 86 53 87
REMARK SMILES IDX 55 88 52 89
REMARK H PARENT 15 7 84 23 22 32 72 51 46 62
REMARK Flexibility Score: inf
ROOT
ATOM      1  C   UNL A   1      34.003  25.747  25.695  1.00  0.00     0.002 C 
ENDROOT
BRANCH   1   2
ATOM      2  C   UNL A   1      34.461  24.732  24.643  1.00  0.00     0.021 C 
BRANCH   2   3
ATOM      3  C   UNL A   1      34.876  23.378  25.223  1.00  0.00     0.116 C 
BRANCH   3   4
ATOM      4  N   UNL A   1      34.302  23.153  26.533  1.00  0.00    -0.356 N 
ATOM      5  C   UNL A   1      33.064  22.743  26.923  1.00  0.00     0.227 C 
ATOM      6  O   UNL A   1      32.849  22.726  28.140  1.00  0.00    -0.274 OA
ATOM      7  H   UNL A   1      34.920  23.331  27.279  1.00  0.00     0.163 HD
BRANCH   5   8
ATOM      8  C   UNL A   1      31.965  22.295  25.947  1.00  0.00     0.105 C 
ATOM      9  C   UNL A   1      32.414  21.218  24.957  1.00  0.00     0.023 C 
BRANCH   8  10
ATOM     10  C   UNL A   1      31.169  23.448  25.358  1.00  0.00    -0.036 A 
ATOM     11  C   UNL A   1      29.747  25.700  24.318  1.00  0.00    -0.018 A 
ATOM     12  C   UNL A   1      30.349  24.750  23.478  1.00  0.00     0.009 A 
ATOM     13  C   UNL A   1      29.863  25.488  25.699  1.00  0.00     0.009 A 
ATOM     14  C   UNL A   1      31.012  23.630  23.984  1.00  0.00     0.005 A 
ATOM     15  C   UNL A   1      30.576  24.393  26.210  1.00  0.00     0.005 A 
BRANCH  11  16
ATOM     16  C   UNL A   1      29.030  26.859  23.740  1.00  0.00    -0.018 A 
ATOM     17  C   UNL A   1      28.375  32.333  21.057  1.00  0.00     0.064 C 
ATOM     18  C   UNL A   1      28.469  30.999  21.694  1.00  0.00     0.013 A 
ATOM     19  C   UNL A   1      29.559  30.181  21.901  1.00  0.00     0.031 A 
ATOM     20  N   UNL A   1      27.369  30.351  22.204  1.00  0.00    -0.359 N 
ATOM     21  C   UNL A   1      29.106  29.013  22.569  1.00  0.00     0.000 A 
ATOM     22  C   UNL A   1      27.734  29.143  22.755  1.00  0.00     0.046 A 
ATOM     23  H   UNL A   1      26.449  30.701  22.178  1.00  0.00     0.166 HD
ATOM     24  C   UNL A   1      29.747  27.855  23.045  1.00  0.00     0.019 A 
ATOM     25  C   UNL A   1      26.971  28.164  23.399  1.00  0.00     0.027 A 
ATOM     26  C   UNL A   1      27.645  27.034  23.893  1.00  0.00     0.011 A 
ENDBRANCH  11  16
ENDBRANCH   8  10
ENDBRANCH   5   8
ENDBRANCH   3   4
ENDBRANCH   2   3
ENDBRANCH   1   2
BRANCH   1  27
ATOM     27  C   UNL A   1      33.234  26.957  25.146  1.00  0.00     0.002 C 
BRANCH  27  28
ATOM     28  C   UNL A   1      32.779  27.982  26.192  1.00  0.00     0.021 C 
BRANCH  28  29
ATOM     29  C   UNL A   1      33.845  28.376  27.211  1.00  0.00     0.116 C 
BRANCH  29  30
ATOM     30  N   UNL A   1      33.759  29.782  27.573  1.00  0.00    -0.352 N 
ATOM     31  C   UNL A   1      34.665  30.579  28.225  1.00  0.00     0.251 C 
ATOM     32  H   UNL A   1      32.922  30.229  27.311  1.00  0.00     0.163 HD
ATOM     33  O   UNL A   1      34.327  31.685  28.635  1.00  0.00    -0.269 OA
BRANCH  31  34
ATOM     34  C   UNL A   1      36.050  30.109  28.446  1.00  0.00     0.039 A 
ATOM     35  C   UNL A   1      36.970  30.202  27.399  1.00  0.00     0.014 A 
ATOM     36  C   UNL A   1      36.430  29.538  29.664  1.00  0.00     0.014 A 
ATOM     37  C   UNL A   1      38.286  29.772  27.589  1.00  0.00     0.010 A 
ATOM     38  C   UNL A   1      37.756  29.166  29.873  1.00  0.00     0.010 A 
ATOM     39  C   UNL A   1      38.695  29.274  28.836  1.00  0.00    -0.014 A 
BRANCH  39  40
ATOM     40  C   UNL A   1      40.098  28.849  29.072  1.00  0.00     0.031 A 
ATOM     41  C   UNL A   1      41.075  29.790  29.718  1.00  0.00     0.074 A 
ATOM     42  C   UNL A   1      40.506  27.637  28.649  1.00  0.00     0.049 A 
ATOM     43  N   UNL A   1      42.356  29.632  29.936  1.00  0.00    -0.248 NA
ATOM     44  C   UNL A   1      40.547  31.092  30.156  1.00  0.00     0.031 C 
ATOM     45  C   UNL A   1      39.664  26.646  27.976  1.00  0.00     0.029 A 
ATOM     46  N   UNL A   1      41.739  27.036  28.714  1.00  0.00    -0.354 N 
ATOM     47  C   UNL A   1      42.788  30.814  30.523  1.00  0.00     0.074 A 
ATOM     48  C   UNL A   1      41.644  31.699  30.582  1.00  0.00     0.031 C 
ATOM     49  C   UNL A   1      40.400  25.555  27.707  1.00  0.00     0.029 A 
ATOM     50  C   UNL A   1      41.770  25.781  28.157  1.00  0.00     0.049 A 
ATOM     51  H   UNL A   1      42.526  27.465  29.122  1.00  0.00     0.167 HD
ATOM     52  C   UNL A   1      44.020  31.128  30.990  1.00  0.00     0.037 A 
ATOM     53  C   UNL A   1      42.790  24.914  28.018  1.00  0.00     0.037 A 
ATOM     54  C   UNL A   1      45.151  30.238  30.952  1.00  0.00     0.049 A 
ATOM     55  C   UNL A   1      44.150  25.289  28.537  1.00  0.00     0.074 A 
ATOM     56  C   UNL A   1      46.430  30.447  31.440  1.00  0.00     0.029 A 
ATOM     57  N   UNL A   1      45.137  28.969  30.394  1.00  0.00    -0.354 N 
ATOM     58  N   UNL A   1      44.532  26.392  29.135  1.00  0.00    -0.248 NA
ATOM     59  C   UNL A   1      45.221  24.296  28.366  1.00  0.00     0.031 C 
ATOM     60  C   UNL A   1      47.199  29.315  31.149  1.00  0.00     0.029 A 
ATOM     61  C   UNL A   1      46.389  28.387  30.515  1.00  0.00     0.049 A 
ATOM     62  H   UNL A   1      44.355  28.544  29.975  1.00  0.00     0.167 HD
ATOM     63  C   UNL A   1      45.875  26.213  29.437  1.00  0.00     0.074 A 
ATOM     64  C   UNL A   1      46.241  24.893  28.966  1.00  0.00     0.031 C 
ATOM     65  C   UNL A   1      46.731  27.067  30.051  1.00  0.00     0.037 A 
BRANCH  52  66
ATOM     66  C   UNL A   1      44.204  32.491  31.590  1.00  0.00     0.057 A 
ATOM     67  C   UNL A   1      43.994  32.729  32.954  1.00  0.00     0.134 A 
ATOM     68  C   UNL A   1      44.626  33.570  30.804  1.00  0.00     0.134 A 
ATOM     69  F   UNL A   1      43.578  31.740  33.760  1.00  0.00    -0.206 F 
ATOM     70  C   UNL A   1      44.170  33.997  33.511  1.00  0.00     0.040 A 
ATOM     71  C   UNL A   1      44.831  34.837  31.354  1.00  0.00     0.040 A 
ATOM     72  F   UNL A   1      44.852  33.411  29.491  1.00  0.00    -0.206 F 
ATOM     73  C   UNL A   1      44.596  35.054  32.710  1.00  0.00     0.006 A 
ENDBRANCH  52  66
BRANCH  53  74
ATOM     74  C   UNL A   1      42.562  23.593  27.382  1.00  0.00     0.057 A 
ATOM     75  C   UNL A   1      42.187  22.483  28.147  1.00  0.00     0.134 A 
ATOM     76  C   UNL A   1      42.722  23.406  26.005  1.00  0.00     0.134 A 
ATOM     77  F   UNL A   1      42.038  22.597  29.474  1.00  0.00    -0.206 F 
ATOM     78  C   UNL A   1      41.998  21.227  27.568  1.00  0.00     0.040 A 
ATOM     79  C   UNL A   1      42.514  22.160  25.409  1.00  0.00     0.040 A 
ATOM     80  F   UNL A   1      43.074  24.432  25.216  1.00  0.00    -0.206 F 
ATOM     81  C   UNL A   1      42.157  21.064  26.193  1.00  0.00     0.006 A 
ENDBRANCH  53  74
BRANCH  65  82
ATOM     82  C   UNL A   1      48.131  26.585  30.281  1.00  0.00     0.057 A 
ATOM     83  C   UNL A   1      48.489  25.875  31.434  1.00  0.00     0.134 A 
ATOM     84  C   UNL A   1      49.127  26.805  29.320  1.00  0.00     0.134 A 
ATOM     85  F   UNL A   1      47.584  25.645  32.398  1.00  0.00    -0.206 F 
ATOM     86  C   UNL A   1      49.792  25.417  31.632  1.00  0.00     0.040 A 
ATOM     87  C   UNL A   1      50.427  26.332  29.496  1.00  0.00     0.040 A 
ATOM     88  F   UNL A   1      48.847  27.473  28.190  1.00  0.00    -0.206 F 
ATOM     89  C   UNL A   1      50.764  25.640  30.658  1.00  0.00     0.006 A 
ENDBRANCH  65  82
ENDBRANCH  39  40
ENDBRANCH  31  34
ENDBRANCH  29  30
ENDBRANCH  28  29
ENDBRANCH  27  28
ENDBRANCH   1  27
TORSDOF 15
ENDMDL
MODEL 2
REMARK VINA RESULT:     -12.2      1.773      2.544
REMARK SMILES Cc1cc2cc(-c3ccc([C@@H](C)C(=O)NCCCCCCNC(=O)c4ccc(-c5c6nc(c(-c7c(F)cccc7F)c7ccc([nH]7)c(-c7c(F)cccc7F)c7nc(c(-c8c(F)cccc8F)c8ccc5[nH]8)C=C7)C=C6)cc4)cc3)ccc2[nH]1
REMARK SMILES IDX 18 1 17 2 16 3 15 4 13 5 14 6 11 8 12 9 10 10 7 11 8 12
REMARK SMILES IDX 80 13 9 14 79 15 6 16 1 17 2 18 3 19 84 20 4 21 83 22 5 24
REMARK SMILES IDX 82 25 81 26 19 27 20 28 21 29 22 30 23 31 24 33 25 34 26 35
REMARK SMILES IDX 78 36 27 37 77 38 28 39 29 40 30 41 71 42 31 43 76 44 70 45
REMARK SMILES IDX 72 46 32 47 75 48 69 49 68 50 33 52 59 53 42 54 58 55 43 56
REMARK SMILES IDX 46 57 57 58 73 59 44 60 45 61 56 63 74 64 47 65 34 66 35 67
REMARK SMILES IDX 40 68 36 69 37 70 39 71 41 72 38 73 60 74 61 75 66 76 62 77
REMARK SMILES IDX 63 78 65 79 67 80 64 81 48 82 49 83 54 84 50 85 51 86 53 87
REMARK SMILES IDX 55 88 52 89
REMARK H PARENT 15 7 84 23 22 32 72 51 46 62
REMARK Flexibility Score: inf
ROOT
ATOM      1  C   UNL A   1      33.831  25.736  25.431  1.00  0.00     0.002 C 
ENDROOT
BRANCH   1   2
ATOM      2  C   UNL A   1      34.974  24.824  24.974  1.00  0.00     0.021 C 
BRANCH   2   3
ATOM      3  C   UNL A   1      34.681  23.330  25.133  1.00  0.00     0.116 C 
BRANCH   3   4
ATOM      4  N   UNL A   1      34.229  23.009  26.471  1.00  0.00    -0.356 N 
ATOM      5  C   UNL A   1      33.021  22.599  26.946  1.00  0.00     0.227 C 
ATOM      6  O   UNL A   1      32.925  22.483  28.174  1.00  0.00    -0.274 OA
ATOM      7  H   UNL A   1      34.922  23.104  27.163  1.00  0.00     0.163 HD
BRANCH   5   8
ATOM      8  C   UNL A   1      31.818  22.268  26.051  1.00  0.00     0.105 C 
ATOM      9  C   UNL A   1      32.065  21.112  25.079  1.00  0.00     0.023 C 
BRANCH   8  10
ATOM     10  C   UNL A   1      31.141  23.495  25.464  1.00  0.00    -0.036 A 
ATOM     11  C   UNL A   1      29.787  25.724  24.291  1.00  0.00    -0.018 A 
ATOM     12  C   UNL A   1      29.904  25.575  25.683  1.00  0.00     0.009 A 
ATOM     13  C   UNL A   1      30.378  24.732  23.495  1.00  0.00     0.009 A 
ATOM     14  C   UNL A   1      30.597  24.506  26.256  1.00  0.00     0.005 A 
ATOM     15  C   UNL A   1      31.027  23.629  24.070  1.00  0.00     0.005 A 
BRANCH  11  16
ATOM     16  C   UNL A   1      29.068  26.886  23.724  1.00  0.00    -0.018 A 
ATOM     17  C   UNL A   1      28.403  32.371  21.062  1.00  0.00     0.064 C 
ATOM     18  C   UNL A   1      28.498  31.035  21.695  1.00  0.00     0.013 A 
ATOM     19  C   UNL A   1      29.588  30.212  21.889  1.00  0.00     0.031 A 
ATOM     20  N   UNL A   1      27.402  30.388  22.214  1.00  0.00    -0.359 N 
ATOM     21  C   UNL A   1      29.138  29.044  22.558  1.00  0.00     0.000 A 
ATOM     22  C   UNL A   1      27.769  29.177  22.758  1.00  0.00     0.046 A 
ATOM     23  H   UNL A   1      26.483  30.741  22.198  1.00  0.00     0.166 HD
ATOM     24  C   UNL A   1      29.780  27.883  23.024  1.00  0.00     0.019 A 
ATOM     25  C   UNL A   1      27.009  28.199  23.407  1.00  0.00     0.027 A 
ATOM     26  C   UNL A   1      27.684  27.065  23.891  1.00  0.00     0.011 A 
ENDBRANCH  11  16
ENDBRANCH   8  10
ENDBRANCH   5   8
ENDBRANCH   3   4
ENDBRANCH   2   3
ENDBRANCH   1   2
BRANCH   1  27
ATOM     27  C   UNL A   1      33.411  26.815  24.422  1.00  0.00     0.002 C 
BRANCH  27  28
ATOM     28  C   UNL A   1      33.124  28.199  25.015  1.00  0.00     0.021 C 
BRANCH  28  29
ATOM     29  C   UNL A   1      34.015  28.591  26.192  1.00  0.00     0.116 C 
BRANCH  29  30
ATOM     30  N   UNL A   1      33.876  29.998  26.533  1.00  0.00    -0.352 N 
ATOM     31  C   UNL A   1      34.597  30.764  27.413  1.00  0.00     0.251 C 
ATOM     32  H   UNL A   1      33.153  30.472  26.062  1.00  0.00     0.163 HD
ATOM     33  O   UNL A   1      34.195  31.879  27.730  1.00  0.00    -0.269 OA
BRANCH  31  34
ATOM     34  C   UNL A   1      35.858  30.250  27.991  1.00  0.00     0.039 A 
ATOM     35  C   UNL A   1      35.860  29.797  29.314  1.00  0.00     0.014 A 
ATOM     36  C   UNL A   1      37.044  30.255  27.251  1.00  0.00     0.014 A 
ATOM     37  C   UNL A   1      37.037  29.299  29.876  1.00  0.00     0.010 A 
ATOM     38  C   UNL A   1      38.203  29.703  27.792  1.00  0.00     0.010 A 
ATOM     39  C   UNL A   1      38.212  29.225  29.111  1.00  0.00    -0.014 A 
BRANCH  39  40
ATOM     40  C   UNL A   1      39.465  28.663  29.676  1.00  0.00     0.031 A 
ATOM     41  C   UNL A   1      40.098  29.294  30.885  1.00  0.00     0.074 A 
ATOM     42  C   UNL A   1      40.063  27.623  29.065  1.00  0.00     0.049 A 
ATOM     43  N   UNL A   1      41.227  28.999  31.476  1.00  0.00    -0.248 NA
ATOM     44  C   UNL A   1      39.377  30.422  31.494  1.00  0.00     0.031 C 
ATOM     45  C   UNL A   1      39.569  26.945  27.866  1.00  0.00     0.029 A 
ATOM     46  N   UNL A   1      41.227  26.958  29.366  1.00  0.00    -0.354 N 
ATOM     47  C   UNL A   1      41.359  29.909  32.517  1.00  0.00     0.074 A 
ATOM     48  C   UNL A   1      40.219  30.798  32.446  1.00  0.00     0.031 C 
ATOM     49  C   UNL A   1      40.412  25.951  27.543  1.00  0.00     0.029 A 
ATOM     50  C   UNL A   1      41.522  25.942  28.491  1.00  0.00     0.049 A 
ATOM     51  H   UNL A   1      41.795  27.190  30.136  1.00  0.00     0.167 HD
ATOM     52  C   UNL A   1      42.329  29.986  33.458  1.00  0.00     0.037 A 
ATOM     53  C   UNL A   1      42.573  25.102  28.454  1.00  0.00     0.037 A 
ATOM     54  C   UNL A   1      43.450  29.087  33.542  1.00  0.00     0.049 A 
ATOM     55  C   UNL A   1      43.641  25.213  29.506  1.00  0.00     0.074 A 
ATOM     56  C   UNL A   1      44.461  29.054  34.486  1.00  0.00     0.029 A 
ATOM     57  N   UNL A   1      43.704  28.059  32.647  1.00  0.00    -0.354 N 
ATOM     58  N   UNL A   1      43.726  26.048  30.513  1.00  0.00    -0.248 NA
ATOM     59  C   UNL A   1      44.758  24.261  29.418  1.00  0.00     0.031 C 
ATOM     60  C   UNL A   1      45.347  28.026  34.143  1.00  0.00     0.029 A 
ATOM     61  C   UNL A   1      44.865  27.394  33.009  1.00  0.00     0.049 A 
ATOM     62  H   UNL A   1      43.144  27.835  31.869  1.00  0.00     0.167 HD
ATOM     63  C   UNL A   1      44.886  25.703  31.195  1.00  0.00     0.074 A 
ATOM     64  C   UNL A   1      45.467  24.578  30.493  1.00  0.00     0.031 C 
ATOM     65  C   UNL A   1      45.422  26.268  32.304  1.00  0.00     0.037 A 
BRANCH  52  66
ATOM     66  C   UNL A   1      42.213  31.079  34.481  1.00  0.00     0.057 A 
ATOM     67  C   UNL A   1      41.519  30.891  35.683  1.00  0.00     0.134 A 
ATOM     68  C   UNL A   1      42.827  32.320  34.276  1.00  0.00     0.134 A 
ATOM     69  F   UNL A   1      40.899  29.728  35.935  1.00  0.00    -0.206 F 
ATOM     70  C   UNL A   1      41.417  31.907  36.634  1.00  0.00     0.040 A 
ATOM     71  C   UNL A   1      42.754  33.336  35.231  1.00  0.00     0.040 A 
ATOM     72  F   UNL A   1      43.513  32.566  33.150  1.00  0.00    -0.206 F 
ATOM     73  C   UNL A   1      42.041  33.133  36.411  1.00  0.00     0.006 A 
ENDBRANCH  52  66
BRANCH  53  74
ATOM     74  C   UNL A   1      42.658  24.063  27.398  1.00  0.00     0.057 A 
ATOM     75  C   UNL A   1      43.258  24.341  26.164  1.00  0.00     0.134 A 
ATOM     76  C   UNL A   1      42.136  22.780  27.589  1.00  0.00     0.134 A 
ATOM     77  F   UNL A   1      43.758  25.559  25.916  1.00  0.00    -0.206 F 
ATOM     78  C   UNL A   1      43.319  23.384  25.149  1.00  0.00     0.040 A 
ATOM     79  C   UNL A   1      42.210  21.806  26.591  1.00  0.00     0.040 A 
ATOM     80  F   UNL A   1      41.554  22.450  28.751  1.00  0.00    -0.206 F 
ATOM     81  C   UNL A   1      42.798  22.110  25.364  1.00  0.00     0.006 A 
ENDBRANCH  53  74
BRANCH  65  82
ATOM     82  C   UNL A   1      46.677  25.655  32.846  1.00  0.00     0.057 A 
ATOM     83  C   UNL A   1      47.946  26.063  32.414  1.00  0.00     0.134 A 
ATOM     84  C   UNL A   1      46.617  24.668  33.838  1.00  0.00     0.134 A 
ATOM     85  F   UNL A   1      48.070  26.995  31.456  1.00  0.00    -0.206 F 
ATOM     86  C   UNL A   1      49.110  25.498  32.936  1.00  0.00     0.040 A 
ATOM     87  C   UNL A   1      47.774  24.111  34.384  1.00  0.00     0.040 A 
ATOM     88  F   UNL A   1      45.433  24.238  34.300  1.00  0.00    -0.206 F 
ATOM     89  C   UNL A   1      49.025  24.522  33.930  1.00  0.00     0.006 A 
ENDBRANCH  65  82
ENDBRANCH  39  40
ENDBRANCH  31  34
ENDBRANCH  29  30
ENDBRANCH  28  29
ENDBRANCH  27  28
ENDBRANCH   1  27
TORSDOF 15
ENDMDL
MODEL 3
REMARK VINA RESULT:     -12.1      3.045      8.437
REMARK SMILES Cc1cc2cc(-c3ccc([C@@H](C)C(=O)NCCCCCCNC(=O)c4ccc(-c5c6nc(c(-c7c(F)cccc7F)c7ccc([nH]7)c(-c7c(F)cccc7F)c7nc(c(-c8c(F)cccc8F)c8ccc5[nH]8)C=C7)C=C6)cc4)cc3)ccc2[nH]1
REMARK SMILES IDX 18 1 17 2 16 3 15 4 13 5 14 6 11 8 12 9 10 10 7 11 8 12
REMARK SMILES IDX 80 13 9 14 79 15 6 16 1 17 2 18 3 19 84 20 4 21 83 22 5 24
REMARK SMILES IDX 82 25 81 26 19 27 20 28 21 29 22 30 23 31 24 33 25 34 26 35
REMARK SMILES IDX 78 36 27 37 77 38 28 39 29 40 30 41 71 42 31 43 76 44 70 45
REMARK SMILES IDX 72 46 32 47 75 48 69 49 68 50 33 52 59 53 42 54 58 55 43 56
REMARK SMILES IDX 46 57 57 58 73 59 44 60 45 61 56 63 74 64 47 65 34 66 35 67
REMARK SMILES IDX 40 68 36 69 37 70 39 71 41 72 38 73 60 74 61 75 66 76 62 77
REMARK SMILES IDX 63 78 65 79 67 80 64 81 48 82 49 83 54 84 50 85 51 86 53 87
REMARK SMILES IDX 55 88 52 89
REMARK H PARENT 15 7 84 23 22 32 72 51 46 62
REMARK Flexibility Score: inf
ROOT
ATOM      1  C   UNL A   1      34.401  25.444  25.309  1.00  0.00     0.002 C 
ENDROOT
BRANCH   1   2
ATOM      2  C   UNL A   1      33.780  26.614  26.078  1.00  0.00     0.021 C 
BRANCH   2   3
ATOM      3  C   UNL A   1      32.903  27.528  25.218  1.00  0.00     0.116 C 
BRANCH   3   4
ATOM      4  N   UNL A   1      33.566  27.915  23.991  1.00  0.00    -0.356 N 
ATOM      5  C   UNL A   1      33.291  27.641  22.686  1.00  0.00     0.227 C 
ATOM      6  O   UNL A   1      34.108  28.055  21.855  1.00  0.00    -0.274 OA
ATOM      7  H   UNL A   1      34.363  28.478  24.124  1.00  0.00     0.163 HD
BRANCH   5   8
ATOM      8  C   UNL A   1      32.041  26.882  22.217  1.00  0.00     0.105 C 
ATOM      9  C   UNL A   1      30.722  27.552  22.610  1.00  0.00     0.023 C 
BRANCH   8  10
ATOM     10  C   UNL A   1      32.117  25.382  22.449  1.00  0.00    -0.036 A 
ATOM     11  C   UNL A   1      32.142  22.549  22.833  1.00  0.00    -0.018 A 
ATOM     12  C   UNL A   1      33.157  23.211  22.123  1.00  0.00     0.009 A 
ATOM     13  C   UNL A   1      31.115  23.345  23.361  1.00  0.00     0.009 A 
ATOM     14  C   UNL A   1      33.165  24.598  21.967  1.00  0.00     0.005 A 
ATOM     15  C   UNL A   1      31.093  24.733  23.158  1.00  0.00     0.005 A 
BRANCH  11  16
ATOM     16  C   UNL A   1      32.185  21.079  22.999  1.00  0.00    -0.018 A 
ATOM     17  C   UNL A   1      33.068  15.742  25.888  1.00  0.00     0.064 C 
ATOM     18  C   UNL A   1      32.825  16.998  25.141  1.00  0.00     0.013 A 
ATOM     19  C   UNL A   1      32.774  18.305  25.579  1.00  0.00     0.031 A 
ATOM     20  N   UNL A   1      32.594  17.013  23.785  1.00  0.00    -0.359 N 
ATOM     21  C   UNL A   1      32.521  19.132  24.453  1.00  0.00     0.000 A 
ATOM     22  C   UNL A   1      32.419  18.305  23.341  1.00  0.00     0.046 A 
ATOM     23  H   UNL A   1      32.558  16.212  23.213  1.00  0.00     0.166 HD
ATOM     24  C   UNL A   1      32.380  20.520  24.280  1.00  0.00     0.019 A 
ATOM     25  C   UNL A   1      32.183  18.805  22.056  1.00  0.00     0.027 A 
ATOM     26  C   UNL A   1      32.080  20.199  21.909  1.00  0.00     0.011 A 
ENDBRANCH  11  16
ENDBRANCH   8  10
ENDBRANCH   5   8
ENDBRANCH   3   4
ENDBRANCH   2   3
ENDBRANCH   1   2
BRANCH   1  27
ATOM     27  C   UNL A   1      33.983  24.048  25.791  1.00  0.00     0.002 C 
BRANCH  27  28
ATOM     28  C   UNL A   1      35.132  23.094  26.136  1.00  0.00     0.021 C 
BRANCH  28  29
ATOM     29  C   UNL A   1      36.526  23.621  25.802  1.00  0.00     0.116 C 
BRANCH  29  30
ATOM     30  N   UNL A   1      37.553  22.613  26.013  1.00  0.00    -0.352 N 
ATOM     31  C   UNL A   1      38.869  22.760  26.371  1.00  0.00     0.251 C 
ATOM     32  H   UNL A   1      37.258  21.683  25.879  1.00  0.00     0.163 HD
ATOM     33  O   UNL A   1      39.638  21.809  26.290  1.00  0.00    -0.269 OA
BRANCH  31  34
ATOM     34  C   UNL A   1      39.371  24.067  26.848  1.00  0.00     0.039 A 
ATOM     35  C   UNL A   1      39.978  24.933  25.933  1.00  0.00     0.014 A 
ATOM     36  C   UNL A   1      39.287  24.422  28.198  1.00  0.00     0.014 A 
ATOM     37  C   UNL A   1      40.451  26.176  26.361  1.00  0.00     0.010 A 
ATOM     38  C   UNL A   1      39.703  25.685  28.612  1.00  0.00     0.010 A 
ATOM     39  C   UNL A   1      40.294  26.572  27.699  1.00  0.00    -0.014 A 
BRANCH  39  40
ATOM     40  C   UNL A   1      40.754  27.904  28.166  1.00  0.00     0.031 A 
ATOM     41  C   UNL A   1      42.221  28.229  28.197  1.00  0.00     0.074 A 
ATOM     42  C   UNL A   1      39.854  28.798  28.619  1.00  0.00     0.049 A 
ATOM     43  N   UNL A   1      42.822  29.303  28.643  1.00  0.00    -0.248 NA
ATOM     44  C   UNL A   1      43.136  27.199  27.679  1.00  0.00     0.031 C 
ATOM     45  C   UNL A   1      38.406  28.590  28.675  1.00  0.00     0.029 A 
ATOM     46  N   UNL A   1      40.028  30.061  29.130  1.00  0.00    -0.354 N 
ATOM     47  C   UNL A   1      44.181  29.075  28.472  1.00  0.00     0.074 A 
ATOM     48  C   UNL A   1      44.320  27.741  27.927  1.00  0.00     0.031 C 
ATOM     49  C   UNL A   1      37.823  29.692  29.174  1.00  0.00     0.029 A 
ATOM     50  C   UNL A   1      38.855  30.670  29.503  1.00  0.00     0.049 A 
ATOM     51  H   UNL A   1      40.910  30.488  29.220  1.00  0.00     0.167 HD
ATOM     52  C   UNL A   1      45.218  29.907  28.725  1.00  0.00     0.037 A 
ATOM     53  C   UNL A   1      38.638  31.878  30.055  1.00  0.00     0.037 A 
ATOM     54  C   UNL A   1      45.078  31.242  29.245  1.00  0.00     0.049 A 
ATOM     55  C   UNL A   1      39.808  32.780  30.334  1.00  0.00     0.074 A 
ATOM     56  C   UNL A   1      46.065  32.180  29.493  1.00  0.00     0.029 A 
ATOM     57  N   UNL A   1      43.872  31.828  29.594  1.00  0.00    -0.354 N 
ATOM     58  N   UNL A   1      41.084  32.570  30.121  1.00  0.00    -0.248 NA
ATOM     59  C   UNL A   1      39.505  34.091  30.928  1.00  0.00     0.031 C 
ATOM     60  C   UNL A   1      45.458  33.324  30.024  1.00  0.00     0.029 A 
ATOM     61  C   UNL A   1      44.090  33.112  30.069  1.00  0.00     0.049 A 
ATOM     62  H   UNL A   1      42.990  31.398  29.517  1.00  0.00     0.167 HD
ATOM     63  C   UNL A   1      41.732  33.730  30.524  1.00  0.00     0.074 A 
ATOM     64  C   UNL A   1      40.708  34.644  30.987  1.00  0.00     0.031 C 
ATOM     65  C   UNL A   1      43.058  34.012  30.513  1.00  0.00     0.037 A 
BRANCH  52  66
ATOM     66  C   UNL A   1      46.600  29.396  28.435  1.00  0.00     0.057 A 
ATOM     67  C   UNL A   1      47.201  29.573  27.181  1.00  0.00     0.134 A 
ATOM     68  C   UNL A   1      47.349  28.750  29.425  1.00  0.00     0.134 A 
ATOM     69  F   UNL A   1      46.531  30.174  26.186  1.00  0.00    -0.206 F 
ATOM     70  C   UNL A   1      48.487  29.101  26.915  1.00  0.00     0.040 A 
ATOM     71  C   UNL A   1      48.646  28.297  29.179  1.00  0.00     0.040 A 
ATOM     72  F   UNL A   1      46.837  28.554  30.649  1.00  0.00    -0.206 F 
ATOM     73  C   UNL A   1      49.216  28.466  27.918  1.00  0.00     0.006 A 
ENDBRANCH  52  66
BRANCH  53  74
ATOM     74  C   UNL A   1      37.254  32.319  30.359  1.00  0.00     0.057 A 
ATOM     75  C   UNL A   1      36.649  31.996  31.579  1.00  0.00     0.134 A 
ATOM     76  C   UNL A   1      36.503  33.059  29.440  1.00  0.00     0.134 A 
ATOM     77  F   UNL A   1      37.313  31.272  32.490  1.00  0.00    -0.206 F 
ATOM     78  C   UNL A   1      35.338  32.377  31.868  1.00  0.00     0.040 A 
ATOM     79  C   UNL A   1      35.198  33.467  29.724  1.00  0.00     0.040 A 
ATOM     80  F   UNL A   1      37.028  33.405  28.256  1.00  0.00    -0.206 F 
ATOM     81  C   UNL A   1      34.610  33.120  30.939  1.00  0.00     0.006 A 
ENDBRANCH  53  74
BRANCH  65  82
ATOM     82  C   UNL A   1      43.471  35.376  30.979  1.00  0.00     0.057 A 
ATOM     83  C   UNL A   1      43.603  36.451  30.091  1.00  0.00     0.134 A 
ATOM     84  C   UNL A   1      43.707  35.623  32.337  1.00  0.00     0.134 A 
ATOM     85  F   UNL A   1      43.405  36.275  28.776  1.00  0.00    -0.206 F 
ATOM     86  C   UNL A   1      43.973  37.721  30.536  1.00  0.00     0.040 A 
ATOM     87  C   UNL A   1      44.054  36.894  32.797  1.00  0.00     0.040 A 
ATOM     88  F   UNL A   1      43.590  34.637  33.239  1.00  0.00    -0.206 F 
ATOM     89  C   UNL A   1      44.193  37.946  31.895  1.00  0.00     0.006 A 
ENDBRANCH  65  82
ENDBRANCH  39  40
ENDBRANCH  31  34
ENDBRANCH  29  30
ENDBRANCH  28  29
ENDBRANCH  27  28
ENDBRANCH   1  27
TORSDOF 15
ENDMDL
