MODEL 1
REMARK VINA RESULT:     -12.4      0.000      0.000
REMARK SMILES O=C(C[C@H](NC(=O)[C@]12C[C@H]3C[C@H](C[C@H](C3)C1)C2)c1cccc([N+](=O)[O-])c1)NCCCCCCNC(=O)c1ccc(-c2c3nc(c(-c4c(F)cccc4F)c4ccc([nH]4)c(-c4c(F)cccc4F)c4nc(c(-c5c(F)cccc5F)c5ccc2[nH]5)C=C4)C=C3)cc1
REMARK SMILES IDX 30 1 29 2 28 3 27 4 1 5 2 6 3 8 4 9 18 10 19 11 26 12 20 13
REMARK SMILES IDX 22 14 21 15 23 16 24 17 25 18 5 19 6 20 7 22 8 23 9 24 16 25
REMARK SMILES IDX 17 26 10 27 14 28 12 29 11 30 15 31 13 32 31 33 32 34 33 35
REMARK SMILES IDX 34 36 35 37 36 39 37 40 38 41 90 42 39 43 89 44 40 45 41 46
REMARK SMILES IDX 42 47 83 48 43 49 88 50 82 51 84 52 44 53 87 54 81 55 80 56
REMARK SMILES IDX 45 58 71 59 54 60 70 61 55 62 58 63 69 64 85 65 56 66 57 67
REMARK SMILES IDX 68 69 86 70 59 71 46 72 47 73 52 74 48 75 49 76 51 77 53 78
REMARK SMILES IDX 50 79 72 80 73 81 78 82 74 83 75 84 77 85 79 86 76 87 60 88
REMARK SMILES IDX 61 89 66 90 62 91 63 92 65 93 67 94 64 95
REMARK H PARENT 27 7 5 21 34 38 84 57 58 68
REMARK Flexibility Score: inf
ROOT
ATOM      1  C   UNL A   1      34.531  32.324  27.912  1.00  0.00     0.002 C 
ENDROOT
BRANCH   1   2
ATOM      2  C   UNL A   1      33.389  31.336  27.621  1.00  0.00     0.021 C 
BRANCH   2   3
ATOM      3  C   UNL A   1      33.824  30.074  26.868  1.00  0.00     0.116 C 
BRANCH   3   4
ATOM      4  N   UNL A   1      33.226  30.063  25.552  1.00  0.00    -0.356 N 
ATOM      5  O   UNL A   1      31.671  28.408  25.932  1.00  0.00    -0.275 OA
ATOM      6  C   UNL A   1      32.295  29.126  25.164  1.00  0.00     0.222 C 
ATOM      7  H   UNL A   1      33.495  30.755  24.906  1.00  0.00     0.163 HD
BRANCH   6   8
ATOM      8  C   UNL A   1      32.152  29.057  23.667  1.00  0.00     0.129 C 
BRANCH   8   9
ATOM      9  C   UNL A   1      31.280  27.908  23.129  1.00  0.00     0.122 C 
BRANCH   9  10
ATOM     10  C   UNL A   1      29.923  28.498  22.796  1.00  0.00    -0.018 A 
ATOM     11  C   UNL A   1      28.719  27.905  23.206  1.00  0.00     0.006 A 
ATOM     12  C   UNL A   1      29.888  29.761  22.166  1.00  0.00     0.091 A 
ATOM     13  C   UNL A   1      27.520  28.625  23.126  1.00  0.00     0.007 A 
ATOM     14  C   UNL A   1      28.690  30.483  22.120  1.00  0.00     0.269 A 
ATOM     15  C   UNL A   1      27.506  29.927  22.614  1.00  0.00     0.085 A 
BRANCH  14  16
ATOM     16  N   UNL A   1      28.717  31.877  21.669  1.00  0.00     0.062 N 
ATOM     17  O   UNL A   1      28.278  32.125  20.538  1.00  0.00    -0.258 OA
ATOM     18  O   UNL A   1      29.152  32.725  22.462  1.00  0.00    -0.258 OA
ENDBRANCH  14  16
ENDBRANCH   9  10
BRANCH   9  19
ATOM     19  N   UNL A   1      31.898  27.066  22.080  1.00  0.00    -0.348 N 
ATOM     20  C   UNL A   1      32.780  26.026  22.017  1.00  0.00     0.226 C 
ATOM     21  H   UNL A   1      31.591  27.328  21.183  1.00  0.00     0.164 HD
ATOM     22  O   UNL A   1      33.279  25.858  20.895  1.00  0.00    -0.274 OA
BRANCH  20  23
ATOM     23  C   UNL A   1      33.189  25.088  23.184  1.00  0.00     0.050 C 
ATOM     24  C   UNL A   1      34.054  23.901  22.652  1.00  0.00     0.020 C 
ATOM     25  C   UNL A   1      31.964  24.444  23.829  1.00  0.00     0.020 C 
ATOM     26  C   UNL A   1      34.028  25.809  24.258  1.00  0.00     0.020 C 
ATOM     27  C   UNL A   1      34.403  22.910  23.786  1.00  0.00    -0.010 C 
ATOM     28  C   UNL A   1      32.290  23.495  24.973  1.00  0.00    -0.010 C 
ATOM     29  C   UNL A   1      34.373  24.838  25.413  1.00  0.00    -0.010 C 
ATOM     30  C   UNL A   1      35.194  23.650  24.878  1.00  0.00     0.007 C 
ATOM     31  C   UNL A   1      33.116  22.347  24.409  1.00  0.00     0.007 C 
ATOM     32  C   UNL A   1      33.077  24.286  26.032  1.00  0.00     0.007 C 
ENDBRANCH  20  23
ENDBRANCH   9  19
ENDBRANCH   8   9
ENDBRANCH   6   8
ENDBRANCH   3   4
ENDBRANCH   2   3
ENDBRANCH   1   2
BRANCH   1  33
ATOM     33  C   UNL A   1      34.260  33.313  29.050  1.00  0.00     0.002 C 
BRANCH  33  34
ATOM     34  C   UNL A   1      33.147  34.320  28.768  1.00  0.00     0.021 C 
BRANCH  34  35
ATOM     35  C   UNL A   1      33.413  35.721  29.305  1.00  0.00     0.116 C 
BRANCH  35  36
ATOM     36  N   UNL A   1      32.526  36.066  30.404  1.00  0.00    -0.352 N 
ATOM     37  C   UNL A   1      32.604  35.704  31.727  1.00  0.00     0.251 C 
ATOM     38  H   UNL A   1      31.762  36.640  30.167  1.00  0.00     0.163 HD
ATOM     39  O   UNL A   1      31.673  35.929  32.487  1.00  0.00    -0.269 OA
BRANCH  37  40
ATOM     40  C   UNL A   1      33.817  35.015  32.221  1.00  0.00     0.039 A 
ATOM     41  C   UNL A   1      33.696  33.721  32.732  1.00  0.00     0.014 A 
ATOM     42  C   UNL A   1      35.065  35.640  32.173  1.00  0.00     0.014 A 
ATOM     43  C   UNL A   1      34.839  33.032  33.140  1.00  0.00     0.010 A 
ATOM     44  C   UNL A   1      36.211  34.923  32.501  1.00  0.00     0.010 A 
ATOM     45  C   UNL A   1      36.110  33.613  32.995  1.00  0.00    -0.014 A 
BRANCH  45  46
ATOM     46  C   UNL A   1      37.342  32.866  33.355  1.00  0.00     0.031 A 
ATOM     47  C   UNL A   1      38.059  33.163  34.642  1.00  0.00     0.074 A 
ATOM     48  C   UNL A   1      37.846  31.960  32.495  1.00  0.00     0.049 A 
ATOM     49  N   UNL A   1      39.165  32.643  35.112  1.00  0.00    -0.248 NA
ATOM     50  C   UNL A   1      37.472  34.201  35.503  1.00  0.00     0.031 C 
ATOM     51  C   UNL A   1      37.267  31.613  31.195  1.00  0.00     0.029 A 
ATOM     52  N   UNL A   1      38.961  31.167  32.584  1.00  0.00    -0.354 N 
ATOM     53  C   UNL A   1      39.412  33.298  36.312  1.00  0.00     0.074 A 
ATOM     54  C   UNL A   1      38.374  34.295  36.468  1.00  0.00     0.031 C 
ATOM     55  C   UNL A   1      38.009  30.650  30.627  1.00  0.00     0.029 A 
ATOM     56  C   UNL A   1      39.139  30.343  31.499  1.00  0.00     0.049 A 
ATOM     57  H   UNL A   1      39.576  31.186  33.352  1.00  0.00     0.167 HD
ATOM     58  C   UNL A   1      40.398  33.076  37.212  1.00  0.00     0.037 A 
ATOM     59  C   UNL A   1      40.106  29.443  31.237  1.00  0.00     0.037 A 
ATOM     60  C   UNL A   1      41.420  32.074  37.059  1.00  0.00     0.049 A 
ATOM     61  C   UNL A   1      41.207  29.235  32.239  1.00  0.00     0.074 A 
ATOM     62  C   UNL A   1      42.426  31.724  37.943  1.00  0.00     0.029 A 
ATOM     63  N   UNL A   1      41.574  31.267  35.940  1.00  0.00    -0.354 N 
ATOM     64  N   UNL A   1      41.383  29.805  33.406  1.00  0.00    -0.248 NA
ATOM     65  C   UNL A   1      42.244  28.257  31.884  1.00  0.00     0.031 C 
ATOM     66  C   UNL A   1      43.225  30.750  37.335  1.00  0.00     0.029 A 
ATOM     67  C   UNL A   1      42.679  30.446  36.097  1.00  0.00     0.049 A 
ATOM     68  H   UNL A   1      40.985  31.276  35.152  1.00  0.00     0.167 HD
ATOM     69  C   UNL A   1      42.528  29.228  33.942  1.00  0.00     0.074 A 
ATOM     70  C   UNL A   1      42.997  28.257  32.975  1.00  0.00     0.031 C 
ATOM     71  C   UNL A   1      43.135  29.479  35.128  1.00  0.00     0.037 A 
BRANCH  58  72
ATOM     72  C   UNL A   1      40.424  33.946  38.438  1.00  0.00     0.057 A 
ATOM     73  C   UNL A   1      41.191  35.118  38.505  1.00  0.00     0.134 A 
ATOM     74  C   UNL A   1      39.661  33.613  39.565  1.00  0.00     0.134 A 
ATOM     75  F   UNL A   1      41.954  35.492  37.466  1.00  0.00    -0.206 F 
ATOM     76  C   UNL A   1      41.229  35.903  39.659  1.00  0.00     0.040 A 
ATOM     77  C   UNL A   1      39.665  34.409  40.712  1.00  0.00     0.040 A 
ATOM     78  F   UNL A   1      38.897  32.511  39.570  1.00  0.00    -0.206 F 
ATOM     79  C   UNL A   1      40.459  35.552  40.765  1.00  0.00     0.006 A 
ENDBRANCH  58  72
BRANCH  59  80
ATOM     80  C   UNL A   1      40.057  28.641  29.988  1.00  0.00     0.057 A 
ATOM     81  C   UNL A   1      40.747  29.055  28.841  1.00  0.00     0.134 A 
ATOM     82  C   UNL A   1      39.322  27.453  29.902  1.00  0.00     0.134 A 
ATOM     83  F   UNL A   1      41.455  30.194  28.855  1.00  0.00    -0.206 F 
ATOM     84  C   UNL A   1      40.689  28.330  27.650  1.00  0.00     0.040 A 
ATOM     85  C   UNL A   1      39.278  26.703  28.726  1.00  0.00     0.040 A 
ATOM     86  F   UNL A   1      38.644  26.997  30.967  1.00  0.00    -0.206 F 
ATOM     87  C   UNL A   1      39.957  27.146  27.593  1.00  0.00     0.006 A 
ENDBRANCH  59  80
BRANCH  71  88
ATOM     88  C   UNL A   1      44.348  28.660  35.467  1.00  0.00     0.057 A 
ATOM     89  C   UNL A   1      45.646  29.092  35.168  1.00  0.00     0.134 A 
ATOM     90  C   UNL A   1      44.214  27.433  36.131  1.00  0.00     0.134 A 
ATOM     91  F   UNL A   1      45.844  30.251  34.521  1.00  0.00    -0.206 F 
ATOM     92  C   UNL A   1      46.764  28.322  35.490  1.00  0.00     0.040 A 
ATOM     93  C   UNL A   1      45.326  26.669  36.486  1.00  0.00     0.040 A 
ATOM     94  F   UNL A   1      43.000  26.962  36.457  1.00  0.00    -0.206 F 
ATOM     95  C   UNL A   1      46.606  27.110  36.158  1.00  0.00     0.006 A 
ENDBRANCH  71  88
ENDBRANCH  45  46
ENDBRANCH  37  40
ENDBRANCH  35  36
ENDBRANCH  34  35
ENDBRANCH  33  34
ENDBRANCH   1  33
TORSDOF 18
ENDMDL
MODEL 2
REMARK VINA RESULT:     -12.2      5.846     10.867
REMARK SMILES O=C(C[C@H](NC(=O)[C@]12C[C@H]3C[C@H](C[C@H](C3)C1)C2)c1cccc([N+](=O)[O-])c1)NCCCCCCNC(=O)c1ccc(-c2c3nc(c(-c4c(F)cccc4F)c4ccc([nH]4)c(-c4c(F)cccc4F)c4nc(c(-c5c(F)cccc5F)c5ccc2[nH]5)C=C4)C=C3)cc1
REMARK SMILES IDX 30 1 29 2 28 3 27 4 1 5 2 6 3 8 4 9 18 10 19 11 26 12 20 13
REMARK SMILES IDX 22 14 21 15 23 16 24 17 25 18 5 19 6 20 7 22 8 23 9 24 16 25
REMARK SMILES IDX 17 26 10 27 14 28 12 29 11 30 15 31 13 32 31 33 32 34 33 35
REMARK SMILES IDX 34 36 35 37 36 39 37 40 38 41 90 42 39 43 89 44 40 45 41 46
REMARK SMILES IDX 42 47 83 48 43 49 88 50 82 51 84 52 44 53 87 54 81 55 80 56
REMARK SMILES IDX 45 58 71 59 54 60 70 61 55 62 58 63 69 64 85 65 56 66 57 67
REMARK SMILES IDX 68 69 86 70 59 71 46 72 47 73 52 74 48 75 49 76 51 77 53 78
REMARK SMILES IDX 50 79 72 80 73 81 78 82 74 83 75 84 77 85 79 86 76 87 60 88
REMARK SMILES IDX 61 89 66 90 62 91 63 92 65 93 67 94 64 95
REMARK H PARENT 27 7 5 21 34 38 84 57 58 68
REMARK Flexibility Score: inf
ROOT
ATOM      1  C   UNL A   1      39.274  22.869  26.657  1.00  0.00     0.002 C 
ENDROOT
BRANCH   1   2
ATOM      2  C   UNL A   1      38.086  23.843  26.589  1.00  0.00     0.021 C 
BRANCH   2   3
ATOM      3  C   UNL A   1      36.998  23.441  25.589  1.00  0.00     0.116 C 
BRANCH   3   4
ATOM      4  N   UNL A   1      35.981  22.664  26.262  1.00  0.00    -0.356 N 
ATOM      5  O   UNL A   1      36.010  20.837  24.861  1.00  0.00    -0.275 OA
ATOM      6  C   UNL A   1      35.480  21.489  25.750  1.00  0.00     0.222 C 
ATOM      7  H   UNL A   1      35.633  22.988  27.124  1.00  0.00     0.163 HD
BRANCH   6   8
ATOM      8  C   UNL A   1      34.170  21.107  26.387  1.00  0.00     0.129 C 
BRANCH   8   9
ATOM      9  C   UNL A   1      32.915  21.325  25.523  1.00  0.00     0.122 C 
BRANCH   9  10
ATOM     10  C   UNL A   1      32.647  20.024  24.791  1.00  0.00    -0.018 A 
ATOM     11  C   UNL A   1      32.336  19.976  23.423  1.00  0.00     0.006 A 
ATOM     12  C   UNL A   1      32.854  18.816  25.493  1.00  0.00     0.091 A 
ATOM     13  C   UNL A   1      32.380  18.756  22.737  1.00  0.00     0.007 A 
ATOM     14  C   UNL A   1      32.926  17.608  24.790  1.00  0.00     0.269 A 
ATOM     15  C   UNL A   1      32.707  17.574  23.410  1.00  0.00     0.085 A 
BRANCH  14  16
ATOM     16  N   UNL A   1      33.363  16.401  25.497  1.00  0.00     0.062 N 
ATOM     17  O   UNL A   1      32.494  15.704  26.039  1.00  0.00    -0.258 OA
ATOM     18  O   UNL A   1      34.574  16.137  25.483  1.00  0.00    -0.258 OA
ENDBRANCH  14  16
ENDBRANCH   9  10
BRANCH   9  19
ATOM     19  N   UNL A   1      31.755  21.934  26.213  1.00  0.00    -0.348 N 
ATOM     20  C   UNL A   1      31.313  23.189  26.518  1.00  0.00     0.226 C 
ATOM     21  H   UNL A   1      31.134  21.247  26.543  1.00  0.00     0.164 HD
ATOM     22  O   UNL A   1      30.458  23.216  27.415  1.00  0.00    -0.274 OA
BRANCH  20  23
ATOM     23  C   UNL A   1      31.779  24.518  25.865  1.00  0.00     0.050 C 
ATOM     24  C   UNL A   1      31.713  24.413  24.308  1.00  0.00     0.020 C 
ATOM     25  C   UNL A   1      33.241  24.811  26.194  1.00  0.00     0.020 C 
ATOM     26  C   UNL A   1      30.900  25.718  26.272  1.00  0.00     0.020 C 
ATOM     27  C   UNL A   1      32.250  25.699  23.637  1.00  0.00    -0.010 C 
ATOM     28  C   UNL A   1      33.773  26.093  25.571  1.00  0.00    -0.010 C 
ATOM     29  C   UNL A   1      31.433  27.019  25.625  1.00  0.00    -0.010 C 
ATOM     30  C   UNL A   1      31.401  26.898  24.090  1.00  0.00     0.007 C 
ATOM     31  C   UNL A   1      33.708  25.942  24.057  1.00  0.00     0.007 C 
ATOM     32  C   UNL A   1      32.890  27.255  26.058  1.00  0.00     0.007 C 
ENDBRANCH  20  23
ENDBRANCH   9  19
ENDBRANCH   8   9
ENDBRANCH   6   8
ENDBRANCH   3   4
ENDBRANCH   2   3
ENDBRANCH   1   2
BRANCH   1  33
ATOM     33  C   UNL A   1      39.331  21.834  25.528  1.00  0.00     0.002 C 
BRANCH  33  34
ATOM     34  C   UNL A   1      39.335  20.380  25.997  1.00  0.00     0.021 C 
BRANCH  34  35
ATOM     35  C   UNL A   1      40.515  20.007  26.885  1.00  0.00     0.116 C 
BRANCH  35  36
ATOM     36  N   UNL A   1      41.634  19.477  26.122  1.00  0.00    -0.352 N 
ATOM     37  C   UNL A   1      42.771  20.119  25.693  1.00  0.00     0.251 C 
ATOM     38  H   UNL A   1      41.567  18.527  25.877  1.00  0.00     0.163 HD
ATOM     39  O   UNL A   1      43.528  19.575  24.903  1.00  0.00    -0.269 OA
BRANCH  37  40
ATOM     40  C   UNL A   1      43.061  21.486  26.179  1.00  0.00     0.039 A 
ATOM     41  C   UNL A   1      43.148  22.526  25.251  1.00  0.00     0.014 A 
ATOM     42  C   UNL A   1      43.237  21.740  27.541  1.00  0.00     0.014 A 
ATOM     43  C   UNL A   1      43.354  23.833  25.698  1.00  0.00     0.010 A 
ATOM     44  C   UNL A   1      43.358  23.051  27.991  1.00  0.00     0.010 A 
ATOM     45  C   UNL A   1      43.425  24.111  27.073  1.00  0.00    -0.014 A 
BRANCH  45  46
ATOM     46  C   UNL A   1      43.570  25.503  27.569  1.00  0.00     0.031 A 
ATOM     47  C   UNL A   1      44.935  26.106  27.747  1.00  0.00     0.074 A 
ATOM     48  C   UNL A   1      42.472  26.205  27.912  1.00  0.00     0.049 A 
ATOM     49  N   UNL A   1      45.264  27.290  28.200  1.00  0.00    -0.248 NA
ATOM     50  C   UNL A   1      46.084  25.258  27.396  1.00  0.00     0.031 C 
ATOM     51  C   UNL A   1      41.094  25.717  27.826  1.00  0.00     0.029 A 
ATOM     52  N   UNL A   1      42.343  27.479  28.404  1.00  0.00    -0.354 N 
ATOM     53  C   UNL A   1      46.653  27.322  28.200  1.00  0.00     0.074 A 
ATOM     54  C   UNL A   1      47.104  26.019  27.762  1.00  0.00     0.031 C 
ATOM     55  C   UNL A   1      40.258  26.692  28.213  1.00  0.00     0.029 A 
ATOM     56  C   UNL A   1      41.039  27.857  28.617  1.00  0.00     0.049 A 
ATOM     57  H   UNL A   1      43.111  28.066  28.588  1.00  0.00     0.167 HD
ATOM     58  C   UNL A   1      47.477  28.349  28.517  1.00  0.00     0.037 A 
ATOM     59  C   UNL A   1      40.532  29.013  29.086  1.00  0.00     0.037 A 
ATOM     60  C   UNL A   1      47.023  29.648  28.940  1.00  0.00     0.049 A 
ATOM     61  C   UNL A   1      41.469  30.128  29.459  1.00  0.00     0.074 A 
ATOM     62  C   UNL A   1      47.774  30.776  29.220  1.00  0.00     0.029 A 
ATOM     63  N   UNL A   1      45.695  29.989  29.155  1.00  0.00    -0.354 N 
ATOM     64  N   UNL A   1      42.778  30.172  29.379  1.00  0.00    -0.248 NA
ATOM     65  C   UNL A   1      40.857  31.355  29.987  1.00  0.00     0.031 C 
ATOM     66  C   UNL A   1      46.907  31.780  29.664  1.00  0.00     0.029 A 
ATOM     67  C   UNL A   1      45.609  31.299  29.599  1.00  0.00     0.049 A 
ATOM     68  H   UNL A   1      44.927  29.390  29.013  1.00  0.00     0.167 HD
ATOM     69  C   UNL A   1      43.142  31.442  29.810  1.00  0.00     0.074 A 
ATOM     70  C   UNL A   1      41.915  32.138  30.140  1.00  0.00     0.031 C 
ATOM     71  C   UNL A   1      44.380  31.983  29.920  1.00  0.00     0.037 A 
BRANCH  58  72
ATOM     72  C   UNL A   1      48.957  28.099  28.429  1.00  0.00     0.057 A 
ATOM     73  C   UNL A   1      49.649  28.144  27.210  1.00  0.00     0.134 A 
ATOM     74  C   UNL A   1      49.703  27.821  29.581  1.00  0.00     0.134 A 
ATOM     75  F   UNL A   1      48.996  28.395  26.066  1.00  0.00    -0.206 F 
ATOM     76  C   UNL A   1      51.019  27.883  27.137  1.00  0.00     0.040 A 
ATOM     77  C   UNL A   1      51.079  27.592  29.525  1.00  0.00     0.040 A 
ATOM     78  F   UNL A   1      49.109  27.769  30.783  1.00  0.00    -0.206 F 
ATOM     79  C   UNL A   1      51.739  27.611  28.297  1.00  0.00     0.006 A 
ENDBRANCH  58  72
BRANCH  59  80
ATOM     80  C   UNL A   1      39.062  29.191  29.196  1.00  0.00     0.057 A 
ATOM     81  C   UNL A   1      38.399  28.952  30.406  1.00  0.00     0.134 A 
ATOM     82  C   UNL A   1      38.284  29.594  28.105  1.00  0.00     0.134 A 
ATOM     83  F   UNL A   1      39.086  28.546  31.484  1.00  0.00    -0.206 F 
ATOM     84  C   UNL A   1      37.014  29.085  30.521  1.00  0.00     0.040 A 
ATOM     85  C   UNL A   1      36.903  29.759  28.212  1.00  0.00     0.040 A 
ATOM     86  F   UNL A   1      38.859  29.847  26.919  1.00  0.00    -0.206 F 
ATOM     87  C   UNL A   1      36.263  29.496  29.422  1.00  0.00     0.006 A 
ENDBRANCH  59  80
BRANCH  71  88
ATOM     88  C   UNL A   1      44.468  33.412  30.377  1.00  0.00     0.057 A 
ATOM     89  C   UNL A   1      44.623  33.755  31.726  1.00  0.00     0.134 A 
ATOM     90  C   UNL A   1      44.427  34.459  29.446  1.00  0.00     0.134 A 
ATOM     91  F   UNL A   1      44.656  32.802  32.670  1.00  0.00    -0.206 F 
ATOM     92  C   UNL A   1      44.705  35.086  32.136  1.00  0.00     0.040 A 
ATOM     93  C   UNL A   1      44.540  35.793  29.840  1.00  0.00     0.040 A 
ATOM     94  F   UNL A   1      44.290  34.202  28.136  1.00  0.00    -0.206 F 
ATOM     95  C   UNL A   1      44.672  36.110  31.191  1.00  0.00     0.006 A 
ENDBRANCH  71  88
ENDBRANCH  45  46
ENDBRANCH  37  40
ENDBRANCH  35  36
ENDBRANCH  34  35
ENDBRANCH  33  34
ENDBRANCH   1  33
TORSDOF 18
ENDMDL
MODEL 3
REMARK VINA RESULT:     -12.1      4.423      6.776
REMARK SMILES O=C(C[C@H](NC(=O)[C@]12C[C@H]3C[C@H](C[C@H](C3)C1)C2)c1cccc([N+](=O)[O-])c1)NCCCCCCNC(=O)c1ccc(-c2c3nc(c(-c4c(F)cccc4F)c4ccc([nH]4)c(-c4c(F)cccc4F)c4nc(c(-c5c(F)cccc5F)c5ccc2[nH]5)C=C4)C=C3)cc1
REMARK SMILES IDX 30 1 29 2 28 3 27 4 1 5 2 6 3 8 4 9 18 10 19 11 26 12 20 13
REMARK SMILES IDX 22 14 21 15 23 16 24 17 25 18 5 19 6 20 7 22 8 23 9 24 16 25
REMARK SMILES IDX 17 26 10 27 14 28 12 29 11 30 15 31 13 32 31 33 32 34 33 35
REMARK SMILES IDX 34 36 35 37 36 39 37 40 38 41 90 42 39 43 89 44 40 45 41 46
REMARK SMILES IDX 42 47 83 48 43 49 88 50 82 51 84 52 44 53 87 54 81 55 80 56
REMARK SMILES IDX 45 58 71 59 54 60 70 61 55 62 58 63 69 64 85 65 56 66 57 67
REMARK SMILES IDX 68 69 86 70 59 71 46 72 47 73 52 74 48 75 49 76 51 77 53 78
REMARK SMILES IDX 50 79 72 80 73 81 78 82 74 83 75 84 77 85 79 86 76 87 60 88
REMARK SMILES IDX 61 89 66 90 62 91 63 92 65 93 67 94 64 95
REMARK H PARENT 27 7 5 21 34 38 84 57 58 68
REMARK Flexibility Score: inf
ROOT
ATOM      1  C   UNL A   1      34.975  32.011  27.893  1.00  0.00     0.002 C 
ENDROOT
BRANCH   1   2
ATOM      2  C   UNL A   1      33.690  31.239  27.549  1.00  0.00     0.021 C 
BRANCH   2   3
ATOM      3  C   UNL A   1      33.929  29.900  26.847  1.00  0.00     0.116 C 
BRANCH   3   4
ATOM      4  N   UNL A   1      33.415  29.960  25.496  1.00  0.00    -0.356 N 
ATOM      5  O   UNL A   1      31.481  28.761  25.848  1.00  0.00    -0.275 OA
ATOM      6  C   UNL A   1      32.302  29.259  25.091  1.00  0.00     0.222 C 
ATOM      7  H   UNL A   1      33.881  30.525  24.840  1.00  0.00     0.163 HD
BRANCH   6   8
ATOM      8  C   UNL A   1      32.223  29.141  23.592  1.00  0.00     0.129 C 
BRANCH   8   9
ATOM      9  C   UNL A   1      31.367  27.979  23.056  1.00  0.00     0.122 C 
BRANCH   9  10
ATOM     10  C   UNL A   1      29.984  28.538  22.776  1.00  0.00    -0.018 A 
ATOM     11  C   UNL A   1      28.810  27.887  23.184  1.00  0.00     0.006 A 
ATOM     12  C   UNL A   1      29.895  29.825  22.203  1.00  0.00     0.091 A 
ATOM     13  C   UNL A   1      27.587  28.569  23.160  1.00  0.00     0.007 A 
ATOM     14  C   UNL A   1      28.673  30.507  22.212  1.00  0.00     0.269 A 
ATOM     15  C   UNL A   1      27.519  29.891  22.706  1.00  0.00     0.085 A 
BRANCH  14  16
ATOM     16  N   UNL A   1      28.645  31.919  21.822  1.00  0.00     0.062 N 
ATOM     17  O   UNL A   1      29.029  32.753  22.653  1.00  0.00    -0.258 OA
ATOM     18  O   UNL A   1      28.268  32.187  20.672  1.00  0.00    -0.258 OA
ENDBRANCH  14  16
ENDBRANCH   9  10
BRANCH   9  19
ATOM     19  N   UNL A   1      31.976  27.177  21.970  1.00  0.00    -0.348 N 
ATOM     20  C   UNL A   1      32.667  26.006  21.853  1.00  0.00     0.226 C 
ATOM     21  H   UNL A   1      31.850  27.606  21.094  1.00  0.00     0.164 HD
ATOM     22  O   UNL A   1      33.286  25.893  20.785  1.00  0.00    -0.274 OA
BRANCH  20  23
ATOM     23  C   UNL A   1      32.739  24.865  22.903  1.00  0.00     0.050 C 
ATOM     24  C   UNL A   1      33.665  25.275  24.093  1.00  0.00     0.020 C 
ATOM     25  C   UNL A   1      33.369  23.608  22.309  1.00  0.00     0.020 C 
ATOM     26  C   UNL A   1      31.360  24.524  23.504  1.00  0.00     0.020 C 
ATOM     27  C   UNL A   1      33.814  24.121  25.110  1.00  0.00    -0.010 C 
ATOM     28  C   UNL A   1      33.489  22.450  23.288  1.00  0.00    -0.010 C 
ATOM     29  C   UNL A   1      31.486  23.357  24.512  1.00  0.00    -0.010 C 
ATOM     30  C   UNL A   1      32.428  23.752  25.664  1.00  0.00     0.007 C 
ATOM     31  C   UNL A   1      34.412  22.885  24.419  1.00  0.00     0.007 C 
ATOM     32  C   UNL A   1      32.078  22.124  23.808  1.00  0.00     0.007 C 
ENDBRANCH  20  23
ENDBRANCH   9  19
ENDBRANCH   8   9
ENDBRANCH   6   8
ENDBRANCH   3   4
ENDBRANCH   2   3
ENDBRANCH   1   2
BRANCH   1  33
ATOM     33  C   UNL A   1      34.757  33.430  28.430  1.00  0.00     0.002 C 
BRANCH  33  34
ATOM     34  C   UNL A   1      34.314  33.497  29.891  1.00  0.00     0.021 C 
BRANCH  34  35
ATOM     35  C   UNL A   1      34.671  32.267  30.715  1.00  0.00     0.116 C 
BRANCH  35  36
ATOM     36  N   UNL A   1      35.048  32.607  32.077  1.00  0.00    -0.352 N 
ATOM     37  C   UNL A   1      36.190  32.280  32.768  1.00  0.00     0.251 C 
ATOM     38  H   UNL A   1      34.393  33.146  32.576  1.00  0.00     0.163 HD
ATOM     39  O   UNL A   1      36.269  32.489  33.969  1.00  0.00    -0.269 OA
BRANCH  37  40
ATOM     40  C   UNL A   1      37.318  31.648  32.047  1.00  0.00     0.039 A 
ATOM     41  C   UNL A   1      37.380  31.766  30.657  1.00  0.00     0.014 A 
ATOM     42  C   UNL A   1      38.312  30.953  32.741  1.00  0.00     0.014 A 
ATOM     43  C   UNL A   1      38.472  31.234  29.969  1.00  0.00     0.010 A 
ATOM     44  C   UNL A   1      39.439  30.498  32.064  1.00  0.00     0.010 A 
ATOM     45  C   UNL A   1      39.527  30.627  30.669  1.00  0.00    -0.014 A 
BRANCH  45  46
ATOM     46  C   UNL A   1      40.730  30.123  29.960  1.00  0.00     0.031 A 
ATOM     47  C   UNL A   1      41.905  31.030  29.721  1.00  0.00     0.074 A 
ATOM     48  C   UNL A   1      40.741  28.864  29.480  1.00  0.00     0.049 A 
ATOM     49  N   UNL A   1      43.027  30.783  29.092  1.00  0.00    -0.248 NA
ATOM     50  C   UNL A   1      41.795  32.405  30.233  1.00  0.00     0.031 C 
ATOM     51  C   UNL A   1      39.647  27.899  29.609  1.00  0.00     0.029 A 
ATOM     52  N   UNL A   1      41.707  28.180  28.787  1.00  0.00    -0.354 N 
ATOM     53  C   UNL A   1      43.747  31.971  29.122  1.00  0.00     0.074 A 
ATOM     54  C   UNL A   1      42.909  32.954  29.776  1.00  0.00     0.031 C 
ATOM     55  C   UNL A   1      40.018  26.738  29.048  1.00  0.00     0.029 A 
ATOM     56  C   UNL A   1      41.355  26.887  28.482  1.00  0.00     0.049 A 
ATOM     57  H   UNL A   1      42.570  28.578  28.530  1.00  0.00     0.167 HD
ATOM     58  C   UNL A   1      44.997  32.216  28.665  1.00  0.00     0.037 A 
ATOM     59  C   UNL A   1      42.034  25.931  27.821  1.00  0.00     0.037 A 
ATOM     60  C   UNL A   1      45.831  31.231  28.027  1.00  0.00     0.049 A 
ATOM     61  C   UNL A   1      43.410  26.237  27.297  1.00  0.00     0.074 A 
ATOM     62  C   UNL A   1      47.137  31.360  27.588  1.00  0.00     0.029 A 
ATOM     63  N   UNL A   1      45.435  29.936  27.726  1.00  0.00    -0.354 N 
ATOM     64  N   UNL A   1      44.110  27.341  27.402  1.00  0.00    -0.248 NA
ATOM     65  C   UNL A   1      44.090  25.161  26.563  1.00  0.00     0.031 C 
ATOM     66  C   UNL A   1      47.510  30.163  26.966  1.00  0.00     0.029 A 
ATOM     67  C   UNL A   1      46.459  29.267  27.075  1.00  0.00     0.049 A 
ATOM     68  H   UNL A   1      44.556  29.549  27.943  1.00  0.00     0.167 HD
ATOM     69  C   UNL A   1      45.326  27.080  26.781  1.00  0.00     0.074 A 
ATOM     70  C   UNL A   1      45.269  25.711  26.313  1.00  0.00     0.031 C 
ATOM     71  C   UNL A   1      46.393  27.900  26.617  1.00  0.00     0.037 A 
BRANCH  58  72
ATOM     72  C   UNL A   1      45.532  33.612  28.829  1.00  0.00     0.057 A 
ATOM     73  C   UNL A   1      46.240  34.009  29.973  1.00  0.00     0.134 A 
ATOM     74  C   UNL A   1      45.345  34.570  27.825  1.00  0.00     0.134 A 
ATOM     75  F   UNL A   1      46.447  33.146  30.978  1.00  0.00    -0.206 F 
ATOM     76  C   UNL A   1      46.708  35.315  30.127  1.00  0.00     0.040 A 
ATOM     77  C   UNL A   1      45.838  35.870  27.953  1.00  0.00     0.040 A 
ATOM     78  F   UNL A   1      44.684  34.260  26.700  1.00  0.00    -0.206 F 
ATOM     79  C   UNL A   1      46.512  36.249  29.112  1.00  0.00     0.006 A 
ENDBRANCH  58  72
BRANCH  59  80
ATOM     80  C   UNL A   1      41.440  24.581  27.646  1.00  0.00     0.057 A 
ATOM     81  C   UNL A   1      41.863  23.504  28.434  1.00  0.00     0.134 A 
ATOM     82  C   UNL A   1      40.449  24.329  26.691  1.00  0.00     0.134 A 
ATOM     83  F   UNL A   1      42.824  23.678  29.355  1.00  0.00    -0.206 F 
ATOM     84  C   UNL A   1      41.338  22.222  28.265  1.00  0.00     0.040 A 
ATOM     85  C   UNL A   1      39.895  23.058  26.530  1.00  0.00     0.040 A 
ATOM     86  F   UNL A   1      39.994  25.320  25.908  1.00  0.00    -0.206 F 
ATOM     87  C   UNL A   1      40.346  21.999  27.313  1.00  0.00     0.006 A 
ENDBRANCH  59  80
BRANCH  71  88
ATOM     88  C   UNL A   1      47.604  27.326  25.939  1.00  0.00     0.057 A 
ATOM     89  C   UNL A   1      47.793  27.411  24.554  1.00  0.00     0.134 A 
ATOM     90  C   UNL A   1      48.610  26.704  26.690  1.00  0.00     0.134 A 
ATOM     91  F   UNL A   1      46.861  27.981  23.774  1.00  0.00    -0.206 F 
ATOM     92  C   UNL A   1      48.923  26.874  23.936  1.00  0.00     0.040 A 
ATOM     93  C   UNL A   1      49.761  26.191  26.088  1.00  0.00     0.040 A 
ATOM     94  F   UNL A   1      48.499  26.596  28.022  1.00  0.00    -0.206 F 
ATOM     95  C   UNL A   1      49.916  26.269  24.706  1.00  0.00     0.006 A 
ENDBRANCH  71  88
ENDBRANCH  45  46
ENDBRANCH  37  40
ENDBRANCH  35  36
ENDBRANCH  34  35
ENDBRANCH  33  34
ENDBRANCH   1  33
TORSDOF 18
ENDMDL
