MODEL 1
REMARK VINA RESULT:     -12.7      0.000      0.000
REMARK SMILES O=C(CC1(C(=O)NCCCCCCNC(=O)c2ccc(-c3c4nc(c(-c5c(F)cccc5F)c5ccc([nH]5)c(-c5c(F)cccc5F)c5nc(c(-c6c(F)cccc6F)c6ccc3[nH]6)C=C5)C=C4)cc2)CCCCC1)Nc1ccc(N2CCOC2=O)cc1
REMARK SMILES IDX 9 1 8 2 7 3 5 4 6 5 4 7 71 8 75 9 72 10 74 11 73 12 3 13
REMARK SMILES IDX 2 14 1 15 76 16 77 18 78 19 88 20 79 21 87 22 80 23 81 24
REMARK SMILES IDX 82 25 85 26 83 27 84 28 86 29 10 30 11 31 12 32 13 33 14 34
REMARK SMILES IDX 15 35 16 37 17 38 18 39 70 40 19 41 69 42 20 43 21 44 22 45
REMARK SMILES IDX 63 46 23 47 68 48 62 49 64 50 24 51 67 52 61 53 60 54 25 56
REMARK SMILES IDX 51 57 34 58 50 59 35 60 38 61 49 62 65 63 36 64 37 65 48 67
REMARK SMILES IDX 66 68 39 69 26 70 27 71 32 72 28 73 29 74 31 75 33 76 30 77
REMARK SMILES IDX 52 78 53 79 58 80 54 81 55 82 57 83 59 84 56 85 40 86 41 87
REMARK SMILES IDX 46 88 42 89 43 90 45 91 47 92 44 93
REMARK H PARENT 7 6 76 17 14 36 64 55 38 66
REMARK Flexibility Score: inf
ROOT
ATOM      1  C   UNL A   1      33.031  28.924  26.751  1.00  0.00     0.021 C 
ENDROOT
BRANCH   1   2
ATOM      2  C   UNL A   1      33.904  27.887  26.049  1.00  0.00     0.116 C 
BRANCH   2   3
ATOM      3  N   UNL A   1      33.344  26.565  26.162  1.00  0.00    -0.356 N 
ATOM      4  C   UNL A   1      32.388  25.927  25.452  1.00  0.00     0.226 C 
ATOM      5  O   UNL A   1      31.787  25.064  26.102  1.00  0.00    -0.274 OA
ATOM      6  H   UNL A   1      33.730  26.028  26.891  1.00  0.00     0.163 HD
BRANCH   4   7
ATOM      7  C   UNL A   1      32.019  26.198  23.964  1.00  0.00     0.058 C 
ATOM      8  C   UNL A   1      31.901  27.682  23.526  1.00  0.00     0.017 C 
ATOM      9  C   UNL A   1      30.746  25.403  23.574  1.00  0.00     0.017 C 
ATOM     10  C   UNL A   1      30.539  28.376  23.618  1.00  0.00     0.001 C 
ATOM     11  C   UNL A   1      29.410  26.057  23.873  1.00  0.00     0.001 C 
ATOM     12  C   UNL A   1      29.315  27.495  23.380  1.00  0.00     0.000 C 
BRANCH   7  13
ATOM     13  C   UNL A   1      33.181  25.563  23.088  1.00  0.00     0.117 C 
BRANCH  13  14
ATOM     14  C   UNL A   1      33.364  24.055  22.876  1.00  0.00     0.225 C 
ATOM     15  O   UNL A   1      33.511  23.647  21.723  1.00  0.00    -0.275 OA
ATOM     16  N   UNL A   1      33.398  23.261  24.004  1.00  0.00    -0.326 N 
ATOM     17  H   UNL A   1      33.417  23.715  24.878  1.00  0.00     0.169 HD
BRANCH  16  18
ATOM     18  C   UNL A   1      33.409  21.848  24.004  1.00  0.00     0.041 A 
ATOM     19  C   UNL A   1      34.490  21.213  24.626  1.00  0.00     0.028 A 
ATOM     20  C   UNL A   1      32.383  21.062  23.476  1.00  0.00     0.028 A 
ATOM     21  C   UNL A   1      34.481  19.827  24.823  1.00  0.00     0.028 A 
ATOM     22  C   UNL A   1      32.415  19.669  23.597  1.00  0.00     0.028 A 
ATOM     23  C   UNL A   1      33.440  19.049  24.313  1.00  0.00     0.047 A 
BRANCH  23  24
ATOM     24  N   UNL A   1      33.376  17.672  24.577  1.00  0.00    -0.274 N 
ATOM     25  C   UNL A   1      32.910  17.136  25.814  1.00  0.00     0.171 C 
ATOM     26  C   UNL A   1      33.666  16.656  23.693  1.00  0.00     0.414 C 
ATOM     27  C   UNL A   1      32.573  15.715  25.430  1.00  0.00     0.257 C 
ATOM     28  O   UNL A   1      33.362  15.450  24.267  1.00  0.00    -0.447 OA
ATOM     29  O   UNL A   1      34.165  16.750  22.577  1.00  0.00    -0.224 OA
ENDBRANCH  23  24
ENDBRANCH  16  18
ENDBRANCH  13  14
ENDBRANCH   7  13
ENDBRANCH   4   7
ENDBRANCH   2   3
ENDBRANCH   1   2
BRANCH   1  30
ATOM     30  C   UNL A   1      32.844  30.210  25.950  1.00  0.00     0.002 C 
BRANCH  30  31
ATOM     31  C   UNL A   1      31.453  30.845  26.078  1.00  0.00     0.002 C 
BRANCH  31  32
ATOM     32  C   UNL A   1      31.398  32.127  26.916  1.00  0.00     0.021 C 
BRANCH  32  33
ATOM     33  C   UNL A   1      32.727  32.870  27.023  1.00  0.00     0.116 C 
BRANCH  33  34
ATOM     34  N   UNL A   1      32.558  34.183  27.621  1.00  0.00    -0.352 N 
ATOM     35  C   UNL A   1      33.128  34.712  28.748  1.00  0.00     0.251 C 
ATOM     36  H   UNL A   1      31.941  34.784  27.144  1.00  0.00     0.163 HD
ATOM     37  O   UNL A   1      32.670  35.734  29.248  1.00  0.00    -0.269 OA
BRANCH  35  38
ATOM     38  C   UNL A   1      34.292  34.046  29.363  1.00  0.00     0.039 A 
ATOM     39  C   UNL A   1      34.076  33.121  30.386  1.00  0.00     0.014 A 
ATOM     40  C   UNL A   1      35.593  34.353  28.951  1.00  0.00     0.014 A 
ATOM     41  C   UNL A   1      35.165  32.468  30.964  1.00  0.00     0.010 A 
ATOM     42  C   UNL A   1      36.670  33.644  29.472  1.00  0.00     0.010 A 
ATOM     43  C   UNL A   1      36.467  32.701  30.490  1.00  0.00    -0.014 A 
BRANCH  43  44
ATOM     44  C   UNL A   1      37.622  31.955  31.045  1.00  0.00     0.031 A 
ATOM     45  C   UNL A   1      38.124  32.250  32.430  1.00  0.00     0.074 A 
ATOM     46  C   UNL A   1      38.243  31.039  30.278  1.00  0.00     0.049 A 
ATOM     47  N   UNL A   1      39.131  31.715  33.074  1.00  0.00    -0.248 NA
ATOM     48  C   UNL A   1      37.421  33.299  33.184  1.00  0.00     0.031 C 
ATOM     49  C   UNL A   1      37.877  30.702  28.900  1.00  0.00     0.029 A 
ATOM     50  N   UNL A   1      39.314  30.224  30.544  1.00  0.00    -0.354 N 
ATOM     51  C   UNL A   1      39.184  32.366  34.301  1.00  0.00     0.074 A 
ATOM     52  C   UNL A   1      38.148  33.375  34.289  1.00  0.00     0.031 C 
ATOM     53  C   UNL A   1      38.688  29.729  28.456  1.00  0.00     0.029 A 
ATOM     54  C   UNL A   1      39.656  29.405  29.498  1.00  0.00     0.049 A 
ATOM     55  H   UNL A   1      39.792  30.228  31.405  1.00  0.00     0.167 HD
ATOM     56  C   UNL A   1      40.006  32.125  35.350  1.00  0.00     0.037 A 
ATOM     57  C   UNL A   1      40.644  28.497  29.387  1.00  0.00     0.037 A 
ATOM     58  C   UNL A   1      41.028  31.111  35.358  1.00  0.00     0.049 A 
ATOM     59  C   UNL A   1      41.556  28.264  30.560  1.00  0.00     0.074 A 
ATOM     60  C   UNL A   1      41.876  30.751  36.390  1.00  0.00     0.029 A 
ATOM     61  N   UNL A   1      41.346  30.300  34.278  1.00  0.00    -0.354 N 
ATOM     62  N   UNL A   1      41.546  28.833  31.742  1.00  0.00    -0.248 NA
ATOM     63  C   UNL A   1      42.612  27.259  30.386  1.00  0.00     0.031 C 
ATOM     64  C   UNL A   1      42.747  29.765  35.915  1.00  0.00     0.029 A 
ATOM     65  C   UNL A   1      42.400  29.463  34.609  1.00  0.00     0.049 A 
ATOM     66  H   UNL A   1      40.891  30.317  33.406  1.00  0.00     0.167 HD
ATOM     67  C   UNL A   1      42.573  28.236  32.461  1.00  0.00     0.074 A 
ATOM     68  C   UNL A   1      43.172  27.247  31.588  1.00  0.00     0.031 C 
ATOM     69  C   UNL A   1      42.985  28.484  33.728  1.00  0.00     0.037 A 
BRANCH  56  70
ATOM     70  C   UNL A   1      39.834  32.977  36.576  1.00  0.00     0.057 A 
ATOM     71  C   UNL A   1      40.646  34.092  36.824  1.00  0.00     0.134 A 
ATOM     72  C   UNL A   1      38.819  32.702  37.502  1.00  0.00     0.134 A 
ATOM     73  F   UNL A   1      41.644  34.406  35.985  1.00  0.00    -0.206 F 
ATOM     74  C   UNL A   1      40.474  34.883  37.961  1.00  0.00     0.040 A 
ATOM     75  C   UNL A   1      38.618  33.505  38.626  1.00  0.00     0.040 A 
ATOM     76  F   UNL A   1      37.999  31.654  37.324  1.00  0.00    -0.206 F 
ATOM     77  C   UNL A   1      39.452  34.595  38.862  1.00  0.00     0.006 A 
ENDBRANCH  56  70
BRANCH  57  78
ATOM     78  C   UNL A   1      40.811  27.727  28.128  1.00  0.00     0.057 A 
ATOM     79  C   UNL A   1      40.119  26.530  27.914  1.00  0.00     0.134 A 
ATOM     80  C   UNL A   1      41.673  28.164  27.114  1.00  0.00     0.134 A 
ATOM     81  F   UNL A   1      39.291  26.051  28.854  1.00  0.00    -0.206 F 
ATOM     82  C   UNL A   1      40.295  25.781  26.749  1.00  0.00     0.040 A 
ATOM     83  C   UNL A   1      41.836  27.440  25.932  1.00  0.00     0.040 A 
ATOM     84  F   UNL A   1      42.358  29.308  27.252  1.00  0.00    -0.206 F 
ATOM     85  C   UNL A   1      41.152  26.240  25.751  1.00  0.00     0.006 A 
ENDBRANCH  57  78
BRANCH  69  86
ATOM     86  C   UNL A   1      44.117  27.650  34.256  1.00  0.00     0.057 A 
ATOM     87  C   UNL A   1      43.902  26.409  34.871  1.00  0.00     0.134 A 
ATOM     88  C   UNL A   1      45.443  28.081  34.120  1.00  0.00     0.134 A 
ATOM     89  F   UNL A   1      42.655  25.942  35.044  1.00  0.00    -0.206 F 
ATOM     90  C   UNL A   1      44.962  25.643  35.359  1.00  0.00     0.040 A 
ATOM     91  C   UNL A   1      46.512  27.309  34.575  1.00  0.00     0.040 A 
ATOM     92  F   UNL A   1      45.721  29.254  33.533  1.00  0.00    -0.206 F 
ATOM     93  C   UNL A   1      46.273  26.090  35.204  1.00  0.00     0.006 A 
ENDBRANCH  69  86
ENDBRANCH  43  44
ENDBRANCH  35  38
ENDBRANCH  33  34
ENDBRANCH  32  33
ENDBRANCH  31  32
ENDBRANCH  30  31
ENDBRANCH   1  30
TORSDOF 17
ENDMDL
MODEL 2
REMARK VINA RESULT:     -12.7      0.737      1.710
REMARK SMILES O=C(CC1(C(=O)NCCCCCCNC(=O)c2ccc(-c3c4nc(c(-c5c(F)cccc5F)c5ccc([nH]5)c(-c5c(F)cccc5F)c5nc(c(-c6c(F)cccc6F)c6ccc3[nH]6)C=C5)C=C4)cc2)CCCCC1)Nc1ccc(N2CCOC2=O)cc1
REMARK SMILES IDX 9 1 8 2 7 3 5 4 6 5 4 7 71 8 75 9 72 10 74 11 73 12 3 13
REMARK SMILES IDX 2 14 1 15 76 16 77 18 78 19 88 20 79 21 87 22 80 23 81 24
REMARK SMILES IDX 82 25 85 26 83 27 84 28 86 29 10 30 11 31 12 32 13 33 14 34
REMARK SMILES IDX 15 35 16 37 17 38 18 39 70 40 19 41 69 42 20 43 21 44 22 45
REMARK SMILES IDX 63 46 23 47 68 48 62 49 64 50 24 51 67 52 61 53 60 54 25 56
REMARK SMILES IDX 51 57 34 58 50 59 35 60 38 61 49 62 65 63 36 64 37 65 48 67
REMARK SMILES IDX 66 68 39 69 26 70 27 71 32 72 28 73 29 74 31 75 33 76 30 77
REMARK SMILES IDX 52 78 53 79 58 80 54 81 55 82 57 83 59 84 56 85 40 86 41 87
REMARK SMILES IDX 46 88 42 89 43 90 45 91 47 92 44 93
REMARK H PARENT 7 6 76 17 14 36 64 55 38 66
REMARK Flexibility Score: inf
ROOT
ATOM      1  C   UNL A   1      32.885  28.796  26.815  1.00  0.00     0.021 C 
ENDROOT
BRANCH   1   2
ATOM      2  C   UNL A   1      33.793  27.824  26.068  1.00  0.00     0.116 C 
BRANCH   2   3
ATOM      3  N   UNL A   1      33.285  26.478  26.125  1.00  0.00    -0.356 N 
ATOM      4  C   UNL A   1      32.346  25.837  25.394  1.00  0.00     0.226 C 
ATOM      5  O   UNL A   1      31.784  24.923  26.008  1.00  0.00    -0.274 OA
ATOM      6  H   UNL A   1      33.698  25.922  26.824  1.00  0.00     0.163 HD
BRANCH   4   7
ATOM      7  C   UNL A   1      31.953  26.161  23.923  1.00  0.00     0.058 C 
ATOM      8  C   UNL A   1      31.828  27.659  23.541  1.00  0.00     0.017 C 
ATOM      9  C   UNL A   1      30.673  25.381  23.526  1.00  0.00     0.017 C 
ATOM     10  C   UNL A   1      30.468  28.350  23.680  1.00  0.00     0.001 C 
ATOM     11  C   UNL A   1      29.342  26.023  23.871  1.00  0.00     0.001 C 
ATOM     12  C   UNL A   1      29.240  27.478  23.432  1.00  0.00     0.000 C 
BRANCH   7  13
ATOM     13  C   UNL A   1      33.100  25.558  23.005  1.00  0.00     0.117 C 
BRANCH  13  14
ATOM     14  C   UNL A   1      33.346  24.055  22.824  1.00  0.00     0.225 C 
ATOM     15  O   UNL A   1      33.645  23.649  21.699  1.00  0.00    -0.275 OA
ATOM     16  N   UNL A   1      33.260  23.263  23.951  1.00  0.00    -0.326 N 
ATOM     17  H   UNL A   1      33.160  23.718  24.819  1.00  0.00     0.169 HD
BRANCH  16  18
ATOM     18  C   UNL A   1      33.307  21.850  23.958  1.00  0.00     0.041 A 
ATOM     19  C   UNL A   1      34.387  21.247  24.613  1.00  0.00     0.028 A 
ATOM     20  C   UNL A   1      32.317  21.036  23.405  1.00  0.00     0.028 A 
ATOM     21  C   UNL A   1      34.408  19.861  24.817  1.00  0.00     0.028 A 
ATOM     22  C   UNL A   1      32.382  19.645  23.534  1.00  0.00     0.028 A 
ATOM     23  C   UNL A   1      33.402  19.054  24.282  1.00  0.00     0.047 A 
BRANCH  23  24
ATOM     24  N   UNL A   1      33.366  17.677  24.550  1.00  0.00    -0.274 N 
ATOM     25  C   UNL A   1      32.903  17.137  25.787  1.00  0.00     0.171 C 
ATOM     26  C   UNL A   1      33.685  16.665  23.672  1.00  0.00     0.414 C 
ATOM     27  C   UNL A   1      32.600  15.707  25.406  1.00  0.00     0.257 C 
ATOM     28  O   UNL A   1      33.403  15.454  24.250  1.00  0.00    -0.447 OA
ATOM     29  O   UNL A   1      34.189  16.766  22.560  1.00  0.00    -0.224 OA
ENDBRANCH  23  24
ENDBRANCH  16  18
ENDBRANCH  13  14
ENDBRANCH   7  13
ENDBRANCH   4   7
ENDBRANCH   2   3
ENDBRANCH   1   2
BRANCH   1  30
ATOM     30  C   UNL A   1      32.828  30.187  26.188  1.00  0.00     0.002 C 
BRANCH  30  31
ATOM     31  C   UNL A   1      31.424  30.802  26.127  1.00  0.00     0.002 C 
BRANCH  31  32
ATOM     32  C   UNL A   1      31.291  32.184  26.774  1.00  0.00     0.021 C 
BRANCH  32  33
ATOM     33  C   UNL A   1      32.619  32.849  27.125  1.00  0.00     0.116 C 
BRANCH  33  34
ATOM     34  N   UNL A   1      32.425  34.200  27.623  1.00  0.00    -0.352 N 
ATOM     35  C   UNL A   1      33.002  34.830  28.693  1.00  0.00     0.251 C 
ATOM     36  H   UNL A   1      31.783  34.746  27.114  1.00  0.00     0.163 HD
ATOM     37  O   UNL A   1      32.525  35.876  29.122  1.00  0.00    -0.269 OA
BRANCH  35  38
ATOM     38  C   UNL A   1      34.196  34.244  29.332  1.00  0.00     0.039 A 
ATOM     39  C   UNL A   1      34.029  33.440  30.461  1.00  0.00     0.014 A 
ATOM     40  C   UNL A   1      35.476  34.512  28.838  1.00  0.00     0.014 A 
ATOM     41  C   UNL A   1      35.146  32.863  31.065  1.00  0.00     0.010 A 
ATOM     42  C   UNL A   1      36.580  33.873  29.393  1.00  0.00     0.010 A 
ATOM     43  C   UNL A   1      36.427  33.049  30.517  1.00  0.00    -0.014 A 
BRANCH  43  44
ATOM     44  C   UNL A   1      37.610  32.377  31.107  1.00  0.00     0.031 A 
ATOM     45  C   UNL A   1      38.233  32.902  32.369  1.00  0.00     0.074 A 
ATOM     46  C   UNL A   1      38.147  31.316  30.474  1.00  0.00     0.049 A 
ATOM     47  N   UNL A   1      39.281  32.459  33.018  1.00  0.00    -0.248 NA
ATOM     48  C   UNL A   1      37.616  34.094  32.971  1.00  0.00     0.031 C 
ATOM     49  C   UNL A   1      37.659  30.747  29.216  1.00  0.00     0.029 A 
ATOM     50  N   UNL A   1      39.221  30.527  30.801  1.00  0.00    -0.354 N 
ATOM     51  C   UNL A   1      39.449  33.320  34.096  1.00  0.00     0.074 A 
ATOM     52  C   UNL A   1      38.435  34.345  33.980  1.00  0.00     0.031 C 
ATOM     53  C   UNL A   1      38.411  29.682  28.896  1.00  0.00     0.029 A 
ATOM     54  C   UNL A   1      39.457  29.520  29.899  1.00  0.00     0.049 A 
ATOM     55  H   UNL A   1      39.770  30.672  31.605  1.00  0.00     0.167 HD
ATOM     56  C   UNL A   1      40.352  33.247  35.103  1.00  0.00     0.037 A 
ATOM     57  C   UNL A   1      40.415  28.573  29.879  1.00  0.00     0.037 A 
ATOM     58  C   UNL A   1      41.351  32.217  35.217  1.00  0.00     0.049 A 
ATOM     59  C   UNL A   1      41.418  28.527  30.999  1.00  0.00     0.074 A 
ATOM     60  C   UNL A   1      42.277  32.022  36.226  1.00  0.00     0.029 A 
ATOM     61  N   UNL A   1      41.562  31.213  34.282  1.00  0.00    -0.354 N 
ATOM     62  N   UNL A   1      41.518  29.302  32.052  1.00  0.00    -0.248 NA
ATOM     63  C   UNL A   1      42.436  27.472  30.930  1.00  0.00     0.031 C 
ATOM     64  C   UNL A   1      43.086  30.937  35.874  1.00  0.00     0.029 A 
ATOM     65  C   UNL A   1      42.624  30.414  34.677  1.00  0.00     0.049 A 
ATOM     66  H   UNL A   1      41.035  31.086  33.461  1.00  0.00     0.167 HD
ATOM     67  C   UNL A   1      42.591  28.811  32.785  1.00  0.00     0.074 A 
ATOM     68  C   UNL A   1      43.095  27.660  32.064  1.00  0.00     0.031 C 
ATOM     69  C   UNL A   1      43.113  29.272  33.948  1.00  0.00     0.037 A 
BRANCH  56  70
ATOM     70  C   UNL A   1      40.300  34.313  36.161  1.00  0.00     0.057 A 
ATOM     71  C   UNL A   1      39.497  34.187  37.302  1.00  0.00     0.134 A 
ATOM     72  C   UNL A   1      41.093  35.463  36.057  1.00  0.00     0.134 A 
ATOM     73  F   UNL A   1      38.704  33.116  37.461  1.00  0.00    -0.206 F 
ATOM     74  C   UNL A   1      39.461  35.177  38.285  1.00  0.00     0.040 A 
ATOM     75  C   UNL A   1      41.089  36.446  37.048  1.00  0.00     0.040 A 
ATOM     76  F   UNL A   1      41.892  35.647  34.994  1.00  0.00    -0.206 F 
ATOM     77  C   UNL A   1      40.266  36.308  38.163  1.00  0.00     0.006 A 
ENDBRANCH  56  70
BRANCH  57  78
ATOM     78  C   UNL A   1      40.460  27.582  28.775  1.00  0.00     0.057 A 
ATOM     79  C   UNL A   1      41.266  27.787  27.650  1.00  0.00     0.134 A 
ATOM     80  C   UNL A   1      39.691  26.411  28.812  1.00  0.00     0.134 A 
ATOM     81  F   UNL A   1      42.014  28.896  27.548  1.00  0.00    -0.206 F 
ATOM     82  C   UNL A   1      41.291  26.878  26.591  1.00  0.00     0.040 A 
ATOM     83  C   UNL A   1      39.728  25.480  27.773  1.00  0.00     0.040 A 
ATOM     84  F   UNL A   1      38.905  26.150  29.866  1.00  0.00    -0.206 F 
ATOM     85  C   UNL A   1      40.523  25.717  26.654  1.00  0.00     0.006 A 
ENDBRANCH  57  78
BRANCH  69  86
ATOM     86  C   UNL A   1      44.270  28.509  34.529  1.00  0.00     0.057 A 
ATOM     87  C   UNL A   1      45.600  28.852  34.253  1.00  0.00     0.134 A 
ATOM     88  C   UNL A   1      44.049  27.435  35.400  1.00  0.00     0.134 A 
ATOM     89  F   UNL A   1      45.882  29.864  33.417  1.00  0.00    -0.206 F 
ATOM     90  C   UNL A   1      46.667  28.135  34.798  1.00  0.00     0.040 A 
ATOM     91  C   UNL A   1      45.107  26.731  35.976  1.00  0.00     0.040 A 
ATOM     92  F   UNL A   1      42.800  27.059  35.715  1.00  0.00    -0.206 F 
ATOM     93  C   UNL A   1      46.420  27.075  35.668  1.00  0.00     0.006 A 
ENDBRANCH  69  86
ENDBRANCH  43  44
ENDBRANCH  35  38
ENDBRANCH  33  34
ENDBRANCH  32  33
ENDBRANCH  31  32
ENDBRANCH  30  31
ENDBRANCH   1  30
TORSDOF 17
ENDMDL
MODEL 3
REMARK VINA RESULT:     -12.5      4.266      9.735
REMARK SMILES O=C(CC1(C(=O)NCCCCCCNC(=O)c2ccc(-c3c4nc(c(-c5c(F)cccc5F)c5ccc([nH]5)c(-c5c(F)cccc5F)c5nc(c(-c6c(F)cccc6F)c6ccc3[nH]6)C=C5)C=C4)cc2)CCCCC1)Nc1ccc(N2CCOC2=O)cc1
REMARK SMILES IDX 9 1 8 2 7 3 5 4 6 5 4 7 71 8 75 9 72 10 74 11 73 12 3 13
REMARK SMILES IDX 2 14 1 15 76 16 77 18 78 19 88 20 79 21 87 22 80 23 81 24
REMARK SMILES IDX 82 25 85 26 83 27 84 28 86 29 10 30 11 31 12 32 13 33 14 34
REMARK SMILES IDX 15 35 16 37 17 38 18 39 70 40 19 41 69 42 20 43 21 44 22 45
REMARK SMILES IDX 63 46 23 47 68 48 62 49 64 50 24 51 67 52 61 53 60 54 25 56
REMARK SMILES IDX 51 57 34 58 50 59 35 60 38 61 49 62 65 63 36 64 37 65 48 67
REMARK SMILES IDX 66 68 39 69 26 70 27 71 32 72 28 73 29 74 31 75 33 76 30 77
REMARK SMILES IDX 52 78 53 79 58 80 54 81 55 82 57 83 59 84 56 85 40 86 41 87
REMARK SMILES IDX 46 88 42 89 43 90 45 91 47 92 44 93
REMARK H PARENT 7 6 76 17 14 36 64 55 38 66
REMARK Flexibility Score: inf
ROOT
ATOM      1  C   UNL A   1      33.780  19.908  24.928  1.00  0.00     0.021 C 
ENDROOT
BRANCH   1   2
ATOM      2  C   UNL A   1      32.414  20.580  24.825  1.00  0.00     0.116 C 
BRANCH   2   3
ATOM      3  N   UNL A   1      32.096  21.314  26.022  1.00  0.00    -0.356 N 
ATOM      4  C   UNL A   1      32.254  22.616  26.350  1.00  0.00     0.226 C 
ATOM      5  O   UNL A   1      32.385  22.804  27.564  1.00  0.00    -0.274 OA
ATOM      6  H   UNL A   1      31.690  20.767  26.732  1.00  0.00     0.163 HD
BRANCH   4   7
ATOM      7  C   UNL A   1      32.280  23.813  25.355  1.00  0.00     0.058 C 
ATOM      8  C   UNL A   1      32.272  23.472  23.842  1.00  0.00     0.017 C 
ATOM      9  C   UNL A   1      33.450  24.770  25.700  1.00  0.00     0.017 C 
ATOM     10  C   UNL A   1      33.608  23.299  23.113  1.00  0.00     0.001 C 
ATOM     11  C   UNL A   1      34.807  24.437  25.109  1.00  0.00     0.001 C 
ATOM     12  C   UNL A   1      34.766  24.161  23.612  1.00  0.00     0.000 C 
BRANCH   7  13
ATOM     13  C   UNL A   1      30.965  24.659  25.631  1.00  0.00     0.117 C 
BRANCH  13  14
ATOM     14  C   UNL A   1      30.741  26.084  25.111  1.00  0.00     0.225 C 
ATOM     15  O   UNL A   1      30.912  27.020  25.894  1.00  0.00    -0.275 OA
ATOM     16  N   UNL A   1      30.407  26.222  23.779  1.00  0.00    -0.326 N 
ATOM     17  H   UNL A   1      30.443  25.414  23.216  1.00  0.00     0.169 HD
BRANCH  16  18
ATOM     18  C   UNL A   1      30.019  27.432  23.159  1.00  0.00     0.041 A 
ATOM     19  C   UNL A   1      28.671  27.797  23.250  1.00  0.00     0.028 A 
ATOM     20  C   UNL A   1      30.908  28.299  22.520  1.00  0.00     0.028 A 
ATOM     21  C   UNL A   1      28.249  29.061  22.820  1.00  0.00     0.028 A 
ATOM     22  C   UNL A   1      30.469  29.526  22.013  1.00  0.00     0.028 A 
ATOM     23  C   UNL A   1      29.148  29.934  22.203  1.00  0.00     0.047 A 
BRANCH  23  24
ATOM     24  N   UNL A   1      28.758  31.233  21.845  1.00  0.00    -0.274 N 
ATOM     25  C   UNL A   1      28.277  31.572  20.545  1.00  0.00     0.171 C 
ATOM     26  C   UNL A   1      28.706  32.330  22.678  1.00  0.00     0.414 C 
ATOM     27  C   UNL A   1      27.559  32.874  20.810  1.00  0.00     0.257 C 
ATOM     28  O   UNL A   1      28.154  33.388  22.004  1.00  0.00    -0.447 OA
ATOM     29  O   UNL A   1      29.116  32.419  23.829  1.00  0.00    -0.224 OA
ENDBRANCH  23  24
ENDBRANCH  16  18
ENDBRANCH  13  14
ENDBRANCH   7  13
ENDBRANCH   4   7
ENDBRANCH   2   3
ENDBRANCH   1   2
BRANCH   1  30
ATOM     30  C   UNL A   1      34.855  20.796  25.551  1.00  0.00     0.002 C 
BRANCH  30  31
ATOM     31  C   UNL A   1      36.116  20.967  24.695  1.00  0.00     0.002 C 
BRANCH  31  32
ATOM     32  C   UNL A   1      37.223  19.940  24.955  1.00  0.00     0.021 C 
BRANCH  32  33
ATOM     33  C   UNL A   1      38.527  20.536  25.480  1.00  0.00     0.116 C 
BRANCH  33  34
ATOM     34  N   UNL A   1      39.536  19.512  25.687  1.00  0.00    -0.352 N 
ATOM     35  C   UNL A   1      40.849  19.639  26.055  1.00  0.00     0.251 C 
ATOM     36  H   UNL A   1      39.231  18.587  25.542  1.00  0.00     0.163 HD
ATOM     37  O   UNL A   1      41.620  18.693  25.924  1.00  0.00    -0.269 OA
BRANCH  35  38
ATOM     38  C   UNL A   1      41.336  20.918  26.606  1.00  0.00     0.039 A 
ATOM     39  C   UNL A   1      41.916  21.847  25.740  1.00  0.00     0.014 A 
ATOM     40  C   UNL A   1      41.248  21.188  27.975  1.00  0.00     0.014 A 
ATOM     41  C   UNL A   1      42.363  23.069  26.242  1.00  0.00     0.010 A 
ATOM     42  C   UNL A   1      41.620  22.437  28.460  1.00  0.00     0.010 A 
ATOM     43  C   UNL A   1      42.190  23.386  27.600  1.00  0.00    -0.014 A 
BRANCH  43  44
ATOM     44  C   UNL A   1      42.592  24.713  28.126  1.00  0.00     0.031 A 
ATOM     45  C   UNL A   1      41.567  25.791  28.336  1.00  0.00     0.074 A 
ATOM     46  C   UNL A   1      43.894  24.955  28.373  1.00  0.00     0.049 A 
ATOM     47  N   UNL A   1      41.735  27.017  28.768  1.00  0.00    -0.248 NA
ATOM     48  C   UNL A   1      40.174  25.462  27.995  1.00  0.00     0.031 C 
ATOM     49  C   UNL A   1      44.986  24.002  28.161  1.00  0.00     0.029 A 
ATOM     50  N   UNL A   1      44.521  26.076  28.855  1.00  0.00    -0.354 N 
ATOM     51  C   UNL A   1      40.475  27.602  28.743  1.00  0.00     0.074 A 
ATOM     52  C   UNL A   1      39.563  26.620  28.199  1.00  0.00     0.031 C 
ATOM     53  C   UNL A   1      46.141  24.568  28.541  1.00  0.00     0.029 A 
ATOM     54  C   UNL A   1      45.880  25.933  28.982  1.00  0.00     0.049 A 
ATOM     55  H   UNL A   1      44.041  26.904  29.087  1.00  0.00     0.167 HD
ATOM     56  C   UNL A   1      40.109  28.837  29.161  1.00  0.00     0.037 A 
ATOM     57  C   UNL A   1      46.814  26.808  29.402  1.00  0.00     0.037 A 
ATOM     58  C   UNL A   1      41.021  29.805  29.713  1.00  0.00     0.049 A 
ATOM     59  C   UNL A   1      46.383  28.181  29.840  1.00  0.00     0.074 A 
ATOM     60  C   UNL A   1      40.741  31.063  30.215  1.00  0.00     0.029 A 
ATOM     61  N   UNL A   1      42.392  29.626  29.824  1.00  0.00    -0.354 N 
ATOM     62  N   UNL A   1      45.177  28.695  29.884  1.00  0.00    -0.248 NA
ATOM     63  C   UNL A   1      47.441  29.092  30.293  1.00  0.00     0.031 C 
ATOM     64  C   UNL A   1      41.950  31.668  30.576  1.00  0.00     0.029 A 
ATOM     65  C   UNL A   1      42.976  30.763  30.359  1.00  0.00     0.049 A 
ATOM     66  H   UNL A   1      42.878  28.811  29.563  1.00  0.00     0.167 HD
ATOM     67  C   UNL A   1      45.328  29.977  30.396  1.00  0.00     0.074 A 
ATOM     68  C   UNL A   1      46.740  30.154  30.664  1.00  0.00     0.031 C 
ATOM     69  C   UNL A   1      44.384  30.924  30.621  1.00  0.00     0.037 A 
BRANCH  56  70
ATOM     70  C   UNL A   1      38.659  29.211  29.035  1.00  0.00     0.057 A 
ATOM     71  C   UNL A   1      37.778  29.145  30.123  1.00  0.00     0.134 A 
ATOM     72  C   UNL A   1      38.145  29.681  27.820  1.00  0.00     0.134 A 
ATOM     73  F   UNL A   1      38.202  28.693  31.314  1.00  0.00    -0.206 F 
ATOM     74  C   UNL A   1      36.435  29.503  30.001  1.00  0.00     0.040 A 
ATOM     75  C   UNL A   1      36.811  30.072  27.693  1.00  0.00     0.040 A 
ATOM     76  F   UNL A   1      38.932  29.778  26.737  1.00  0.00    -0.206 F 
ATOM     77  C   UNL A   1      35.949  29.976  28.784  1.00  0.00     0.006 A 
ENDBRANCH  56  70
BRANCH  57  78
ATOM     78  C   UNL A   1      48.243  26.408  29.446  1.00  0.00     0.057 A 
ATOM     79  C   UNL A   1      48.793  25.808  30.584  1.00  0.00     0.134 A 
ATOM     80  C   UNL A   1      49.097  26.626  28.356  1.00  0.00     0.134 A 
ATOM     81  F   UNL A   1      48.031  25.587  31.666  1.00  0.00    -0.206 F 
ATOM     82  C   UNL A   1      50.143  25.460  30.649  1.00  0.00     0.040 A 
ATOM     83  C   UNL A   1      50.442  26.256  28.397  1.00  0.00     0.040 A 
ATOM     84  F   UNL A   1      48.630  27.188  27.232  1.00  0.00    -0.206 F 
ATOM     85  C   UNL A   1      50.971  25.679  29.549  1.00  0.00     0.006 A 
ENDBRANCH  57  78
BRANCH  69  86
ATOM     86  C   UNL A   1      44.846  32.223  31.216  1.00  0.00     0.057 A 
ATOM     87  C   UNL A   1      45.246  33.304  30.420  1.00  0.00     0.134 A 
ATOM     88  C   UNL A   1      44.861  32.404  32.605  1.00  0.00     0.134 A 
ATOM     89  F   UNL A   1      45.267  33.194  29.083  1.00  0.00    -0.206 F 
ATOM     90  C   UNL A   1      45.675  34.507  30.986  1.00  0.00     0.040 A 
ATOM     91  C   UNL A   1      45.257  33.612  33.180  1.00  0.00     0.040 A 
ATOM     92  F   UNL A   1      44.481  31.413  33.426  1.00  0.00    -0.206 F 
ATOM     93  C   UNL A   1      45.674  34.665  32.370  1.00  0.00     0.006 A 
ENDBRANCH  69  86
ENDBRANCH  43  44
ENDBRANCH  35  38
ENDBRANCH  33  34
ENDBRANCH  32  33
ENDBRANCH  31  32
ENDBRANCH  30  31
ENDBRANCH   1  30
TORSDOF 17
ENDMDL
