MODEL 1
REMARK VINA RESULT:     -11.1      0.000      0.000
REMARK SMILES O=C(Cc1ccc(F)c(F)c1)NC1(C(=O)NCCCCCCNC(=O)c2ccc(-c3c4nc(c(-c5c(F)cccc5F)c5ccc([nH]5)c(-c5c(F)cccc5F)c5nc(c(-c6c(F)cccc6F)c6ccc3[nH]6)C=C5)C=C4)cc2)CCCC1
REMARK SMILES IDX 19 1 18 2 17 3 16 4 14 5 15 6 13 8 80 9 83 10 81 11 82 12
REMARK SMILES IDX 12 13 1 14 2 15 3 17 4 18 5 19 11 20 6 21 9 22 7 23 10 24
REMARK SMILES IDX 8 25 20 26 21 27 22 28 23 29 24 30 25 32 26 33 27 34 79 35
REMARK SMILES IDX 28 36 78 37 29 38 30 39 31 40 72 41 32 42 77 43 71 44 73 45
REMARK SMILES IDX 33 46 76 47 70 48 69 49 34 51 60 52 43 53 59 54 44 55 47 56
REMARK SMILES IDX 58 57 74 58 45 59 46 60 57 62 75 63 48 64 35 65 36 66 41 67
REMARK SMILES IDX 37 68 38 69 40 70 42 71 39 72 61 73 62 74 67 75 63 76 64 77
REMARK SMILES IDX 66 78 68 79 65 80 49 81 50 82 55 83 51 84 52 85 54 86 56 87
REMARK SMILES IDX 53 88
REMARK H PARENT 16 7 12 16 23 31 73 50 47 61
REMARK Flexibility Score: inf
ROOT
ATOM      1  C   UNL A   1      30.953  25.945  25.862  1.00  0.00     0.002 C 
ENDROOT
BRANCH   1   2
ATOM      2  C   UNL A   1      30.760  24.428  25.911  1.00  0.00     0.021 C 
BRANCH   2   3
ATOM      3  C   UNL A   1      31.647  23.689  26.903  1.00  0.00     0.116 C 
BRANCH   3   4
ATOM      4  N   UNL A   1      31.921  22.320  26.548  1.00  0.00    -0.354 N 
ATOM      5  C   UNL A   1      33.016  21.752  25.971  1.00  0.00     0.245 C 
ATOM      6  O   UNL A   1      33.164  20.543  26.202  1.00  0.00    -0.272 OA
ATOM      7  H   UNL A   1      31.195  21.689  26.757  1.00  0.00     0.163 HD
BRANCH   5   8
ATOM      8  C   UNL A   1      34.105  22.555  25.163  1.00  0.00     0.119 C 
ATOM      9  C   UNL A   1      35.164  21.592  24.592  1.00  0.00     0.038 C 
ATOM     10  C   UNL A   1      34.899  23.630  25.925  1.00  0.00     0.038 C 
ATOM     11  C   UNL A   1      36.418  21.762  25.429  1.00  0.00     0.003 C 
ATOM     12  C   UNL A   1      36.366  23.185  25.959  1.00  0.00     0.003 C 
BRANCH   8  13
ATOM     13  N   UNL A   1      33.396  23.181  24.025  1.00  0.00    -0.341 N 
ATOM     14  O   UNL A   1      35.280  23.594  22.778  1.00  0.00    -0.275 OA
ATOM     15  C   UNL A   1      34.061  23.653  22.912  1.00  0.00     0.225 C 
ATOM     16  H   UNL A   1      32.416  23.265  24.064  1.00  0.00     0.164 HD
BRANCH  15  17
ATOM     17  C   UNL A   1      33.141  24.174  21.820  1.00  0.00     0.135 C 
BRANCH  17  18
ATOM     18  C   UNL A   1      32.738  25.596  22.131  1.00  0.00    -0.036 A 
ATOM     19  C   UNL A   1      31.397  25.991  22.006  1.00  0.00     0.007 A 
ATOM     20  C   UNL A   1      33.672  26.491  22.674  1.00  0.00     0.046 A 
ATOM     21  C   UNL A   1      30.993  27.257  22.435  1.00  0.00     0.043 A 
ATOM     22  C   UNL A   1      33.258  27.746  23.104  1.00  0.00     0.159 A 
ATOM     23  C   UNL A   1      31.926  28.124  22.991  1.00  0.00     0.158 A 
ATOM     24  F   UNL A   1      34.154  28.577  23.655  1.00  0.00    -0.204 F 
ATOM     25  F   UNL A   1      31.526  29.324  23.433  1.00  0.00    -0.204 F 
ENDBRANCH  17  18
ENDBRANCH  15  17
ENDBRANCH   8  13
ENDBRANCH   5   8
ENDBRANCH   3   4
ENDBRANCH   2   3
ENDBRANCH   1   2
BRANCH   1  26
ATOM     26  C   UNL A   1      32.278  26.464  26.427  1.00  0.00     0.002 C 
BRANCH  26  27
ATOM     27  C   UNL A   1      32.361  27.976  26.654  1.00  0.00     0.021 C 
BRANCH  27  28
ATOM     28  C   UNL A   1      33.697  28.478  27.186  1.00  0.00     0.116 C 
BRANCH  28  29
ATOM     29  N   UNL A   1      33.647  29.879  27.570  1.00  0.00    -0.352 N 
ATOM     30  C   UNL A   1      34.602  30.635  28.202  1.00  0.00     0.251 C 
ATOM     31  H   UNL A   1      32.813  30.351  27.346  1.00  0.00     0.163 HD
ATOM     32  O   UNL A   1      34.336  31.758  28.617  1.00  0.00    -0.269 OA
BRANCH  30  33
ATOM     33  C   UNL A   1      35.955  30.076  28.397  1.00  0.00     0.039 A 
ATOM     34  C   UNL A   1      36.876  30.140  27.348  1.00  0.00     0.014 A 
ATOM     35  C   UNL A   1      36.315  29.501  29.620  1.00  0.00     0.014 A 
ATOM     36  C   UNL A   1      38.181  29.683  27.546  1.00  0.00     0.010 A 
ATOM     37  C   UNL A   1      37.632  29.111  29.836  1.00  0.00     0.010 A 
ATOM     38  C   UNL A   1      38.576  29.195  28.802  1.00  0.00    -0.014 A 
BRANCH  38  39
ATOM     39  C   UNL A   1      39.971  28.757  29.064  1.00  0.00     0.031 A 
ATOM     40  C   UNL A   1      40.959  29.729  29.648  1.00  0.00     0.074 A 
ATOM     41  C   UNL A   1      40.369  27.525  28.691  1.00  0.00     0.049 A 
ATOM     42  N   UNL A   1      42.249  29.595  29.817  1.00  0.00    -0.248 NA
ATOM     43  C   UNL A   1      40.432  31.039  30.068  1.00  0.00     0.031 C 
ATOM     44  C   UNL A   1      39.515  26.504  28.080  1.00  0.00     0.029 A 
ATOM     45  N   UNL A   1      41.606  26.929  28.748  1.00  0.00    -0.354 N 
ATOM     46  C   UNL A   1      42.690  30.809  30.330  1.00  0.00     0.074 A 
ATOM     47  C   UNL A   1      41.539  31.680  30.414  1.00  0.00     0.031 C 
ATOM     48  C   UNL A   1      40.250  25.410  27.821  1.00  0.00     0.029 A 
ATOM     49  C   UNL A   1      41.635  25.665  28.207  1.00  0.00     0.049 A 
ATOM     50  H   UNL A   1      42.396  27.366  29.139  1.00  0.00     0.167 HD
ATOM     51  C   UNL A   1      43.942  31.159  30.709  1.00  0.00     0.037 A 
ATOM     52  C   UNL A   1      42.667  24.820  28.020  1.00  0.00     0.037 A 
ATOM     53  C   UNL A   1      45.074  30.272  30.670  1.00  0.00     0.049 A 
ATOM     54  C   UNL A   1      44.046  25.237  28.456  1.00  0.00     0.074 A 
ATOM     55  C   UNL A   1      46.362  30.505  31.119  1.00  0.00     0.029 A 
ATOM     56  N   UNL A   1      45.053  28.986  30.155  1.00  0.00    -0.354 N 
ATOM     57  N   UNL A   1      44.433  26.358  29.015  1.00  0.00    -0.248 NA
ATOM     58  C   UNL A   1      45.134  24.271  28.239  1.00  0.00     0.031 C 
ATOM     59  C   UNL A   1      47.135  29.378  30.828  1.00  0.00     0.029 A 
ATOM     60  C   UNL A   1      46.315  28.424  30.249  1.00  0.00     0.049 A 
ATOM     61  H   UNL A   1      44.261  28.540  29.779  1.00  0.00     0.167 HD
ATOM     62  C   UNL A   1      45.794  26.216  29.250  1.00  0.00     0.074 A 
ATOM     63  C   UNL A   1      46.166  24.899  28.782  1.00  0.00     0.031 C 
ATOM     64  C   UNL A   1      46.660  27.099  29.805  1.00  0.00     0.037 A 
BRANCH  51  65
ATOM     65  C   UNL A   1      44.165  32.557  31.203  1.00  0.00     0.057 A 
ATOM     66  C   UNL A   1      44.475  33.610  30.334  1.00  0.00     0.134 A 
ATOM     67  C   UNL A   1      43.987  32.867  32.558  1.00  0.00     0.134 A 
ATOM     68  F   UNL A   1      44.667  33.379  29.027  1.00  0.00    -0.206 F 
ATOM     69  C   UNL A   1      44.610  34.921  30.796  1.00  0.00     0.040 A 
ATOM     70  C   UNL A   1      44.093  34.176  33.028  1.00  0.00     0.040 A 
ATOM     71  F   UNL A   1      43.684  31.904  33.442  1.00  0.00    -0.206 F 
ATOM     72  C   UNL A   1      44.407  35.207  32.145  1.00  0.00     0.006 A 
ENDBRANCH  51  65
BRANCH  52  73
ATOM     73  C   UNL A   1      42.452  23.494  27.384  1.00  0.00     0.057 A 
ATOM     74  C   UNL A   1      42.569  23.328  25.999  1.00  0.00     0.134 A 
ATOM     75  C   UNL A   1      42.074  22.375  28.136  1.00  0.00     0.134 A 
ATOM     76  F   UNL A   1      42.909  24.366  25.221  1.00  0.00    -0.206 F 
ATOM     77  C   UNL A   1      42.284  22.109  25.380  1.00  0.00     0.040 A 
ATOM     78  C   UNL A   1      41.815  21.142  27.533  1.00  0.00     0.040 A 
ATOM     79  F   UNL A   1      41.952  22.462  29.469  1.00  0.00    -0.206 F 
ATOM     80  C   UNL A   1      41.907  21.010  26.149  1.00  0.00     0.006 A 
ENDBRANCH  52  73
BRANCH  64  81
ATOM     81  C   UNL A   1      48.080  26.653  29.992  1.00  0.00     0.057 A 
ATOM     82  C   UNL A   1      48.495  25.954  31.132  1.00  0.00     0.134 A 
ATOM     83  C   UNL A   1      49.029  26.874  28.986  1.00  0.00     0.134 A 
ATOM     84  F   UNL A   1      47.637  25.722  32.137  1.00  0.00    -0.206 F 
ATOM     85  C   UNL A   1      49.809  25.503  31.271  1.00  0.00     0.040 A 
ATOM     86  C   UNL A   1      50.337  26.403  29.101  1.00  0.00     0.040 A 
ATOM     87  F   UNL A   1      48.693  27.528  27.864  1.00  0.00    -0.206 F 
ATOM     88  C   UNL A   1      50.731  25.719  30.248  1.00  0.00     0.006 A 
ENDBRANCH  64  81
ENDBRANCH  38  39
ENDBRANCH  30  33
ENDBRANCH  28  29
ENDBRANCH  27  28
ENDBRANCH  26  27
ENDBRANCH   1  26
TORSDOF 16
ENDMDL
MODEL 2
REMARK VINA RESULT:     -11.1      2.441      6.917
REMARK SMILES O=C(Cc1ccc(F)c(F)c1)NC1(C(=O)NCCCCCCNC(=O)c2ccc(-c3c4nc(c(-c5c(F)cccc5F)c5ccc([nH]5)c(-c5c(F)cccc5F)c5nc(c(-c6c(F)cccc6F)c6ccc3[nH]6)C=C5)C=C4)cc2)CCCC1
REMARK SMILES IDX 19 1 18 2 17 3 16 4 14 5 15 6 13 8 80 9 83 10 81 11 82 12
REMARK SMILES IDX 12 13 1 14 2 15 3 17 4 18 5 19 11 20 6 21 9 22 7 23 10 24
REMARK SMILES IDX 8 25 20 26 21 27 22 28 23 29 24 30 25 32 26 33 27 34 79 35
REMARK SMILES IDX 28 36 78 37 29 38 30 39 31 40 72 41 32 42 77 43 71 44 73 45
REMARK SMILES IDX 33 46 76 47 70 48 69 49 34 51 60 52 43 53 59 54 44 55 47 56
REMARK SMILES IDX 58 57 74 58 45 59 46 60 57 62 75 63 48 64 35 65 36 66 41 67
REMARK SMILES IDX 37 68 38 69 40 70 42 71 39 72 61 73 62 74 67 75 63 76 64 77
REMARK SMILES IDX 66 78 68 79 65 80 49 81 50 82 55 83 51 84 52 85 54 86 56 87
REMARK SMILES IDX 53 88
REMARK H PARENT 16 7 12 16 23 31 73 50 47 61
REMARK Flexibility Score: inf
ROOT
ATOM      1  C   UNL A   1      36.626  22.203  24.123  1.00  0.00     0.002 C 
ENDROOT
BRANCH   1   2
ATOM      2  C   UNL A   1      36.711  23.567  24.808  1.00  0.00     0.021 C 
BRANCH   2   3
ATOM      3  C   UNL A   1      35.381  24.281  25.008  1.00  0.00     0.116 C 
BRANCH   3   4
ATOM      4  N   UNL A   1      34.682  23.906  26.211  1.00  0.00    -0.354 N 
ATOM      5  C   UNL A   1      33.572  23.138  26.392  1.00  0.00     0.245 C 
ATOM      6  O   UNL A   1      33.471  22.618  27.514  1.00  0.00    -0.272 OA
ATOM      7  H   UNL A   1      35.072  24.266  27.040  1.00  0.00     0.163 HD
BRANCH   5   8
ATOM      8  C   UNL A   1      32.530  22.809  25.257  1.00  0.00     0.119 C 
ATOM      9  C   UNL A   1      31.668  21.596  25.659  1.00  0.00     0.038 C 
ATOM     10  C   UNL A   1      33.089  22.470  23.864  1.00  0.00     0.038 C 
ATOM     11  C   UNL A   1      32.148  20.416  24.834  1.00  0.00     0.003 C 
ATOM     12  C   UNL A   1      32.719  21.013  23.559  1.00  0.00     0.003 C 
BRANCH   8  13
ATOM     13  N   UNL A   1      31.642  23.988  25.158  1.00  0.00    -0.341 N 
ATOM     14  O   UNL A   1      30.651  23.704  27.211  1.00  0.00    -0.275 OA
ATOM     15  C   UNL A   1      30.766  24.337  26.164  1.00  0.00     0.225 C 
ATOM     16  H   UNL A   1      31.677  24.542  24.345  1.00  0.00     0.164 HD
BRANCH  15  17
ATOM     17  C   UNL A   1      30.012  25.631  25.904  1.00  0.00     0.135 C 
BRANCH  17  18
ATOM     18  C   UNL A   1      30.992  26.773  25.780  1.00  0.00    -0.036 A 
ATOM     19  C   UNL A   1      30.924  27.644  24.681  1.00  0.00     0.007 A 
ATOM     20  C   UNL A   1      31.886  27.051  26.824  1.00  0.00     0.046 A 
ATOM     21  C   UNL A   1      31.725  28.786  24.636  1.00  0.00     0.043 A 
ATOM     22  C   UNL A   1      32.675  28.195  26.773  1.00  0.00     0.159 A 
ATOM     23  C   UNL A   1      32.590  29.060  25.689  1.00  0.00     0.158 A 
ATOM     24  F   UNL A   1      33.498  28.468  27.795  1.00  0.00    -0.204 F 
ATOM     25  F   UNL A   1      33.332  30.175  25.657  1.00  0.00    -0.204 F 
ENDBRANCH  17  18
ENDBRANCH  15  17
ENDBRANCH   8  13
ENDBRANCH   5   8
ENDBRANCH   3   4
ENDBRANCH   2   3
ENDBRANCH   1   2
BRANCH   1  26
ATOM     26  C   UNL A   1      36.508  20.996  25.058  1.00  0.00     0.002 C 
BRANCH  26  27
ATOM     27  C   UNL A   1      37.651  19.980  24.986  1.00  0.00     0.021 C 
BRANCH  27  28
ATOM     28  C   UNL A   1      38.942  20.410  25.670  1.00  0.00     0.116 C 
BRANCH  28  29
ATOM     29  N   UNL A   1      39.890  19.315  25.801  1.00  0.00    -0.352 N 
ATOM     30  C   UNL A   1      41.231  19.364  26.086  1.00  0.00     0.251 C 
ATOM     31  H   UNL A   1      39.518  18.414  25.665  1.00  0.00     0.163 HD
ATOM     32  O   UNL A   1      41.929  18.360  25.983  1.00  0.00    -0.269 OA
BRANCH  30  33
ATOM     33  C   UNL A   1      41.837  20.645  26.503  1.00  0.00     0.039 A 
ATOM     34  C   UNL A   1      42.254  21.550  25.524  1.00  0.00     0.014 A 
ATOM     35  C   UNL A   1      41.981  20.953  27.859  1.00  0.00     0.014 A 
ATOM     36  C   UNL A   1      42.758  22.795  25.905  1.00  0.00     0.010 A 
ATOM     37  C   UNL A   1      42.419  22.218  28.234  1.00  0.00     0.010 A 
ATOM     38  C   UNL A   1      42.814  23.150  27.262  1.00  0.00    -0.014 A 
BRANCH  38  39
ATOM     39  C   UNL A   1      43.289  24.487  27.700  1.00  0.00     0.031 A 
ATOM     40  C   UNL A   1      42.289  25.542  28.087  1.00  0.00     0.074 A 
ATOM     41  C   UNL A   1      44.604  24.781  27.657  1.00  0.00     0.049 A 
ATOM     42  N   UNL A   1      42.484  26.808  28.355  1.00  0.00    -0.248 NA
ATOM     43  C   UNL A   1      40.878  25.126  28.149  1.00  0.00     0.031 C 
ATOM     44  C   UNL A   1      45.669  23.855  27.261  1.00  0.00     0.029 A 
ATOM     45  N   UNL A   1      45.268  25.953  27.923  1.00  0.00    -0.354 N 
ATOM     46  C   UNL A   1      41.223  27.343  28.585  1.00  0.00     0.074 A 
ATOM     47  C   UNL A   1      40.266  26.277  28.393  1.00  0.00     0.031 C 
ATOM     48  C   UNL A   1      46.849  24.493  27.315  1.00  0.00     0.029 A 
ATOM     49  C   UNL A   1      46.624  25.882  27.704  1.00  0.00     0.049 A 
ATOM     50  H   UNL A   1      44.816  26.768  28.242  1.00  0.00     0.167 HD
ATOM     51  C   UNL A   1      40.896  28.609  28.937  1.00  0.00     0.037 A 
ATOM     52  C   UNL A   1      47.571  26.836  27.784  1.00  0.00     0.037 A 
ATOM     53  C   UNL A   1      41.856  29.653  29.176  1.00  0.00     0.049 A 
ATOM     54  C   UNL A   1      47.176  28.232  28.184  1.00  0.00     0.074 A 
ATOM     55  C   UNL A   1      41.628  30.942  29.627  1.00  0.00     0.029 A 
ATOM     56  N   UNL A   1      43.223  29.529  28.985  1.00  0.00    -0.354 N 
ATOM     57  N   UNL A   1      45.989  28.703  28.477  1.00  0.00    -0.248 NA
ATOM     58  C   UNL A   1      48.252  29.231  28.266  1.00  0.00     0.031 C 
ATOM     59  C   UNL A   1      42.852  31.614  29.659  1.00  0.00     0.029 A 
ATOM     60  C   UNL A   1      43.848  30.728  29.282  1.00  0.00     0.049 A 
ATOM     61  H   UNL A   1      43.680  28.711  28.684  1.00  0.00     0.167 HD
ATOM     62  C   UNL A   1      46.181  30.037  28.815  1.00  0.00     0.074 A 
ATOM     63  C   UNL A   1      47.599  30.299  28.699  1.00  0.00     0.031 C 
ATOM     64  C   UNL A   1      45.265  30.962  29.189  1.00  0.00     0.037 A 
BRANCH  51  65
ATOM     65  C   UNL A   1      39.443  28.946  29.093  1.00  0.00     0.057 A 
ATOM     66  C   UNL A   1      38.656  29.352  28.009  1.00  0.00     0.134 A 
ATOM     67  C   UNL A   1      38.806  28.781  30.330  1.00  0.00     0.134 A 
ATOM     68  F   UNL A   1      39.207  29.537  26.800  1.00  0.00    -0.206 F 
ATOM     69  C   UNL A   1      37.288  29.594  28.151  1.00  0.00     0.040 A 
ATOM     70  C   UNL A   1      37.435  28.994  30.479  1.00  0.00     0.040 A 
ATOM     71  F   UNL A   1      39.502  28.388  31.408  1.00  0.00    -0.206 F 
ATOM     72  C   UNL A   1      36.673  29.403  29.387  1.00  0.00     0.006 A 
ENDBRANCH  51  65
BRANCH  52  73
ATOM     73  C   UNL A   1      48.990  26.518  27.475  1.00  0.00     0.057 A 
ATOM     74  C   UNL A   1      49.513  26.716  26.191  1.00  0.00     0.134 A 
ATOM     75  C   UNL A   1      49.843  25.963  28.437  1.00  0.00     0.134 A 
ATOM     76  F   UNL A   1      48.741  27.226  25.219  1.00  0.00    -0.206 F 
ATOM     77  C   UNL A   1      50.817  26.340  25.864  1.00  0.00     0.040 A 
ATOM     78  C   UNL A   1      51.159  25.612  28.132  1.00  0.00     0.040 A 
ATOM     79  F   UNL A   1      49.409  25.756  29.689  1.00  0.00    -0.206 F 
ATOM     80  C   UNL A   1      51.646  25.787  26.838  1.00  0.00     0.006 A 
ENDBRANCH  52  73
BRANCH  64  81
ATOM     81  C   UNL A   1      45.767  32.326  29.557  1.00  0.00     0.057 A 
ATOM     82  C   UNL A   1      45.843  33.367  28.623  1.00  0.00     0.134 A 
ATOM     83  C   UNL A   1      46.121  32.617  30.881  1.00  0.00     0.134 A 
ATOM     84  F   UNL A   1      45.530  33.150  27.337  1.00  0.00    -0.206 F 
ATOM     85  C   UNL A   1      46.266  34.645  28.990  1.00  0.00     0.040 A 
ATOM     86  C   UNL A   1      46.518  33.898  31.266  1.00  0.00     0.040 A 
ATOM     87  F   UNL A   1      46.061  31.667  31.827  1.00  0.00    -0.206 F 
ATOM     88  C   UNL A   1      46.595  34.915  30.318  1.00  0.00     0.006 A 
ENDBRANCH  64  81
ENDBRANCH  38  39
ENDBRANCH  30  33
ENDBRANCH  28  29
ENDBRANCH  27  28
ENDBRANCH  26  27
ENDBRANCH   1  26
TORSDOF 16
ENDMDL
MODEL 3
REMARK VINA RESULT:     -11.1      4.016      7.819
REMARK SMILES O=C(Cc1ccc(F)c(F)c1)NC1(C(=O)NCCCCCCNC(=O)c2ccc(-c3c4nc(c(-c5c(F)cccc5F)c5ccc([nH]5)c(-c5c(F)cccc5F)c5nc(c(-c6c(F)cccc6F)c6ccc3[nH]6)C=C5)C=C4)cc2)CCCC1
REMARK SMILES IDX 19 1 18 2 17 3 16 4 14 5 15 6 13 8 80 9 83 10 81 11 82 12
REMARK SMILES IDX 12 13 1 14 2 15 3 17 4 18 5 19 11 20 6 21 9 22 7 23 10 24
REMARK SMILES IDX 8 25 20 26 21 27 22 28 23 29 24 30 25 32 26 33 27 34 79 35
REMARK SMILES IDX 28 36 78 37 29 38 30 39 31 40 72 41 32 42 77 43 71 44 73 45
REMARK SMILES IDX 33 46 76 47 70 48 69 49 34 51 60 52 43 53 59 54 44 55 47 56
REMARK SMILES IDX 58 57 74 58 45 59 46 60 57 62 75 63 48 64 35 65 36 66 41 67
REMARK SMILES IDX 37 68 38 69 40 70 42 71 39 72 61 73 62 74 67 75 63 76 64 77
REMARK SMILES IDX 66 78 68 79 65 80 49 81 50 82 55 83 51 84 52 85 54 86 56 87
REMARK SMILES IDX 53 88
REMARK H PARENT 16 7 12 16 23 31 73 50 47 61
REMARK Flexibility Score: inf
ROOT
ATOM      1  C   UNL A   1      32.591  29.693  27.176  1.00  0.00     0.002 C 
ENDROOT
BRANCH   1   2
ATOM      2  C   UNL A   1      32.231  28.246  27.514  1.00  0.00     0.021 C 
BRANCH   2   3
ATOM      3  C   UNL A   1      31.265  27.571  26.551  1.00  0.00     0.116 C 
BRANCH   3   4
ATOM      4  N   UNL A   1      30.965  26.199  26.875  1.00  0.00    -0.354 N 
ATOM      5  C   UNL A   1      31.563  25.040  26.482  1.00  0.00     0.245 C 
ATOM      6  O   UNL A   1      31.403  24.080  27.251  1.00  0.00    -0.272 OA
ATOM      7  H   UNL A   1      30.199  26.080  27.483  1.00  0.00     0.163 HD
BRANCH   5   8
ATOM      8  C   UNL A   1      32.495  24.912  25.219  1.00  0.00     0.119 C 
ATOM      9  C   UNL A   1      32.787  23.429  24.919  1.00  0.00     0.038 C 
ATOM     10  C   UNL A   1      33.874  25.593  25.288  1.00  0.00     0.038 C 
ATOM     11  C   UNL A   1      34.217  23.159  25.349  1.00  0.00     0.003 C 
ATOM     12  C   UNL A   1      34.938  24.491  25.227  1.00  0.00     0.003 C 
BRANCH   8  13
ATOM     13  N   UNL A   1      31.729  25.466  24.082  1.00  0.00    -0.341 N 
ATOM     14  O   UNL A   1      33.098  27.279  23.742  1.00  0.00    -0.275 OA
ATOM     15  C   UNL A   1      32.107  26.622  23.432  1.00  0.00     0.225 C 
ATOM     16  H   UNL A   1      30.920  24.994  23.779  1.00  0.00     0.164 HD
BRANCH  15  17
ATOM     17  C   UNL A   1      31.237  26.969  22.234  1.00  0.00     0.135 C 
BRANCH  17  18
ATOM     18  C   UNL A   1      30.223  28.016  22.629  1.00  0.00    -0.036 A 
ATOM     19  C   UNL A   1      30.477  29.373  22.376  1.00  0.00     0.007 A 
ATOM     20  C   UNL A   1      28.969  27.630  23.126  1.00  0.00     0.046 A 
ATOM     21  C   UNL A   1      29.484  30.329  22.599  1.00  0.00     0.043 A 
ATOM     22  C   UNL A   1      27.985  28.589  23.338  1.00  0.00     0.159 A 
ATOM     23  C   UNL A   1      28.239  29.928  23.070  1.00  0.00     0.158 A 
ATOM     24  F   UNL A   1      26.779  28.202  23.777  1.00  0.00    -0.204 F 
ATOM     25  F   UNL A   1      27.278  30.845  23.250  1.00  0.00    -0.204 F 
ENDBRANCH  17  18
ENDBRANCH  15  17
ENDBRANCH   8  13
ENDBRANCH   5   8
ENDBRANCH   3   4
ENDBRANCH   2   3
ENDBRANCH   1   2
BRANCH   1  26
ATOM     26  C   UNL A   1      31.603  30.428  26.266  1.00  0.00     0.002 C 
BRANCH  26  27
ATOM     27  C   UNL A   1      31.465  31.933  26.507  1.00  0.00     0.021 C 
BRANCH  27  28
ATOM     28  C   UNL A   1      32.627  32.578  27.250  1.00  0.00     0.116 C 
BRANCH  28  29
ATOM     29  N   UNL A   1      32.380  33.978  27.556  1.00  0.00    -0.352 N 
ATOM     30  C   UNL A   1      32.979  34.773  28.500  1.00  0.00     0.251 C 
ATOM     31  H   UNL A   1      31.686  34.415  27.012  1.00  0.00     0.163 HD
ATOM     32  O   UNL A   1      32.530  35.886  28.755  1.00  0.00    -0.269 OA
BRANCH  30  33
ATOM     33  C   UNL A   1      34.163  34.271  29.225  1.00  0.00     0.039 A 
ATOM     34  C   UNL A   1      33.982  33.568  30.419  1.00  0.00     0.014 A 
ATOM     35  C   UNL A   1      35.448  34.485  28.719  1.00  0.00     0.014 A 
ATOM     36  C   UNL A   1      35.088  33.023  31.075  1.00  0.00     0.010 A 
ATOM     37  C   UNL A   1      36.540  33.884  29.336  1.00  0.00     0.010 A 
ATOM     38  C   UNL A   1      36.371  33.150  30.520  1.00  0.00    -0.014 A 
BRANCH  38  39
ATOM     39  C   UNL A   1      37.562  32.533  31.158  1.00  0.00     0.031 A 
ATOM     40  C   UNL A   1      38.257  31.383  30.482  1.00  0.00     0.074 A 
ATOM     41  C   UNL A   1      37.955  32.940  32.381  1.00  0.00     0.049 A 
ATOM     42  N   UNL A   1      39.214  30.614  30.934  1.00  0.00    -0.248 NA
ATOM     43  C   UNL A   1      37.792  31.030  29.130  1.00  0.00     0.031 C 
ATOM     44  C   UNL A   1      37.338  34.019  33.157  1.00  0.00     0.029 A 
ATOM     45  N   UNL A   1      38.954  32.474  33.201  1.00  0.00    -0.354 N 
ATOM     46  C   UNL A   1      39.441  29.671  29.939  1.00  0.00     0.074 A 
ATOM     47  C   UNL A   1      38.502  29.941  28.873  1.00  0.00     0.031 C 
ATOM     48  C   UNL A   1      37.974  34.134  34.335  1.00  0.00     0.029 A 
ATOM     49  C   UNL A   1      39.011  33.111  34.418  1.00  0.00     0.049 A 
ATOM     50  H   UNL A   1      39.571  31.752  32.941  1.00  0.00     0.167 HD
ATOM     51  C   UNL A   1      40.361  28.678  29.914  1.00  0.00     0.037 A 
ATOM     52  C   UNL A   1      39.796  32.878  35.488  1.00  0.00     0.037 A 
ATOM     53  C   UNL A   1      41.327  28.446  30.955  1.00  0.00     0.049 A 
ATOM     54  C   UNL A   1      40.812  31.769  35.426  1.00  0.00     0.074 A 
ATOM     55  C   UNL A   1      42.358  27.524  30.978  1.00  0.00     0.029 A 
ATOM     56  N   UNL A   1      41.379  29.140  32.152  1.00  0.00    -0.354 N 
ATOM     57  N   UNL A   1      41.071  30.938  34.446  1.00  0.00    -0.248 NA
ATOM     58  C   UNL A   1      41.649  31.566  36.618  1.00  0.00     0.031 C 
ATOM     59  C   UNL A   1      43.004  27.625  32.212  1.00  0.00     0.029 A 
ATOM     60  C   UNL A   1      42.409  28.646  32.935  1.00  0.00     0.049 A 
ATOM     61  H   UNL A   1      40.775  29.873  32.408  1.00  0.00     0.167 HD
ATOM     62  C   UNL A   1      42.121  30.144  34.888  1.00  0.00     0.074 A 
ATOM     63  C   UNL A   1      42.459  30.597  36.219  1.00  0.00     0.031 C 
ATOM     64  C   UNL A   1      42.751  29.130  34.247  1.00  0.00     0.037 A 
BRANCH  51  65
ATOM     65  C   UNL A   1      40.379  27.763  28.726  1.00  0.00     0.057 A 
ATOM     66  C   UNL A   1      41.161  28.030  27.595  1.00  0.00     0.134 A 
ATOM     67  C   UNL A   1      39.667  26.556  28.750  1.00  0.00     0.134 A 
ATOM     68  F   UNL A   1      41.859  29.171  27.507  1.00  0.00    -0.206 F 
ATOM     69  C   UNL A   1      41.225  27.135  26.526  1.00  0.00     0.040 A 
ATOM     70  C   UNL A   1      39.743  25.642  27.699  1.00  0.00     0.040 A 
ATOM     71  F   UNL A   1      38.903  26.238  29.807  1.00  0.00    -0.206 F 
ATOM     72  C   UNL A   1      40.524  25.932  26.582  1.00  0.00     0.006 A 
ENDBRANCH  51  65
BRANCH  52  73
ATOM     73  C   UNL A   1      39.657  33.699  36.720  1.00  0.00     0.057 A 
ATOM     74  C   UNL A   1      38.791  33.315  37.751  1.00  0.00     0.134 A 
ATOM     75  C   UNL A   1      40.344  34.909  36.874  1.00  0.00     0.134 A 
ATOM     76  F   UNL A   1      38.089  32.176  37.655  1.00  0.00    -0.206 F 
ATOM     77  C   UNL A   1      38.585  34.121  38.873  1.00  0.00     0.040 A 
ATOM     78  C   UNL A   1      40.171  35.709  38.004  1.00  0.00     0.040 A 
ATOM     79  F   UNL A   1      41.196  35.331  35.928  1.00  0.00    -0.206 F 
ATOM     80  C   UNL A   1      39.278  35.323  39.002  1.00  0.00     0.006 A 
ENDBRANCH  52  73
BRANCH  64  81
ATOM     81  C   UNL A   1      43.905  28.477  34.947  1.00  0.00     0.057 A 
ATOM     82  C   UNL A   1      43.739  27.351  35.762  1.00  0.00     0.134 A 
ATOM     83  C   UNL A   1      45.210  28.947  34.750  1.00  0.00     0.134 A 
ATOM     84  F   UNL A   1      42.514  26.859  36.000  1.00  0.00    -0.206 F 
ATOM     85  C   UNL A   1      44.829  26.724  36.369  1.00  0.00     0.040 A 
ATOM     86  C   UNL A   1      46.310  28.313  35.327  1.00  0.00     0.040 A 
ATOM     87  F   UNL A   1      45.439  30.016  33.972  1.00  0.00    -0.206 F 
ATOM     88  C   UNL A   1      46.120  27.200  36.143  1.00  0.00     0.006 A 
ENDBRANCH  64  81
ENDBRANCH  38  39
ENDBRANCH  30  33
ENDBRANCH  28  29
ENDBRANCH  27  28
ENDBRANCH  26  27
ENDBRANCH   1  26
TORSDOF 16
ENDMDL
