MODEL 1
REMARK VINA RESULT:     -12.7      0.000      0.000
REMARK SMILES O=C(NCCCCCCNC(=O)[C@@H]1CCCN1C(=O)[C@H]1CC[C@@H](Cn2c(O)nc3ccccc3c2=O)CC1)c1ccc(-c2c3nc(c(-c4c(F)cccc4F)c4ccc([nH]4)c(-c4c(F)cccc4F)c4nc(c(-c5c(F)cccc5F)c5ccc2[nH]5)C=C4)C=C3)cc1
REMARK SMILES IDX 8 1 7 2 6 3 5 4 4 5 3 6 1 7 2 8 39 10 40 11 92 12 41 13
REMARK SMILES IDX 91 14 42 15 43 16 44 17 85 18 45 19 90 20 84 21 86 22 46 23
REMARK SMILES IDX 89 24 83 25 82 26 47 28 73 29 56 30 72 31 57 32 60 33 71 34
REMARK SMILES IDX 87 35 58 36 59 37 70 39 88 40 61 41 48 42 49 43 54 44 50 45
REMARK SMILES IDX 51 46 53 47 55 48 52 49 74 50 75 51 80 52 76 53 77 54 79 55
REMARK SMILES IDX 81 56 78 57 62 58 63 59 68 60 64 61 65 62 67 63 69 64 66 65
REMARK SMILES IDX 9 66 10 67 11 68 12 70 13 71 14 72 17 73 15 74 16 75 18 76
REMARK SMILES IDX 19 77 20 78 38 79 21 80 37 81 22 82 23 83 24 84 25 85 26 86
REMARK SMILES IDX 35 87 28 88 34 89 36 90 29 91 33 92 30 93 32 94 31 95 27 96
REMARK H PARENT 3 9 86 27 60 38 10 69 27 97
REMARK Flexibility Score: inf
ROOT
ATOM      1  C   UNL A   1      37.182  23.066  25.197  1.00  0.00     0.021 C 
ENDROOT
BRANCH   1   2
ATOM      2  C   UNL A   1      36.955  21.849  24.278  1.00  0.00     0.002 C 
BRANCH   2   3
ATOM      3  C   UNL A   1      36.683  20.515  24.961  1.00  0.00     0.002 C 
BRANCH   3   4
ATOM      4  C   UNL A   1      37.856  19.545  24.959  1.00  0.00     0.021 C 
BRANCH   4   5
ATOM      5  C   UNL A   1      39.051  20.006  25.781  1.00  0.00     0.116 C 
BRANCH   5   6
ATOM      6  N   UNL A   1      40.119  19.019  25.802  1.00  0.00    -0.352 N 
ATOM      7  O   UNL A   1      42.275  18.333  25.753  1.00  0.00    -0.269 OA
ATOM      8  C   UNL A   1      41.473  19.225  25.958  1.00  0.00     0.251 C 
ATOM      9  H   UNL A   1      39.839  18.082  25.693  1.00  0.00     0.163 HD
BRANCH   8  10
ATOM     10  C   UNL A   1      41.936  20.567  26.370  1.00  0.00     0.039 A 
ATOM     11  C   UNL A   1      42.184  20.820  27.720  1.00  0.00     0.014 A 
ATOM     12  C   UNL A   1      42.135  21.563  25.411  1.00  0.00     0.014 A 
ATOM     13  C   UNL A   1      42.653  22.077  28.104  1.00  0.00     0.010 A 
ATOM     14  C   UNL A   1      42.707  22.772  25.780  1.00  0.00     0.010 A 
ATOM     15  C   UNL A   1      42.920  23.061  27.135  1.00  0.00    -0.014 A 
BRANCH  15  16
ATOM     16  C   UNL A   1      43.281  24.442  27.535  1.00  0.00     0.031 A 
ATOM     17  C   UNL A   1      44.717  24.882  27.419  1.00  0.00     0.074 A 
ATOM     18  C   UNL A   1      42.343  25.291  27.993  1.00  0.00     0.049 A 
ATOM     19  N   UNL A   1      45.262  26.035  27.716  1.00  0.00    -0.248 NA
ATOM     20  C   UNL A   1      45.681  23.877  26.935  1.00  0.00     0.031 C 
ATOM     21  C   UNL A   1      40.929  24.969  28.198  1.00  0.00     0.029 A 
ATOM     22  N   UNL A   1      42.441  26.608  28.362  1.00  0.00    -0.354 N 
ATOM     23  C   UNL A   1      46.619  25.885  27.459  1.00  0.00     0.074 A 
ATOM     24  C   UNL A   1      46.833  24.509  27.079  1.00  0.00     0.031 C 
ATOM     25  C   UNL A   1      40.286  26.071  28.621  1.00  0.00     0.029 A 
ATOM     26  C   UNL A   1      41.244  27.166  28.736  1.00  0.00     0.049 A 
ATOM     27  H   UNL A   1      43.291  27.106  28.360  1.00  0.00     0.167 HD
ATOM     28  C   UNL A   1      47.598  26.819  27.482  1.00  0.00     0.037 A 
ATOM     29  C   UNL A   1      40.958  28.427  29.112  1.00  0.00     0.037 A 
ATOM     30  C   UNL A   1      47.383  28.195  27.831  1.00  0.00     0.049 A 
ATOM     31  C   UNL A   1      42.062  29.450  29.128  1.00  0.00     0.074 A 
ATOM     32  C   UNL A   1      48.296  29.232  27.879  1.00  0.00     0.029 A 
ATOM     33  N   UNL A   1      46.151  28.727  28.183  1.00  0.00    -0.354 N 
ATOM     34  N   UNL A   1      43.333  29.306  28.838  1.00  0.00    -0.248 NA
ATOM     35  C   UNL A   1      41.686  30.819  29.508  1.00  0.00     0.031 C 
ATOM     36  C   UNL A   1      47.619  30.389  28.282  1.00  0.00     0.029 A 
ATOM     37  C   UNL A   1      46.279  30.079  28.448  1.00  0.00     0.049 A 
ATOM     38  H   UNL A   1      45.310  28.218  28.238  1.00  0.00     0.167 HD
ATOM     39  C   UNL A   1      43.901  30.566  28.975  1.00  0.00     0.074 A 
ATOM     40  C   UNL A   1      42.829  31.467  29.346  1.00  0.00     0.031 C 
ATOM     41  C   UNL A   1      45.192  30.950  28.814  1.00  0.00     0.037 A 
BRANCH  28  42
ATOM     42  C   UNL A   1      48.975  26.367  27.090  1.00  0.00     0.057 A 
ATOM     43  C   UNL A   1      49.371  26.337  25.749  1.00  0.00     0.134 A 
ATOM     44  C   UNL A   1      49.922  25.986  28.053  1.00  0.00     0.134 A 
ATOM     45  F   UNL A   1      48.517  26.688  24.776  1.00  0.00    -0.206 F 
ATOM     46  C   UNL A   1      50.663  25.954  25.380  1.00  0.00     0.040 A 
ATOM     47  C   UNL A   1      51.224  25.632  27.699  1.00  0.00     0.040 A 
ATOM     48  F   UNL A   1      49.613  26.015  29.359  1.00  0.00    -0.206 F 
ATOM     49  C   UNL A   1      51.597  25.612  26.357  1.00  0.00     0.006 A 
ENDBRANCH  28  42
BRANCH  29  50
ATOM     50  C   UNL A   1      39.568  28.813  29.468  1.00  0.00     0.057 A 
ATOM     51  C   UNL A   1      39.095  28.704  30.780  1.00  0.00     0.134 A 
ATOM     52  C   UNL A   1      38.696  29.346  28.510  1.00  0.00     0.134 A 
ATOM     53  F   UNL A   1      39.876  28.195  31.744  1.00  0.00    -0.206 F 
ATOM     54  C   UNL A   1      37.809  29.121  31.130  1.00  0.00     0.040 A 
ATOM     55  C   UNL A   1      37.417  29.790  28.850  1.00  0.00     0.040 A 
ATOM     56  F   UNL A   1      39.099  29.492  27.239  1.00  0.00    -0.206 F 
ATOM     57  C   UNL A   1      36.970  29.677  30.165  1.00  0.00     0.006 A 
ENDBRANCH  29  50
BRANCH  41  58
ATOM     58  C   UNL A   1      45.492  32.407  29.010  1.00  0.00     0.057 A 
ATOM     59  C   UNL A   1      45.381  33.307  27.942  1.00  0.00     0.134 A 
ATOM     60  C   UNL A   1      45.891  32.919  30.251  1.00  0.00     0.134 A 
ATOM     61  F   UNL A   1      45.015  32.879  26.725  1.00  0.00    -0.206 F 
ATOM     62  C   UNL A   1      45.645  34.667  28.106  1.00  0.00     0.040 A 
ATOM     63  C   UNL A   1      46.128  34.281  30.434  1.00  0.00     0.040 A 
ATOM     64  F   UNL A   1      46.003  32.110  31.316  1.00  0.00    -0.206 F 
ATOM     65  C   UNL A   1      46.008  35.159  29.358  1.00  0.00     0.006 A 
ENDBRANCH  41  58
ENDBRANCH  15  16
ENDBRANCH   8  10
ENDBRANCH   5   6
ENDBRANCH   4   5
ENDBRANCH   3   4
ENDBRANCH   2   3
ENDBRANCH   1   2
BRANCH   1  66
ATOM     66  C   UNL A   1      35.915  23.717  25.760  1.00  0.00     0.116 C 
BRANCH  66  67
ATOM     67  N   UNL A   1      35.286  23.032  26.874  1.00  0.00    -0.354 N 
ATOM     68  C   UNL A   1      34.135  22.321  26.996  1.00  0.00     0.242 C 
ATOM     69  H   UNL A   1      35.798  23.096  27.712  1.00  0.00     0.163 HD
ATOM     70  O   UNL A   1      34.087  21.461  27.889  1.00  0.00    -0.273 OA
BRANCH  68  71
ATOM     71  C   UNL A   1      32.948  22.409  26.021  1.00  0.00     0.174 C 
ATOM     72  C   UNL A   1      33.265  21.368  24.930  1.00  0.00     0.037 C 
ATOM     73  N   UNL A   1      32.555  23.632  25.302  1.00  0.00    -0.330 N 
ATOM     74  C   UNL A   1      32.650  21.921  23.663  1.00  0.00     0.024 C 
ATOM     75  C   UNL A   1      32.712  23.423  23.864  1.00  0.00     0.120 C 
BRANCH  73  76
ATOM     76  C   UNL A   1      31.840  24.738  25.734  1.00  0.00     0.226 C 
ATOM     77  O   UNL A   1      30.951  24.586  26.586  1.00  0.00    -0.275 OA
BRANCH  76  78
ATOM     78  C   UNL A   1      32.033  26.182  25.203  1.00  0.00     0.078 C 
ATOM     79  C   UNL A   1      30.799  27.079  25.122  1.00  0.00     0.014 C 
ATOM     80  C   UNL A   1      33.140  26.949  25.869  1.00  0.00     0.014 C 
ATOM     81  C   UNL A   1      31.140  28.481  24.542  1.00  0.00     0.006 C 
ATOM     82  C   UNL A   1      33.543  28.209  25.128  1.00  0.00     0.006 C 
ATOM     83  C   UNL A   1      32.383  29.198  25.153  1.00  0.00     0.009 C 
BRANCH  83  84
ATOM     84  C   UNL A   1      32.085  29.781  26.564  1.00  0.00     0.134 C 
BRANCH  84  85
ATOM     85  N   UNL A   1      32.514  31.167  26.852  1.00  0.00    -0.262 N 
ATOM     86  C   UNL A   1      31.757  32.291  26.621  1.00  0.00     0.297 A 
ATOM     87  C   UNL A   1      33.728  31.359  27.499  1.00  0.00     0.264 A 
ATOM     88  N   UNL A   1      31.950  33.452  27.154  1.00  0.00    -0.197 NA
ATOM     89  C   UNL A   1      33.839  32.525  28.374  1.00  0.00     0.066 A 
ATOM     90  O   UNL A   1      34.739  30.690  27.323  1.00  0.00    -0.268 OA
ATOM     91  C   UNL A   1      32.958  33.567  28.123  1.00  0.00     0.081 A 
ATOM     92  C   UNL A   1      34.784  32.579  29.406  1.00  0.00     0.016 A 
ATOM     93  C   UNL A   1      33.080  34.726  28.890  1.00  0.00     0.029 A 
ATOM     94  C   UNL A   1      34.870  33.725  30.189  1.00  0.00     0.001 A 
ATOM     95  C   UNL A   1      34.032  34.808  29.917  1.00  0.00     0.002 A 
BRANCH  86  96
ATOM     96  O   UNL A   1      30.736  32.171  25.753  1.00  0.00    -0.480 OA
ATOM     97  H   UNL A   1      30.279  32.934  25.459  1.00  0.00     0.296 HD
ENDBRANCH  86  96
ENDBRANCH  84  85
ENDBRANCH  83  84
ENDBRANCH  76  78
ENDBRANCH  73  76
ENDBRANCH  68  71
ENDBRANCH  66  67
ENDBRANCH   1  66
TORSDOF 18
ENDMDL
MODEL 2
REMARK VINA RESULT:     -12.3      3.731     10.778
REMARK SMILES O=C(NCCCCCCNC(=O)[C@@H]1CCCN1C(=O)[C@H]1CC[C@@H](Cn2c(O)nc3ccccc3c2=O)CC1)c1ccc(-c2c3nc(c(-c4c(F)cccc4F)c4ccc([nH]4)c(-c4c(F)cccc4F)c4nc(c(-c5c(F)cccc5F)c5ccc2[nH]5)C=C4)C=C3)cc1
REMARK SMILES IDX 8 1 7 2 6 3 5 4 4 5 3 6 1 7 2 8 39 10 40 11 92 12 41 13
REMARK SMILES IDX 91 14 42 15 43 16 44 17 85 18 45 19 90 20 84 21 86 22 46 23
REMARK SMILES IDX 89 24 83 25 82 26 47 28 73 29 56 30 72 31 57 32 60 33 71 34
REMARK SMILES IDX 87 35 58 36 59 37 70 39 88 40 61 41 48 42 49 43 54 44 50 45
REMARK SMILES IDX 51 46 53 47 55 48 52 49 74 50 75 51 80 52 76 53 77 54 79 55
REMARK SMILES IDX 81 56 78 57 62 58 63 59 68 60 64 61 65 62 67 63 69 64 66 65
REMARK SMILES IDX 9 66 10 67 11 68 12 70 13 71 14 72 17 73 15 74 16 75 18 76
REMARK SMILES IDX 19 77 20 78 38 79 21 80 37 81 22 82 23 83 24 84 25 85 26 86
REMARK SMILES IDX 35 87 28 88 34 89 36 90 29 91 33 92 30 93 32 94 31 95 27 96
REMARK H PARENT 3 9 86 27 60 38 10 69 27 97
REMARK Flexibility Score: inf
ROOT
ATOM      1  C   UNL A   1      33.734  28.051  26.521  1.00  0.00     0.021 C 
ENDROOT
BRANCH   1   2
ATOM      2  C   UNL A   1      32.979  29.182  27.249  1.00  0.00     0.002 C 
BRANCH   2   3
ATOM      3  C   UNL A   1      31.802  29.806  26.510  1.00  0.00     0.002 C 
BRANCH   3   4
ATOM      4  C   UNL A   1      31.515  31.255  26.877  1.00  0.00     0.021 C 
BRANCH   4   5
ATOM      5  C   UNL A   1      32.641  32.222  26.538  1.00  0.00     0.116 C 
BRANCH   5   6
ATOM      6  N   UNL A   1      32.460  33.521  27.166  1.00  0.00    -0.352 N 
ATOM      7  O   UNL A   1      32.741  35.064  28.798  1.00  0.00    -0.269 OA
ATOM      8  C   UNL A   1      33.130  34.050  28.248  1.00  0.00     0.251 C 
ATOM      9  H   UNL A   1      31.770  34.098  26.766  1.00  0.00     0.163 HD
BRANCH   8  10
ATOM     10  C   UNL A   1      34.334  33.348  28.740  1.00  0.00     0.039 A 
ATOM     11  C   UNL A   1      34.204  32.076  29.300  1.00  0.00     0.014 A 
ATOM     12  C   UNL A   1      35.589  33.952  28.630  1.00  0.00     0.014 A 
ATOM     13  C   UNL A   1      35.346  31.401  29.733  1.00  0.00     0.010 A 
ATOM     14  C   UNL A   1      36.731  33.235  28.957  1.00  0.00     0.010 A 
ATOM     15  C   UNL A   1      36.618  31.975  29.562  1.00  0.00    -0.014 A 
BRANCH  15  16
ATOM     16  C   UNL A   1      37.824  31.338  30.143  1.00  0.00     0.031 A 
ATOM     17  C   UNL A   1      38.183  31.633  31.576  1.00  0.00     0.074 A 
ATOM     18  C   UNL A   1      38.587  30.511  29.405  1.00  0.00     0.049 A 
ATOM     19  N   UNL A   1      39.191  31.198  32.288  1.00  0.00    -0.248 NA
ATOM     20  C   UNL A   1      37.308  32.574  32.299  1.00  0.00     0.031 C 
ATOM     21  C   UNL A   1      38.372  30.185  27.994  1.00  0.00     0.029 A 
ATOM     22  N   UNL A   1      39.696  29.783  29.749  1.00  0.00    -0.354 N 
ATOM     23  C   UNL A   1      39.068  31.813  33.528  1.00  0.00     0.074 A 
ATOM     24  C   UNL A   1      37.952  32.725  33.443  1.00  0.00     0.031 C 
ATOM     25  C   UNL A   1      39.299  29.294  27.604  1.00  0.00     0.029 A 
ATOM     26  C   UNL A   1      40.182  29.003  28.729  1.00  0.00     0.049 A 
ATOM     27  H   UNL A   1      40.106  29.817  30.644  1.00  0.00     0.167 HD
ATOM     28  C   UNL A   1      39.783  31.603  34.658  1.00  0.00     0.037 A 
ATOM     29  C   UNL A   1      41.214  28.140  28.718  1.00  0.00     0.037 A 
ATOM     30  C   UNL A   1      40.874  30.676  34.753  1.00  0.00     0.049 A 
ATOM     31  C   UNL A   1      41.994  27.921  29.987  1.00  0.00     0.074 A 
ATOM     32  C   UNL A   1      41.663  30.373  35.847  1.00  0.00     0.029 A 
ATOM     33  N   UNL A   1      41.323  29.888  33.703  1.00  0.00    -0.354 N 
ATOM     34  N   UNL A   1      41.838  28.475  31.165  1.00  0.00    -0.248 NA
ATOM     35  C   UNL A   1      43.085  26.938  29.928  1.00  0.00     0.031 C 
ATOM     36  C   UNL A   1      42.605  29.415  35.451  1.00  0.00     0.029 A 
ATOM     37  C   UNL A   1      42.377  29.096  34.123  1.00  0.00     0.049 A 
ATOM     38  H   UNL A   1      40.947  29.892  32.793  1.00  0.00     0.167 HD
ATOM     39  C   UNL A   1      42.791  27.892  31.991  1.00  0.00     0.074 A 
ATOM     40  C   UNL A   1      43.501  26.920  31.184  1.00  0.00     0.031 C 
ATOM     41  C   UNL A   1      43.062  28.136  33.297  1.00  0.00     0.037 A 
BRANCH  28  42
ATOM     42  C   UNL A   1      39.371  32.381  35.874  1.00  0.00     0.057 A 
ATOM     43  C   UNL A   1      38.451  31.858  36.789  1.00  0.00     0.134 A 
ATOM     44  C   UNL A   1      39.912  33.645  36.153  1.00  0.00     0.134 A 
ATOM     45  F   UNL A   1      37.894  30.655  36.585  1.00  0.00    -0.206 F 
ATOM     46  C   UNL A   1      38.092  32.560  37.942  1.00  0.00     0.040 A 
ATOM     47  C   UNL A   1      39.585  34.341  37.316  1.00  0.00     0.040 A 
ATOM     48  F   UNL A   1      40.818  34.194  35.327  1.00  0.00    -0.206 F 
ATOM     49  C   UNL A   1      38.669  33.800  38.214  1.00  0.00     0.006 A 
ENDBRANCH  28  42
BRANCH  29  50
ATOM     50  C   UNL A   1      41.556  27.386  27.484  1.00  0.00     0.057 A 
ATOM     51  C   UNL A   1      42.473  27.888  26.553  1.00  0.00     0.134 A 
ATOM     52  C   UNL A   1      41.009  26.122  27.232  1.00  0.00     0.134 A 
ATOM     53  F   UNL A   1      43.028  29.096  26.731  1.00  0.00    -0.206 F 
ATOM     54  C   UNL A   1      42.841  27.157  25.422  1.00  0.00     0.040 A 
ATOM     55  C   UNL A   1      41.386  25.369  26.119  1.00  0.00     0.040 A 
ATOM     56  F   UNL A   1      40.138  25.580  28.096  1.00  0.00    -0.206 F 
ATOM     57  C   UNL A   1      42.305  25.887  25.209  1.00  0.00     0.006 A 
ENDBRANCH  29  50
BRANCH  41  58
ATOM     58  C   UNL A   1      44.149  27.315  33.926  1.00  0.00     0.057 A 
ATOM     59  C   UNL A   1      45.475  27.767  33.924  1.00  0.00     0.134 A 
ATOM     60  C   UNL A   1      43.885  26.080  34.533  1.00  0.00     0.134 A 
ATOM     61  F   UNL A   1      45.796  28.936  33.349  1.00  0.00    -0.206 F 
ATOM     62  C   UNL A   1      46.498  27.024  34.513  1.00  0.00     0.040 A 
ATOM     63  C   UNL A   1      44.895  25.343  35.151  1.00  0.00     0.040 A 
ATOM     64  F   UNL A   1      42.633  25.599  34.578  1.00  0.00    -0.206 F 
ATOM     65  C   UNL A   1      46.207  25.814  35.139  1.00  0.00     0.006 A 
ENDBRANCH  41  58
ENDBRANCH  15  16
ENDBRANCH   8  10
ENDBRANCH   5   6
ENDBRANCH   4   5
ENDBRANCH   3   4
ENDBRANCH   2   3
ENDBRANCH   1   2
BRANCH   1  66
ATOM     66  C   UNL A   1      32.897  27.214  25.549  1.00  0.00     0.116 C 
BRANCH  66  67
ATOM     67  N   UNL A   1      33.616  26.611  24.443  1.00  0.00    -0.354 N 
ATOM     68  C   UNL A   1      33.561  25.385  23.857  1.00  0.00     0.242 C 
ATOM     69  H   UNL A   1      34.280  27.211  24.034  1.00  0.00     0.163 HD
ATOM     70  O   UNL A   1      33.910  25.305  22.669  1.00  0.00    -0.273 OA
BRANCH  68  71
ATOM     71  C   UNL A   1      32.967  24.129  24.517  1.00  0.00     0.174 C 
ATOM     72  C   UNL A   1      31.442  24.324  24.417  1.00  0.00     0.037 C 
ATOM     73  N   UNL A   1      33.226  23.722  25.907  1.00  0.00    -0.330 N 
ATOM     74  C   UNL A   1      30.872  23.630  25.635  1.00  0.00     0.024 C 
ATOM     75  C   UNL A   1      31.977  23.758  26.666  1.00  0.00     0.120 C 
BRANCH  73  76
ATOM     76  C   UNL A   1      34.320  23.081  26.467  1.00  0.00     0.226 C 
ATOM     77  O   UNL A   1      34.202  22.554  27.584  1.00  0.00    -0.275 OA
BRANCH  76  78
ATOM     78  C   UNL A   1      35.726  22.997  25.821  1.00  0.00     0.078 C 
ATOM     79  C   UNL A   1      36.842  23.839  26.439  1.00  0.00     0.014 C 
ATOM     80  C   UNL A   1      36.238  21.600  25.618  1.00  0.00     0.014 C 
ATOM     81  C   UNL A   1      38.183  23.679  25.667  1.00  0.00     0.006 C 
ATOM     82  C   UNL A   1      37.436  21.515  24.691  1.00  0.00     0.006 C 
ATOM     83  C   UNL A   1      38.622  22.218  25.341  1.00  0.00     0.009 C 
BRANCH  83  84
ATOM     84  C   UNL A   1      39.179  21.484  26.594  1.00  0.00     0.134 C 
BRANCH  84  85
ATOM     85  N   UNL A   1      40.557  20.948  26.535  1.00  0.00    -0.262 N 
ATOM     86  C   UNL A   1      40.917  19.763  25.937  1.00  0.00     0.297 A 
ATOM     87  C   UNL A   1      41.591  21.737  27.023  1.00  0.00     0.264 A 
ATOM     88  N   UNL A   1      42.114  19.436  25.577  1.00  0.00    -0.197 NA
ATOM     89  C   UNL A   1      42.897  21.592  26.382  1.00  0.00     0.066 A 
ATOM     90  O   UNL A   1      41.522  22.469  28.002  1.00  0.00    -0.268 OA
ATOM     91  C   UNL A   1      43.125  20.398  25.716  1.00  0.00     0.081 A 
ATOM     92  C   UNL A   1      43.859  22.609  26.443  1.00  0.00     0.016 A 
ATOM     93  C   UNL A   1      44.386  20.193  25.153  1.00  0.00     0.029 A 
ATOM     94  C   UNL A   1      45.098  22.408  25.845  1.00  0.00     0.001 A 
ATOM     95  C   UNL A   1      45.369  21.191  25.218  1.00  0.00     0.002 A 
BRANCH  86  96
ATOM     96  O   UNL A   1      39.938  18.865  25.726  1.00  0.00    -0.480 OA
ATOM     97  H   UNL A   1      39.055  19.074  25.955  1.00  0.00     0.296 HD
ENDBRANCH  86  96
ENDBRANCH  84  85
ENDBRANCH  83  84
ENDBRANCH  76  78
ENDBRANCH  73  76
ENDBRANCH  68  71
ENDBRANCH  66  67
ENDBRANCH   1  66
TORSDOF 18
ENDMDL
MODEL 3
REMARK VINA RESULT:     -12.2      4.106      9.348
REMARK SMILES O=C(NCCCCCCNC(=O)[C@@H]1CCCN1C(=O)[C@H]1CC[C@@H](Cn2c(O)nc3ccccc3c2=O)CC1)c1ccc(-c2c3nc(c(-c4c(F)cccc4F)c4ccc([nH]4)c(-c4c(F)cccc4F)c4nc(c(-c5c(F)cccc5F)c5ccc2[nH]5)C=C4)C=C3)cc1
REMARK SMILES IDX 8 1 7 2 6 3 5 4 4 5 3 6 1 7 2 8 39 10 40 11 92 12 41 13
REMARK SMILES IDX 91 14 42 15 43 16 44 17 85 18 45 19 90 20 84 21 86 22 46 23
REMARK SMILES IDX 89 24 83 25 82 26 47 28 73 29 56 30 72 31 57 32 60 33 71 34
REMARK SMILES IDX 87 35 58 36 59 37 70 39 88 40 61 41 48 42 49 43 54 44 50 45
REMARK SMILES IDX 51 46 53 47 55 48 52 49 74 50 75 51 80 52 76 53 77 54 79 55
REMARK SMILES IDX 81 56 78 57 62 58 63 59 68 60 64 61 65 62 67 63 69 64 66 65
REMARK SMILES IDX 9 66 10 67 11 68 12 70 13 71 14 72 17 73 15 74 16 75 18 76
REMARK SMILES IDX 19 77 20 78 38 79 21 80 37 81 22 82 23 83 24 84 25 85 26 86
REMARK SMILES IDX 35 87 28 88 34 89 36 90 29 91 33 92 30 93 32 94 31 95 27 96
REMARK H PARENT 3 9 86 27 60 38 10 69 27 97
REMARK Flexibility Score: inf
ROOT
ATOM      1  C   UNL A   1      34.006  28.123  23.074  1.00  0.00     0.021 C 
ENDROOT
BRANCH   1   2
ATOM      2  C   UNL A   1      33.266  29.332  23.684  1.00  0.00     0.002 C 
BRANCH   2   3
ATOM      3  C   UNL A   1      32.533  29.094  24.998  1.00  0.00     0.002 C 
BRANCH   3   4
ATOM      4  C   UNL A   1      31.772  30.299  25.531  1.00  0.00     0.021 C 
BRANCH   4   5
ATOM      5  C   UNL A   1      32.328  30.866  26.830  1.00  0.00     0.116 C 
BRANCH   5   6
ATOM      6  N   UNL A   1      32.224  32.316  26.887  1.00  0.00    -0.352 N 
ATOM      7  O   UNL A   1      32.671  34.369  27.728  1.00  0.00    -0.269 OA
ATOM      8  C   UNL A   1      32.993  33.201  27.611  1.00  0.00     0.251 C 
ATOM      9  H   UNL A   1      31.514  32.717  26.337  1.00  0.00     0.163 HD
BRANCH   8  10
ATOM     10  C   UNL A   1      34.222  32.697  28.260  1.00  0.00     0.039 A 
ATOM     11  C   UNL A   1      35.378  33.478  28.237  1.00  0.00     0.014 A 
ATOM     12  C   UNL A   1      34.215  31.455  28.901  1.00  0.00     0.014 A 
ATOM     13  C   UNL A   1      36.527  33.015  28.879  1.00  0.00     0.010 A 
ATOM     14  C   UNL A   1      35.322  31.049  29.632  1.00  0.00     0.010 A 
ATOM     15  C   UNL A   1      36.506  31.798  29.583  1.00  0.00    -0.014 A 
BRANCH  15  16
ATOM     16  C   UNL A   1      37.751  31.225  30.147  1.00  0.00     0.031 A 
ATOM     17  C   UNL A   1      38.131  31.562  31.566  1.00  0.00     0.074 A 
ATOM     18  C   UNL A   1      38.531  30.416  29.407  1.00  0.00     0.049 A 
ATOM     19  N   UNL A   1      39.173  31.184  32.261  1.00  0.00    -0.248 NA
ATOM     20  C   UNL A   1      37.233  32.479  32.292  1.00  0.00     0.031 C 
ATOM     21  C   UNL A   1      38.298  30.054  28.007  1.00  0.00     0.029 A 
ATOM     22  N   UNL A   1      39.678  29.743  29.737  1.00  0.00    -0.354 N 
ATOM     23  C   UNL A   1      39.052  31.817  33.492  1.00  0.00     0.074 A 
ATOM     24  C   UNL A   1      37.896  32.679  33.418  1.00  0.00     0.031 C 
ATOM     25  C   UNL A   1      39.253  29.196  27.611  1.00  0.00     0.029 A 
ATOM     26  C   UNL A   1      40.173  28.964  28.721  1.00  0.00     0.049 A 
ATOM     27  H   UNL A   1      40.108  29.812  30.621  1.00  0.00     0.167 HD
ATOM     28  C   UNL A   1      39.801  31.660  34.608  1.00  0.00     0.037 A 
ATOM     29  C   UNL A   1      41.242  28.146  28.700  1.00  0.00     0.037 A 
ATOM     30  C   UNL A   1      40.933  30.781  34.694  1.00  0.00     0.049 A 
ATOM     31  C   UNL A   1      42.059  27.984  29.954  1.00  0.00     0.074 A 
ATOM     32  C   UNL A   1      41.760  30.533  35.774  1.00  0.00     0.029 A 
ATOM     33  N   UNL A   1      41.390  29.993  33.648  1.00  0.00    -0.354 N 
ATOM     34  N   UNL A   1      41.907  28.554  31.125  1.00  0.00    -0.248 NA
ATOM     35  C   UNL A   1      43.189  27.048  29.886  1.00  0.00     0.031 C 
ATOM     36  C   UNL A   1      42.732  29.609  35.374  1.00  0.00     0.029 A 
ATOM     37  C   UNL A   1      42.487  29.255  34.057  1.00  0.00     0.049 A 
ATOM     38  H   UNL A   1      40.994  29.964  32.747  1.00  0.00     0.167 HD
ATOM     39  C   UNL A   1      42.902  28.028  31.938  1.00  0.00     0.074 A 
ATOM     40  C   UNL A   1      43.634  27.072  31.133  1.00  0.00     0.031 C 
ATOM     41  C   UNL A   1      43.193  28.309  33.233  1.00  0.00     0.037 A 
BRANCH  28  42
ATOM     42  C   UNL A   1      39.384  32.443  35.819  1.00  0.00     0.057 A 
ATOM     43  C   UNL A   1      39.867  33.736  36.045  1.00  0.00     0.134 A 
ATOM     44  C   UNL A   1      38.476  31.920  36.753  1.00  0.00     0.134 A 
ATOM     45  F   UNL A   1      40.738  34.298  35.194  1.00  0.00    -0.206 F 
ATOM     46  C   UNL A   1      39.454  34.485  37.150  1.00  0.00     0.040 A 
ATOM     47  C   UNL A   1      38.033  32.669  37.842  1.00  0.00     0.040 A 
ATOM     48  F   UNL A   1      37.958  30.693  36.582  1.00  0.00    -0.206 F 
ATOM     49  C   UNL A   1      38.525  33.956  38.046  1.00  0.00     0.006 A 
ENDBRANCH  28  42
BRANCH  29  50
ATOM     50  C   UNL A   1      41.587  27.384  27.473  1.00  0.00     0.057 A 
ATOM     51  C   UNL A   1      42.381  27.944  26.465  1.00  0.00     0.134 A 
ATOM     52  C   UNL A   1      41.169  26.058  27.301  1.00  0.00     0.134 A 
ATOM     53  F   UNL A   1      42.808  29.211  26.564  1.00  0.00    -0.206 F 
ATOM     54  C   UNL A   1      42.756  27.211  25.338  1.00  0.00     0.040 A 
ATOM     55  C   UNL A   1      41.557  25.305  26.191  1.00  0.00     0.040 A 
ATOM     56  F   UNL A   1      40.420  25.461  28.240  1.00  0.00    -0.206 F 
ATOM     57  C   UNL A   1      42.353  25.882  25.204  1.00  0.00     0.006 A 
ENDBRANCH  29  50
BRANCH  41  58
ATOM     58  C   UNL A   1      44.328  27.547  33.850  1.00  0.00     0.057 A 
ATOM     59  C   UNL A   1      44.100  26.321  34.488  1.00  0.00     0.134 A 
ATOM     60  C   UNL A   1      45.645  28.023  33.815  1.00  0.00     0.134 A 
ATOM     61  F   UNL A   1      42.859  25.814  34.566  1.00  0.00    -0.206 F 
ATOM     62  C   UNL A   1      45.142  25.590  35.058  1.00  0.00     0.040 A 
ATOM     63  C   UNL A   1      46.700  27.288  34.355  1.00  0.00     0.040 A 
ATOM     64  F   UNL A   1      45.931  29.185  33.207  1.00  0.00    -0.206 F 
ATOM     65  C   UNL A   1      46.449  26.069  34.982  1.00  0.00     0.006 A 
ENDBRANCH  41  58
ENDBRANCH  15  16
ENDBRANCH   8  10
ENDBRANCH   5   6
ENDBRANCH   4   5
ENDBRANCH   3   4
ENDBRANCH   2   3
ENDBRANCH   1   2
BRANCH   1  66
ATOM     66  C   UNL A   1      33.719  26.770  23.730  1.00  0.00     0.116 C 
BRANCH  66  67
ATOM     67  N   UNL A   1      33.708  25.620  22.845  1.00  0.00    -0.354 N 
ATOM     68  C   UNL A   1      34.048  24.315  23.014  1.00  0.00     0.242 C 
ATOM     69  H   UNL A   1      33.391  25.828  21.937  1.00  0.00     0.163 HD
ATOM     70  O   UNL A   1      33.494  23.482  22.279  1.00  0.00    -0.273 OA
BRANCH  68  71
ATOM     71  C   UNL A   1      34.957  23.789  24.138  1.00  0.00     0.174 C 
ATOM     72  C   UNL A   1      36.028  22.954  23.411  1.00  0.00     0.037 C 
ATOM     73  N   UNL A   1      34.492  22.953  25.257  1.00  0.00    -0.330 N 
ATOM     74  C   UNL A   1      36.407  21.859  24.384  1.00  0.00     0.024 C 
ATOM     75  C   UNL A   1      35.138  21.643  25.187  1.00  0.00     0.120 C 
BRANCH  73  76
ATOM     76  C   UNL A   1      33.827  23.300  26.423  1.00  0.00     0.226 C 
ATOM     77  O   UNL A   1      34.285  22.920  27.512  1.00  0.00    -0.275 OA
BRANCH  76  78
ATOM     78  C   UNL A   1      32.506  24.108  26.484  1.00  0.00     0.078 C 
ATOM     79  C   UNL A   1      32.581  25.611  26.217  1.00  0.00     0.014 C 
ATOM     80  C   UNL A   1      31.384  23.532  25.669  1.00  0.00     0.014 C 
ATOM     81  C   UNL A   1      31.188  26.291  26.347  1.00  0.00     0.006 C 
ATOM     82  C   UNL A   1      30.024  24.119  25.999  1.00  0.00     0.006 C 
ATOM     83  C   UNL A   1      30.007  25.591  25.606  1.00  0.00     0.009 C 
BRANCH  83  84
ATOM     84  C   UNL A   1      30.056  25.833  24.070  1.00  0.00     0.134 C 
BRANCH  84  85
ATOM     85  N   UNL A   1      29.200  26.899  23.503  1.00  0.00    -0.262 N 
ATOM     86  C   UNL A   1      27.863  27.067  23.780  1.00  0.00     0.297 A 
ATOM     87  C   UNL A   1      29.797  27.871  22.712  1.00  0.00     0.264 A 
ATOM     88  N   UNL A   1      27.184  28.147  23.581  1.00  0.00    -0.197 NA
ATOM     89  C   UNL A   1      29.204  29.207  22.739  1.00  0.00     0.066 A 
ATOM     90  O   UNL A   1      30.715  27.679  21.924  1.00  0.00    -0.268 OA
ATOM     91  C   UNL A   1      27.875  29.282  23.132  1.00  0.00     0.081 A 
ATOM     92  C   UNL A   1      29.943  30.343  22.386  1.00  0.00     0.016 A 
ATOM     93  C   UNL A   1      27.253  30.531  23.101  1.00  0.00     0.029 A 
ATOM     94  C   UNL A   1      29.322  31.588  22.396  1.00  0.00     0.001 A 
ATOM     95  C   UNL A   1      27.970  31.678  22.734  1.00  0.00     0.002 A 
BRANCH  86  96
ATOM     96  O   UNL A   1      27.208  26.007  24.288  1.00  0.00    -0.480 OA
ATOM     97  H   UNL A   1      26.674  26.109  25.051  1.00  0.00     0.296 HD
ENDBRANCH  86  96
ENDBRANCH  84  85
ENDBRANCH  83  84
ENDBRANCH  76  78
ENDBRANCH  73  76
ENDBRANCH  68  71
ENDBRANCH  66  67
ENDBRANCH   1  66
TORSDOF 18
ENDMDL
