MODEL 1
REMARK VINA RESULT:     -12.3      0.000      0.000
REMARK SMILES O=C(NCCCCCCNC(=O)c1ccc(-c2c3nc(c(-c4c(F)cccc4F)c4ccc([nH]4)c(-c4c(F)cccc4F)c4nc(c(-c5c(F)cccc5F)c5ccc2[nH]5)C=C4)C=C3)cc1)C1=Cc2cc(C(F)(F)F)ccc2O[C@@H]1C(F)(F)F
REMARK SMILES IDX 7 1 6 2 5 3 4 4 3 5 1 6 2 7 67 9 68 10 80 11 69 12 79 13
REMARK SMILES IDX 70 14 78 15 71 16 77 17 76 18 81 19 82 20 83 21 84 22 72 23
REMARK SMILES IDX 73 24 74 25 75 26 8 27 9 28 10 29 11 30 12 32 13 33 14 34
REMARK SMILES IDX 66 35 15 36 65 37 16 38 17 39 18 40 59 41 19 42 64 43 58 44
REMARK SMILES IDX 60 45 20 46 63 47 57 48 56 49 21 51 47 52 30 53 46 54 31 55
REMARK SMILES IDX 34 56 45 57 61 58 32 59 33 60 44 62 62 63 35 64 22 65 23 66
REMARK SMILES IDX 28 67 24 68 25 69 27 70 29 71 26 72 48 73 49 74 54 75 50 76
REMARK SMILES IDX 51 77 53 78 55 79 52 80 36 81 37 82 42 83 38 84 39 85 41 86
REMARK SMILES IDX 43 87 40 88
REMARK H PARENT 3 8 10 31 60 50 34 61
REMARK Flexibility Score: inf
ROOT
ATOM      1  C   UNL A   1      31.370  30.855  25.934  1.00  0.00     0.002 C 
ENDROOT
BRANCH   1   2
ATOM      2  C   UNL A   1      32.647  30.085  26.292  1.00  0.00     0.002 C 
BRANCH   2   3
ATOM      3  C   UNL A   1      32.467  28.777  27.058  1.00  0.00     0.021 C 
BRANCH   3   4
ATOM      4  C   UNL A   1      31.413  27.819  26.517  1.00  0.00     0.116 C 
BRANCH   4   5
ATOM      5  N   UNL A   1      31.403  26.492  27.106  1.00  0.00    -0.352 N 
ATOM      6  O   UNL A   1      31.506  24.251  27.160  1.00  0.00    -0.270 OA
ATOM      7  C   UNL A   1      31.341  25.271  26.492  1.00  0.00     0.251 C 
ATOM      8  H   UNL A   1      31.448  26.468  28.089  1.00  0.00     0.163 HD
BRANCH   7   9
ATOM      9  C   UNL A   1      31.166  25.123  25.016  1.00  0.00     0.067 C 
ATOM     10  C   UNL A   1      30.020  25.446  24.389  1.00  0.00     0.025 C 
ATOM     11  C   UNL A   1      32.468  25.217  24.252  1.00  0.00     0.314 C 
ATOM     12  C   UNL A   1      30.188  26.696  23.601  1.00  0.00     0.018 A 
ATOM     13  O   UNL A   1      32.628  26.528  23.637  1.00  0.00    -0.475 OA
ATOM     14  C   UNL A   1      29.057  27.493  23.391  1.00  0.00     0.025 A 
ATOM     15  C   UNL A   1      31.471  27.214  23.362  1.00  0.00     0.128 A 
ATOM     16  C   UNL A   1      29.206  28.852  23.072  1.00  0.00     0.056 A 
ATOM     17  C   UNL A   1      31.620  28.538  22.960  1.00  0.00     0.048 A 
ATOM     18  C   UNL A   1      30.494  29.360  22.838  1.00  0.00     0.017 A 
BRANCH  11  19
ATOM     19  C   UNL A   1      32.627  24.097  23.213  1.00  0.00     0.429 C 
ATOM     20  F   UNL A   1      31.957  22.981  23.586  1.00  0.00    -0.167 F 
ATOM     21  F   UNL A   1      32.145  24.462  22.001  1.00  0.00    -0.167 F 
ATOM     22  F   UNL A   1      33.924  23.743  23.032  1.00  0.00    -0.167 F 
ENDBRANCH  11  19
BRANCH  16  23
ATOM     23  C   UNL A   1      27.999  29.761  23.078  1.00  0.00     0.416 C 
ATOM     24  F   UNL A   1      28.158  30.847  23.875  1.00  0.00    -0.166 F 
ATOM     25  F   UNL A   1      27.707  30.238  21.834  1.00  0.00    -0.166 F 
ATOM     26  F   UNL A   1      26.863  29.134  23.495  1.00  0.00    -0.166 F 
ENDBRANCH  16  23
ENDBRANCH   7   9
ENDBRANCH   4   5
ENDBRANCH   3   4
ENDBRANCH   2   3
ENDBRANCH   1   2
BRANCH   1  27
ATOM     27  C   UNL A   1      31.229  32.271  26.502  1.00  0.00     0.021 C 
BRANCH  27  28
ATOM     28  C   UNL A   1      32.444  32.831  27.235  1.00  0.00     0.116 C 
BRANCH  28  29
ATOM     29  N   UNL A   1      32.278  34.218  27.630  1.00  0.00    -0.352 N 
ATOM     30  C   UNL A   1      32.948  34.962  28.571  1.00  0.00     0.251 C 
ATOM     31  H   UNL A   1      31.571  34.704  27.146  1.00  0.00     0.163 HD
ATOM     32  O   UNL A   1      32.550  36.089  28.845  1.00  0.00    -0.269 OA
BRANCH  30  33
ATOM     33  C   UNL A   1      34.130  34.413  29.275  1.00  0.00     0.039 A 
ATOM     34  C   UNL A   1      33.933  33.760  30.496  1.00  0.00     0.014 A 
ATOM     35  C   UNL A   1      35.424  34.568  28.772  1.00  0.00     0.014 A 
ATOM     36  C   UNL A   1      35.022  33.215  31.181  1.00  0.00     0.010 A 
ATOM     37  C   UNL A   1      36.500  33.961  29.417  1.00  0.00     0.010 A 
ATOM     38  C   UNL A   1      36.313  33.283  30.632  1.00  0.00    -0.014 A 
BRANCH  38  39
ATOM     39  C   UNL A   1      37.472  32.655  31.318  1.00  0.00     0.031 A 
ATOM     40  C   UNL A   1      38.156  31.459  30.716  1.00  0.00     0.074 A 
ATOM     41  C   UNL A   1      37.881  33.136  32.508  1.00  0.00     0.049 A 
ATOM     42  N   UNL A   1      39.148  30.747  31.191  1.00  0.00    -0.248 NA
ATOM     43  C   UNL A   1      37.648  30.988  29.419  1.00  0.00     0.031 C 
ATOM     44  C   UNL A   1      37.277  34.266  33.217  1.00  0.00     0.029 A 
ATOM     45  N   UNL A   1      38.899  32.732  33.336  1.00  0.00    -0.354 N 
ATOM     46  C   UNL A   1      39.376  29.745  30.258  1.00  0.00     0.074 A 
ATOM     47  C   UNL A   1      38.383  29.903  29.218  1.00  0.00     0.031 C 
ATOM     48  C   UNL A   1      37.950  34.480  34.358  1.00  0.00     0.029 A 
ATOM     49  C   UNL A   1      39.006  33.479  34.484  1.00  0.00     0.049 A 
ATOM     50  H   UNL A   1      39.494  31.976  33.127  1.00  0.00     0.167 HD
ATOM     51  C   UNL A   1      40.343  28.796  30.252  1.00  0.00     0.037 A 
ATOM     52  C   UNL A   1      39.853  33.367  35.524  1.00  0.00     0.037 A 
ATOM     53  C   UNL A   1      41.336  28.644  31.282  1.00  0.00     0.049 A 
ATOM     54  C   UNL A   1      40.900  32.288  35.508  1.00  0.00     0.074 A 
ATOM     55  C   UNL A   1      42.377  27.734  31.350  1.00  0.00     0.029 A 
ATOM     56  N   UNL A   1      41.413  29.424  32.427  1.00  0.00    -0.354 N 
ATOM     57  N   UNL A   1      41.135  31.378  34.593  1.00  0.00    -0.248 NA
ATOM     58  C   UNL A   1      41.804  32.225  36.664  1.00  0.00     0.031 C 
ATOM     59  C   UNL A   1      43.054  27.932  32.557  1.00  0.00     0.029 A 
ATOM     60  C   UNL A   1      42.471  29.002  33.216  1.00  0.00     0.049 A 
ATOM     61  H   UNL A   1      40.804  30.166  32.646  1.00  0.00     0.167 HD
ATOM     62  C   UNL A   1      42.228  30.653  35.050  1.00  0.00     0.074 A 
ATOM     63  C   UNL A   1      42.619  31.239  36.316  1.00  0.00     0.031 C 
ATOM     64  C   UNL A   1      42.852  29.598  34.472  1.00  0.00     0.037 A 
BRANCH  51  65
ATOM     65  C   UNL A   1      40.373  27.847  29.086  1.00  0.00     0.057 A 
ATOM     66  C   UNL A   1      39.632  26.657  29.085  1.00  0.00     0.134 A 
ATOM     67  C   UNL A   1      41.122  28.141  27.940  1.00  0.00     0.134 A 
ATOM     68  F   UNL A   1      38.902  26.310  30.156  1.00  0.00    -0.206 F 
ATOM     69  C   UNL A   1      39.655  25.781  27.998  1.00  0.00     0.040 A 
ATOM     70  C   UNL A   1      41.130  27.287  26.835  1.00  0.00     0.040 A 
ATOM     71  F   UNL A   1      41.848  29.266  27.869  1.00  0.00    -0.206 F 
ATOM     72  C   UNL A   1      40.401  26.101  26.865  1.00  0.00     0.006 A 
ENDBRANCH  51  65
BRANCH  52  73
ATOM     73  C   UNL A   1      39.759  34.319  36.661  1.00  0.00     0.057 A 
ATOM     74  C   UNL A   1      40.426  35.549  36.631  1.00  0.00     0.134 A 
ATOM     75  C   UNL A   1      39.002  34.024  37.801  1.00  0.00     0.134 A 
ATOM     76  F   UNL A   1      41.182  35.880  35.574  1.00  0.00    -0.206 F 
ATOM     77  C   UNL A   1      40.357  36.446  37.699  1.00  0.00     0.040 A 
ATOM     78  C   UNL A   1      38.902  34.922  38.865  1.00  0.00     0.040 A 
ATOM     79  F   UNL A   1      38.331  32.866  37.888  1.00  0.00    -0.206 F 
ATOM     80  C   UNL A   1      39.587  36.134  38.817  1.00  0.00     0.006 A 
ENDBRANCH  52  73
BRANCH  64  81
ATOM     81  C   UNL A   1      44.046  29.029  35.184  1.00  0.00     0.057 A 
ATOM     82  C   UNL A   1      43.929  27.985  36.111  1.00  0.00     0.134 A 
ATOM     83  C   UNL A   1      45.333  29.507  34.906  1.00  0.00     0.134 A 
ATOM     84  F   UNL A   1      42.724  27.490  36.431  1.00  0.00    -0.206 F 
ATOM     85  C   UNL A   1      45.048  27.452  36.753  1.00  0.00     0.040 A 
ATOM     86  C   UNL A   1      46.462  28.963  35.521  1.00  0.00     0.040 A 
ATOM     87  F   UNL A   1      45.517  30.498  34.022  1.00  0.00    -0.206 F 
ATOM     88  C   UNL A   1      46.321  27.937  36.453  1.00  0.00     0.006 A 
ENDBRANCH  64  81
ENDBRANCH  38  39
ENDBRANCH  30  33
ENDBRANCH  28  29
ENDBRANCH  27  28
ENDBRANCH   1  27
TORSDOF 15
ENDMDL
MODEL 2
REMARK VINA RESULT:     -12.2      0.999      6.286
REMARK SMILES O=C(NCCCCCCNC(=O)c1ccc(-c2c3nc(c(-c4c(F)cccc4F)c4ccc([nH]4)c(-c4c(F)cccc4F)c4nc(c(-c5c(F)cccc5F)c5ccc2[nH]5)C=C4)C=C3)cc1)C1=Cc2cc(C(F)(F)F)ccc2O[C@@H]1C(F)(F)F
REMARK SMILES IDX 7 1 6 2 5 3 4 4 3 5 1 6 2 7 67 9 68 10 80 11 69 12 79 13
REMARK SMILES IDX 70 14 78 15 71 16 77 17 76 18 81 19 82 20 83 21 84 22 72 23
REMARK SMILES IDX 73 24 74 25 75 26 8 27 9 28 10 29 11 30 12 32 13 33 14 34
REMARK SMILES IDX 66 35 15 36 65 37 16 38 17 39 18 40 59 41 19 42 64 43 58 44
REMARK SMILES IDX 60 45 20 46 63 47 57 48 56 49 21 51 47 52 30 53 46 54 31 55
REMARK SMILES IDX 34 56 45 57 61 58 32 59 33 60 44 62 62 63 35 64 22 65 23 66
REMARK SMILES IDX 28 67 24 68 25 69 27 70 29 71 26 72 48 73 49 74 54 75 50 76
REMARK SMILES IDX 51 77 53 78 55 79 52 80 36 81 37 82 42 83 38 84 39 85 41 86
REMARK SMILES IDX 43 87 40 88
REMARK H PARENT 3 8 10 31 60 50 34 61
REMARK Flexibility Score: inf
ROOT
ATOM      1  C   UNL A   1      31.340  30.759  25.749  1.00  0.00     0.002 C 
ENDROOT
BRANCH   1   2
ATOM      2  C   UNL A   1      32.700  30.051  25.719  1.00  0.00     0.002 C 
BRANCH   2   3
ATOM      3  C   UNL A   1      32.716  28.579  26.127  1.00  0.00     0.021 C 
BRANCH   3   4
ATOM      4  C   UNL A   1      31.356  27.912  26.292  1.00  0.00     0.116 C 
BRANCH   4   5
ATOM      5  N   UNL A   1      31.357  26.644  26.999  1.00  0.00    -0.352 N 
ATOM      6  O   UNL A   1      31.317  24.413  27.248  1.00  0.00    -0.270 OA
ATOM      7  C   UNL A   1      31.110  25.385  26.522  1.00  0.00     0.251 C 
ATOM      8  H   UNL A   1      31.565  26.698  27.959  1.00  0.00     0.163 HD
BRANCH   7   9
ATOM      9  C   UNL A   1      30.680  25.130  25.114  1.00  0.00     0.067 C 
ATOM     10  C   UNL A   1      29.553  25.654  24.598  1.00  0.00     0.025 C 
ATOM     11  C   UNL A   1      31.835  24.825  24.187  1.00  0.00     0.314 C 
ATOM     12  C   UNL A   1      29.874  26.736  23.630  1.00  0.00     0.018 A 
ATOM     13  O   UNL A   1      32.189  25.986  23.381  1.00  0.00    -0.475 OA
ATOM     14  C   UNL A   1      28.933  27.758  23.456  1.00  0.00     0.025 A 
ATOM     15  C   UNL A   1      31.187  26.900  23.162  1.00  0.00     0.128 A 
ATOM     16  C   UNL A   1      29.332  28.999  22.936  1.00  0.00     0.056 A 
ATOM     17  C   UNL A   1      31.566  28.099  22.565  1.00  0.00     0.048 A 
ATOM     18  C   UNL A   1      30.649  29.152  22.474  1.00  0.00     0.017 A 
BRANCH  11  19
ATOM     19  C   UNL A   1      31.575  23.597  23.301  1.00  0.00     0.429 C 
ATOM     20  F   UNL A   1      30.317  23.610  22.801  1.00  0.00    -0.167 F 
ATOM     21  F   UNL A   1      32.421  23.552  22.244  1.00  0.00    -0.167 F 
ATOM     22  F   UNL A   1      31.725  22.432  23.978  1.00  0.00    -0.167 F 
ENDBRANCH  11  19
BRANCH  16  23
ATOM     23  C   UNL A   1      28.377  30.168  22.968  1.00  0.00     0.416 C 
ATOM     24  F   UNL A   1      27.999  30.579  21.732  1.00  0.00    -0.166 F 
ATOM     25  F   UNL A   1      27.228  29.878  23.644  1.00  0.00    -0.166 F 
ATOM     26  F   UNL A   1      28.896  31.260  23.599  1.00  0.00    -0.166 F 
ENDBRANCH  16  23
ENDBRANCH   7   9
ENDBRANCH   4   5
ENDBRANCH   3   4
ENDBRANCH   2   3
ENDBRANCH   1   2
BRANCH   1  27
ATOM     27  C   UNL A   1      31.269  32.097  26.492  1.00  0.00     0.021 C 
BRANCH  27  28
ATOM     28  C   UNL A   1      32.579  32.619  27.076  1.00  0.00     0.116 C 
BRANCH  28  29
ATOM     29  N   UNL A   1      32.459  33.954  27.634  1.00  0.00    -0.352 N 
ATOM     30  C   UNL A   1      33.179  34.571  28.627  1.00  0.00     0.251 C 
ATOM     31  H   UNL A   1      31.746  34.505  27.237  1.00  0.00     0.163 HD
ATOM     32  O   UNL A   1      32.818  35.666  29.045  1.00  0.00    -0.269 OA
BRANCH  30  33
ATOM     33  C   UNL A   1      34.373  33.922  29.218  1.00  0.00     0.039 A 
ATOM     34  C   UNL A   1      34.185  32.990  30.243  1.00  0.00     0.014 A 
ATOM     35  C   UNL A   1      35.668  34.248  28.804  1.00  0.00     0.014 A 
ATOM     36  C   UNL A   1      35.287  32.346  30.813  1.00  0.00     0.010 A 
ATOM     37  C   UNL A   1      36.760  33.552  29.320  1.00  0.00     0.010 A 
ATOM     38  C   UNL A   1      36.583  32.598  30.334  1.00  0.00    -0.014 A 
BRANCH  38  39
ATOM     39  C   UNL A   1      37.758  31.876  30.888  1.00  0.00     0.031 A 
ATOM     40  C   UNL A   1      38.300  32.232  32.245  1.00  0.00     0.074 A 
ATOM     41  C   UNL A   1      38.364  30.927  30.149  1.00  0.00     0.049 A 
ATOM     42  N   UNL A   1      39.344  31.749  32.872  1.00  0.00    -0.248 NA
ATOM     43  C   UNL A   1      37.589  33.283  32.988  1.00  0.00     0.031 C 
ATOM     44  C   UNL A   1      37.960  30.515  28.804  1.00  0.00     0.029 A 
ATOM     45  N   UNL A   1      39.456  30.139  30.423  1.00  0.00    -0.354 N 
ATOM     46  C   UNL A   1      39.416  32.439  34.074  1.00  0.00     0.074 A 
ATOM     47  C   UNL A   1      38.348  33.415  34.066  1.00  0.00     0.031 C 
ATOM     48  C   UNL A   1      38.774  29.536  28.380  1.00  0.00     0.029 A 
ATOM     49  C   UNL A   1      39.783  29.278  29.404  1.00  0.00     0.049 A 
ATOM     50  H   UNL A   1      39.956  30.189  31.269  1.00  0.00     0.167 HD
ATOM     51  C   UNL A   1      40.277  32.258  35.106  1.00  0.00     0.037 A 
ATOM     52  C   UNL A   1      40.786  28.386  29.302  1.00  0.00     0.037 A 
ATOM     53  C   UNL A   1      41.334  31.281  35.117  1.00  0.00     0.049 A 
ATOM     54  C   UNL A   1      41.745  28.222  30.448  1.00  0.00     0.074 A 
ATOM     55  C   UNL A   1      42.237  31.000  36.128  1.00  0.00     0.029 A 
ATOM     56  N   UNL A   1      41.630  30.425  34.067  1.00  0.00    -0.354 N 
ATOM     57  N   UNL A   1      41.770  28.848  31.600  1.00  0.00    -0.248 NA
ATOM     58  C   UNL A   1      42.810  27.224  30.284  1.00  0.00     0.031 C 
ATOM     59  C   UNL A   1      43.109  30.006  35.671  1.00  0.00     0.029 A 
ATOM     60  C   UNL A   1      42.715  29.629  34.398  1.00  0.00     0.049 A 
ATOM     61  H   UNL A   1      41.142  30.390  33.212  1.00  0.00     0.167 HD
ATOM     62  C   UNL A   1      42.834  28.301  32.307  1.00  0.00     0.074 A 
ATOM     63  C   UNL A   1      43.419  27.283  31.459  1.00  0.00     0.031 C 
ATOM     64  C   UNL A   1      43.284  28.614  33.546  1.00  0.00     0.037 A 
BRANCH  51  65
ATOM     65  C   UNL A   1      40.104  33.137  36.312  1.00  0.00     0.057 A 
ATOM     66  C   UNL A   1      40.852  34.311  36.482  1.00  0.00     0.134 A 
ATOM     67  C   UNL A   1      39.158  32.828  37.297  1.00  0.00     0.134 A 
ATOM     68  F   UNL A   1      41.783  34.660  35.581  1.00  0.00    -0.206 F 
ATOM     69  C   UNL A   1      40.685  35.130  37.600  1.00  0.00     0.040 A 
ATOM     70  C   UNL A   1      38.962  33.655  38.405  1.00  0.00     0.040 A 
ATOM     71  F   UNL A   1      38.403  31.725  37.195  1.00  0.00    -0.206 F 
ATOM     72  C   UNL A   1      39.731  34.806  38.562  1.00  0.00     0.006 A 
ENDBRANCH  51  65
BRANCH  52  73
ATOM     73  C   UNL A   1      40.921  27.561  28.073  1.00  0.00     0.057 A 
ATOM     74  C   UNL A   1      40.271  26.327  27.955  1.00  0.00     0.134 A 
ATOM     75  C   UNL A   1      41.699  27.986  26.990  1.00  0.00     0.134 A 
ATOM     76  F   UNL A   1      39.526  25.859  28.967  1.00  0.00    -0.206 F 
ATOM     77  C   UNL A   1      40.402  25.537  26.812  1.00  0.00     0.040 A 
ATOM     78  C   UNL A   1      41.818  27.219  25.830  1.00  0.00     0.040 A 
ATOM     79  F   UNL A   1      42.341  29.163  27.036  1.00  0.00    -0.206 F 
ATOM     80  C   UNL A   1      41.173  25.987  25.742  1.00  0.00     0.006 A 
ENDBRANCH  52  73
BRANCH  64  81
ATOM     81  C   UNL A   1      44.445  27.824  34.077  1.00  0.00     0.057 A 
ATOM     82  C   UNL A   1      45.768  28.261  33.935  1.00  0.00     0.134 A 
ATOM     83  C   UNL A   1      44.231  26.629  34.777  1.00  0.00     0.134 A 
ATOM     84  F   UNL A   1      46.043  29.390  33.265  1.00  0.00    -0.206 F 
ATOM     85  C   UNL A   1      46.838  27.526  34.448  1.00  0.00     0.040 A 
ATOM     86  C   UNL A   1      45.291  25.900  35.320  1.00  0.00     0.040 A 
ATOM     87  F   UNL A   1      42.988  26.159  34.959  1.00  0.00    -0.206 F 
ATOM     88  C   UNL A   1      46.600  26.345  35.150  1.00  0.00     0.006 A 
ENDBRANCH  64  81
ENDBRANCH  38  39
ENDBRANCH  30  33
ENDBRANCH  28  29
ENDBRANCH  27  28
ENDBRANCH   1  27
TORSDOF 15
ENDMDL
MODEL 3
REMARK VINA RESULT:     -12.2      2.645      4.984
REMARK SMILES O=C(NCCCCCCNC(=O)c1ccc(-c2c3nc(c(-c4c(F)cccc4F)c4ccc([nH]4)c(-c4c(F)cccc4F)c4nc(c(-c5c(F)cccc5F)c5ccc2[nH]5)C=C4)C=C3)cc1)C1=Cc2cc(C(F)(F)F)ccc2O[C@@H]1C(F)(F)F
REMARK SMILES IDX 7 1 6 2 5 3 4 4 3 5 1 6 2 7 67 9 68 10 80 11 69 12 79 13
REMARK SMILES IDX 70 14 78 15 71 16 77 17 76 18 81 19 82 20 83 21 84 22 72 23
REMARK SMILES IDX 73 24 74 25 75 26 8 27 9 28 10 29 11 30 12 32 13 33 14 34
REMARK SMILES IDX 66 35 15 36 65 37 16 38 17 39 18 40 59 41 19 42 64 43 58 44
REMARK SMILES IDX 60 45 20 46 63 47 57 48 56 49 21 51 47 52 30 53 46 54 31 55
REMARK SMILES IDX 34 56 45 57 61 58 32 59 33 60 44 62 62 63 35 64 22 65 23 66
REMARK SMILES IDX 28 67 24 68 25 69 27 70 29 71 26 72 48 73 49 74 54 75 50 76
REMARK SMILES IDX 51 77 53 78 55 79 52 80 36 81 37 82 42 83 38 84 39 85 41 86
REMARK SMILES IDX 43 87 40 88
REMARK H PARENT 3 8 10 31 60 50 34 61
REMARK Flexibility Score: inf
ROOT
ATOM      1  C   UNL A   1      31.160  27.644  24.794  1.00  0.00     0.002 C 
ENDROOT
BRANCH   1   2
ATOM      2  C   UNL A   1      30.510  26.264  24.953  1.00  0.00     0.002 C 
BRANCH   2   3
ATOM      3  C   UNL A   1      30.809  25.511  26.248  1.00  0.00     0.021 C 
BRANCH   3   4
ATOM      4  C   UNL A   1      30.488  24.021  26.250  1.00  0.00     0.116 C 
BRANCH   4   5
ATOM      5  N   UNL A   1      31.379  23.185  27.032  1.00  0.00    -0.352 N 
ATOM      6  O   UNL A   1      33.318  22.233  27.644  1.00  0.00    -0.270 OA
ATOM      7  C   UNL A   1      32.674  22.821  26.777  1.00  0.00     0.251 C 
ATOM      8  H   UNL A   1      30.998  22.827  27.865  1.00  0.00     0.163 HD
BRANCH   7   9
ATOM      9  C   UNL A   1      33.376  23.189  25.510  1.00  0.00     0.067 C 
ATOM     10  C   UNL A   1      34.352  24.114  25.468  1.00  0.00     0.025 C 
ATOM     11  C   UNL A   1      33.384  22.072  24.490  1.00  0.00     0.314 C 
ATOM     12  C   UNL A   1      35.676  23.469  25.265  1.00  0.00     0.018 A 
ATOM     13  O   UNL A   1      34.670  21.389  24.463  1.00  0.00    -0.475 OA
ATOM     14  C   UNL A   1      36.806  24.122  25.773  1.00  0.00     0.025 A 
ATOM     15  C   UNL A   1      35.755  22.123  24.877  1.00  0.00     0.128 A 
ATOM     16  C   UNL A   1      37.982  23.399  26.021  1.00  0.00     0.056 A 
ATOM     17  C   UNL A   1      36.948  21.423  25.040  1.00  0.00     0.048 A 
ATOM     18  C   UNL A   1      38.049  22.051  25.631  1.00  0.00     0.017 A 
BRANCH  11  19
ATOM     19  C   UNL A   1      32.982  22.548  23.087  1.00  0.00     0.429 C 
ATOM     20  F   UNL A   1      34.051  23.018  22.402  1.00  0.00    -0.167 F 
ATOM     21  F   UNL A   1      32.449  21.545  22.348  1.00  0.00    -0.167 F 
ATOM     22  F   UNL A   1      32.062  23.543  23.124  1.00  0.00    -0.167 F 
ENDBRANCH  11  19
BRANCH  16  23
ATOM     23  C   UNL A   1      39.115  24.045  26.783  1.00  0.00     0.416 C 
ATOM     24  F   UNL A   1      38.716  24.603  27.954  1.00  0.00    -0.166 F 
ATOM     25  F   UNL A   1      40.100  23.155  27.098  1.00  0.00    -0.166 F 
ATOM     26  F   UNL A   1      39.737  25.030  26.075  1.00  0.00    -0.166 F 
ENDBRANCH  16  23
ENDBRANCH   7   9
ENDBRANCH   4   5
ENDBRANCH   3   4
ENDBRANCH   2   3
ENDBRANCH   1   2
BRANCH   1  27
ATOM     27  C   UNL A   1      32.645  27.760  25.152  1.00  0.00     0.021 C 
BRANCH  27  28
ATOM     28  C   UNL A   1      33.299  29.116  24.904  1.00  0.00     0.116 C 
BRANCH  28  29
ATOM     29  N   UNL A   1      32.596  30.211  25.549  1.00  0.00    -0.352 N 
ATOM     30  C   UNL A   1      32.899  30.913  26.689  1.00  0.00     0.251 C 
ATOM     31  H   UNL A   1      31.768  30.494  25.097  1.00  0.00     0.163 HD
ATOM     32  O   UNL A   1      32.088  31.715  27.140  1.00  0.00    -0.269 OA
BRANCH  30  33
ATOM     33  C   UNL A   1      34.183  30.699  27.397  1.00  0.00     0.039 A 
ATOM     34  C   UNL A   1      35.024  31.799  27.599  1.00  0.00     0.014 A 
ATOM     35  C   UNL A   1      34.584  29.431  27.826  1.00  0.00     0.014 A 
ATOM     36  C   UNL A   1      36.235  31.637  28.276  1.00  0.00     0.010 A 
ATOM     37  C   UNL A   1      35.756  29.284  28.567  1.00  0.00     0.010 A 
ATOM     38  C   UNL A   1      36.597  30.384  28.795  1.00  0.00    -0.014 A 
BRANCH  38  39
ATOM     39  C   UNL A   1      37.853  30.210  29.571  1.00  0.00     0.031 A 
ATOM     40  C   UNL A   1      39.002  29.428  28.996  1.00  0.00     0.074 A 
ATOM     41  C   UNL A   1      37.942  30.719  30.815  1.00  0.00     0.049 A 
ATOM     42  N   UNL A   1      40.154  29.128  29.542  1.00  0.00    -0.248 NA
ATOM     43  C   UNL A   1      38.827  28.896  27.636  1.00  0.00     0.031 C 
ATOM     44  C   UNL A   1      36.885  31.464  31.502  1.00  0.00     0.029 A 
ATOM     45  N   UNL A   1      38.969  30.684  31.727  1.00  0.00    -0.354 N 
ATOM     46  C   UNL A   1      40.835  28.371  28.597  1.00  0.00     0.074 A 
ATOM     47  C   UNL A   1      39.945  28.207  27.468  1.00  0.00     0.031 C 
ATOM     48  C   UNL A   1      37.326  31.836  32.714  1.00  0.00     0.029 A 
ATOM     49  C   UNL A   1      38.679  31.323  32.908  1.00  0.00     0.049 A 
ATOM     50  H   UNL A   1      39.830  30.242  31.549  1.00  0.00     0.167 HD
ATOM     51  C   UNL A   1      42.096  27.880  28.653  1.00  0.00     0.037 A 
ATOM     52  C   UNL A   1      39.417  31.473  34.024  1.00  0.00     0.037 A 
ATOM     53  C   UNL A   1      42.984  28.052  29.772  1.00  0.00     0.049 A 
ATOM     54  C   UNL A   1      40.804  30.896  34.073  1.00  0.00     0.074 A 
ATOM     55  C   UNL A   1      44.292  27.620  29.911  1.00  0.00     0.029 A 
ATOM     56  N   UNL A   1      42.654  28.708  30.950  1.00  0.00    -0.354 N 
ATOM     57  N   UNL A   1      41.452  30.224  33.152  1.00  0.00    -0.248 NA
ATOM     58  C   UNL A   1      41.565  31.104  35.312  1.00  0.00     0.031 C 
ATOM     59  C   UNL A   1      44.738  27.974  31.188  1.00  0.00     0.029 A 
ATOM     60  C   UNL A   1      43.727  28.676  31.826  1.00  0.00     0.049 A 
ATOM     61  H   UNL A   1      41.785  29.133  31.134  1.00  0.00     0.167 HD
ATOM     62  C   UNL A   1      42.704  29.953  33.689  1.00  0.00     0.074 A 
ATOM     63  C   UNL A   1      42.729  30.546  35.010  1.00  0.00     0.031 C 
ATOM     64  C   UNL A   1      43.740  29.275  33.137  1.00  0.00     0.037 A 
BRANCH  51  65
ATOM     65  C   UNL A   1      42.593  27.113  27.460  1.00  0.00     0.057 A 
ATOM     66  C   UNL A   1      43.138  27.760  26.342  1.00  0.00     0.134 A 
ATOM     67  C   UNL A   1      42.560  25.713  27.441  1.00  0.00     0.134 A 
ATOM     68  F   UNL A   1      43.190  29.100  26.290  1.00  0.00    -0.206 F 
ATOM     69  C   UNL A   1      43.606  27.045  25.238  1.00  0.00     0.040 A 
ATOM     70  C   UNL A   1      43.052  24.986  26.355  1.00  0.00     0.040 A 
ATOM     71  F   UNL A   1      42.059  25.029  28.480  1.00  0.00    -0.206 F 
ATOM     72  C   UNL A   1      43.570  25.652  25.248  1.00  0.00     0.006 A 
ENDBRANCH  51  65
BRANCH  52  73
ATOM     73  C   UNL A   1      38.863  32.221  35.182  1.00  0.00     0.057 A 
ATOM     74  C   UNL A   1      38.243  31.553  36.245  1.00  0.00     0.134 A 
ATOM     75  C   UNL A   1      38.942  33.616  35.256  1.00  0.00     0.134 A 
ATOM     76  F   UNL A   1      38.122  30.218  36.223  1.00  0.00    -0.206 F 
ATOM     77  C   UNL A   1      37.706  32.245  37.332  1.00  0.00     0.040 A 
ATOM     78  C   UNL A   1      38.433  34.320  36.349  1.00  0.00     0.040 A 
ATOM     79  F   UNL A   1      39.532  34.315  34.275  1.00  0.00    -0.206 F 
ATOM     80  C   UNL A   1      37.807  33.634  37.388  1.00  0.00     0.006 A 
ENDBRANCH  52  73
BRANCH  64  81
ATOM     81  C   UNL A   1      45.001  29.168  33.944  1.00  0.00     0.057 A 
ATOM     82  C   UNL A   1      45.246  28.084  34.799  1.00  0.00     0.134 A 
ATOM     83  C   UNL A   1      46.003  30.141  33.832  1.00  0.00     0.134 A 
ATOM     84  F   UNL A   1      44.323  27.124  34.961  1.00  0.00    -0.206 F 
ATOM     85  C   UNL A   1      46.430  27.986  35.531  1.00  0.00     0.040 A 
ATOM     86  C   UNL A   1      47.203  30.039  34.538  1.00  0.00     0.040 A 
ATOM     87  F   UNL A   1      45.838  31.199  33.025  1.00  0.00    -0.206 F 
ATOM     88  C   UNL A   1      47.416  28.962  35.396  1.00  0.00     0.006 A 
ENDBRANCH  64  81
ENDBRANCH  38  39
ENDBRANCH  30  33
ENDBRANCH  28  29
ENDBRANCH  27  28
ENDBRANCH   1  27
TORSDOF 15
ENDMDL
