MODEL 1
REMARK VINA RESULT:     -11.6      0.000      0.000
REMARK SMILES Cc1oc(C)c(S(=O)(=O)Nn2c(C)ccc2C)c1C(=O)NCCCCCCNC(=O)c1ccc(-c2c3nc(c(-c4c(F)cccc4F)c4ccc([nH]4)c(-c4c(F)cccc4F)c4nc(c(-c5c(F)cccc5F)c5ccc2[nH]5)C=C4)C=C3)cc1
REMARK SMILES IDX 24 1 23 2 22 3 21 4 19 5 20 6 18 8 1 9 2 10 3 11 4 12 6 13
REMARK SMILES IDX 5 14 7 15 8 16 9 17 10 18 11 20 12 21 16 22 13 23 14 24
REMARK SMILES IDX 15 25 17 26 25 27 26 28 27 29 28 30 29 31 30 33 31 34 32 35
REMARK SMILES IDX 84 36 33 37 83 38 34 39 35 40 36 41 77 42 37 43 82 44 76 45
REMARK SMILES IDX 78 46 38 47 81 48 75 49 74 50 39 52 65 53 48 54 64 55 49 56
REMARK SMILES IDX 52 57 63 58 79 59 50 60 51 61 62 63 80 64 53 65 40 66 41 67
REMARK SMILES IDX 46 68 42 69 43 70 45 71 47 72 44 73 66 74 67 75 72 76 68 77
REMARK SMILES IDX 69 78 71 79 73 80 70 81 54 82 55 83 60 84 56 85 57 86 59 87
REMARK SMILES IDX 61 88 58 89
REMARK H PARENT 21 7 10 19 28 32 78 51 52 62
REMARK Flexibility Score: inf
ROOT
ATOM      1  C   UNL A   1      31.492  29.500  25.510  1.00  0.00     0.002 C 
ENDROOT
BRANCH   1   2
ATOM      2  C   UNL A   1      32.092  29.226  24.134  1.00  0.00     0.021 C 
BRANCH   2   3
ATOM      3  C   UNL A   1      31.158  29.005  22.952  1.00  0.00     0.116 C 
BRANCH   3   4
ATOM      4  N   UNL A   1      31.529  27.972  22.006  1.00  0.00    -0.352 N 
ATOM      5  C   UNL A   1      31.412  26.601  22.101  1.00  0.00     0.256 C 
ATOM      6  O   UNL A   1      31.642  25.918  21.105  1.00  0.00    -0.269 OA
ATOM      7  H   UNL A   1      31.925  28.300  21.166  1.00  0.00     0.163 HD
BRANCH   5   8
ATOM      8  C   UNL A   1      31.060  25.954  23.354  1.00  0.00     0.101 A 
ATOM      9  C   UNL A   1      28.587  26.797  23.866  1.00  0.00     0.088 C 
ATOM     10  C   UNL A   1      29.853  26.049  24.040  1.00  0.00     0.115 A 
ATOM     11  O   UNL A   1      29.840  25.213  25.111  1.00  0.00    -0.464 OA
ATOM     12  C   UNL A   1      31.006  24.527  25.109  1.00  0.00     0.122 A 
ATOM     13  C   UNL A   1      31.815  24.965  24.076  1.00  0.00     0.143 A 
ATOM     14  C   UNL A   1      31.126  23.480  26.148  1.00  0.00     0.089 C 
BRANCH  13  15
ATOM     15  S   UNL A   1      33.386  24.306  23.839  1.00  0.00     0.279 S 
ATOM     16  O   UNL A   1      33.252  23.454  22.709  1.00  0.00    -0.200 OA
ATOM     17  O   UNL A   1      34.203  25.527  23.743  1.00  0.00    -0.200 OA
BRANCH  15  18
ATOM     18  N   UNL A   1      34.093  23.467  25.060  1.00  0.00    -0.216 N 
ATOM     19  H   UNL A   1      33.953  23.834  25.962  1.00  0.00     0.202 HD
BRANCH  18  20
ATOM     20  N   UNL A   1      34.861  22.313  25.000  1.00  0.00    -0.256 N 
ATOM     21  C   UNL A   1      34.491  20.990  24.920  1.00  0.00     0.038 A 
ATOM     22  C   UNL A   1      36.239  22.413  25.005  1.00  0.00     0.038 A 
ATOM     23  C   UNL A   1      33.121  20.451  24.721  1.00  0.00     0.067 C 
ATOM     24  C   UNL A   1      35.658  20.244  25.004  1.00  0.00     0.025 A 
ATOM     25  C   UNL A   1      36.748  21.132  25.074  1.00  0.00     0.025 A 
ATOM     26  C   UNL A   1      36.996  23.698  25.041  1.00  0.00     0.067 C 
ENDBRANCH  18  20
ENDBRANCH  15  18
ENDBRANCH  13  15
ENDBRANCH   5   8
ENDBRANCH   3   4
ENDBRANCH   2   3
ENDBRANCH   1   2
BRANCH   1  27
ATOM     27  C   UNL A   1      31.729  28.504  26.650  1.00  0.00     0.002 C 
BRANCH  27  28
ATOM     28  C   UNL A   1      33.077  27.764  26.797  1.00  0.00     0.021 C 
BRANCH  28  29
ATOM     29  C   UNL A   1      34.377  28.574  26.984  1.00  0.00     0.116 C 
BRANCH  29  30
ATOM     30  N   UNL A   1      34.172  29.922  27.479  1.00  0.00    -0.352 N 
ATOM     31  C   UNL A   1      35.069  30.811  28.044  1.00  0.00     0.251 C 
ATOM     32  H   UNL A   1      33.250  30.256  27.401  1.00  0.00     0.163 HD
ATOM     33  O   UNL A   1      34.695  31.972  28.205  1.00  0.00    -0.269 OA
BRANCH  31  34
ATOM     34  C   UNL A   1      36.436  30.418  28.546  1.00  0.00     0.039 A 
ATOM     35  C   UNL A   1      37.466  30.319  27.619  1.00  0.00     0.014 A 
ATOM     36  C   UNL A   1      36.663  29.820  29.799  1.00  0.00     0.014 A 
ATOM     37  C   UNL A   1      38.694  29.671  27.949  1.00  0.00     0.010 A 
ATOM     38  C   UNL A   1      37.890  29.104  30.110  1.00  0.00     0.010 A 
ATOM     39  C   UNL A   1      38.945  28.980  29.183  1.00  0.00    -0.014 A 
BRANCH  39  40
ATOM     40  C   UNL A   1      39.958  27.756  29.094  1.00  0.00     0.031 A 
ATOM     41  C   UNL A   1      40.978  28.095  30.130  1.00  0.00     0.074 A 
ATOM     42  C   UNL A   1      40.235  26.603  28.367  1.00  0.00     0.049 A 
ATOM     43  N   UNL A   1      41.608  29.238  30.104  1.00  0.00    -0.248 NA
ATOM     44  C   UNL A   1      41.060  27.379  31.404  1.00  0.00     0.031 C 
ATOM     45  C   UNL A   1      39.525  26.087  27.186  1.00  0.00     0.029 A 
ATOM     46  N   UNL A   1      41.233  25.588  28.515  1.00  0.00    -0.354 N 
ATOM     47  C   UNL A   1      42.444  29.212  31.191  1.00  0.00     0.074 A 
ATOM     48  C   UNL A   1      41.860  28.214  32.074  1.00  0.00     0.031 C 
ATOM     49  C   UNL A   1      39.997  24.862  26.811  1.00  0.00     0.029 A 
ATOM     50  C   UNL A   1      41.114  24.441  27.656  1.00  0.00     0.049 A 
ATOM     51  H   UNL A   1      41.962  25.670  29.172  1.00  0.00     0.167 HD
ATOM     52  C   UNL A   1      43.765  29.439  30.939  1.00  0.00     0.037 A 
ATOM     53  C   UNL A   1      41.870  23.276  27.558  1.00  0.00     0.037 A 
ATOM     54  C   UNL A   1      44.572  28.257  31.065  1.00  0.00     0.049 A 
ATOM     55  C   UNL A   1      43.181  23.530  28.169  1.00  0.00     0.074 A 
ATOM     56  C   UNL A   1      44.595  27.195  31.946  1.00  0.00     0.029 A 
ATOM     57  N   UNL A   1      45.224  27.831  29.929  1.00  0.00    -0.354 N 
ATOM     58  N   UNL A   1      44.117  24.150  27.519  1.00  0.00    -0.248 NA
ATOM     59  C   UNL A   1      43.581  22.980  29.462  1.00  0.00     0.031 C 
ATOM     60  C   UNL A   1      44.750  26.053  31.127  1.00  0.00     0.029 A 
ATOM     61  C   UNL A   1      45.137  26.460  29.856  1.00  0.00     0.049 A 
ATOM     62  H   UNL A   1      45.678  28.411  29.277  1.00  0.00     0.167 HD
ATOM     63  C   UNL A   1      44.982  24.515  28.494  1.00  0.00     0.074 A 
ATOM     64  C   UNL A   1      44.784  23.552  29.559  1.00  0.00     0.031 C 
ATOM     65  C   UNL A   1      45.256  25.839  28.560  1.00  0.00     0.037 A 
BRANCH  52  66
ATOM     66  C   UNL A   1      44.027  30.513  29.921  1.00  0.00     0.057 A 
ATOM     67  C   UNL A   1      44.496  31.758  30.335  1.00  0.00     0.134 A 
ATOM     68  C   UNL A   1      43.737  30.359  28.550  1.00  0.00     0.134 A 
ATOM     69  F   UNL A   1      44.854  31.956  31.613  1.00  0.00    -0.206 F 
ATOM     70  C   UNL A   1      44.609  32.826  29.441  1.00  0.00     0.040 A 
ATOM     71  C   UNL A   1      43.796  31.428  27.660  1.00  0.00     0.040 A 
ATOM     72  F   UNL A   1      43.402  29.160  28.047  1.00  0.00    -0.206 F 
ATOM     73  C   UNL A   1      44.226  32.671  28.108  1.00  0.00     0.006 A 
ENDBRANCH  52  66
BRANCH  53  74
ATOM     74  C   UNL A   1      41.907  21.879  26.902  1.00  0.00     0.057 A 
ATOM     75  C   UNL A   1      42.734  21.620  25.757  1.00  0.00     0.134 A 
ATOM     76  C   UNL A   1      41.525  20.719  27.580  1.00  0.00     0.134 A 
ATOM     77  F   UNL A   1      43.149  22.604  24.950  1.00  0.00    -0.206 F 
ATOM     78  C   UNL A   1      43.237  20.354  25.407  1.00  0.00     0.040 A 
ATOM     79  C   UNL A   1      41.990  19.429  27.205  1.00  0.00     0.040 A 
ATOM     80  F   UNL A   1      40.765  20.800  28.679  1.00  0.00    -0.206 F 
ATOM     81  C   UNL A   1      42.878  19.247  26.146  1.00  0.00     0.006 A 
ENDBRANCH  53  74
BRANCH  65  82
ATOM     82  C   UNL A   1      45.418  26.577  27.233  1.00  0.00     0.057 A 
ATOM     83  C   UNL A   1      44.399  26.932  26.317  1.00  0.00     0.134 A 
ATOM     84  C   UNL A   1      46.720  26.889  26.821  1.00  0.00     0.134 A 
ATOM     85  F   UNL A   1      43.095  26.831  26.612  1.00  0.00    -0.206 F 
ATOM     86  C   UNL A   1      44.675  27.451  25.045  1.00  0.00     0.040 A 
ATOM     87  C   UNL A   1      47.003  27.469  25.580  1.00  0.00     0.040 A 
ATOM     88  F   UNL A   1      47.757  26.650  27.639  1.00  0.00    -0.206 F 
ATOM     89  C   UNL A   1      45.982  27.722  24.671  1.00  0.00     0.006 A 
ENDBRANCH  65  82
ENDBRANCH  39  40
ENDBRANCH  31  34
ENDBRANCH  29  30
ENDBRANCH  28  29
ENDBRANCH  27  28
ENDBRANCH   1  27
TORSDOF 16
ENDMDL
MODEL 2
REMARK VINA RESULT:     -11.6      3.238      8.423
REMARK SMILES Cc1oc(C)c(S(=O)(=O)Nn2c(C)ccc2C)c1C(=O)NCCCCCCNC(=O)c1ccc(-c2c3nc(c(-c4c(F)cccc4F)c4ccc([nH]4)c(-c4c(F)cccc4F)c4nc(c(-c5c(F)cccc5F)c5ccc2[nH]5)C=C4)C=C3)cc1
REMARK SMILES IDX 24 1 23 2 22 3 21 4 19 5 20 6 18 8 1 9 2 10 3 11 4 12 6 13
REMARK SMILES IDX 5 14 7 15 8 16 9 17 10 18 11 20 12 21 16 22 13 23 14 24
REMARK SMILES IDX 15 25 17 26 25 27 26 28 27 29 28 30 29 31 30 33 31 34 32 35
REMARK SMILES IDX 84 36 33 37 83 38 34 39 35 40 36 41 77 42 37 43 82 44 76 45
REMARK SMILES IDX 78 46 38 47 81 48 75 49 74 50 39 52 65 53 48 54 64 55 49 56
REMARK SMILES IDX 52 57 63 58 79 59 50 60 51 61 62 63 80 64 53 65 40 66 41 67
REMARK SMILES IDX 46 68 42 69 43 70 45 71 47 72 44 73 66 74 67 75 72 76 68 77
REMARK SMILES IDX 69 78 71 79 73 80 70 81 54 82 55 83 60 84 56 85 57 86 59 87
REMARK SMILES IDX 61 88 58 89
REMARK H PARENT 21 7 10 19 28 32 78 51 52 62
REMARK Flexibility Score: inf
ROOT
ATOM      1  C   UNL A   1      34.151  23.967  25.950  1.00  0.00     0.002 C 
ENDROOT
BRANCH   1   2
ATOM      2  C   UNL A   1      32.721  23.616  26.357  1.00  0.00     0.021 C 
BRANCH   2   3
ATOM      3  C   UNL A   1      31.637  24.678  26.233  1.00  0.00     0.116 C 
BRANCH   3   4
ATOM      4  N   UNL A   1      30.663  24.502  25.176  1.00  0.00    -0.352 N 
ATOM      5  C   UNL A   1      30.781  24.719  23.818  1.00  0.00     0.256 C 
ATOM      6  O   UNL A   1      29.872  24.346  23.080  1.00  0.00    -0.269 OA
ATOM      7  H   UNL A   1      29.782  24.178  25.471  1.00  0.00     0.163 HD
BRANCH   5   8
ATOM      8  C   UNL A   1      31.933  25.405  23.256  1.00  0.00     0.101 A 
ATOM      9  C   UNL A   1      33.310  23.490  22.021  1.00  0.00     0.088 C 
ATOM     10  C   UNL A   1      32.952  24.849  22.489  1.00  0.00     0.115 A 
ATOM     11  O   UNL A   1      33.796  25.812  22.036  1.00  0.00    -0.464 OA
ATOM     12  C   UNL A   1      33.314  27.006  22.452  1.00  0.00     0.122 A 
ATOM     13  C   UNL A   1      32.192  26.820  23.239  1.00  0.00     0.143 A 
ATOM     14  C   UNL A   1      34.048  28.192  21.956  1.00  0.00     0.089 C 
BRANCH  13  15
ATOM     15  S   UNL A   1      31.376  28.155  23.951  1.00  0.00     0.279 S 
ATOM     16  O   UNL A   1      30.369  28.505  23.010  1.00  0.00    -0.200 OA
ATOM     17  O   UNL A   1      30.994  27.600  25.260  1.00  0.00    -0.200 OA
BRANCH  15  18
ATOM     18  N   UNL A   1      32.233  29.501  24.341  1.00  0.00    -0.216 N 
ATOM     19  H   UNL A   1      32.534  30.046  23.578  1.00  0.00     0.202 HD
BRANCH  18  20
ATOM     20  N   UNL A   1      32.592  29.978  25.593  1.00  0.00    -0.256 N 
ATOM     21  C   UNL A   1      32.097  31.029  26.330  1.00  0.00     0.038 A 
ATOM     22  C   UNL A   1      33.602  29.348  26.295  1.00  0.00     0.038 A 
ATOM     23  C   UNL A   1      30.904  31.858  26.023  1.00  0.00     0.067 C 
ATOM     24  C   UNL A   1      32.897  31.134  27.460  1.00  0.00     0.025 A 
ATOM     25  C   UNL A   1      33.846  30.096  27.430  1.00  0.00     0.025 A 
ATOM     26  C   UNL A   1      34.341  28.142  25.821  1.00  0.00     0.067 C 
ENDBRANCH  18  20
ENDBRANCH  15  18
ENDBRANCH  13  15
ENDBRANCH   5   8
ENDBRANCH   3   4
ENDBRANCH   2   3
ENDBRANCH   1   2
BRANCH   1  27
ATOM     27  C   UNL A   1      34.929  23.018  25.032  1.00  0.00     0.002 C 
BRANCH  27  28
ATOM     28  C   UNL A   1      36.378  23.334  24.601  1.00  0.00     0.021 C 
BRANCH  28  29
ATOM     29  C   UNL A   1      37.430  23.701  25.669  1.00  0.00     0.116 C 
BRANCH  29  30
ATOM     30  N   UNL A   1      38.496  22.728  25.813  1.00  0.00    -0.352 N 
ATOM     31  C   UNL A   1      39.690  22.808  26.507  1.00  0.00     0.251 C 
ATOM     32  H   UNL A   1      38.345  21.875  25.343  1.00  0.00     0.163 HD
ATOM     33  O   UNL A   1      40.342  21.772  26.641  1.00  0.00    -0.269 OA
BRANCH  31  34
ATOM     34  C   UNL A   1      40.271  24.098  27.028  1.00  0.00     0.039 A 
ATOM     35  C   UNL A   1      39.944  24.483  28.322  1.00  0.00     0.014 A 
ATOM     36  C   UNL A   1      40.827  25.092  26.201  1.00  0.00     0.014 A 
ATOM     37  C   UNL A   1      40.196  25.811  28.781  1.00  0.00     0.010 A 
ATOM     38  C   UNL A   1      41.023  26.460  26.652  1.00  0.00     0.010 A 
ATOM     39  C   UNL A   1      40.689  26.879  27.956  1.00  0.00    -0.014 A 
BRANCH  39  40
ATOM     40  C   UNL A   1      40.211  28.341  28.364  1.00  0.00     0.031 A 
ATOM     41  C   UNL A   1      41.498  29.088  28.484  1.00  0.00     0.074 A 
ATOM     42  C   UNL A   1      39.081  29.078  28.704  1.00  0.00     0.049 A 
ATOM     43  N   UNL A   1      42.452  28.663  29.267  1.00  0.00    -0.248 NA
ATOM     44  C   UNL A   1      41.916  30.080  27.491  1.00  0.00     0.031 C 
ATOM     45  C   UNL A   1      37.698  28.599  28.844  1.00  0.00     0.029 A 
ATOM     46  N   UNL A   1      38.892  30.465  29.005  1.00  0.00    -0.354 N 
ATOM     47  C   UNL A   1      43.469  29.571  29.119  1.00  0.00     0.074 A 
ATOM     48  C   UNL A   1      43.198  30.215  27.844  1.00  0.00     0.031 C 
ATOM     49  C   UNL A   1      36.828  29.628  29.066  1.00  0.00     0.029 A 
ATOM     50  C   UNL A   1      37.532  30.907  29.159  1.00  0.00     0.049 A 
ATOM     51  H   UNL A   1      39.652  31.083  29.099  1.00  0.00     0.167 HD
ATOM     52  C   UNL A   1      43.934  30.143  30.267  1.00  0.00     0.037 A 
ATOM     53  C   UNL A   1      36.992  32.165  29.412  1.00  0.00     0.037 A 
ATOM     54  C   UNL A   1      43.551  31.522  30.402  1.00  0.00     0.049 A 
ATOM     55  C   UNL A   1      38.047  33.008  29.990  1.00  0.00     0.074 A 
ATOM     56  C   UNL A   1      43.461  32.587  29.529  1.00  0.00     0.029 A 
ATOM     57  N   UNL A   1      42.757  31.839  31.481  1.00  0.00    -0.354 N 
ATOM     58  N   UNL A   1      38.359  32.928  31.246  1.00  0.00    -0.248 NA
ATOM     59  C   UNL A   1      38.703  34.086  29.254  1.00  0.00     0.031 C 
ATOM     60  C   UNL A   1      42.232  33.210  29.848  1.00  0.00     0.029 A 
ATOM     61  C   UNL A   1      41.789  32.728  31.074  1.00  0.00     0.049 A 
ATOM     62  H   UNL A   1      42.863  31.488  32.394  1.00  0.00     0.167 HD
ATOM     63  C   UNL A   1      39.565  33.540  31.306  1.00  0.00     0.074 A 
ATOM     64  C   UNL A   1      39.580  34.462  30.187  1.00  0.00     0.031 C 
ATOM     65  C   UNL A   1      40.565  32.798  31.835  1.00  0.00     0.037 A 
BRANCH  52  66
ATOM     66  C   UNL A   1      44.044  29.200  31.431  1.00  0.00     0.057 A 
ATOM     67  C   UNL A   1      45.299  28.752  31.840  1.00  0.00     0.134 A 
ATOM     68  C   UNL A   1      42.922  28.661  32.092  1.00  0.00     0.134 A 
ATOM     69  F   UNL A   1      46.413  29.270  31.300  1.00  0.00    -0.206 F 
ATOM     70  C   UNL A   1      45.433  27.762  32.818  1.00  0.00     0.040 A 
ATOM     71  C   UNL A   1      43.041  27.638  33.030  1.00  0.00     0.040 A 
ATOM     72  F   UNL A   1      41.688  29.129  31.848  1.00  0.00    -0.206 F 
ATOM     73  C   UNL A   1      44.302  27.179  33.389  1.00  0.00     0.006 A 
ENDBRANCH  52  66
BRANCH  53  74
ATOM     74  C   UNL A   1      35.664  32.951  29.469  1.00  0.00     0.057 A 
ATOM     75  C   UNL A   1      34.978  33.156  30.712  1.00  0.00     0.134 A 
ATOM     76  C   UNL A   1      35.278  33.849  28.471  1.00  0.00     0.134 A 
ATOM     77  F   UNL A   1      35.173  32.355  31.767  1.00  0.00    -0.206 F 
ATOM     78  C   UNL A   1      34.103  34.227  30.973  1.00  0.00     0.040 A 
ATOM     79  C   UNL A   1      34.357  34.905  28.710  1.00  0.00     0.040 A 
ATOM     80  F   UNL A   1      35.842  33.793  27.258  1.00  0.00    -0.206 F 
ATOM     81  C   UNL A   1      33.800  35.123  29.969  1.00  0.00     0.006 A 
ENDBRANCH  53  74
BRANCH  65  82
ATOM     82  C   UNL A   1      40.216  31.924  33.036  1.00  0.00     0.057 A 
ATOM     83  C   UNL A   1      39.465  30.723  33.037  1.00  0.00     0.134 A 
ATOM     84  C   UNL A   1      40.614  32.375  34.301  1.00  0.00     0.134 A 
ATOM     85  F   UNL A   1      39.125  30.083  31.909  1.00  0.00    -0.206 F 
ATOM     86  C   UNL A   1      39.052  30.093  34.218  1.00  0.00     0.040 A 
ATOM     87  C   UNL A   1      40.263  31.716  35.485  1.00  0.00     0.040 A 
ATOM     88  F   UNL A   1      41.381  33.471  34.411  1.00  0.00    -0.206 F 
ATOM     89  C   UNL A   1      39.451  30.589  35.450  1.00  0.00     0.006 A 
ENDBRANCH  65  82
ENDBRANCH  39  40
ENDBRANCH  31  34
ENDBRANCH  29  30
ENDBRANCH  28  29
ENDBRANCH  27  28
ENDBRANCH   1  27
TORSDOF 16
ENDMDL
MODEL 3
REMARK VINA RESULT:     -11.2      1.876      2.554
REMARK SMILES Cc1oc(C)c(S(=O)(=O)Nn2c(C)ccc2C)c1C(=O)NCCCCCCNC(=O)c1ccc(-c2c3nc(c(-c4c(F)cccc4F)c4ccc([nH]4)c(-c4c(F)cccc4F)c4nc(c(-c5c(F)cccc5F)c5ccc2[nH]5)C=C4)C=C3)cc1
REMARK SMILES IDX 24 1 23 2 22 3 21 4 19 5 20 6 18 8 1 9 2 10 3 11 4 12 6 13
REMARK SMILES IDX 5 14 7 15 8 16 9 17 10 18 11 20 12 21 16 22 13 23 14 24
REMARK SMILES IDX 15 25 17 26 25 27 26 28 27 29 28 30 29 31 30 33 31 34 32 35
REMARK SMILES IDX 84 36 33 37 83 38 34 39 35 40 36 41 77 42 37 43 82 44 76 45
REMARK SMILES IDX 78 46 38 47 81 48 75 49 74 50 39 52 65 53 48 54 64 55 49 56
REMARK SMILES IDX 52 57 63 58 79 59 50 60 51 61 62 63 80 64 53 65 40 66 41 67
REMARK SMILES IDX 46 68 42 69 43 70 45 71 47 72 44 73 66 74 67 75 72 76 68 77
REMARK SMILES IDX 69 78 71 79 73 80 70 81 54 82 55 83 60 84 56 85 57 86 59 87
REMARK SMILES IDX 61 88 58 89
REMARK H PARENT 21 7 10 19 28 32 78 51 52 62
REMARK Flexibility Score: inf
ROOT
ATOM      1  C   UNL A   1      31.721  29.636  25.154  1.00  0.00     0.002 C 
ENDROOT
BRANCH   1   2
ATOM      2  C   UNL A   1      30.678  28.957  24.268  1.00  0.00     0.021 C 
BRANCH   2   3
ATOM      3  C   UNL A   1      31.111  28.382  22.926  1.00  0.00     0.116 C 
BRANCH   3   4
ATOM      4  N   UNL A   1      32.481  28.620  22.521  1.00  0.00    -0.352 N 
ATOM      5  C   UNL A   1      33.440  27.732  22.076  1.00  0.00     0.256 C 
ATOM      6  O   UNL A   1      34.494  28.179  21.628  1.00  0.00    -0.269 OA
ATOM      7  H   UNL A   1      32.773  29.559  22.570  1.00  0.00     0.163 HD
BRANCH   5   8
ATOM      8  C   UNL A   1      33.241  26.295  22.161  1.00  0.00     0.101 A 
ATOM      9  C   UNL A   1      32.531  25.577  19.698  1.00  0.00     0.088 C 
ATOM     10  C   UNL A   1      32.885  25.433  21.128  1.00  0.00     0.115 A 
ATOM     11  O   UNL A   1      32.909  24.142  21.548  1.00  0.00    -0.464 OA
ATOM     12  C   UNL A   1      33.330  24.137  22.834  1.00  0.00     0.122 A 
ATOM     13  C   UNL A   1      33.514  25.434  23.280  1.00  0.00     0.143 A 
ATOM     14  C   UNL A   1      33.527  22.797  23.430  1.00  0.00     0.089 C 
BRANCH  13  15
ATOM     15  S   UNL A   1      34.011  25.755  24.894  1.00  0.00     0.279 S 
ATOM     16  O   UNL A   1      35.139  24.914  25.097  1.00  0.00    -0.200 OA
ATOM     17  O   UNL A   1      34.183  27.217  24.862  1.00  0.00    -0.200 OA
BRANCH  15  18
ATOM     18  N   UNL A   1      32.943  25.522  26.120  1.00  0.00    -0.216 N 
ATOM     19  H   UNL A   1      32.834  26.282  26.736  1.00  0.00     0.202 HD
BRANCH  18  20
ATOM     20  N   UNL A   1      32.173  24.405  26.411  1.00  0.00    -0.256 N 
ATOM     21  C   UNL A   1      32.532  23.164  26.886  1.00  0.00     0.038 A 
ATOM     22  C   UNL A   1      30.804  24.460  26.233  1.00  0.00     0.038 A 
ATOM     23  C   UNL A   1      33.871  22.740  27.367  1.00  0.00     0.067 C 
ATOM     24  C   UNL A   1      31.380  22.390  26.885  1.00  0.00     0.025 A 
ATOM     25  C   UNL A   1      30.305  23.193  26.463  1.00  0.00     0.025 A 
ATOM     26  C   UNL A   1      30.056  25.665  25.770  1.00  0.00     0.067 C 
ENDBRANCH  18  20
ENDBRANCH  15  18
ENDBRANCH  13  15
ENDBRANCH   5   8
ENDBRANCH   3   4
ENDBRANCH   2   3
ENDBRANCH   1   2
BRANCH   1  27
ATOM     27  C   UNL A   1      31.772  29.305  26.649  1.00  0.00     0.002 C 
BRANCH  27  28
ATOM     28  C   UNL A   1      33.109  28.974  27.348  1.00  0.00     0.021 C 
BRANCH  28  29
ATOM     29  C   UNL A   1      34.282  29.973  27.267  1.00  0.00     0.116 C 
BRANCH  29  30
ATOM     30  N   UNL A   1      34.037  31.234  27.939  1.00  0.00    -0.352 N 
ATOM     31  C   UNL A   1      34.837  31.952  28.810  1.00  0.00     0.251 C 
ATOM     32  H   UNL A   1      33.164  31.645  27.744  1.00  0.00     0.163 HD
ATOM     33  O   UNL A   1      34.487  33.097  29.095  1.00  0.00    -0.269 OA
BRANCH  31  34
ATOM     34  C   UNL A   1      36.057  31.382  29.490  1.00  0.00     0.039 A 
ATOM     35  C   UNL A   1      37.287  31.548  28.865  1.00  0.00     0.014 A 
ATOM     36  C   UNL A   1      36.000  30.416  30.512  1.00  0.00     0.014 A 
ATOM     37  C   UNL A   1      38.428  30.794  29.274  1.00  0.00     0.010 A 
ATOM     38  C   UNL A   1      37.148  29.605  30.882  1.00  0.00     0.010 A 
ATOM     39  C   UNL A   1      38.403  29.745  30.255  1.00  0.00    -0.014 A 
BRANCH  39  40
ATOM     40  C   UNL A   1      39.468  28.581  30.047  1.00  0.00     0.031 A 
ATOM     41  C   UNL A   1      40.340  28.712  31.252  1.00  0.00     0.074 A 
ATOM     42  C   UNL A   1      39.878  27.609  29.140  1.00  0.00     0.049 A 
ATOM     43  N   UNL A   1      40.922  29.844  31.541  1.00  0.00    -0.248 NA
ATOM     44  C   UNL A   1      40.295  27.747  32.352  1.00  0.00     0.031 C 
ATOM     45  C   UNL A   1      39.339  27.341  27.798  1.00  0.00     0.029 A 
ATOM     46  N   UNL A   1      40.891  26.600  29.203  1.00  0.00    -0.354 N 
ATOM     47  C   UNL A   1      41.619  29.604  32.698  1.00  0.00     0.074 A 
ATOM     48  C   UNL A   1      40.973  28.436  33.275  1.00  0.00     0.031 C 
ATOM     49  C   UNL A   1      39.902  26.228  27.242  1.00  0.00     0.029 A 
ATOM     50  C   UNL A   1      40.924  25.656  28.119  1.00  0.00     0.049 A 
ATOM     51  H   UNL A   1      41.531  26.554  29.950  1.00  0.00     0.167 HD
ATOM     52  C   UNL A   1      42.951  29.898  32.668  1.00  0.00     0.037 A 
ATOM     53  C   UNL A   1      41.733  24.548  27.882  1.00  0.00     0.037 A 
ATOM     54  C   UNL A   1      43.784  28.727  32.650  1.00  0.00     0.049 A 
ATOM     55  C   UNL A   1      42.949  24.687  28.693  1.00  0.00     0.074 A 
ATOM     56  C   UNL A   1      43.742  27.505  33.291  1.00  0.00     0.029 A 
ATOM     57  N   UNL A   1      44.586  28.556  31.544  1.00  0.00    -0.354 N 
ATOM     58  N   UNL A   1      43.931  25.443  28.310  1.00  0.00    -0.248 NA
ATOM     59  C   UNL A   1      43.210  23.886  29.887  1.00  0.00     0.031 C 
ATOM     60  C   UNL A   1      44.042  26.561  32.281  1.00  0.00     0.029 A 
ATOM     61  C   UNL A   1      44.565  27.229  31.181  1.00  0.00     0.049 A 
ATOM     62  H   UNL A   1      45.092  29.266  31.088  1.00  0.00     0.167 HD
ATOM     63  C   UNL A   1      44.655  25.609  29.441  1.00  0.00     0.074 A 
ATOM     64  C   UNL A   1      44.368  24.442  30.252  1.00  0.00     0.031 C 
ATOM     65  C   UNL A   1      44.866  26.894  29.811  1.00  0.00     0.037 A 
BRANCH  52  66
ATOM     66  C   UNL A   1      43.291  31.163  31.933  1.00  0.00     0.057 A 
ATOM     67  C   UNL A   1      43.673  32.296  32.650  1.00  0.00     0.134 A 
ATOM     68  C   UNL A   1      43.160  31.300  30.537  1.00  0.00     0.134 A 
ATOM     69  F   UNL A   1      43.881  32.223  33.973  1.00  0.00    -0.206 F 
ATOM     70  C   UNL A   1      43.852  33.529  32.017  1.00  0.00     0.040 A 
ATOM     71  C   UNL A   1      43.284  32.533  29.902  1.00  0.00     0.040 A 
ATOM     72  F   UNL A   1      42.920  30.232  29.759  1.00  0.00    -0.206 F 
ATOM     73  C   UNL A   1      43.624  33.657  30.646  1.00  0.00     0.006 A 
ENDBRANCH  52  66
BRANCH  53  74
ATOM     74  C   UNL A   1      41.906  23.319  26.963  1.00  0.00     0.057 A 
ATOM     75  C   UNL A   1      42.792  23.357  25.834  1.00  0.00     0.134 A 
ATOM     76  C   UNL A   1      41.595  22.021  27.376  1.00  0.00     0.134 A 
ATOM     77  F   UNL A   1      43.154  24.512  25.261  1.00  0.00    -0.206 F 
ATOM     78  C   UNL A   1      43.408  22.228  25.265  1.00  0.00     0.040 A 
ATOM     79  C   UNL A   1      42.176  20.870  26.776  1.00  0.00     0.040 A 
ATOM     80  F   UNL A   1      40.793  21.823  28.429  1.00  0.00    -0.206 F 
ATOM     81  C   UNL A   1      43.113  20.971  25.749  1.00  0.00     0.006 A 
ENDBRANCH  53  74
BRANCH  65  82
ATOM     82  C   UNL A   1      45.158  27.894  28.696  1.00  0.00     0.057 A 
ATOM     83  C   UNL A   1      44.238  28.439  27.767  1.00  0.00     0.134 A 
ATOM     84  C   UNL A   1      46.491  28.281  28.506  1.00  0.00     0.134 A 
ATOM     85  F   UNL A   1      42.912  28.283  27.886  1.00  0.00    -0.206 F 
ATOM     86  C   UNL A   1      44.642  29.214  26.671  1.00  0.00     0.040 A 
ATOM     87  C   UNL A   1      46.897  29.109  27.454  1.00  0.00     0.040 A 
ATOM     88  F   UNL A   1      47.436  27.870  29.366  1.00  0.00    -0.206 F 
ATOM     89  C   UNL A   1      45.977  29.552  26.511  1.00  0.00     0.006 A 
ENDBRANCH  65  82
ENDBRANCH  39  40
ENDBRANCH  31  34
ENDBRANCH  29  30
ENDBRANCH  28  29
ENDBRANCH  27  28
ENDBRANCH   1  27
TORSDOF 16
ENDMDL
