MODEL 1
REMARK VINA RESULT:     -10.6      0.000      0.000
REMARK SMILES Cc1nsc(N(C)C(=O)[C@@H]2CCC[C@H]2C[NH3+])c1C(=O)NCCCCCCNC(=O)c1ccc(-c2c3nc(c(-c4c(F)cccc4F)c4ccc([nH]4)c(-c4c(F)cccc4F)c4nc(c(-c5c(F)cccc5F)c5ccc2[nH]5)C=C4)C=C3)cc1
REMARK SMILES IDX 22 1 21 2 20 3 18 4 19 5 17 7 1 8 2 9 3 10 4 11 5 12 6 13
REMARK SMILES IDX 7 14 8 15 9 16 10 17 11 18 14 19 12 20 13 21 15 22 16 23
REMARK SMILES IDX 23 27 24 28 25 29 26 30 27 31 28 32 29 34 30 35 31 36 83 37
REMARK SMILES IDX 32 38 82 39 33 40 34 41 35 42 76 43 36 44 81 45 75 46 77 47
REMARK SMILES IDX 37 48 80 49 74 50 73 51 38 53 64 54 47 55 63 56 48 57 51 58
REMARK SMILES IDX 62 59 78 60 49 61 50 62 61 64 79 65 52 66 39 67 40 68 45 69
REMARK SMILES IDX 41 70 42 71 44 72 46 73 43 74 65 75 66 76 71 77 67 78 68 79
REMARK SMILES IDX 70 80 72 81 69 82 53 83 54 84 59 85 55 86 56 87 58 88 60 89
REMARK SMILES IDX 57 90
REMARK H PARENT 20 6 16 24 16 25 16 26 27 33 77 52 51 63
REMARK Flexibility Score: inf
ROOT
ATOM      1  C   UNL A   1      38.971  23.617  26.538  1.00  0.00     0.021 C 
ENDROOT
BRANCH   1   2
ATOM      2  C   UNL A   1      37.538  23.707  26.023  1.00  0.00     0.116 C 
BRANCH   2   3
ATOM      3  N   UNL A   1      37.446  23.345  24.633  1.00  0.00    -0.352 N 
ATOM      4  C   UNL A   1      36.356  22.971  23.893  1.00  0.00     0.256 C 
ATOM      5  O   UNL A   1      36.230  23.604  22.835  1.00  0.00    -0.269 OA
ATOM      6  H   UNL A   1      38.297  23.371  24.139  1.00  0.00     0.163 HD
BRANCH   4   7
ATOM      7  C   UNL A   1      35.447  21.861  24.229  1.00  0.00     0.097 A 
ATOM      8  C   UNL A   1      36.876  19.711  24.979  1.00  0.00     0.069 C 
ATOM      9  C   UNL A   1      35.639  20.503  24.744  1.00  0.00     0.066 A 
ATOM     10  N   UNL A   1      34.532  19.849  25.110  1.00  0.00    -0.195 NA
ATOM     11  S   UNL A   1      33.215  20.751  24.770  1.00  0.00    -0.017 S 
ATOM     12  C   UNL A   1      34.062  22.056  24.079  1.00  0.00     0.131 A 
BRANCH  12  13
ATOM     13  N   UNL A   1      33.299  23.076  23.467  1.00  0.00    -0.305 N 
ATOM     14  C   UNL A   1      33.210  23.198  22.017  1.00  0.00     0.154 C 
BRANCH  13  15
ATOM     15  C   UNL A   1      32.809  24.078  24.330  1.00  0.00     0.231 C 
ATOM     16  O   UNL A   1      31.832  23.881  25.061  1.00  0.00    -0.274 OA
BRANCH  15  17
ATOM     17  C   UNL A   1      33.521  25.451  24.342  1.00  0.00     0.088 C 
ATOM     18  C   UNL A   1      33.919  25.881  25.759  1.00  0.00     0.014 C 
ATOM     19  C   UNL A   1      32.606  26.619  23.882  1.00  0.00     0.056 C 
ATOM     20  C   UNL A   1      33.958  27.399  25.776  1.00  0.00     0.001 C 
ATOM     21  C   UNL A   1      33.194  27.868  24.555  1.00  0.00     0.010 C 
BRANCH  19  22
ATOM     22  C   UNL A   1      32.528  26.861  22.365  1.00  0.00     0.263 C 
BRANCH  22  23
ATOM     23  N   UNL A   1      33.540  27.759  21.837  1.00  0.00    -0.357 N 
ATOM     24  H   UNL A   1      33.324  28.716  22.117  1.00  0.00     0.344 HD
ATOM     25  H   UNL A   1      33.551  27.699  20.819  1.00  0.00     0.344 HD
ATOM     26  H   UNL A   1      34.454  27.495  22.204  1.00  0.00     0.344 HD
ENDBRANCH  22  23
ENDBRANCH  19  22
ENDBRANCH  15  17
ENDBRANCH  13  15
ENDBRANCH  12  13
ENDBRANCH   4   7
ENDBRANCH   2   3
ENDBRANCH   1   2
BRANCH   1  27
ATOM     27  C   UNL A   1      39.449  22.186  26.813  1.00  0.00     0.002 C 
BRANCH  27  28
ATOM     28  C   UNL A   1      40.842  22.050  27.447  1.00  0.00     0.002 C 
BRANCH  28  29
ATOM     29  C   UNL A   1      41.559  20.705  27.251  1.00  0.00     0.021 C 
BRANCH  29  30
ATOM     30  C   UNL A   1      41.707  20.285  25.795  1.00  0.00     0.116 C 
BRANCH  30  31
ATOM     31  N   UNL A   1      43.089  19.937  25.467  1.00  0.00    -0.352 N 
ATOM     32  C   UNL A   1      44.169  20.767  25.264  1.00  0.00     0.251 C 
ATOM     33  H   UNL A   1      43.273  18.975  25.379  1.00  0.00     0.163 HD
ATOM     34  O   UNL A   1      45.170  20.366  24.684  1.00  0.00    -0.269 OA
BRANCH  32  35
ATOM     35  C   UNL A   1      44.099  22.155  25.745  1.00  0.00     0.039 A 
ATOM     36  C   UNL A   1      43.358  23.115  25.050  1.00  0.00     0.014 A 
ATOM     37  C   UNL A   1      44.757  22.480  26.927  1.00  0.00     0.014 A 
ATOM     38  C   UNL A   1      43.215  24.388  25.599  1.00  0.00     0.010 A 
ATOM     39  C   UNL A   1      44.501  23.687  27.532  1.00  0.00     0.010 A 
ATOM     40  C   UNL A   1      43.775  24.666  26.853  1.00  0.00    -0.014 A 
BRANCH  40  41
ATOM     41  C   UNL A   1      43.558  25.962  27.494  1.00  0.00     0.031 A 
ATOM     42  C   UNL A   1      44.494  27.067  27.125  1.00  0.00     0.074 A 
ATOM     43  C   UNL A   1      42.434  26.240  28.190  1.00  0.00     0.049 A 
ATOM     44  N   UNL A   1      45.244  27.776  27.906  1.00  0.00    -0.248 NA
ATOM     45  C   UNL A   1      44.643  27.400  25.700  1.00  0.00     0.031 C 
ATOM     46  C   UNL A   1      41.247  25.397  28.386  1.00  0.00     0.029 A 
ATOM     47  N   UNL A   1      42.064  27.417  28.762  1.00  0.00    -0.354 N 
ATOM     48  C   UNL A   1      45.846  28.748  27.104  1.00  0.00     0.074 A 
ATOM     49  C   UNL A   1      45.531  28.395  25.743  1.00  0.00     0.031 C 
ATOM     50  C   UNL A   1      40.216  26.165  28.794  1.00  0.00     0.029 A 
ATOM     51  C   UNL A   1      40.714  27.501  29.062  1.00  0.00     0.049 A 
ATOM     52  H   UNL A   1      42.699  28.145  28.947  1.00  0.00     0.167 HD
ATOM     53  C   UNL A   1      46.409  29.873  27.630  1.00  0.00     0.037 A 
ATOM     54  C   UNL A   1      40.039  28.601  29.467  1.00  0.00     0.037 A 
ATOM     55  C   UNL A   1      46.636  29.740  29.044  1.00  0.00     0.049 A 
ATOM     56  C   UNL A   1      41.034  29.564  29.996  1.00  0.00     0.074 A 
ATOM     57  C   UNL A   1      47.364  28.874  29.837  1.00  0.00     0.029 A 
ATOM     58  N   UNL A   1      45.789  30.395  29.905  1.00  0.00    -0.354 N 
ATOM     59  N   UNL A   1      41.718  29.380  31.092  1.00  0.00    -0.248 NA
ATOM     60  C   UNL A   1      41.586  30.546  29.075  1.00  0.00     0.031 C 
ATOM     61  C   UNL A   1      46.559  28.682  31.000  1.00  0.00     0.029 A 
ATOM     62  C   UNL A   1      45.425  29.481  30.857  1.00  0.00     0.049 A 
ATOM     63  H   UNL A   1      45.501  31.335  29.847  1.00  0.00     0.167 HD
ATOM     64  C   UNL A   1      42.978  29.888  30.812  1.00  0.00     0.074 A 
ATOM     65  C   UNL A   1      42.806  30.686  29.600  1.00  0.00     0.031 C 
ATOM     66  C   UNL A   1      44.097  29.389  31.417  1.00  0.00     0.037 A 
BRANCH  53  67
ATOM     67  C   UNL A   1      46.472  31.219  26.946  1.00  0.00     0.057 A 
ATOM     68  C   UNL A   1      47.692  31.922  26.909  1.00  0.00     0.134 A 
ATOM     69  C   UNL A   1      45.338  31.974  26.591  1.00  0.00     0.134 A 
ATOM     70  F   UNL A   1      48.847  31.322  27.238  1.00  0.00    -0.206 F 
ATOM     71  C   UNL A   1      47.766  33.291  26.617  1.00  0.00     0.040 A 
ATOM     72  C   UNL A   1      45.407  33.328  26.246  1.00  0.00     0.040 A 
ATOM     73  F   UNL A   1      44.098  31.474  26.656  1.00  0.00    -0.206 F 
ATOM     74  C   UNL A   1      46.618  34.001  26.291  1.00  0.00     0.006 A 
ENDBRANCH  53  67
BRANCH  54  75
ATOM     75  C   UNL A   1      38.628  28.951  29.207  1.00  0.00     0.057 A 
ATOM     76  C   UNL A   1      37.694  29.024  30.247  1.00  0.00     0.134 A 
ATOM     77  C   UNL A   1      38.213  29.459  27.962  1.00  0.00     0.134 A 
ATOM     78  F   UNL A   1      38.013  28.603  31.479  1.00  0.00    -0.206 F 
ATOM     79  C   UNL A   1      36.423  29.583  30.065  1.00  0.00     0.040 A 
ATOM     80  C   UNL A   1      36.943  30.010  27.764  1.00  0.00     0.040 A 
ATOM     81  F   UNL A   1      39.054  29.513  26.919  1.00  0.00    -0.206 F 
ATOM     82  C   UNL A   1      36.047  30.086  28.822  1.00  0.00     0.006 A 
ENDBRANCH  54  75
BRANCH  66  83
ATOM     83  C   UNL A   1      43.922  28.442  32.572  1.00  0.00     0.057 A 
ATOM     84  C   UNL A   1      43.831  27.049  32.432  1.00  0.00     0.134 A 
ATOM     85  C   UNL A   1      44.030  28.938  33.876  1.00  0.00     0.134 A 
ATOM     86  F   UNL A   1      43.833  26.471  31.225  1.00  0.00    -0.206 F 
ATOM     87  C   UNL A   1      43.805  26.195  33.536  1.00  0.00     0.040 A 
ATOM     88  C   UNL A   1      44.038  28.092  34.987  1.00  0.00     0.040 A 
ATOM     89  F   UNL A   1      44.184  30.254  34.088  1.00  0.00    -0.206 F 
ATOM     90  C   UNL A   1      43.915  26.715  34.821  1.00  0.00     0.006 A 
ENDBRANCH  66  83
ENDBRANCH  40  41
ENDBRANCH  32  35
ENDBRANCH  30  31
ENDBRANCH  29  30
ENDBRANCH  28  29
ENDBRANCH  27  28
ENDBRANCH   1  27
TORSDOF 18
ENDMDL
MODEL 2
REMARK VINA RESULT:     -10.4      2.697      8.014
REMARK SMILES Cc1nsc(N(C)C(=O)[C@@H]2CCC[C@H]2C[NH3+])c1C(=O)NCCCCCCNC(=O)c1ccc(-c2c3nc(c(-c4c(F)cccc4F)c4ccc([nH]4)c(-c4c(F)cccc4F)c4nc(c(-c5c(F)cccc5F)c5ccc2[nH]5)C=C4)C=C3)cc1
REMARK SMILES IDX 22 1 21 2 20 3 18 4 19 5 17 7 1 8 2 9 3 10 4 11 5 12 6 13
REMARK SMILES IDX 7 14 8 15 9 16 10 17 11 18 14 19 12 20 13 21 15 22 16 23
REMARK SMILES IDX 23 27 24 28 25 29 26 30 27 31 28 32 29 34 30 35 31 36 83 37
REMARK SMILES IDX 32 38 82 39 33 40 34 41 35 42 76 43 36 44 81 45 75 46 77 47
REMARK SMILES IDX 37 48 80 49 74 50 73 51 38 53 64 54 47 55 63 56 48 57 51 58
REMARK SMILES IDX 62 59 78 60 49 61 50 62 61 64 79 65 52 66 39 67 40 68 45 69
REMARK SMILES IDX 41 70 42 71 44 72 46 73 43 74 65 75 66 76 71 77 67 78 68 79
REMARK SMILES IDX 70 80 72 81 69 82 53 83 54 84 59 85 55 86 56 87 58 88 60 89
REMARK SMILES IDX 57 90
REMARK H PARENT 20 6 16 24 16 25 16 26 27 33 77 52 51 63
REMARK Flexibility Score: inf
ROOT
ATOM      1  C   UNL A   1      32.376  28.901  26.421  1.00  0.00     0.021 C 
ENDROOT
BRANCH   1   2
ATOM      2  C   UNL A   1      31.484  27.678  26.240  1.00  0.00     0.116 C 
BRANCH   2   3
ATOM      3  N   UNL A   1      32.254  26.475  26.063  1.00  0.00    -0.352 N 
ATOM      4  C   UNL A   1      33.259  26.198  25.176  1.00  0.00     0.256 C 
ATOM      5  O   UNL A   1      34.277  25.731  25.705  1.00  0.00    -0.269 OA
ATOM      6  H   UNL A   1      32.022  25.739  26.675  1.00  0.00     0.163 HD
BRANCH   4   7
ATOM      7  C   UNL A   1      33.154  26.330  23.711  1.00  0.00     0.097 A 
ATOM      8  C   UNL A   1      33.966  28.780  22.959  1.00  0.00     0.069 C 
ATOM      9  C   UNL A   1      33.501  27.382  22.753  1.00  0.00     0.066 A 
ATOM     10  N   UNL A   1      33.433  27.047  21.460  1.00  0.00    -0.195 NA
ATOM     11  S   UNL A   1      32.861  25.527  21.309  1.00  0.00    -0.017 S 
ATOM     12  C   UNL A   1      32.640  25.249  22.973  1.00  0.00     0.131 A 
BRANCH  12  13
ATOM     13  N   UNL A   1      31.989  24.054  23.353  1.00  0.00    -0.305 N 
ATOM     14  C   UNL A   1      30.685  24.069  24.005  1.00  0.00     0.154 C 
BRANCH  13  15
ATOM     15  C   UNL A   1      32.757  22.876  23.254  1.00  0.00     0.231 C 
ATOM     16  O   UNL A   1      32.454  21.970  22.470  1.00  0.00    -0.274 OA
BRANCH  15  17
ATOM     17  C   UNL A   1      34.002  22.732  24.160  1.00  0.00     0.088 C 
ATOM     18  C   UNL A   1      35.308  22.939  23.383  1.00  0.00     0.014 C 
ATOM     19  C   UNL A   1      34.179  21.300  24.735  1.00  0.00     0.056 C 
ATOM     20  C   UNL A   1      36.391  22.154  24.102  1.00  0.00     0.001 C 
ATOM     21  C   UNL A   1      35.684  21.168  25.010  1.00  0.00     0.010 C 
BRANCH  19  22
ATOM     22  C   UNL A   1      33.408  20.990  26.030  1.00  0.00     0.263 C 
BRANCH  22  23
ATOM     23  N   UNL A   1      33.236  19.575  26.314  1.00  0.00    -0.357 N 
ATOM     24  H   UNL A   1      32.438  19.218  25.789  1.00  0.00     0.344 HD
ATOM     25  H   UNL A   1      33.069  19.447  27.312  1.00  0.00     0.344 HD
ATOM     26  H   UNL A   1      34.078  19.068  26.042  1.00  0.00     0.344 HD
ENDBRANCH  22  23
ENDBRANCH  19  22
ENDBRANCH  15  17
ENDBRANCH  13  15
ENDBRANCH  12  13
ENDBRANCH   4   7
ENDBRANCH   2   3
ENDBRANCH   1   2
BRANCH   1  27
ATOM     27  C   UNL A   1      33.611  28.652  27.296  1.00  0.00     0.002 C 
BRANCH  27  28
ATOM     28  C   UNL A   1      34.693  29.742  27.264  1.00  0.00     0.002 C 
BRANCH  28  29
ATOM     29  C   UNL A   1      34.218  31.190  27.460  1.00  0.00     0.021 C 
BRANCH  29  30
ATOM     30  C   UNL A   1      35.275  32.118  28.042  1.00  0.00     0.116 C 
BRANCH  30  31
ATOM     31  N   UNL A   1      35.056  32.368  29.465  1.00  0.00    -0.352 N 
ATOM     32  C   UNL A   1      35.650  31.771  30.554  1.00  0.00     0.251 C 
ATOM     33  H   UNL A   1      34.389  33.061  29.674  1.00  0.00     0.163 HD
ATOM     34  O   UNL A   1      35.144  31.843  31.666  1.00  0.00    -0.269 OA
BRANCH  32  35
ATOM     35  C   UNL A   1      36.905  31.028  30.359  1.00  0.00     0.039 A 
ATOM     36  C   UNL A   1      38.119  31.704  30.215  1.00  0.00     0.014 A 
ATOM     37  C   UNL A   1      36.857  29.638  30.359  1.00  0.00     0.014 A 
ATOM     38  C   UNL A   1      39.301  30.966  30.153  1.00  0.00     0.010 A 
ATOM     39  C   UNL A   1      38.027  28.921  30.438  1.00  0.00     0.010 A 
ATOM     40  C   UNL A   1      39.252  29.572  30.284  1.00  0.00    -0.014 A 
BRANCH  40  41
ATOM     41  C   UNL A   1      40.484  28.785  30.320  1.00  0.00     0.031 A 
ATOM     42  C   UNL A   1      41.124  28.586  31.655  1.00  0.00     0.074 A 
ATOM     43  C   UNL A   1      40.903  28.059  29.261  1.00  0.00     0.049 A 
ATOM     44  N   UNL A   1      42.328  28.891  32.020  1.00  0.00    -0.248 NA
ATOM     45  C   UNL A   1      40.307  28.010  32.734  1.00  0.00     0.031 C 
ATOM     46  C   UNL A   1      40.237  27.859  27.967  1.00  0.00     0.029 A 
ATOM     47  N   UNL A   1      41.973  27.223  29.180  1.00  0.00    -0.354 N 
ATOM     48  C   UNL A   1      42.482  28.409  33.322  1.00  0.00     0.074 A 
ATOM     49  C   UNL A   1      41.174  27.983  33.749  1.00  0.00     0.031 C 
ATOM     50  C   UNL A   1      40.771  26.784  27.351  1.00  0.00     0.029 A 
ATOM     51  C   UNL A   1      41.923  26.340  28.113  1.00  0.00     0.049 A 
ATOM     52  H   UNL A   1      42.718  27.244  29.822  1.00  0.00     0.167 HD
ATOM     53  C   UNL A   1      43.710  28.231  33.887  1.00  0.00     0.037 A 
ATOM     54  C   UNL A   1      42.747  25.291  27.888  1.00  0.00     0.037 A 
ATOM     55  C   UNL A   1      44.735  28.932  33.159  1.00  0.00     0.049 A 
ATOM     56  C   UNL A   1      43.980  25.516  28.678  1.00  0.00     0.074 A 
ATOM     57  C   UNL A   1      44.961  30.252  32.822  1.00  0.00     0.029 A 
ATOM     58  N   UNL A   1      45.578  28.203  32.357  1.00  0.00    -0.354 N 
ATOM     59  N   UNL A   1      44.846  26.459  28.428  1.00  0.00    -0.248 NA
ATOM     60  C   UNL A   1      44.040  24.955  30.019  1.00  0.00     0.031 C 
ATOM     61  C   UNL A   1      45.512  30.203  31.507  1.00  0.00     0.029 A 
ATOM     62  C   UNL A   1      45.629  28.858  31.155  1.00  0.00     0.049 A 
ATOM     63  H   UNL A   1      46.051  27.374  32.598  1.00  0.00     0.167 HD
ATOM     64  C   UNL A   1      45.258  26.901  29.676  1.00  0.00     0.074 A 
ATOM     65  C   UNL A   1      44.812  25.870  30.611  1.00  0.00     0.031 C 
ATOM     66  C   UNL A   1      45.668  28.190  29.876  1.00  0.00     0.037 A 
BRANCH  53  67
ATOM     67  C   UNL A   1      44.055  27.175  34.911  1.00  0.00     0.057 A 
ATOM     68  C   UNL A   1      43.956  25.813  34.564  1.00  0.00     0.134 A 
ATOM     69  C   UNL A   1      44.189  27.431  36.289  1.00  0.00     0.134 A 
ATOM     70  F   UNL A   1      43.812  25.434  33.284  1.00  0.00    -0.206 F 
ATOM     71  C   UNL A   1      43.916  24.791  35.522  1.00  0.00     0.040 A 
ATOM     72  C   UNL A   1      44.203  26.415  37.250  1.00  0.00     0.040 A 
ATOM     73  F   UNL A   1      44.212  28.673  36.786  1.00  0.00    -0.206 F 
ATOM     74  C   UNL A   1      44.031  25.091  36.873  1.00  0.00     0.006 A 
ENDBRANCH  53  67
BRANCH  54  75
ATOM     75  C   UNL A   1      42.430  24.013  27.221  1.00  0.00     0.057 A 
ATOM     76  C   UNL A   1      42.771  23.787  25.882  1.00  0.00     0.134 A 
ATOM     77  C   UNL A   1      42.001  22.888  27.950  1.00  0.00     0.134 A 
ATOM     78  F   UNL A   1      43.230  24.788  25.119  1.00  0.00    -0.206 F 
ATOM     79  C   UNL A   1      42.703  22.513  25.303  1.00  0.00     0.040 A 
ATOM     80  C   UNL A   1      41.919  21.613  27.382  1.00  0.00     0.040 A 
ATOM     81  F   UNL A   1      41.728  22.974  29.260  1.00  0.00    -0.206 F 
ATOM     82  C   UNL A   1      42.284  21.420  26.056  1.00  0.00     0.006 A 
ENDBRANCH  54  75
BRANCH  66  83
ATOM     83  C   UNL A   1      45.895  29.061  28.672  1.00  0.00     0.057 A 
ATOM     84  C   UNL A   1      44.898  29.854  28.084  1.00  0.00     0.134 A 
ATOM     85  C   UNL A   1      47.201  29.244  28.206  1.00  0.00     0.134 A 
ATOM     86  F   UNL A   1      43.638  29.831  28.533  1.00  0.00    -0.206 F 
ATOM     87  C   UNL A   1      45.180  30.751  27.051  1.00  0.00     0.040 A 
ATOM     88  C   UNL A   1      47.502  30.162  27.197  1.00  0.00     0.040 A 
ATOM     89  F   UNL A   1      48.219  28.568  28.763  1.00  0.00    -0.206 F 
ATOM     90  C   UNL A   1      46.487  30.914  26.609  1.00  0.00     0.006 A 
ENDBRANCH  66  83
ENDBRANCH  40  41
ENDBRANCH  32  35
ENDBRANCH  30  31
ENDBRANCH  29  30
ENDBRANCH  28  29
ENDBRANCH  27  28
ENDBRANCH   1  27
TORSDOF 18
ENDMDL
MODEL 3
REMARK VINA RESULT:     -10.3      2.969      8.180
REMARK SMILES Cc1nsc(N(C)C(=O)[C@@H]2CCC[C@H]2C[NH3+])c1C(=O)NCCCCCCNC(=O)c1ccc(-c2c3nc(c(-c4c(F)cccc4F)c4ccc([nH]4)c(-c4c(F)cccc4F)c4nc(c(-c5c(F)cccc5F)c5ccc2[nH]5)C=C4)C=C3)cc1
REMARK SMILES IDX 22 1 21 2 20 3 18 4 19 5 17 7 1 8 2 9 3 10 4 11 5 12 6 13
REMARK SMILES IDX 7 14 8 15 9 16 10 17 11 18 14 19 12 20 13 21 15 22 16 23
REMARK SMILES IDX 23 27 24 28 25 29 26 30 27 31 28 32 29 34 30 35 31 36 83 37
REMARK SMILES IDX 32 38 82 39 33 40 34 41 35 42 76 43 36 44 81 45 75 46 77 47
REMARK SMILES IDX 37 48 80 49 74 50 73 51 38 53 64 54 47 55 63 56 48 57 51 58
REMARK SMILES IDX 62 59 78 60 49 61 50 62 61 64 79 65 52 66 39 67 40 68 45 69
REMARK SMILES IDX 41 70 42 71 44 72 46 73 43 74 65 75 66 76 71 77 67 78 68 79
REMARK SMILES IDX 70 80 72 81 69 82 53 83 54 84 59 85 55 86 56 87 58 88 60 89
REMARK SMILES IDX 57 90
REMARK H PARENT 20 6 16 24 16 25 16 26 27 33 77 52 51 63
REMARK Flexibility Score: inf
ROOT
ATOM      1  C   UNL A   1      32.967  28.660  26.737  1.00  0.00     0.021 C 
ENDROOT
BRANCH   1   2
ATOM      2  C   UNL A   1      32.546  27.197  26.837  1.00  0.00     0.116 C 
BRANCH   2   3
ATOM      3  N   UNL A   1      31.135  27.030  26.615  1.00  0.00    -0.352 N 
ATOM      4  C   UNL A   1      30.475  26.348  25.628  1.00  0.00     0.256 C 
ATOM      5  O   UNL A   1      29.614  25.565  26.052  1.00  0.00    -0.269 OA
ATOM      6  H   UNL A   1      30.554  27.474  27.275  1.00  0.00     0.163 HD
BRANCH   4   7
ATOM      7  C   UNL A   1      30.664  26.562  24.182  1.00  0.00     0.097 A 
ATOM      8  C   UNL A   1      28.935  28.424  23.305  1.00  0.00     0.069 C 
ATOM      9  C   UNL A   1      30.071  27.470  23.198  1.00  0.00     0.066 A 
ATOM     10  N   UNL A   1      30.652  27.496  21.994  1.00  0.00    -0.195 NA
ATOM     11  S   UNL A   1      31.847  26.387  21.930  1.00  0.00    -0.017 S 
ATOM     12  C   UNL A   1      31.623  25.786  23.506  1.00  0.00     0.131 A 
BRANCH  12  13
ATOM     13  N   UNL A   1      32.369  24.647  23.881  1.00  0.00    -0.305 N 
ATOM     14  C   UNL A   1      33.771  24.745  24.271  1.00  0.00     0.154 C 
BRANCH  13  15
ATOM     15  C   UNL A   1      31.745  23.402  23.659  1.00  0.00     0.231 C 
ATOM     16  O   UNL A   1      30.572  23.325  23.278  1.00  0.00    -0.274 OA
BRANCH  15  17
ATOM     17  C   UNL A   1      32.564  22.114  23.908  1.00  0.00     0.088 C 
ATOM     18  C   UNL A   1      32.256  21.025  22.874  1.00  0.00     0.014 C 
ATOM     19  C   UNL A   1      32.208  21.412  25.248  1.00  0.00     0.056 C 
ATOM     20  C   UNL A   1      32.526  19.685  23.534  1.00  0.00     0.001 C 
ATOM     21  C   UNL A   1      32.569  19.935  25.027  1.00  0.00     0.010 C 
BRANCH  19  22
ATOM     22  C   UNL A   1      32.946  21.923  26.497  1.00  0.00     0.263 C 
BRANCH  22  23
ATOM     23  N   UNL A   1      34.031  21.073  26.956  1.00  0.00    -0.357 N 
ATOM     24  H   UNL A   1      34.422  20.564  26.163  1.00  0.00     0.344 HD
ATOM     25  H   UNL A   1      33.676  20.409  27.643  1.00  0.00     0.344 HD
ATOM     26  H   UNL A   1      34.758  21.649  27.382  1.00  0.00     0.344 HD
ENDBRANCH  22  23
ENDBRANCH  19  22
ENDBRANCH  15  17
ENDBRANCH  13  15
ENDBRANCH  12  13
ENDBRANCH   4   7
ENDBRANCH   2   3
ENDBRANCH   1   2
BRANCH   1  27
ATOM     27  C   UNL A   1      34.260  28.993  27.493  1.00  0.00     0.002 C 
BRANCH  27  28
ATOM     28  C   UNL A   1      34.823  30.406  27.276  1.00  0.00     0.002 C 
BRANCH  28  29
ATOM     29  C   UNL A   1      33.889  31.579  27.615  1.00  0.00     0.021 C 
BRANCH  29  30
ATOM     30  C   UNL A   1      34.605  32.806  28.163  1.00  0.00     0.116 C 
BRANCH  30  31
ATOM     31  N   UNL A   1      34.383  32.970  29.598  1.00  0.00    -0.352 N 
ATOM     32  C   UNL A   1      35.005  32.336  30.651  1.00  0.00     0.251 C 
ATOM     33  H   UNL A   1      33.693  33.624  29.847  1.00  0.00     0.163 HD
ATOM     34  O   UNL A   1      34.501  32.328  31.767  1.00  0.00    -0.269 OA
BRANCH  32  35
ATOM     35  C   UNL A   1      36.285  31.651  30.412  1.00  0.00     0.039 A 
ATOM     36  C   UNL A   1      37.453  32.383  30.181  1.00  0.00     0.014 A 
ATOM     37  C   UNL A   1      36.310  30.261  30.458  1.00  0.00     0.014 A 
ATOM     38  C   UNL A   1      38.666  31.705  30.079  1.00  0.00     0.010 A 
ATOM     39  C   UNL A   1      37.519  29.609  30.496  1.00  0.00     0.010 A 
ATOM     40  C   UNL A   1      38.698  30.315  30.256  1.00  0.00    -0.014 A 
BRANCH  40  41
ATOM     41  C   UNL A   1      39.970  29.593  30.249  1.00  0.00     0.031 A 
ATOM     42  C   UNL A   1      40.618  29.347  31.573  1.00  0.00     0.074 A 
ATOM     43  C   UNL A   1      40.429  28.957  29.150  1.00  0.00     0.049 A 
ATOM     44  N   UNL A   1      41.802  29.692  31.963  1.00  0.00    -0.248 NA
ATOM     45  C   UNL A   1      39.830  28.663  32.611  1.00  0.00     0.031 C 
ATOM     46  C   UNL A   1      39.777  28.803  27.843  1.00  0.00     0.029 A 
ATOM     47  N   UNL A   1      41.542  28.186  29.024  1.00  0.00    -0.354 N 
ATOM     48  C   UNL A   1      41.980  29.140  33.233  1.00  0.00     0.074 A 
ATOM     49  C   UNL A   1      40.695  28.620  33.626  1.00  0.00     0.031 C 
ATOM     50  C   UNL A   1      40.368  27.797  27.165  1.00  0.00     0.029 A 
ATOM     51  C   UNL A   1      41.540  27.369  27.905  1.00  0.00     0.049 A 
ATOM     52  H   UNL A   1      42.283  28.206  29.670  1.00  0.00     0.167 HD
ATOM     53  C   UNL A   1      43.215  28.992  33.792  1.00  0.00     0.037 A 
ATOM     54  C   UNL A   1      42.419  26.381  27.619  1.00  0.00     0.037 A 
ATOM     55  C   UNL A   1      44.202  29.789  33.114  1.00  0.00     0.049 A 
ATOM     56  C   UNL A   1      43.638  26.621  28.428  1.00  0.00     0.074 A 
ATOM     57  C   UNL A   1      44.358  31.138  32.860  1.00  0.00     0.029 A 
ATOM     58  N   UNL A   1      45.084  29.157  32.273  1.00  0.00    -0.354 N 
ATOM     59  N   UNL A   1      44.453  27.622  28.241  1.00  0.00    -0.248 NA
ATOM     60  C   UNL A   1      43.725  25.983  29.733  1.00  0.00     0.031 C 
ATOM     61  C   UNL A   1      44.913  31.199  31.547  1.00  0.00     0.029 A 
ATOM     62  C   UNL A   1      45.103  29.887  31.114  1.00  0.00     0.049 A 
ATOM     63  H   UNL A   1      45.600  28.340  32.465  1.00  0.00     0.167 HD
ATOM     64  C   UNL A   1      44.838  28.008  29.516  1.00  0.00     0.074 A 
ATOM     65  C   UNL A   1      44.446  26.899  30.383  1.00  0.00     0.031 C 
ATOM     66  C   UNL A   1      45.179  29.301  29.797  1.00  0.00     0.037 A 
BRANCH  53  67
ATOM     67  C   UNL A   1      43.613  27.895  34.751  1.00  0.00     0.057 A 
ATOM     68  C   UNL A   1      44.175  28.233  35.998  1.00  0.00     0.134 A 
ATOM     69  C   UNL A   1      43.743  26.541  34.387  1.00  0.00     0.134 A 
ATOM     70  F   UNL A   1      44.131  29.493  36.458  1.00  0.00    -0.206 F 
ATOM     71  C   UNL A   1      44.879  27.310  36.784  1.00  0.00     0.040 A 
ATOM     72  C   UNL A   1      44.397  25.600  35.188  1.00  0.00     0.040 A 
ATOM     73  F   UNL A   1      43.334  26.080  33.199  1.00  0.00    -0.206 F 
ATOM     74  C   UNL A   1      44.999  25.989  36.375  1.00  0.00     0.006 A 
ENDBRANCH  53  67
BRANCH  54  75
ATOM     75  C   UNL A   1      42.172  25.130  26.874  1.00  0.00     0.057 A 
ATOM     76  C   UNL A   1      43.014  24.728  25.830  1.00  0.00     0.134 A 
ATOM     77  C   UNL A   1      41.243  24.174  27.325  1.00  0.00     0.134 A 
ATOM     78  F   UNL A   1      43.958  25.555  25.361  1.00  0.00    -0.206 F 
ATOM     79  C   UNL A   1      42.946  23.444  25.274  1.00  0.00     0.040 A 
ATOM     80  C   UNL A   1      41.158  22.893  26.773  1.00  0.00     0.040 A 
ATOM     81  F   UNL A   1      40.444  24.425  28.373  1.00  0.00    -0.206 F 
ATOM     82  C   UNL A   1      42.021  22.519  25.751  1.00  0.00     0.006 A 
ENDBRANCH  54  75
BRANCH  66  83
ATOM     83  C   UNL A   1      45.362  30.256  28.650  1.00  0.00     0.057 A 
ATOM     84  C   UNL A   1      46.556  30.381  27.922  1.00  0.00     0.134 A 
ATOM     85  C   UNL A   1      44.247  30.937  28.151  1.00  0.00     0.134 A 
ATOM     86  F   UNL A   1      47.648  29.685  28.256  1.00  0.00    -0.206 F 
ATOM     87  C   UNL A   1      46.646  31.180  26.780  1.00  0.00     0.040 A 
ATOM     88  C   UNL A   1      44.315  31.712  26.991  1.00  0.00     0.040 A 
ATOM     89  F   UNL A   1      43.055  30.816  28.756  1.00  0.00    -0.206 F 
ATOM     90  C   UNL A   1      45.520  31.844  26.305  1.00  0.00     0.006 A 
ENDBRANCH  66  83
ENDBRANCH  40  41
ENDBRANCH  32  35
ENDBRANCH  30  31
ENDBRANCH  29  30
ENDBRANCH  28  29
ENDBRANCH  27  28
ENDBRANCH   1  27
TORSDOF 18
ENDMDL
