MODEL 1
REMARK VINA RESULT:     -11.7      0.000      0.000
REMARK SMILES CS(=O)(=O)c1ccc(C2=NN(c3ccc(C(=O)NCCCCCCNC(=O)c4ccc(-c5c6nc(c(-c7c(F)cccc7F)c7ccc([nH]7)c(-c7c(F)cccc7F)c7nc(c(-c8c(F)cccc8F)c8ccc5[nH]8)C=C7)C=C6)cc4)cc3)[C@H](c3cccs3)C2)cc1
REMARK SMILES IDX 21 1 20 2 19 3 18 4 16 5 17 6 15 8 12 9 13 10 83 11 14 12
REMARK SMILES IDX 82 13 11 14 9 15 10 16 90 17 84 18 8 19 5 20 6 21 92 22 7 23
REMARK SMILES IDX 91 24 2 25 1 26 3 27 4 28 85 29 86 30 89 31 87 32 88 33
REMARK SMILES IDX 22 34 23 35 24 36 25 37 26 38 27 40 28 41 29 42 81 43 30 44
REMARK SMILES IDX 80 45 31 46 32 47 33 48 74 49 34 50 79 51 73 52 75 53 35 54
REMARK SMILES IDX 78 55 72 56 71 57 36 59 62 60 45 61 61 62 46 63 49 64 60 65
REMARK SMILES IDX 76 66 47 67 48 68 59 70 77 71 50 72 37 73 38 74 43 75 39 76
REMARK SMILES IDX 40 77 42 78 44 79 41 80 63 81 64 82 69 83 65 84 66 85 68 86
REMARK SMILES IDX 70 87 67 88 51 89 52 90 57 91 53 92 54 93 56 94 58 95 55 96
REMARK H PARENT 18 7 25 39 75 58 49 69
REMARK Flexibility Score: inf
ROOT
ATOM      1  C   UNL A   1      34.851  33.008  28.918  1.00  0.00     0.002 C 
ENDROOT
BRANCH   1   2
ATOM      2  C   UNL A   1      34.625  32.170  27.653  1.00  0.00     0.021 C 
BRANCH   2   3
ATOM      3  C   UNL A   1      33.651  31.007  27.854  1.00  0.00     0.116 C 
BRANCH   3   4
ATOM      4  N   UNL A   1      32.566  31.080  26.893  1.00  0.00    -0.352 N 
ATOM      5  C   UNL A   1      32.131  30.192  25.941  1.00  0.00     0.251 C 
ATOM      6  O   UNL A   1      31.129  30.483  25.290  1.00  0.00    -0.269 OA
ATOM      7  H   UNL A   1      32.049  31.916  26.931  1.00  0.00     0.163 HD
BRANCH   5   8
ATOM      8  C   UNL A   1      32.788  28.878  25.716  1.00  0.00     0.039 A 
ATOM      9  C   UNL A   1      34.021  26.413  25.120  1.00  0.00     0.060 A 
ATOM     10  C   UNL A   1      34.108  27.484  24.225  1.00  0.00     0.029 A 
ATOM     11  C   UNL A   1      33.361  26.609  26.336  1.00  0.00     0.029 A 
ATOM     12  C   UNL A   1      33.491  28.705  24.517  1.00  0.00     0.016 A 
ATOM     13  C   UNL A   1      32.775  27.838  26.648  1.00  0.00     0.016 A 
BRANCH   9  14
ATOM     14  N   UNL A   1      34.564  25.173  24.827  1.00  0.00    -0.257 N 
ATOM     15  C   UNL A   1      36.169  23.794  24.765  1.00  0.00     0.071 C 
ATOM     16  N   UNL A   1      35.662  24.743  25.486  1.00  0.00    -0.176 NA
ATOM     17  C   UNL A   1      35.507  23.541  23.438  1.00  0.00     0.091 C 
ATOM     18  C   UNL A   1      34.314  24.502  23.548  1.00  0.00     0.154 C 
BRANCH  15  19
ATOM     19  C   UNL A   1      37.307  22.991  25.224  1.00  0.00    -0.002 A 
ATOM     20  C   UNL A   1      39.422  21.391  26.042  1.00  0.00     0.067 A 
ATOM     21  C   UNL A   1      38.436  20.852  25.213  1.00  0.00     0.021 A 
ATOM     22  C   UNL A   1      39.355  22.725  26.467  1.00  0.00     0.021 A 
ATOM     23  C   UNL A   1      37.366  21.653  24.818  1.00  0.00     0.011 A 
ATOM     24  C   UNL A   1      38.297  23.535  26.044  1.00  0.00     0.011 A 
BRANCH  20  25
ATOM     25  S   UNL A   1      40.789  20.380  26.566  1.00  0.00     0.175 S 
ATOM     26  C   UNL A   1      42.249  21.258  26.070  1.00  0.00     0.163 C 
ATOM     27  O   UNL A   1      40.742  19.158  25.790  1.00  0.00    -0.224 OA
ATOM     28  O   UNL A   1      40.744  20.352  28.017  1.00  0.00    -0.224 OA
ENDBRANCH  20  25
ENDBRANCH  15  19
BRANCH  18  29
ATOM     29  C   UNL A   1      32.934  23.878  23.440  1.00  0.00     0.030 A 
ATOM     30  C   UNL A   1      32.652  22.524  23.364  1.00  0.00     0.017 A 
ATOM     31  S   UNL A   1      31.499  24.805  23.274  1.00  0.00    -0.147 S 
ATOM     32  C   UNL A   1      31.265  22.254  23.190  1.00  0.00     0.012 A 
ATOM     33  C   UNL A   1      30.521  23.410  23.149  1.00  0.00     0.065 A 
ENDBRANCH  18  29
ENDBRANCH   9  14
ENDBRANCH   5   8
ENDBRANCH   3   4
ENDBRANCH   2   3
ENDBRANCH   1   2
BRANCH   1  34
ATOM     34  C   UNL A   1      35.245  34.468  28.664  1.00  0.00     0.002 C 
BRANCH  34  35
ATOM     35  C   UNL A   1      34.119  35.489  28.846  1.00  0.00     0.021 C 
BRANCH  35  36
ATOM     36  C   UNL A   1      32.866  34.940  29.523  1.00  0.00     0.116 C 
BRANCH  36  37
ATOM     37  N   UNL A   1      32.421  35.793  30.615  1.00  0.00    -0.352 N 
ATOM     38  C   UNL A   1      32.835  35.817  31.922  1.00  0.00     0.251 C 
ATOM     39  H   UNL A   1      31.723  36.446  30.381  1.00  0.00     0.163 HD
ATOM     40  O   UNL A   1      32.207  36.462  32.756  1.00  0.00    -0.269 OA
BRANCH  38  41
ATOM     41  C   UNL A   1      34.032  35.054  32.334  1.00  0.00     0.039 A 
ATOM     42  C   UNL A   1      33.868  33.764  32.845  1.00  0.00     0.014 A 
ATOM     43  C   UNL A   1      35.308  35.618  32.243  1.00  0.00     0.014 A 
ATOM     44  C   UNL A   1      34.988  33.017  33.215  1.00  0.00     0.010 A 
ATOM     45  C   UNL A   1      36.427  34.851  32.557  1.00  0.00     0.010 A 
ATOM     46  C   UNL A   1      36.279  33.546  33.050  1.00  0.00    -0.014 A 
BRANCH  46  47
ATOM     47  C   UNL A   1      37.484  32.751  33.392  1.00  0.00     0.031 A 
ATOM     48  C   UNL A   1      38.232  33.029  34.666  1.00  0.00     0.074 A 
ATOM     49  C   UNL A   1      37.940  31.824  32.528  1.00  0.00     0.049 A 
ATOM     50  N   UNL A   1      39.350  32.502  35.100  1.00  0.00    -0.248 NA
ATOM     51  C   UNL A   1      37.662  34.048  35.560  1.00  0.00     0.031 C 
ATOM     52  C   UNL A   1      37.328  31.494  31.241  1.00  0.00     0.029 A 
ATOM     53  N   UNL A   1      39.035  31.001  32.597  1.00  0.00    -0.354 N 
ATOM     54  C   UNL A   1      39.622  33.135  36.306  1.00  0.00     0.074 A 
ATOM     55  C   UNL A   1      38.579  34.116  36.514  1.00  0.00     0.031 C 
ATOM     56  C   UNL A   1      38.050  30.531  30.646  1.00  0.00     0.029 A 
ATOM     57  C   UNL A   1      39.191  30.199  31.494  1.00  0.00     0.049 A 
ATOM     58  H   UNL A   1      39.651  30.987  33.365  1.00  0.00     0.167 HD
ATOM     59  C   UNL A   1      40.635  32.902  37.174  1.00  0.00     0.037 A 
ATOM     60  C   UNL A   1      40.151  29.303  31.195  1.00  0.00     0.037 A 
ATOM     61  C   UNL A   1      41.659  31.910  36.977  1.00  0.00     0.049 A 
ATOM     62  C   UNL A   1      41.261  29.059  32.178  1.00  0.00     0.074 A 
ATOM     63  C   UNL A   1      42.706  31.572  37.818  1.00  0.00     0.029 A 
ATOM     64  N   UNL A   1      41.762  31.093  35.864  1.00  0.00    -0.354 N 
ATOM     65  N   UNL A   1      41.478  29.630  33.337  1.00  0.00    -0.248 NA
ATOM     66  C   UNL A   1      42.256  28.040  31.813  1.00  0.00     0.031 C 
ATOM     67  C   UNL A   1      43.459  30.569  37.199  1.00  0.00     0.029 A 
ATOM     68  C   UNL A   1      42.859  30.257  35.990  1.00  0.00     0.049 A 
ATOM     69  H   UNL A   1      41.146  31.104  35.096  1.00  0.00     0.167 HD
ATOM     70  C   UNL A   1      42.617  29.025  33.852  1.00  0.00     0.074 A 
ATOM     71  C   UNL A   1      43.037  28.032  32.885  1.00  0.00     0.031 C 
ATOM     72  C   UNL A   1      43.258  29.269  35.020  1.00  0.00     0.037 A 
BRANCH  59  73
ATOM     73  C   UNL A   1      40.678  33.731  38.423  1.00  0.00     0.057 A 
ATOM     74  C   UNL A   1      41.489  34.870  38.519  1.00  0.00     0.134 A 
ATOM     75  C   UNL A   1      39.876  33.413  39.526  1.00  0.00     0.134 A 
ATOM     76  F   UNL A   1      42.290  35.222  37.502  1.00  0.00    -0.206 F 
ATOM     77  C   UNL A   1      41.518  35.649  39.676  1.00  0.00     0.040 A 
ATOM     78  C   UNL A   1      39.878  34.199  40.680  1.00  0.00     0.040 A 
ATOM     79  F   UNL A   1      39.072  32.340  39.497  1.00  0.00    -0.206 F 
ATOM     80  C   UNL A   1      40.704  35.318  40.759  1.00  0.00     0.006 A 
ENDBRANCH  59  73
BRANCH  60  81
ATOM     81  C   UNL A   1      40.096  28.557  29.913  1.00  0.00     0.057 A 
ATOM     82  C   UNL A   1      39.360  27.372  29.799  1.00  0.00     0.134 A 
ATOM     83  C   UNL A   1      40.783  29.004  28.779  1.00  0.00     0.134 A 
ATOM     84  F   UNL A   1      38.698  26.885  30.858  1.00  0.00    -0.206 F 
ATOM     85  C   UNL A   1      39.325  26.645  28.608  1.00  0.00     0.040 A 
ATOM     86  C   UNL A   1      40.737  28.300  27.574  1.00  0.00     0.040 A 
ATOM     87  F   UNL A   1      41.497  30.137  28.822  1.00  0.00    -0.206 F 
ATOM     88  C   UNL A   1      40.013  27.113  27.489  1.00  0.00     0.006 A 
ENDBRANCH  60  81
BRANCH  72  89
ATOM     89  C   UNL A   1      44.461  28.431  35.329  1.00  0.00     0.057 A 
ATOM     90  C   UNL A   1      45.752  28.826  34.954  1.00  0.00     0.134 A 
ATOM     91  C   UNL A   1      44.332  27.233  36.043  1.00  0.00     0.134 A 
ATOM     92  F   UNL A   1      45.940  29.957  34.257  1.00  0.00    -0.206 F 
ATOM     93  C   UNL A   1      46.869  28.048  35.261  1.00  0.00     0.040 A 
ATOM     94  C   UNL A   1      45.444  26.459  36.376  1.00  0.00     0.040 A 
ATOM     95  F   UNL A   1      43.124  26.803  36.437  1.00  0.00    -0.206 F 
ATOM     96  C   UNL A   1      46.717  26.864  35.980  1.00  0.00     0.006 A 
ENDBRANCH  72  89
ENDBRANCH  46  47
ENDBRANCH  38  41
ENDBRANCH  36  37
ENDBRANCH  35  36
ENDBRANCH  34  35
ENDBRANCH   1  34
TORSDOF 17
ENDMDL
MODEL 2
REMARK VINA RESULT:     -11.4      7.209     10.630
REMARK SMILES CS(=O)(=O)c1ccc(C2=NN(c3ccc(C(=O)NCCCCCCNC(=O)c4ccc(-c5c6nc(c(-c7c(F)cccc7F)c7ccc([nH]7)c(-c7c(F)cccc7F)c7nc(c(-c8c(F)cccc8F)c8ccc5[nH]8)C=C7)C=C6)cc4)cc3)[C@H](c3cccs3)C2)cc1
REMARK SMILES IDX 21 1 20 2 19 3 18 4 16 5 17 6 15 8 12 9 13 10 83 11 14 12
REMARK SMILES IDX 82 13 11 14 9 15 10 16 90 17 84 18 8 19 5 20 6 21 92 22 7 23
REMARK SMILES IDX 91 24 2 25 1 26 3 27 4 28 85 29 86 30 89 31 87 32 88 33
REMARK SMILES IDX 22 34 23 35 24 36 25 37 26 38 27 40 28 41 29 42 81 43 30 44
REMARK SMILES IDX 80 45 31 46 32 47 33 48 74 49 34 50 79 51 73 52 75 53 35 54
REMARK SMILES IDX 78 55 72 56 71 57 36 59 62 60 45 61 61 62 46 63 49 64 60 65
REMARK SMILES IDX 76 66 47 67 48 68 59 70 77 71 50 72 37 73 38 74 43 75 39 76
REMARK SMILES IDX 40 77 42 78 44 79 41 80 63 81 64 82 69 83 65 84 66 85 68 86
REMARK SMILES IDX 70 87 67 88 51 89 52 90 57 91 53 92 54 93 56 94 58 95 55 96
REMARK H PARENT 18 7 25 39 75 58 49 69
REMARK Flexibility Score: inf
ROOT
ATOM      1  C   UNL A   1      38.176  28.616  28.013  1.00  0.00     0.002 C 
ENDROOT
BRANCH   1   2
ATOM      2  C   UNL A   1      37.563  29.584  29.033  1.00  0.00     0.021 C 
BRANCH   2   3
ATOM      3  C   UNL A   1      36.069  29.358  29.272  1.00  0.00     0.116 C 
BRANCH   3   4
ATOM      4  N   UNL A   1      35.300  30.489  28.788  1.00  0.00    -0.352 N 
ATOM      5  C   UNL A   1      34.280  30.573  27.873  1.00  0.00     0.251 C 
ATOM      6  O   UNL A   1      33.751  31.669  27.692  1.00  0.00    -0.269 OA
ATOM      7  H   UNL A   1      35.555  31.351  29.188  1.00  0.00     0.163 HD
BRANCH   5   8
ATOM      8  C   UNL A   1      33.758  29.385  27.149  1.00  0.00     0.039 A 
ATOM      9  C   UNL A   1      32.846  27.191  25.631  1.00  0.00     0.060 A 
ATOM     10  C   UNL A   1      34.022  27.857  25.277  1.00  0.00     0.029 A 
ATOM     11  C   UNL A   1      32.166  27.598  26.783  1.00  0.00     0.029 A 
ATOM     12  C   UNL A   1      34.472  28.950  26.025  1.00  0.00     0.016 A 
ATOM     13  C   UNL A   1      32.632  28.666  27.553  1.00  0.00     0.016 A 
BRANCH   9  14
ATOM     14  N   UNL A   1      32.340  26.149  24.870  1.00  0.00    -0.257 N 
ATOM     15  C   UNL A   1      32.415  24.177  24.103  1.00  0.00     0.071 C 
ATOM     16  N   UNL A   1      32.675  24.873  25.164  1.00  0.00    -0.176 NA
ATOM     17  C   UNL A   1      31.960  24.951  22.895  1.00  0.00     0.091 C 
ATOM     18  C   UNL A   1      31.850  26.356  23.505  1.00  0.00     0.154 C 
BRANCH  15  19
ATOM     19  C   UNL A   1      32.530  22.715  24.083  1.00  0.00    -0.002 A 
ATOM     20  C   UNL A   1      32.697  19.948  23.957  1.00  0.00     0.067 A 
ATOM     21  C   UNL A   1      32.084  20.646  22.914  1.00  0.00     0.021 A 
ATOM     22  C   UNL A   1      33.224  20.627  25.064  1.00  0.00     0.021 A 
ATOM     23  C   UNL A   1      31.987  22.034  22.988  1.00  0.00     0.011 A 
ATOM     24  C   UNL A   1      33.152  22.021  25.122  1.00  0.00     0.011 A 
BRANCH  20  25
ATOM     25  S   UNL A   1      32.821  18.175  23.884  1.00  0.00     0.175 S 
ATOM     26  C   UNL A   1      34.509  17.798  24.279  1.00  0.00     0.163 C 
ATOM     27  O   UNL A   1      32.607  17.786  22.505  1.00  0.00    -0.224 OA
ATOM     28  O   UNL A   1      31.978  17.663  24.950  1.00  0.00    -0.224 OA
ENDBRANCH  20  25
ENDBRANCH  15  19
BRANCH  18  29
ATOM     29  C   UNL A   1      30.484  27.016  23.436  1.00  0.00     0.030 A 
ATOM     30  C   UNL A   1      29.292  26.479  23.898  1.00  0.00     0.017 A 
ATOM     31  S   UNL A   1      30.207  28.512  22.644  1.00  0.00    -0.147 S 
ATOM     32  C   UNL A   1      28.167  27.304  23.618  1.00  0.00     0.012 A 
ATOM     33  C   UNL A   1      28.529  28.455  22.959  1.00  0.00     0.065 A 
ENDBRANCH  18  29
ENDBRANCH   9  14
ENDBRANCH   5   8
ENDBRANCH   3   4
ENDBRANCH   2   3
ENDBRANCH   1   2
BRANCH   1  34
ATOM     34  C   UNL A   1      39.533  28.027  28.415  1.00  0.00     0.002 C 
BRANCH  34  35
ATOM     35  C   UNL A   1      39.606  26.498  28.417  1.00  0.00     0.021 C 
BRANCH  35  36
ATOM     36  C   UNL A   1      39.647  25.860  27.031  1.00  0.00     0.116 C 
BRANCH  36  37
ATOM     37  N   UNL A   1      40.173  24.504  27.072  1.00  0.00    -0.352 N 
ATOM     38  C   UNL A   1      41.461  24.067  26.899  1.00  0.00     0.251 C 
ATOM     39  H   UNL A   1      39.508  23.801  27.251  1.00  0.00     0.163 HD
ATOM     40  O   UNL A   1      41.693  22.869  26.764  1.00  0.00    -0.269 OA
BRANCH  38  41
ATOM     41  C   UNL A   1      42.575  25.039  26.861  1.00  0.00     0.039 A 
ATOM     42  C   UNL A   1      42.972  25.562  25.629  1.00  0.00     0.014 A 
ATOM     43  C   UNL A   1      43.242  25.410  28.032  1.00  0.00     0.014 A 
ATOM     44  C   UNL A   1      44.004  26.501  25.574  1.00  0.00     0.010 A 
ATOM     45  C   UNL A   1      44.231  26.390  27.983  1.00  0.00     0.010 A 
ATOM     46  C   UNL A   1      44.624  26.942  26.755  1.00  0.00    -0.014 A 
BRANCH  46  47
ATOM     47  C   UNL A   1      45.690  27.973  26.723  1.00  0.00     0.031 A 
ATOM     48  C   UNL A   1      45.331  29.431  26.801  1.00  0.00     0.074 A 
ATOM     49  C   UNL A   1      46.974  27.601  26.562  1.00  0.00     0.049 A 
ATOM     50  N   UNL A   1      46.109  30.480  26.704  1.00  0.00    -0.248 NA
ATOM     51  C   UNL A   1      43.908  29.752  26.988  1.00  0.00     0.031 C 
ATOM     52  C   UNL A   1      47.445  26.221  26.430  1.00  0.00     0.029 A 
ATOM     53  N   UNL A   1      48.117  28.353  26.465  1.00  0.00    -0.354 N 
ATOM     54  C   UNL A   1      45.269  31.582  26.806  1.00  0.00     0.074 A 
ATOM     55  C   UNL A   1      43.919  31.076  26.923  1.00  0.00     0.031 C 
ATOM     56  C   UNL A   1      48.780  26.226  26.280  1.00  0.00     0.029 A 
ATOM     57  C   UNL A   1      49.253  27.606  26.273  1.00  0.00     0.049 A 
ATOM     58  H   UNL A   1      48.122  29.336  26.526  1.00  0.00     0.167 HD
ATOM     59  C   UNL A   1      45.596  32.896  26.823  1.00  0.00     0.037 A 
ATOM     60  C   UNL A   1      50.533  27.992  26.102  1.00  0.00     0.037 A 
ATOM     61  C   UNL A   1      46.941  33.398  26.728  1.00  0.00     0.049 A 
ATOM     62  C   UNL A   1      50.870  29.456  26.132  1.00  0.00     0.074 A 
ATOM     63  C   UNL A   1      47.379  34.711  26.776  1.00  0.00     0.029 A 
ATOM     64  N   UNL A   1      48.068  32.608  26.571  1.00  0.00    -0.354 N 
ATOM     65  N   UNL A   1      50.071  30.485  26.278  1.00  0.00    -0.248 NA
ATOM     66  C   UNL A   1      52.288  29.812  25.981  1.00  0.00     0.031 C 
ATOM     67  C   UNL A   1      48.769  34.716  26.619  1.00  0.00     0.029 A 
ATOM     68  C   UNL A   1      49.199  33.405  26.511  1.00  0.00     0.049 A 
ATOM     69  H   UNL A   1      48.066  31.625  26.511  1.00  0.00     0.167 HD
ATOM     70  C   UNL A   1      50.889  31.607  26.261  1.00  0.00     0.074 A 
ATOM     71  C   UNL A   1      52.248  31.132  26.105  1.00  0.00     0.031 C 
ATOM     72  C   UNL A   1      50.546  32.914  26.363  1.00  0.00     0.037 A 
BRANCH  59  73
ATOM     73  C   UNL A   1      44.476  33.884  26.960  1.00  0.00     0.057 A 
ATOM     74  C   UNL A   1      43.825  34.414  25.838  1.00  0.00     0.134 A 
ATOM     75  C   UNL A   1      44.018  34.282  28.222  1.00  0.00     0.134 A 
ATOM     76  F   UNL A   1      44.224  34.083  24.601  1.00  0.00    -0.206 F 
ATOM     77  C   UNL A   1      42.773  35.323  25.966  1.00  0.00     0.040 A 
ATOM     78  C   UNL A   1      42.951  35.171  28.363  1.00  0.00     0.040 A 
ATOM     79  F   UNL A   1      44.593  33.807  29.337  1.00  0.00    -0.206 F 
ATOM     80  C   UNL A   1      42.328  35.698  27.233  1.00  0.00     0.006 A 
ENDBRANCH  59  73
BRANCH  60  81
ATOM     81  C   UNL A   1      51.594  26.974  25.904  1.00  0.00     0.057 A 
ATOM     82  C   UNL A   1      51.917  26.509  24.624  1.00  0.00     0.134 A 
ATOM     83  C   UNL A   1      52.301  26.437  26.986  1.00  0.00     0.134 A 
ATOM     84  F   UNL A   1      51.260  26.973  23.552  1.00  0.00    -0.206 F 
ATOM     85  C   UNL A   1      52.892  25.530  24.427  1.00  0.00     0.040 A 
ATOM     86  C   UNL A   1      53.296  25.475  26.801  1.00  0.00     0.040 A 
ATOM     87  F   UNL A   1      52.044  26.849  28.235  1.00  0.00    -0.206 F 
ATOM     88  C   UNL A   1      53.588  25.013  25.520  1.00  0.00     0.006 A 
ENDBRANCH  60  81
BRANCH  72  89
ATOM     89  C   UNL A   1      51.659  33.917  26.342  1.00  0.00     0.057 A 
ATOM     90  C   UNL A   1      52.148  34.450  25.142  1.00  0.00     0.134 A 
ATOM     91  C   UNL A   1      52.222  34.384  27.535  1.00  0.00     0.134 A 
ATOM     92  F   UNL A   1      51.658  34.033  23.964  1.00  0.00    -0.206 F 
ATOM     93  C   UNL A   1      53.172  35.398  25.130  1.00  0.00     0.040 A 
ATOM     94  C   UNL A   1      53.230  35.348  27.538  1.00  0.00     0.040 A 
ATOM     95  F   UNL A   1      51.793  33.918  28.718  1.00  0.00    -0.206 F 
ATOM     96  C   UNL A   1      53.712  35.854  26.332  1.00  0.00     0.006 A 
ENDBRANCH  72  89
ENDBRANCH  46  47
ENDBRANCH  38  41
ENDBRANCH  36  37
ENDBRANCH  35  36
ENDBRANCH  34  35
ENDBRANCH   1  34
TORSDOF 17
ENDMDL
MODEL 3
REMARK VINA RESULT:     -11.3      4.665      7.255
REMARK SMILES CS(=O)(=O)c1ccc(C2=NN(c3ccc(C(=O)NCCCCCCNC(=O)c4ccc(-c5c6nc(c(-c7c(F)cccc7F)c7ccc([nH]7)c(-c7c(F)cccc7F)c7nc(c(-c8c(F)cccc8F)c8ccc5[nH]8)C=C7)C=C6)cc4)cc3)[C@H](c3cccs3)C2)cc1
REMARK SMILES IDX 21 1 20 2 19 3 18 4 16 5 17 6 15 8 12 9 13 10 83 11 14 12
REMARK SMILES IDX 82 13 11 14 9 15 10 16 90 17 84 18 8 19 5 20 6 21 92 22 7 23
REMARK SMILES IDX 91 24 2 25 1 26 3 27 4 28 85 29 86 30 89 31 87 32 88 33
REMARK SMILES IDX 22 34 23 35 24 36 25 37 26 38 27 40 28 41 29 42 81 43 30 44
REMARK SMILES IDX 80 45 31 46 32 47 33 48 74 49 34 50 79 51 73 52 75 53 35 54
REMARK SMILES IDX 78 55 72 56 71 57 36 59 62 60 45 61 61 62 46 63 49 64 60 65
REMARK SMILES IDX 76 66 47 67 48 68 59 70 77 71 50 72 37 73 38 74 43 75 39 76
REMARK SMILES IDX 40 77 42 78 44 79 41 80 63 81 64 82 69 83 65 84 66 85 68 86
REMARK SMILES IDX 70 87 67 88 51 89 52 90 57 91 53 92 54 93 56 94 58 95 55 96
REMARK H PARENT 18 7 25 39 75 58 49 69
REMARK Flexibility Score: inf
ROOT
ATOM      1  C   UNL A   1      33.898  34.100  28.124  1.00  0.00     0.002 C 
ENDROOT
BRANCH   1   2
ATOM      2  C   UNL A   1      32.598  33.448  27.637  1.00  0.00     0.021 C 
BRANCH   2   3
ATOM      3  C   UNL A   1      32.757  31.975  27.252  1.00  0.00     0.116 C 
BRANCH   3   4
ATOM      4  N   UNL A   1      33.942  31.413  27.873  1.00  0.00    -0.352 N 
ATOM      5  C   UNL A   1      34.523  30.174  27.771  1.00  0.00     0.251 C 
ATOM      6  O   UNL A   1      35.581  29.978  28.368  1.00  0.00    -0.269 OA
ATOM      7  H   UNL A   1      34.414  32.032  28.474  1.00  0.00     0.163 HD
BRANCH   5   8
ATOM      8  C   UNL A   1      33.955  29.094  26.924  1.00  0.00     0.039 A 
ATOM      9  C   UNL A   1      32.823  26.965  25.461  1.00  0.00     0.060 A 
ATOM     10  C   UNL A   1      32.306  27.320  26.710  1.00  0.00     0.029 A 
ATOM     11  C   UNL A   1      33.871  27.722  24.930  1.00  0.00     0.029 A 
ATOM     12  C   UNL A   1      32.871  28.371  27.440  1.00  0.00     0.016 A 
ATOM     13  C   UNL A   1      34.415  28.796  25.640  1.00  0.00     0.016 A 
BRANCH   9  14
ATOM     14  N   UNL A   1      32.328  25.887  24.747  1.00  0.00    -0.257 N 
ATOM     15  C   UNL A   1      32.472  23.921  23.974  1.00  0.00     0.071 C 
ATOM     16  N   UNL A   1      32.776  24.639  25.009  1.00  0.00    -0.176 NA
ATOM     17  C   UNL A   1      31.861  24.654  22.812  1.00  0.00     0.091 C 
ATOM     18  C   UNL A   1      31.706  26.051  23.430  1.00  0.00     0.154 C 
BRANCH  15  19
ATOM     19  C   UNL A   1      32.688  22.470  23.944  1.00  0.00    -0.002 A 
ATOM     20  C   UNL A   1      33.164  19.736  23.963  1.00  0.00     0.067 A 
ATOM     21  C   UNL A   1      33.826  20.554  24.881  1.00  0.00     0.021 A 
ATOM     22  C   UNL A   1      32.268  20.279  23.032  1.00  0.00     0.021 A 
ATOM     23  C   UNL A   1      33.598  21.928  24.858  1.00  0.00     0.011 A 
ATOM     24  C   UNL A   1      32.017  21.654  23.031  1.00  0.00     0.011 A 
BRANCH  20  25
ATOM     25  S   UNL A   1      33.451  17.981  23.970  1.00  0.00     0.175 S 
ATOM     26  C   UNL A   1      32.485  17.345  25.315  1.00  0.00     0.163 C 
ATOM     27  O   UNL A   1      34.845  17.774  24.310  1.00  0.00    -0.224 OA
ATOM     28  O   UNL A   1      32.896  17.471  22.729  1.00  0.00    -0.224 OA
ENDBRANCH  20  25
ENDBRANCH  15  19
BRANCH  18  29
ATOM     29  C   UNL A   1      30.296  26.613  23.482  1.00  0.00     0.030 A 
ATOM     30  C   UNL A   1      29.182  25.980  24.010  1.00  0.00     0.017 A 
ATOM     31  S   UNL A   1      29.858  28.108  22.763  1.00  0.00    -0.147 S 
ATOM     32  C   UNL A   1      27.985  26.730  23.840  1.00  0.00     0.012 A 
ATOM     33  C   UNL A   1      28.216  27.923  23.195  1.00  0.00     0.065 A 
ENDBRANCH  18  29
ENDBRANCH   9  14
ENDBRANCH   5   8
ENDBRANCH   3   4
ENDBRANCH   2   3
ENDBRANCH   1   2
BRANCH   1  34
ATOM     34  C   UNL A   1      33.908  34.498  29.604  1.00  0.00     0.002 C 
BRANCH  34  35
ATOM     35  C   UNL A   1      35.134  34.035  30.396  1.00  0.00     0.021 C 
BRANCH  35  36
ATOM     36  C   UNL A   1      34.965  32.693  31.103  1.00  0.00     0.116 C 
BRANCH  36  37
ATOM     37  N   UNL A   1      35.327  32.771  32.510  1.00  0.00    -0.352 N 
ATOM     38  C   UNL A   1      36.414  32.242  33.158  1.00  0.00     0.251 C 
ATOM     39  H   UNL A   1      34.702  33.276  33.078  1.00  0.00     0.163 HD
ATOM     40  O   UNL A   1      36.457  32.231  34.384  1.00  0.00    -0.269 OA
BRANCH  38  41
ATOM     41  C   UNL A   1      37.534  31.670  32.379  1.00  0.00     0.039 A 
ATOM     42  C   UNL A   1      37.561  31.861  30.996  1.00  0.00     0.014 A 
ATOM     43  C   UNL A   1      38.536  30.924  33.007  1.00  0.00     0.014 A 
ATOM     44  C   UNL A   1      38.623  31.351  30.246  1.00  0.00     0.010 A 
ATOM     45  C   UNL A   1      39.624  30.467  32.267  1.00  0.00     0.010 A 
ATOM     46  C   UNL A   1      39.677  30.672  30.881  1.00  0.00    -0.014 A 
BRANCH  46  47
ATOM     47  C   UNL A   1      40.837  30.164  30.109  1.00  0.00     0.031 A 
ATOM     48  C   UNL A   1      41.985  31.079  29.783  1.00  0.00     0.074 A 
ATOM     49  C   UNL A   1      40.829  28.898  29.648  1.00  0.00     0.049 A 
ATOM     50  N   UNL A   1      43.045  30.846  29.050  1.00  0.00    -0.248 NA
ATOM     51  C   UNL A   1      41.921  32.441  30.333  1.00  0.00     0.031 C 
ATOM     52  C   UNL A   1      39.755  27.928  29.860  1.00  0.00     0.029 A 
ATOM     53  N   UNL A   1      41.749  28.217  28.892  1.00  0.00    -0.354 N 
ATOM     54  C   UNL A   1      43.765  32.034  29.042  1.00  0.00     0.074 A 
ATOM     55  C   UNL A   1      43.000  32.998  29.801  1.00  0.00     0.031 C 
ATOM     56  C   UNL A   1      40.082  26.773  29.256  1.00  0.00     0.029 A 
ATOM     57  C   UNL A   1      41.371  26.932  28.591  1.00  0.00     0.049 A 
ATOM     58  H   UNL A   1      42.600  28.613  28.593  1.00  0.00     0.167 HD
ATOM     59  C   UNL A   1      44.967  32.291  28.473  1.00  0.00     0.037 A 
ATOM     60  C   UNL A   1      41.990  25.990  27.854  1.00  0.00     0.037 A 
ATOM     61  C   UNL A   1      45.738  31.324  27.736  1.00  0.00     0.049 A 
ATOM     62  C   UNL A   1      43.326  26.298  27.239  1.00  0.00     0.074 A 
ATOM     63  C   UNL A   1      46.986  31.477  27.155  1.00  0.00     0.029 A 
ATOM     64  N   UNL A   1      45.337  30.022  27.484  1.00  0.00    -0.354 N 
ATOM     65  N   UNL A   1      44.018  27.411  27.280  1.00  0.00    -0.248 NA
ATOM     66  C   UNL A   1      43.971  25.217  26.479  1.00  0.00     0.031 C 
ATOM     67  C   UNL A   1      47.326  30.275  26.526  1.00  0.00     0.029 A 
ATOM     68  C   UNL A   1      46.308  29.363  26.748  1.00  0.00     0.049 A 
ATOM     69  H   UNL A   1      44.488  29.624  27.783  1.00  0.00     0.167 HD
ATOM     70  C   UNL A   1      45.187  27.157  26.576  1.00  0.00     0.074 A 
ATOM     71  C   UNL A   1      45.119  25.782  26.130  1.00  0.00     0.031 C 
ATOM     72  C   UNL A   1      46.226  27.990  26.320  1.00  0.00     0.037 A 
BRANCH  59  73
ATOM     73  C   UNL A   1      45.525  33.673  28.635  1.00  0.00     0.057 A 
ATOM     74  C   UNL A   1      45.247  34.689  27.712  1.00  0.00     0.134 A 
ATOM     75  C   UNL A   1      46.318  34.003  29.740  1.00  0.00     0.134 A 
ATOM     76  F   UNL A   1      44.503  34.434  26.624  1.00  0.00    -0.206 F 
ATOM     77  C   UNL A   1      45.755  35.979  27.870  1.00  0.00     0.040 A 
ATOM     78  C   UNL A   1      46.813  35.297  29.924  1.00  0.00     0.040 A 
ATOM     79  F   UNL A   1      46.618  33.079  30.665  1.00  0.00    -0.206 F 
ATOM     80  C   UNL A   1      46.535  36.288  28.984  1.00  0.00     0.006 A 
ENDBRANCH  59  73
BRANCH  60  81
ATOM     81  C   UNL A   1      41.361  24.659  27.670  1.00  0.00     0.057 A 
ATOM     82  C   UNL A   1      41.793  23.549  28.404  1.00  0.00     0.134 A 
ATOM     83  C   UNL A   1      40.321  24.464  26.753  1.00  0.00     0.134 A 
ATOM     84  F   UNL A   1      42.798  23.671  29.283  1.00  0.00    -0.206 F 
ATOM     85  C   UNL A   1      41.229  22.286  28.218  1.00  0.00     0.040 A 
ATOM     86  C   UNL A   1      39.732  23.211  26.575  1.00  0.00     0.040 A 
ATOM     87  F   UNL A   1      39.856  25.491  26.027  1.00  0.00    -0.206 F 
ATOM     88  C   UNL A   1      40.191  22.116  27.303  1.00  0.00     0.006 A 
ENDBRANCH  60  81
BRANCH  72  89
ATOM     89  C   UNL A   1      47.381  27.427  25.550  1.00  0.00     0.057 A 
ATOM     90  C   UNL A   1      48.400  26.698  26.177  1.00  0.00     0.134 A 
ATOM     91  C   UNL A   1      47.456  27.582  24.161  1.00  0.00     0.134 A 
ATOM     92  F   UNL A   1      48.392  26.526  27.508  1.00  0.00    -0.206 F 
ATOM     93  C   UNL A   1      49.464  26.161  25.451  1.00  0.00     0.040 A 
ATOM     94  C   UNL A   1      48.503  27.031  23.421  1.00  0.00     0.040 A 
ATOM     95  F   UNL A   1      46.509  28.264  23.499  1.00  0.00    -0.206 F 
ATOM     96  C   UNL A   1      49.514  26.322  24.067  1.00  0.00     0.006 A 
ENDBRANCH  72  89
ENDBRANCH  46  47
ENDBRANCH  38  41
ENDBRANCH  36  37
ENDBRANCH  35  36
ENDBRANCH  34  35
ENDBRANCH   1  34
TORSDOF 17
ENDMDL
