MODEL 1
REMARK VINA RESULT:     -11.6      0.000      0.000
REMARK SMILES Cc1ccc(OCCC(=O)N2C[C@H](O)C[C@@H]2C(=O)NCCCCCCNC(=O)c2ccc(-c3c4nc(c(-c5c(F)cccc5F)c5ccc([nH]5)c(-c5c(F)cccc5F)c5nc(c(-c6c(F)cccc6F)c6ccc3[nH]6)C=C5)C=C4)cc2)cc1
REMARK SMILES IDX 21 1 20 2 19 3 17 4 18 5 16 7 11 8 12 9 13 10 15 11 9 12
REMARK SMILES IDX 10 13 8 14 7 15 6 16 5 17 1 18 2 19 3 20 84 21 4 22 83 23
REMARK SMILES IDX 14 24 22 26 23 27 24 28 25 29 26 30 27 31 28 33 29 34 30 35
REMARK SMILES IDX 82 36 31 37 81 38 32 39 33 40 34 41 75 42 35 43 80 44 74 45
REMARK SMILES IDX 76 46 36 47 79 48 73 49 72 50 37 52 63 53 46 54 62 55 47 56
REMARK SMILES IDX 50 57 61 58 77 59 48 60 49 61 60 63 78 64 51 65 38 66 39 67
REMARK SMILES IDX 44 68 40 69 41 70 43 71 45 72 42 73 64 74 65 75 70 76 66 77
REMARK SMILES IDX 67 78 69 79 71 80 68 81 52 82 53 83 58 84 54 85 55 86 57 87
REMARK SMILES IDX 59 88 56 89
REMARK H PARENT 19 6 14 25 26 32 76 51 50 62
REMARK Flexibility Score: inf
ROOT
ATOM      1  C   UNL A   1      32.418  27.122  25.912  1.00  0.00     0.021 C 
ENDROOT
BRANCH   1   2
ATOM      2  C   UNL A   1      33.158  25.789  26.047  1.00  0.00     0.116 C 
BRANCH   2   3
ATOM      3  N   UNL A   1      32.291  24.639  26.210  1.00  0.00    -0.354 N 
ATOM      4  C   UNL A   1      32.593  23.472  26.871  1.00  0.00     0.242 C 
ATOM      5  O   UNL A   1      31.667  22.941  27.494  1.00  0.00    -0.273 OA
ATOM      6  H   UNL A   1      31.396  24.700  25.809  1.00  0.00     0.163 HD
BRANCH   4   7
ATOM      7  C   UNL A   1      33.913  22.688  26.608  1.00  0.00     0.177 C 
ATOM      8  N   UNL A   1      34.342  22.535  25.221  1.00  0.00    -0.328 N 
ATOM      9  C   UNL A   1      33.849  21.281  24.663  1.00  0.00     0.152 C 
ATOM     10  C   UNL A   1      33.203  20.526  25.825  1.00  0.00     0.136 C 
ATOM     11  C   UNL A   1      33.705  21.242  27.076  1.00  0.00     0.069 C 
BRANCH   8  12
ATOM     12  C   UNL A   1      35.241  23.400  24.627  1.00  0.00     0.226 C 
ATOM     13  O   UNL A   1      36.068  24.035  25.281  1.00  0.00    -0.275 OA
BRANCH  12  14
ATOM     14  C   UNL A   1      35.073  23.670  23.137  1.00  0.00     0.141 C 
BRANCH  14  15
ATOM     15  C   UNL A   1      33.793  24.396  22.737  1.00  0.00     0.239 C 
BRANCH  15  16
ATOM     16  O   UNL A   1      34.028  25.648  22.078  1.00  0.00    -0.493 OA
BRANCH  16  17
ATOM     17  C   UNL A   1      33.048  26.595  22.188  1.00  0.00     0.119 A 
ATOM     18  C   UNL A   1      30.278  29.627  23.439  1.00  0.00     0.044 C 
ATOM     19  C   UNL A   1      31.232  28.602  22.906  1.00  0.00    -0.051 A 
ATOM     20  C   UNL A   1      32.589  28.905  22.751  1.00  0.00     0.007 A 
ATOM     21  C   UNL A   1      30.780  27.322  22.573  1.00  0.00     0.007 A 
ATOM     22  C   UNL A   1      33.492  27.906  22.376  1.00  0.00     0.046 A 
ATOM     23  C   UNL A   1      31.682  26.327  22.204  1.00  0.00     0.046 A 
ENDBRANCH  16  17
ENDBRANCH  15  16
ENDBRANCH  14  15
ENDBRANCH  12  14
ENDBRANCH   8  12
BRANCH  10  24
ATOM     24  O   UNL A   1      31.781  20.572  25.746  1.00  0.00    -0.391 OA
ATOM     25  H   UNL A   1      31.517  20.884  24.866  1.00  0.00     0.211 HD
ENDBRANCH  10  24
ENDBRANCH   4   7
ENDBRANCH   2   3
ENDBRANCH   1   2
BRANCH   1  26
ATOM     26  C   UNL A   1      32.538  28.062  27.118  1.00  0.00     0.002 C 
BRANCH  26  27
ATOM     27  C   UNL A   1      31.675  29.335  27.086  1.00  0.00     0.002 C 
BRANCH  27  28
ATOM     28  C   UNL A   1      32.436  30.662  27.012  1.00  0.00     0.021 C 
BRANCH  28  29
ATOM     29  C   UNL A   1      33.930  30.524  27.249  1.00  0.00     0.116 C 
BRANCH  29  30
ATOM     30  N   UNL A   1      34.444  31.442  28.256  1.00  0.00    -0.352 N 
ATOM     31  C   UNL A   1      35.568  31.313  29.058  1.00  0.00     0.251 C 
ATOM     32  H   UNL A   1      33.923  32.268  28.386  1.00  0.00     0.163 HD
ATOM     33  O   UNL A   1      35.879  32.179  29.847  1.00  0.00    -0.269 OA
BRANCH  31  34
ATOM     34  C   UNL A   1      36.452  30.147  28.828  1.00  0.00     0.039 A 
ATOM     35  C   UNL A   1      36.736  29.328  29.925  1.00  0.00     0.014 A 
ATOM     36  C   UNL A   1      37.173  30.030  27.641  1.00  0.00     0.014 A 
ATOM     37  C   UNL A   1      37.905  28.578  29.920  1.00  0.00     0.010 A 
ATOM     38  C   UNL A   1      38.375  29.351  27.665  1.00  0.00     0.010 A 
ATOM     39  C   UNL A   1      38.773  28.693  28.833  1.00  0.00    -0.014 A 
BRANCH  39  40
ATOM     40  C   UNL A   1      40.157  28.244  28.891  1.00  0.00     0.031 A 
ATOM     41  C   UNL A   1      40.506  26.873  28.484  1.00  0.00     0.074 A 
ATOM     42  C   UNL A   1      41.116  29.098  29.311  1.00  0.00     0.049 A 
ATOM     43  N   UNL A   1      41.541  26.227  28.901  1.00  0.00    -0.248 NA
ATOM     44  C   UNL A   1      39.651  26.089  27.606  1.00  0.00     0.031 C 
ATOM     45  C   UNL A   1      42.563  28.911  29.251  1.00  0.00     0.029 A 
ATOM     46  N   UNL A   1      40.941  30.232  30.117  1.00  0.00    -0.354 N 
ATOM     47  C   UNL A   1      41.647  25.073  28.154  1.00  0.00     0.074 A 
ATOM     48  C   UNL A   1      40.397  24.994  27.435  1.00  0.00     0.031 C 
ATOM     49  C   UNL A   1      43.134  29.677  30.193  1.00  0.00     0.029 A 
ATOM     50  C   UNL A   1      42.061  30.267  30.976  1.00  0.00     0.049 A 
ATOM     51  H   UNL A   1      40.194  30.872  30.088  1.00  0.00     0.167 HD
ATOM     52  C   UNL A   1      42.841  24.411  28.133  1.00  0.00     0.037 A 
ATOM     53  C   UNL A   1      41.923  30.154  32.327  1.00  0.00     0.037 A 
ATOM     54  C   UNL A   1      43.773  24.984  29.109  1.00  0.00     0.049 A 
ATOM     55  C   UNL A   1      42.683  28.992  32.924  1.00  0.00     0.074 A 
ATOM     56  C   UNL A   1      44.832  25.871  28.993  1.00  0.00     0.029 A 
ATOM     57  N   UNL A   1      43.487  24.894  30.468  1.00  0.00    -0.354 N 
ATOM     58  N   UNL A   1      43.092  27.960  32.241  1.00  0.00    -0.248 NA
ATOM     59  C   UNL A   1      43.014  28.892  34.343  1.00  0.00     0.031 C 
ATOM     60  C   UNL A   1      45.143  26.360  30.286  1.00  0.00     0.029 A 
ATOM     61  C   UNL A   1      44.289  25.754  31.192  1.00  0.00     0.049 A 
ATOM     62  H   UNL A   1      42.806  24.300  30.859  1.00  0.00     0.167 HD
ATOM     63  C   UNL A   1      43.695  27.061  33.087  1.00  0.00     0.074 A 
ATOM     64  C   UNL A   1      43.645  27.705  34.386  1.00  0.00     0.031 C 
ATOM     65  C   UNL A   1      44.166  25.858  32.641  1.00  0.00     0.037 A 
BRANCH  52  66
ATOM     66  C   UNL A   1      43.274  23.470  27.017  1.00  0.00     0.057 A 
ATOM     67  C   UNL A   1      42.775  22.150  26.956  1.00  0.00     0.134 A 
ATOM     68  C   UNL A   1      44.236  23.752  26.031  1.00  0.00     0.134 A 
ATOM     69  F   UNL A   1      41.763  21.741  27.731  1.00  0.00    -0.206 F 
ATOM     70  C   UNL A   1      43.287  21.172  26.089  1.00  0.00     0.040 A 
ATOM     71  C   UNL A   1      44.791  22.774  25.190  1.00  0.00     0.040 A 
ATOM     72  F   UNL A   1      44.644  24.996  25.776  1.00  0.00    -0.206 F 
ATOM     73  C   UNL A   1      44.330  21.470  25.230  1.00  0.00     0.006 A 
ENDBRANCH  52  66
BRANCH  53  74
ATOM     74  C   UNL A   1      40.630  30.676  32.842  1.00  0.00     0.057 A 
ATOM     75  C   UNL A   1      39.595  29.765  33.122  1.00  0.00     0.134 A 
ATOM     76  C   UNL A   1      40.514  31.957  33.387  1.00  0.00     0.134 A 
ATOM     77  F   UNL A   1      39.644  28.516  32.631  1.00  0.00    -0.206 F 
ATOM     78  C   UNL A   1      38.550  30.078  33.995  1.00  0.00     0.040 A 
ATOM     79  C   UNL A   1      39.463  32.286  34.252  1.00  0.00     0.040 A 
ATOM     80  F   UNL A   1      41.469  32.876  33.184  1.00  0.00    -0.206 F 
ATOM     81  C   UNL A   1      38.500  31.335  34.589  1.00  0.00     0.006 A 
ENDBRANCH  53  74
BRANCH  65  82
ATOM     82  C   UNL A   1      44.637  24.704  33.499  1.00  0.00     0.057 A 
ATOM     83  C   UNL A   1      45.974  24.297  33.625  1.00  0.00     0.134 A 
ATOM     84  C   UNL A   1      43.733  24.035  34.358  1.00  0.00     0.134 A 
ATOM     85  F   UNL A   1      46.964  24.917  32.970  1.00  0.00    -0.206 F 
ATOM     86  C   UNL A   1      46.372  23.265  34.487  1.00  0.00     0.040 A 
ATOM     87  C   UNL A   1      44.127  23.045  35.263  1.00  0.00     0.040 A 
ATOM     88  F   UNL A   1      42.425  24.333  34.377  1.00  0.00    -0.206 F 
ATOM     89  C   UNL A   1      45.450  22.643  35.319  1.00  0.00     0.006 A 
ENDBRANCH  65  82
ENDBRANCH  39  40
ENDBRANCH  31  34
ENDBRANCH  29  30
ENDBRANCH  28  29
ENDBRANCH  27  28
ENDBRANCH  26  27
ENDBRANCH   1  26
TORSDOF 19
ENDMDL
MODEL 2
REMARK VINA RESULT:     -11.3      1.258      3.939
REMARK SMILES Cc1ccc(OCCC(=O)N2C[C@H](O)C[C@@H]2C(=O)NCCCCCCNC(=O)c2ccc(-c3c4nc(c(-c5c(F)cccc5F)c5ccc([nH]5)c(-c5c(F)cccc5F)c5nc(c(-c6c(F)cccc6F)c6ccc3[nH]6)C=C5)C=C4)cc2)cc1
REMARK SMILES IDX 21 1 20 2 19 3 17 4 18 5 16 7 11 8 12 9 13 10 15 11 9 12
REMARK SMILES IDX 10 13 8 14 7 15 6 16 5 17 1 18 2 19 3 20 84 21 4 22 83 23
REMARK SMILES IDX 14 24 22 26 23 27 24 28 25 29 26 30 27 31 28 33 29 34 30 35
REMARK SMILES IDX 82 36 31 37 81 38 32 39 33 40 34 41 75 42 35 43 80 44 74 45
REMARK SMILES IDX 76 46 36 47 79 48 73 49 72 50 37 52 63 53 46 54 62 55 47 56
REMARK SMILES IDX 50 57 61 58 77 59 48 60 49 61 60 63 78 64 51 65 38 66 39 67
REMARK SMILES IDX 44 68 40 69 41 70 43 71 45 72 42 73 64 74 65 75 70 76 66 77
REMARK SMILES IDX 67 78 69 79 71 80 68 81 52 82 53 83 58 84 54 85 55 86 57 87
REMARK SMILES IDX 59 88 56 89
REMARK H PARENT 19 6 14 25 26 32 76 51 50 62
REMARK Flexibility Score: inf
ROOT
ATOM      1  C   UNL A   1      32.480  27.192  25.324  1.00  0.00     0.021 C 
ENDROOT
BRANCH   1   2
ATOM      2  C   UNL A   1      33.211  25.899  25.691  1.00  0.00     0.116 C 
BRANCH   2   3
ATOM      3  N   UNL A   1      32.337  24.788  26.011  1.00  0.00    -0.354 N 
ATOM      4  C   UNL A   1      32.707  23.587  26.566  1.00  0.00     0.242 C 
ATOM      5  O   UNL A   1      31.905  23.082  27.360  1.00  0.00    -0.273 OA
ATOM      6  H   UNL A   1      31.381  24.907  25.810  1.00  0.00     0.163 HD
BRANCH   4   7
ATOM      7  C   UNL A   1      33.895  22.748  26.011  1.00  0.00     0.177 C 
ATOM      8  N   UNL A   1      33.970  22.556  24.566  1.00  0.00    -0.328 N 
ATOM      9  C   UNL A   1      33.313  21.313  24.176  1.00  0.00     0.152 C 
ATOM     10  C   UNL A   1      32.943  20.603  25.478  1.00  0.00     0.136 C 
ATOM     11  C   UNL A   1      33.759  21.319  26.552  1.00  0.00     0.069 C 
BRANCH   8  12
ATOM     12  C   UNL A   1      34.726  23.375  23.750  1.00  0.00     0.226 C 
ATOM     13  O   UNL A   1      34.274  23.864  22.714  1.00  0.00    -0.275 OA
BRANCH  12  14
ATOM     14  C   UNL A   1      36.203  23.531  24.090  1.00  0.00     0.141 C 
BRANCH  14  15
ATOM     15  C   UNL A   1      36.992  22.233  24.221  1.00  0.00     0.239 C 
BRANCH  15  16
ATOM     16  O   UNL A   1      37.284  21.876  25.579  1.00  0.00    -0.493 OA
BRANCH  16  17
ATOM     17  C   UNL A   1      38.562  21.472  25.848  1.00  0.00     0.119 A 
ATOM     18  C   UNL A   1      42.142  19.603  27.303  1.00  0.00     0.044 C 
ATOM     19  C   UNL A   1      40.944  20.280  26.710  1.00  0.00    -0.051 A 
ATOM     20  C   UNL A   1      40.067  19.576  25.879  1.00  0.00     0.007 A 
ATOM     21  C   UNL A   1      40.679  21.622  26.996  1.00  0.00     0.007 A 
ATOM     22  C   UNL A   1      38.887  20.177  25.435  1.00  0.00     0.046 A 
ATOM     23  C   UNL A   1      39.499  22.219  26.557  1.00  0.00     0.046 A 
ENDBRANCH  16  17
ENDBRANCH  15  16
ENDBRANCH  14  15
ENDBRANCH  12  14
ENDBRANCH   8  12
BRANCH  10  24
ATOM     24  O   UNL A   1      31.547  20.703  25.744  1.00  0.00    -0.391 OA
ATOM     25  H   UNL A   1      31.413  20.952  26.672  1.00  0.00     0.211 HD
ENDBRANCH  10  24
ENDBRANCH   4   7
ENDBRANCH   2   3
ENDBRANCH   1   2
BRANCH   1  26
ATOM     26  C   UNL A   1      32.211  28.147  26.494  1.00  0.00     0.002 C 
BRANCH  26  27
ATOM     27  C   UNL A   1      31.654  29.535  26.135  1.00  0.00     0.002 C 
BRANCH  27  28
ATOM     28  C   UNL A   1      32.375  30.733  26.760  1.00  0.00     0.021 C 
BRANCH  28  29
ATOM     29  C   UNL A   1      33.713  30.381  27.386  1.00  0.00     0.116 C 
BRANCH  29  30
ATOM     30  N   UNL A   1      34.158  31.347  28.382  1.00  0.00    -0.352 N 
ATOM     31  C   UNL A   1      35.310  31.333  29.154  1.00  0.00     0.251 C 
ATOM     32  H   UNL A   1      33.559  32.115  28.529  1.00  0.00     0.163 HD
ATOM     33  O   UNL A   1      35.552  32.226  29.937  1.00  0.00    -0.269 OA
BRANCH  31  34
ATOM     34  C   UNL A   1      36.302  30.264  28.896  1.00  0.00     0.039 A 
ATOM     35  C   UNL A   1      36.550  29.354  29.929  1.00  0.00     0.014 A 
ATOM     36  C   UNL A   1      37.135  30.325  27.780  1.00  0.00     0.014 A 
ATOM     37  C   UNL A   1      37.772  28.692  29.964  1.00  0.00     0.010 A 
ATOM     38  C   UNL A   1      38.380  29.734  27.855  1.00  0.00     0.010 A 
ATOM     39  C   UNL A   1      38.722  28.984  28.985  1.00  0.00    -0.014 A 
BRANCH  39  40
ATOM     40  C   UNL A   1      40.127  28.630  29.133  1.00  0.00     0.031 A 
ATOM     41  C   UNL A   1      40.619  27.337  28.631  1.00  0.00     0.074 A 
ATOM     42  C   UNL A   1      40.973  29.501  29.726  1.00  0.00     0.049 A 
ATOM     43  N   UNL A   1      41.661  26.725  29.083  1.00  0.00    -0.248 NA
ATOM     44  C   UNL A   1      39.912  26.590  27.602  1.00  0.00     0.031 C 
ATOM     45  C   UNL A   1      42.430  29.424  29.789  1.00  0.00     0.029 A 
ATOM     46  N   UNL A   1      40.637  30.530  30.616  1.00  0.00    -0.354 N 
ATOM     47  C   UNL A   1      41.925  25.666  28.241  1.00  0.00     0.074 A 
ATOM     48  C   UNL A   1      40.755  25.574  27.399  1.00  0.00     0.031 C 
ATOM     49  C   UNL A   1      42.851  30.126  30.852  1.00  0.00     0.029 A 
ATOM     50  C   UNL A   1      41.668  30.554  31.579  1.00  0.00     0.049 A 
ATOM     51  H   UNL A   1      39.846  31.115  30.577  1.00  0.00     0.167 HD
ATOM     52  C   UNL A   1      43.166  25.095  28.272  1.00  0.00     0.037 A 
ATOM     53  C   UNL A   1      41.419  30.292  32.894  1.00  0.00     0.037 A 
ATOM     54  C   UNL A   1      43.957  25.628  29.386  1.00  0.00     0.049 A 
ATOM     55  C   UNL A   1      42.212  29.131  33.446  1.00  0.00     0.074 A 
ATOM     56  C   UNL A   1      44.948  26.595  29.459  1.00  0.00     0.029 A 
ATOM     57  N   UNL A   1      43.558  25.377  30.695  1.00  0.00    -0.354 N 
ATOM     58  N   UNL A   1      42.763  28.206  32.710  1.00  0.00    -0.248 NA
ATOM     59  C   UNL A   1      42.422  28.907  34.875  1.00  0.00     0.031 C 
ATOM     60  C   UNL A   1      45.102  26.967  30.818  1.00  0.00     0.029 A 
ATOM     61  C   UNL A   1      44.221  26.212  31.573  1.00  0.00     0.049 A 
ATOM     62  H   UNL A   1      42.895  24.699  30.959  1.00  0.00     0.167 HD
ATOM     63  C   UNL A   1      43.357  27.270  33.519  1.00  0.00     0.074 A 
ATOM     64  C   UNL A   1      43.139  27.770  34.863  1.00  0.00     0.031 C 
ATOM     65  C   UNL A   1      43.960  26.156  33.007  1.00  0.00     0.037 A 
BRANCH  52  66
ATOM     66  C   UNL A   1      43.771  24.308  27.118  1.00  0.00     0.057 A 
ATOM     67  C   UNL A   1      43.996  24.924  25.867  1.00  0.00     0.134 A 
ATOM     68  C   UNL A   1      44.071  22.935  27.128  1.00  0.00     0.134 A 
ATOM     69  F   UNL A   1      43.887  26.248  25.702  1.00  0.00    -0.206 F 
ATOM     70  C   UNL A   1      44.348  24.212  24.710  1.00  0.00     0.040 A 
ATOM     71  C   UNL A   1      44.379  22.201  25.971  1.00  0.00     0.040 A 
ATOM     72  F   UNL A   1      44.153  22.237  28.263  1.00  0.00    -0.206 F 
ATOM     73  C   UNL A   1      44.499  22.837  24.749  1.00  0.00     0.006 A 
ENDBRANCH  52  66
BRANCH  53  74
ATOM     74  C   UNL A   1      40.047  30.666  33.328  1.00  0.00     0.057 A 
ATOM     75  C   UNL A   1      39.747  32.025  33.531  1.00  0.00     0.134 A 
ATOM     76  C   UNL A   1      38.967  29.788  33.203  1.00  0.00     0.134 A 
ATOM     77  F   UNL A   1      40.738  32.923  33.657  1.00  0.00    -0.206 F 
ATOM     78  C   UNL A   1      38.436  32.507  33.497  1.00  0.00     0.040 A 
ATOM     79  C   UNL A   1      37.648  30.258  33.183  1.00  0.00     0.040 A 
ATOM     80  F   UNL A   1      39.169  28.481  32.987  1.00  0.00    -0.206 F 
ATOM     81  C   UNL A   1      37.382  31.623  33.291  1.00  0.00     0.006 A 
ENDBRANCH  53  74
BRANCH  65  82
ATOM     82  C   UNL A   1      44.443  24.954  33.790  1.00  0.00     0.057 A 
ATOM     83  C   UNL A   1      43.611  24.089  34.517  1.00  0.00     0.134 A 
ATOM     84  C   UNL A   1      45.796  24.547  33.715  1.00  0.00     0.134 A 
ATOM     85  F   UNL A   1      42.285  24.272  34.578  1.00  0.00    -0.206 F 
ATOM     86  C   UNL A   1      44.095  22.947  35.171  1.00  0.00     0.040 A 
ATOM     87  C   UNL A   1      46.278  23.379  34.315  1.00  0.00     0.040 A 
ATOM     88  F   UNL A   1      46.709  25.252  33.032  1.00  0.00    -0.206 F 
ATOM     89  C   UNL A   1      45.430  22.581  35.062  1.00  0.00     0.006 A 
ENDBRANCH  65  82
ENDBRANCH  39  40
ENDBRANCH  31  34
ENDBRANCH  29  30
ENDBRANCH  28  29
ENDBRANCH  27  28
ENDBRANCH  26  27
ENDBRANCH   1  26
TORSDOF 19
ENDMDL
MODEL 3
REMARK VINA RESULT:     -10.9      2.610      5.229
REMARK SMILES Cc1ccc(OCCC(=O)N2C[C@H](O)C[C@@H]2C(=O)NCCCCCCNC(=O)c2ccc(-c3c4nc(c(-c5c(F)cccc5F)c5ccc([nH]5)c(-c5c(F)cccc5F)c5nc(c(-c6c(F)cccc6F)c6ccc3[nH]6)C=C5)C=C4)cc2)cc1
REMARK SMILES IDX 21 1 20 2 19 3 17 4 18 5 16 7 11 8 12 9 13 10 15 11 9 12
REMARK SMILES IDX 10 13 8 14 7 15 6 16 5 17 1 18 2 19 3 20 84 21 4 22 83 23
REMARK SMILES IDX 14 24 22 26 23 27 24 28 25 29 26 30 27 31 28 33 29 34 30 35
REMARK SMILES IDX 82 36 31 37 81 38 32 39 33 40 34 41 75 42 35 43 80 44 74 45
REMARK SMILES IDX 76 46 36 47 79 48 73 49 72 50 37 52 63 53 46 54 62 55 47 56
REMARK SMILES IDX 50 57 61 58 77 59 48 60 49 61 60 63 78 64 51 65 38 66 39 67
REMARK SMILES IDX 44 68 40 69 41 70 43 71 45 72 42 73 64 74 65 75 70 76 66 77
REMARK SMILES IDX 67 78 69 79 71 80 68 81 52 82 53 83 58 84 54 85 55 86 57 87
REMARK SMILES IDX 59 88 56 89
REMARK H PARENT 19 6 14 25 26 32 76 51 50 62
REMARK Flexibility Score: inf
ROOT
ATOM      1  C   UNL A   1      34.054  29.793  26.954  1.00  0.00     0.021 C 
ENDROOT
BRANCH   1   2
ATOM      2  C   UNL A   1      34.028  28.381  26.363  1.00  0.00     0.116 C 
BRANCH   2   3
ATOM      3  N   UNL A   1      33.777  28.335  24.936  1.00  0.00    -0.354 N 
ATOM      4  C   UNL A   1      32.677  28.834  24.281  1.00  0.00     0.242 C 
ATOM      5  O   UNL A   1      32.882  29.329  23.167  1.00  0.00    -0.273 OA
ATOM      6  H   UNL A   1      34.464  27.904  24.381  1.00  0.00     0.163 HD
BRANCH   4   7
ATOM      7  C   UNL A   1      31.224  28.525  24.746  1.00  0.00     0.177 C 
ATOM      8  N   UNL A   1      30.848  27.123  24.902  1.00  0.00    -0.328 N 
ATOM      9  C   UNL A   1      30.236  26.614  23.680  1.00  0.00     0.152 C 
ATOM     10  C   UNL A   1      30.073  27.819  22.754  1.00  0.00     0.136 C 
ATOM     11  C   UNL A   1      30.262  29.031  23.662  1.00  0.00     0.069 C 
BRANCH   8  12
ATOM     12  C   UNL A   1      30.919  26.471  26.118  1.00  0.00     0.226 C 
ATOM     13  O   UNL A   1      30.906  27.079  27.189  1.00  0.00    -0.275 OA
BRANCH  12  14
ATOM     14  C   UNL A   1      31.178  24.970  26.093  1.00  0.00     0.141 C 
BRANCH  14  15
ATOM     15  C   UNL A   1      32.642  24.552  26.011  1.00  0.00     0.239 C 
BRANCH  15  16
ATOM     16  O   UNL A   1      32.837  23.133  26.070  1.00  0.00    -0.493 OA
BRANCH  16  17
ATOM     17  C   UNL A   1      34.035  22.656  25.617  1.00  0.00     0.119 A 
ATOM     18  C   UNL A   1      37.777  20.644  25.001  1.00  0.00     0.044 C 
ATOM     19  C   UNL A   1      36.466  21.361  25.114  1.00  0.00    -0.051 A 
ATOM     20  C   UNL A   1      35.260  20.661  25.001  1.00  0.00     0.007 A 
ATOM     21  C   UNL A   1      36.432  22.737  25.353  1.00  0.00     0.007 A 
ATOM     22  C   UNL A   1      34.046  21.312  25.235  1.00  0.00     0.046 A 
ATOM     23  C   UNL A   1      35.221  23.385  25.591  1.00  0.00     0.046 A 
ENDBRANCH  16  17
ENDBRANCH  15  16
ENDBRANCH  14  15
ENDBRANCH  12  14
ENDBRANCH   8  12
BRANCH  10  24
ATOM     24  O   UNL A   1      31.043  27.805  21.711  1.00  0.00    -0.391 OA
ATOM     25  H   UNL A   1      31.580  28.612  21.759  1.00  0.00     0.211 HD
ENDBRANCH  10  24
ENDBRANCH   4   7
ENDBRANCH   2   3
ENDBRANCH   1   2
BRANCH   1  26
ATOM     26  C   UNL A   1      35.402  30.230  27.543  1.00  0.00     0.002 C 
BRANCH  26  27
ATOM     27  C   UNL A   1      35.527  31.709  27.948  1.00  0.00     0.002 C 
BRANCH  27  28
ATOM     28  C   UNL A   1      34.548  32.200  29.019  1.00  0.00     0.021 C 
BRANCH  28  29
ATOM     29  C   UNL A   1      34.747  33.655  29.406  1.00  0.00     0.116 C 
BRANCH  29  30
ATOM     30  N   UNL A   1      33.848  34.100  30.463  1.00  0.00    -0.352 N 
ATOM     31  C   UNL A   1      34.064  34.132  31.832  1.00  0.00     0.251 C 
ATOM     32  H   UNL A   1      32.966  34.422  30.165  1.00  0.00     0.163 HD
ATOM     33  O   UNL A   1      33.217  34.550  32.592  1.00  0.00    -0.269 OA
BRANCH  31  34
ATOM     34  C   UNL A   1      35.412  33.767  32.329  1.00  0.00     0.039 A 
ATOM     35  C   UNL A   1      36.482  34.579  31.940  1.00  0.00     0.014 A 
ATOM     36  C   UNL A   1      35.633  32.530  32.930  1.00  0.00     0.014 A 
ATOM     37  C   UNL A   1      37.762  34.039  31.918  1.00  0.00     0.010 A 
ATOM     38  C   UNL A   1      36.888  31.965  32.832  1.00  0.00     0.010 A 
ATOM     39  C   UNL A   1      37.930  32.695  32.252  1.00  0.00    -0.014 A 
BRANCH  39  40
ATOM     40  C   UNL A   1      39.140  31.956  31.919  1.00  0.00     0.031 A 
ATOM     41  C   UNL A   1      39.060  30.747  31.083  1.00  0.00     0.074 A 
ATOM     42  C   UNL A   1      40.334  32.394  32.375  1.00  0.00     0.049 A 
ATOM     43  N   UNL A   1      39.923  29.788  31.098  1.00  0.00    -0.248 NA
ATOM     44  C   UNL A   1      37.934  30.497  30.196  1.00  0.00     0.031 C 
ATOM     45  C   UNL A   1      41.661  31.921  31.994  1.00  0.00     0.029 A 
ATOM     46  N   UNL A   1      40.561  33.219  33.487  1.00  0.00    -0.354 N 
ATOM     47  C   UNL A   1      39.631  28.943  30.049  1.00  0.00     0.074 A 
ATOM     48  C   UNL A   1      38.334  29.378  29.585  1.00  0.00     0.031 C 
ATOM     49  C   UNL A   1      42.517  32.197  32.990  1.00  0.00     0.029 A 
ATOM     50  C   UNL A   1      41.736  32.727  34.094  1.00  0.00     0.049 A 
ATOM     51  H   UNL A   1      40.015  33.983  33.781  1.00  0.00     0.167 HD
ATOM     52  C   UNL A   1      40.593  28.075  29.617  1.00  0.00     0.037 A 
ATOM     53  C   UNL A   1      41.723  32.219  35.359  1.00  0.00     0.037 A 
ATOM     54  C   UNL A   1      41.746  28.082  30.523  1.00  0.00     0.049 A 
ATOM     55  C   UNL A   1      42.203  30.790  35.449  1.00  0.00     0.074 A 
ATOM     56  C   UNL A   1      42.985  28.701  30.466  1.00  0.00     0.029 A 
ATOM     57  N   UNL A   1      41.598  27.627  31.830  1.00  0.00    -0.354 N 
ATOM     58  N   UNL A   1      42.241  29.967  34.438  1.00  0.00    -0.248 NA
ATOM     59  C   UNL A   1      42.649  30.168  36.694  1.00  0.00     0.031 C 
ATOM     60  C   UNL A   1      43.558  28.666  31.761  1.00  0.00     0.029 A 
ATOM     61  C   UNL A   1      42.677  28.008  32.603  1.00  0.00     0.049 A 
ATOM     62  H   UNL A   1      40.830  27.105  32.158  1.00  0.00     0.167 HD
ATOM     63  C   UNL A   1      42.669  28.735  34.867  1.00  0.00     0.074 A 
ATOM     64  C   UNL A   1      42.938  28.922  36.280  1.00  0.00     0.031 C 
ATOM     65  C   UNL A   1      42.747  27.666  34.019  1.00  0.00     0.037 A 
BRANCH  52  66
ATOM     66  C   UNL A   1      40.631  27.470  28.221  1.00  0.00     0.057 A 
ATOM     67  C   UNL A   1      40.053  26.207  27.968  1.00  0.00     0.134 A 
ATOM     68  C   UNL A   1      41.288  28.019  27.106  1.00  0.00     0.134 A 
ATOM     69  F   UNL A   1      39.280  25.590  28.872  1.00  0.00    -0.206 F 
ATOM     70  C   UNL A   1      40.236  25.502  26.769  1.00  0.00     0.040 A 
ATOM     71  C   UNL A   1      41.519  27.308  25.917  1.00  0.00     0.040 A 
ATOM     72  F   UNL A   1      41.684  29.293  27.074  1.00  0.00    -0.206 F 
ATOM     73  C   UNL A   1      41.008  26.034  25.751  1.00  0.00     0.006 A 
ENDBRANCH  52  66
BRANCH  53  74
ATOM     74  C   UNL A   1      40.682  32.822  36.234  1.00  0.00     0.057 A 
ATOM     75  C   UNL A   1      40.958  34.047  36.869  1.00  0.00     0.134 A 
ATOM     76  C   UNL A   1      39.345  32.423  36.175  1.00  0.00     0.134 A 
ATOM     77  F   UNL A   1      42.222  34.491  36.959  1.00  0.00    -0.206 F 
ATOM     78  C   UNL A   1      39.941  34.889  37.324  1.00  0.00     0.040 A 
ATOM     79  C   UNL A   1      38.318  33.253  36.641  1.00  0.00     0.040 A 
ATOM     80  F   UNL A   1      38.998  31.279  35.568  1.00  0.00    -0.206 F 
ATOM     81  C   UNL A   1      38.612  34.506  37.182  1.00  0.00     0.006 A 
ENDBRANCH  53  74
BRANCH  65  82
ATOM     82  C   UNL A   1      42.981  26.223  34.411  1.00  0.00     0.057 A 
ATOM     83  C   UNL A   1      42.069  25.433  35.126  1.00  0.00     0.134 A 
ATOM     84  C   UNL A   1      44.120  25.529  33.938  1.00  0.00     0.134 A 
ATOM     85  F   UNL A   1      40.888  25.914  35.534  1.00  0.00    -0.206 F 
ATOM     86  C   UNL A   1      42.300  24.078  35.406  1.00  0.00     0.040 A 
ATOM     87  C   UNL A   1      44.333  24.165  34.162  1.00  0.00     0.040 A 
ATOM     88  F   UNL A   1      45.069  26.139  33.212  1.00  0.00    -0.206 F 
ATOM     89  C   UNL A   1      43.428  23.435  34.914  1.00  0.00     0.006 A 
ENDBRANCH  65  82
ENDBRANCH  39  40
ENDBRANCH  31  34
ENDBRANCH  29  30
ENDBRANCH  28  29
ENDBRANCH  27  28
ENDBRANCH  26  27
ENDBRANCH   1  26
TORSDOF 19
ENDMDL
