MODEL 1
REMARK VINA RESULT:     -11.9      0.000      0.000
REMARK SMILES Cc1cc(-c2cc(C(=O)NCCCCCCNC(=O)c3ccc(-c4c5nc(c(-c6c(F)cccc6F)c6ccc([nH]6)c(-c6c(F)cccc6F)c6nc(c(-c7c(F)cccc7F)c7ccc4[nH]7)C=C6)C=C5)cc3)c[nH]c2=O)ccc1Cl
REMARK SMILES IDX 14 1 13 2 12 3 11 4 10 5 8 6 9 7 7 9 5 10 6 11 76 12 75 13
REMARK SMILES IDX 77 14 74 15 4 17 1 18 2 19 3 20 80 21 79 22 81 23 78 24
REMARK SMILES IDX 15 25 16 26 17 27 18 28 19 30 20 31 21 32 73 33 22 34 72 35
REMARK SMILES IDX 23 36 24 37 25 38 66 39 26 40 71 41 65 42 67 43 27 44 70 45
REMARK SMILES IDX 64 46 63 47 28 49 54 50 37 51 53 52 38 53 41 54 52 55 68 56
REMARK SMILES IDX 39 57 40 58 51 60 69 61 42 62 29 63 30 64 35 65 31 66 32 67
REMARK SMILES IDX 34 68 36 69 33 70 55 71 56 72 61 73 57 74 58 75 60 76 62 77
REMARK SMILES IDX 59 78 43 79 44 80 49 81 45 82 46 83 48 84 50 85 47 86
REMARK H PARENT 10 8 75 16 17 29 67 48 41 59
REMARK Flexibility Score: inf
ROOT
ATOM      1  C   UNL A   1      46.248  20.661  24.719  1.00  0.00     0.002 C 
ENDROOT
BRANCH   1   2
ATOM      2  C   UNL A   1      46.003  22.055  25.312  1.00  0.00     0.002 C 
BRANCH   2   3
ATOM      3  C   UNL A   1      46.411  23.225  24.405  1.00  0.00     0.021 C 
BRANCH   3   4
ATOM      4  C   UNL A   1      46.998  24.410  25.179  1.00  0.00     0.116 C 
BRANCH   4   5
ATOM      5  N   UNL A   1      47.520  25.399  24.255  1.00  0.00    -0.352 N 
ATOM      6  C   UNL A   1      47.323  26.734  24.098  1.00  0.00     0.252 C 
ATOM      7  O   UNL A   1      47.900  27.267  23.146  1.00  0.00    -0.269 OA
ATOM      8  H   UNL A   1      48.152  25.021  23.601  1.00  0.00     0.163 HD
BRANCH   6   9
ATOM      9  C   UNL A   1      46.521  27.565  25.053  1.00  0.00     0.056 A 
ATOM     10  C   UNL A   1      46.035  29.609  26.308  1.00  0.00     0.048 A 
ATOM     11  C   UNL A   1      46.902  28.846  25.613  1.00  0.00     0.029 A 
ATOM     12  C   UNL A   1      44.698  29.035  26.670  1.00  0.00     0.255 A 
ATOM     13  N   UNL A   1      44.458  27.763  26.202  1.00  0.00    -0.328 N 
ATOM     14  O   UNL A   1      43.875  29.640  27.345  1.00  0.00    -0.269 OA
ATOM     15  C   UNL A   1      45.325  27.057  25.403  1.00  0.00     0.099 A 
ATOM     16  H   UNL A   1      43.611  27.330  26.457  1.00  0.00     0.169 HD
BRANCH  10  17
ATOM     17  C   UNL A   1      46.419  30.980  26.671  1.00  0.00    -0.012 A 
ATOM     18  C   UNL A   1      45.378  34.567  25.928  1.00  0.00     0.046 C 
ATOM     19  C   UNL A   1      46.108  33.396  26.525  1.00  0.00    -0.032 A 
ATOM     20  C   UNL A   1      45.765  32.091  26.126  1.00  0.00     0.014 A 
ATOM     21  C   UNL A   1      47.129  33.569  27.472  1.00  0.00     0.044 A 
ATOM     22  C   UNL A   1      47.795  32.466  28.009  1.00  0.00     0.021 A 
ATOM     23  Cl  UNL A   1      47.602  35.137  28.020  1.00  0.00    -0.084 Cl
ATOM     24  C   UNL A   1      47.441  31.178  27.610  1.00  0.00     0.010 A 
ENDBRANCH  10  17
ENDBRANCH   6   9
ENDBRANCH   4   5
ENDBRANCH   3   4
ENDBRANCH   2   3
ENDBRANCH   1   2
BRANCH   1  25
ATOM     25  C   UNL A   1      44.983  19.863  24.390  1.00  0.00     0.021 C 
BRANCH  25  26
ATOM     26  C   UNL A   1      44.370  19.137  25.583  1.00  0.00     0.116 C 
BRANCH  26  27
ATOM     27  N   UNL A   1      42.951  18.880  25.387  1.00  0.00    -0.352 N 
ATOM     28  C   UNL A   1      41.867  19.603  25.816  1.00  0.00     0.251 C 
ATOM     29  H   UNL A   1      42.738  18.069  24.871  1.00  0.00     0.163 HD
ATOM     30  O   UNL A   1      40.740  19.123  25.751  1.00  0.00    -0.269 OA
BRANCH  28  31
ATOM     31  C   UNL A   1      42.058  20.961  26.368  1.00  0.00     0.039 A 
ATOM     32  C   UNL A   1      41.983  21.145  27.750  1.00  0.00     0.014 A 
ATOM     33  C   UNL A   1      42.286  22.051  25.523  1.00  0.00     0.014 A 
ATOM     34  C   UNL A   1      42.187  22.417  28.291  1.00  0.00     0.010 A 
ATOM     35  C   UNL A   1      42.555  23.303  26.066  1.00  0.00     0.010 A 
ATOM     36  C   UNL A   1      42.501  23.500  27.454  1.00  0.00    -0.014 A 
BRANCH  36  37
ATOM     37  C   UNL A   1      42.768  24.849  28.011  1.00  0.00     0.031 A 
ATOM     38  C   UNL A   1      44.155  25.225  28.448  1.00  0.00     0.074 A 
ATOM     39  C   UNL A   1      41.747  25.708  28.189  1.00  0.00     0.049 A 
ATOM     40  N   UNL A   1      44.572  26.324  29.024  1.00  0.00    -0.248 NA
ATOM     41  C   UNL A   1      45.208  24.221  28.235  1.00  0.00     0.031 C 
ATOM     42  C   UNL A   1      40.347  25.438  27.857  1.00  0.00     0.029 A 
ATOM     43  N   UNL A   1      41.728  26.977  28.710  1.00  0.00    -0.354 N 
ATOM     44  C   UNL A   1      45.929  26.139  29.252  1.00  0.00     0.074 A 
ATOM     45  C   UNL A   1      46.253  24.801  28.806  1.00  0.00     0.031 C 
ATOM     46  C   UNL A   1      39.607  26.513  28.173  1.00  0.00     0.029 A 
ATOM     47  C   UNL A   1      40.474  27.532  28.758  1.00  0.00     0.049 A 
ATOM     48  H   UNL A   1      42.537  27.444  29.021  1.00  0.00     0.167 HD
ATOM     49  C   UNL A   1      46.829  27.012  29.764  1.00  0.00     0.037 A 
ATOM     50  C   UNL A   1      40.065  28.725  29.228  1.00  0.00     0.037 A 
ATOM     51  C   UNL A   1      46.506  28.347  30.194  1.00  0.00     0.049 A 
ATOM     52  C   UNL A   1      41.079  29.682  29.786  1.00  0.00     0.074 A 
ATOM     53  C   UNL A   1      47.353  29.328  30.677  1.00  0.00     0.029 A 
ATOM     54  N   UNL A   1      45.227  28.887  30.195  1.00  0.00    -0.354 N 
ATOM     55  N   UNL A   1      42.372  29.520  29.934  1.00  0.00    -0.248 NA
ATOM     56  C   UNL A   1      40.581  30.989  30.234  1.00  0.00     0.031 C 
ATOM     57  C   UNL A   1      46.582  30.450  31.006  1.00  0.00     0.029 A 
ATOM     58  C   UNL A   1      45.260  30.182  30.688  1.00  0.00     0.049 A 
ATOM     59  H   UNL A   1      44.416  28.420  29.891  1.00  0.00     0.167 HD
ATOM     60  C   UNL A   1      42.845  30.710  30.473  1.00  0.00     0.074 A 
ATOM     61  C   UNL A   1      41.703  31.589  30.610  1.00  0.00     0.031 C 
ATOM     62  C   UNL A   1      44.113  31.042  30.821  1.00  0.00     0.037 A 
BRANCH  49  63
ATOM     63  C   UNL A   1      48.249  26.540  29.883  1.00  0.00     0.057 A 
ATOM     64  C   UNL A   1      49.171  26.706  28.840  1.00  0.00     0.134 A 
ATOM     65  C   UNL A   1      48.704  25.918  31.052  1.00  0.00     0.134 A 
ATOM     66  F   UNL A   1      48.797  27.283  27.687  1.00  0.00    -0.206 F 
ATOM     67  C   UNL A   1      50.482  26.236  28.940  1.00  0.00     0.040 A 
ATOM     68  C   UNL A   1      50.021  25.469  31.175  1.00  0.00     0.040 A 
ATOM     69  F   UNL A   1      47.878  25.732  32.092  1.00  0.00    -0.206 F 
ATOM     70  C   UNL A   1      50.910  25.619  30.113  1.00  0.00     0.006 A 
ENDBRANCH  49  63
BRANCH  50  71
ATOM     71  C   UNL A   1      38.627  29.084  29.166  1.00  0.00     0.057 A 
ATOM     72  C   UNL A   1      37.807  28.978  30.295  1.00  0.00     0.134 A 
ATOM     73  C   UNL A   1      38.046  29.566  27.987  1.00  0.00     0.134 A 
ATOM     74  F   UNL A   1      38.304  28.509  31.449  1.00  0.00    -0.206 F 
ATOM     75  C   UNL A   1      36.456  29.328  30.250  1.00  0.00     0.040 A 
ATOM     76  C   UNL A   1      36.703  29.940  27.935  1.00  0.00     0.040 A 
ATOM     77  F   UNL A   1      38.784  29.701  26.875  1.00  0.00    -0.206 F 
ATOM     78  C   UNL A   1      35.903  29.817  29.069  1.00  0.00     0.006 A 
ENDBRANCH  50  71
BRANCH  62  79
ATOM     79  C   UNL A   1      44.331  32.423  31.366  1.00  0.00     0.057 A 
ATOM     80  C   UNL A   1      44.477  33.534  30.526  1.00  0.00     0.134 A 
ATOM     81  C   UNL A   1      44.356  32.648  32.749  1.00  0.00     0.134 A 
ATOM     82  F   UNL A   1      44.476  33.382  29.193  1.00  0.00    -0.206 F 
ATOM     83  C   UNL A   1      44.660  34.818  31.041  1.00  0.00     0.040 A 
ATOM     84  C   UNL A   1      44.515  33.931  33.275  1.00  0.00     0.040 A 
ATOM     85  F   UNL A   1      44.215  31.629  33.608  1.00  0.00    -0.206 F 
ATOM     86  C   UNL A   1      44.672  35.019  32.420  1.00  0.00     0.006 A 
ENDBRANCH  62  79
ENDBRANCH  36  37
ENDBRANCH  28  31
ENDBRANCH  26  27
ENDBRANCH  25  26
ENDBRANCH   1  25
TORSDOF 14
ENDMDL
MODEL 2
REMARK VINA RESULT:     -11.9      5.685     11.118
REMARK SMILES Cc1cc(-c2cc(C(=O)NCCCCCCNC(=O)c3ccc(-c4c5nc(c(-c6c(F)cccc6F)c6ccc([nH]6)c(-c6c(F)cccc6F)c6nc(c(-c7c(F)cccc7F)c7ccc4[nH]7)C=C6)C=C5)cc3)c[nH]c2=O)ccc1Cl
REMARK SMILES IDX 14 1 13 2 12 3 11 4 10 5 8 6 9 7 7 9 5 10 6 11 76 12 75 13
REMARK SMILES IDX 77 14 74 15 4 17 1 18 2 19 3 20 80 21 79 22 81 23 78 24
REMARK SMILES IDX 15 25 16 26 17 27 18 28 19 30 20 31 21 32 73 33 22 34 72 35
REMARK SMILES IDX 23 36 24 37 25 38 66 39 26 40 71 41 65 42 67 43 27 44 70 45
REMARK SMILES IDX 64 46 63 47 28 49 54 50 37 51 53 52 38 53 41 54 52 55 68 56
REMARK SMILES IDX 39 57 40 58 51 60 69 61 42 62 29 63 30 64 35 65 31 66 32 67
REMARK SMILES IDX 34 68 36 69 33 70 55 71 56 72 61 73 57 74 58 75 60 76 62 77
REMARK SMILES IDX 59 78 43 79 44 80 49 81 45 82 46 83 48 84 50 85 47 86
REMARK H PARENT 10 8 75 16 17 29 67 48 41 59
REMARK Flexibility Score: inf
ROOT
ATOM      1  C   UNL A   1      31.492  30.039  25.887  1.00  0.00     0.002 C 
ENDROOT
BRANCH   1   2
ATOM      2  C   UNL A   1      32.753  29.710  25.077  1.00  0.00     0.002 C 
BRANCH   2   3
ATOM      3  C   UNL A   1      32.501  28.940  23.772  1.00  0.00     0.021 C 
BRANCH   3   4
ATOM      4  C   UNL A   1      33.778  28.347  23.168  1.00  0.00     0.116 C 
BRANCH   4   5
ATOM      5  N   UNL A   1      33.451  27.542  22.006  1.00  0.00    -0.352 N 
ATOM      6  C   UNL A   1      33.311  26.206  21.797  1.00  0.00     0.252 C 
ATOM      7  O   UNL A   1      33.079  25.851  20.638  1.00  0.00    -0.269 OA
ATOM      8  H   UNL A   1      33.299  28.079  21.194  1.00  0.00     0.163 HD
BRANCH   6   9
ATOM      9  C   UNL A   1      33.352  25.192  22.901  1.00  0.00     0.056 A 
ATOM     10  C   UNL A   1      34.495  23.688  24.455  1.00  0.00     0.048 A 
ATOM     11  C   UNL A   1      34.507  24.431  23.331  1.00  0.00     0.029 A 
ATOM     12  C   UNL A   1      33.197  23.496  25.180  1.00  0.00     0.255 A 
ATOM     13  N   UNL A   1      32.117  24.156  24.637  1.00  0.00    -0.328 N 
ATOM     14  O   UNL A   1      33.088  22.793  26.176  1.00  0.00    -0.269 OA
ATOM     15  C   UNL A   1      32.190  24.994  23.551  1.00  0.00     0.099 A 
ATOM     16  H   UNL A   1      31.237  24.020  25.055  1.00  0.00     0.169 HD
BRANCH  10  17
ATOM     17  C   UNL A   1      35.754  23.107  24.944  1.00  0.00    -0.012 A 
ATOM     18  C   UNL A   1      37.685  19.830  24.773  1.00  0.00     0.046 C 
ATOM     19  C   UNL A   1      37.336  21.256  25.096  1.00  0.00    -0.032 A 
ATOM     20  C   UNL A   1      36.102  21.780  24.668  1.00  0.00     0.014 A 
ATOM     21  C   UNL A   1      38.210  22.083  25.819  1.00  0.00     0.044 A 
ATOM     22  C   UNL A   1      37.862  23.403  26.110  1.00  0.00     0.021 A 
ATOM     23  Cl  UNL A   1      39.746  21.517  26.371  1.00  0.00    -0.084 Cl
ATOM     24  C   UNL A   1      36.640  23.913  25.674  1.00  0.00     0.010 A 
ENDBRANCH  10  17
ENDBRANCH   6   9
ENDBRANCH   4   5
ENDBRANCH   3   4
ENDBRANCH   2   3
ENDBRANCH   1   2
BRANCH   1  25
ATOM     25  C   UNL A   1      31.370  31.498  26.335  1.00  0.00     0.021 C 
BRANCH  25  26
ATOM     26  C   UNL A   1      32.640  32.074  26.955  1.00  0.00     0.116 C 
BRANCH  26  27
ATOM     27  N   UNL A   1      32.484  33.480  27.294  1.00  0.00    -0.352 N 
ATOM     28  C   UNL A   1      33.126  34.221  28.255  1.00  0.00     0.251 C 
ATOM     29  H   UNL A   1      31.821  33.972  26.758  1.00  0.00     0.163 HD
ATOM     30  O   UNL A   1      32.713  35.337  28.552  1.00  0.00    -0.269 OA
BRANCH  28  31
ATOM     31  C   UNL A   1      34.313  33.669  28.941  1.00  0.00     0.039 A 
ATOM     32  C   UNL A   1      34.136  32.661  29.892  1.00  0.00     0.014 A 
ATOM     33  C   UNL A   1      35.592  34.160  28.665  1.00  0.00     0.014 A 
ATOM     34  C   UNL A   1      35.249  32.109  30.531  1.00  0.00     0.010 A 
ATOM     35  C   UNL A   1      36.704  33.565  29.252  1.00  0.00     0.010 A 
ATOM     36  C   UNL A   1      36.543  32.539  30.196  1.00  0.00    -0.014 A 
BRANCH  36  37
ATOM     37  C   UNL A   1      37.741  31.934  30.828  1.00  0.00     0.031 A 
ATOM     38  C   UNL A   1      38.517  30.867  30.109  1.00  0.00     0.074 A 
ATOM     39  C   UNL A   1      38.087  32.296  32.078  1.00  0.00     0.049 A 
ATOM     40  N   UNL A   1      39.544  30.169  30.524  1.00  0.00    -0.248 NA
ATOM     41  C   UNL A   1      38.060  30.519  28.755  1.00  0.00     0.031 C 
ATOM     42  C   UNL A   1      37.380  33.279  32.900  1.00  0.00     0.029 A 
ATOM     43  N   UNL A   1      39.112  31.863  32.881  1.00  0.00    -0.354 N 
ATOM     44  C   UNL A   1      39.847  29.293  29.490  1.00  0.00     0.074 A 
ATOM     45  C   UNL A   1      38.861  29.507  28.452  1.00  0.00     0.031 C 
ATOM     46  C   UNL A   1      37.998  33.382  34.087  1.00  0.00     0.029 A 
ATOM     47  C   UNL A   1      39.122  32.451  34.121  1.00  0.00     0.049 A 
ATOM     48  H   UNL A   1      39.775  31.194  32.595  1.00  0.00     0.167 HD
ATOM     49  C   UNL A   1      40.868  28.408  29.401  1.00  0.00     0.037 A 
ATOM     50  C   UNL A   1      39.941  32.256  35.172  1.00  0.00     0.037 A 
ATOM     51  C   UNL A   1      41.855  28.206  30.429  1.00  0.00     0.049 A 
ATOM     52  C   UNL A   1      41.071  31.274  35.051  1.00  0.00     0.074 A 
ATOM     53  C   UNL A   1      42.960  27.373  30.415  1.00  0.00     0.029 A 
ATOM     54  N   UNL A   1      41.853  28.847  31.660  1.00  0.00    -0.354 N 
ATOM     55  N   UNL A   1      41.388  30.501  34.041  1.00  0.00    -0.248 NA
ATOM     56  C   UNL A   1      41.963  31.145  36.212  1.00  0.00     0.031 C 
ATOM     57  C   UNL A   1      43.604  27.481  31.653  1.00  0.00     0.029 A 
ATOM     58  C   UNL A   1      42.926  28.413  32.421  1.00  0.00     0.049 A 
ATOM     59  H   UNL A   1      41.187  29.511  31.950  1.00  0.00     0.167 HD
ATOM     60  C   UNL A   1      42.525  29.808  34.435  1.00  0.00     0.074 A 
ATOM     61  C   UNL A   1      42.851  30.265  35.770  1.00  0.00     0.031 C 
ATOM     62  C   UNL A   1      43.234  28.876  33.750  1.00  0.00     0.037 A 
BRANCH  49  63
ATOM     63  C   UNL A   1      40.960  27.593  28.144  1.00  0.00     0.057 A 
ATOM     64  C   UNL A   1      41.669  28.046  27.022  1.00  0.00     0.134 A 
ATOM     65  C   UNL A   1      40.339  26.342  28.050  1.00  0.00     0.134 A 
ATOM     66  F   UNL A   1      42.278  29.242  27.040  1.00  0.00    -0.206 F 
ATOM     67  C   UNL A   1      41.726  27.302  25.842  1.00  0.00     0.040 A 
ATOM     68  C   UNL A   1      40.412  25.575  26.885  1.00  0.00     0.040 A 
ATOM     69  F   UNL A   1      39.649  25.844  29.087  1.00  0.00    -0.206 F 
ATOM     70  C   UNL A   1      41.098  26.060  25.774  1.00  0.00     0.006 A 
ENDBRANCH  49  63
BRANCH  50  71
ATOM     71  C   UNL A   1      39.728  33.029  36.420  1.00  0.00     0.057 A 
ATOM     72  C   UNL A   1      40.402  34.234  36.647  1.00  0.00     0.134 A 
ATOM     73  C   UNL A   1      38.826  32.597  37.400  1.00  0.00     0.134 A 
ATOM     74  F   UNL A   1      41.289  34.690  35.751  1.00  0.00    -0.206 F 
ATOM     75  C   UNL A   1      40.196  34.976  37.812  1.00  0.00     0.040 A 
ATOM     76  C   UNL A   1      38.594  33.341  38.557  1.00  0.00     0.040 A 
ATOM     77  F   UNL A   1      38.140  31.456  37.233  1.00  0.00    -0.206 F 
ATOM     78  C   UNL A   1      39.285  34.533  38.767  1.00  0.00     0.006 A 
ENDBRANCH  50  71
BRANCH  62  79
ATOM     79  C   UNL A   1      44.445  28.306  34.429  1.00  0.00     0.057 A 
ATOM     80  C   UNL A   1      45.692  28.942  34.371  1.00  0.00     0.134 A 
ATOM     81  C   UNL A   1      44.353  27.128  35.180  1.00  0.00     0.134 A 
ATOM     82  F   UNL A   1      45.849  30.067  33.656  1.00  0.00    -0.206 F 
ATOM     83  C   UNL A   1      46.809  28.415  35.021  1.00  0.00     0.040 A 
ATOM     84  C   UNL A   1      45.457  26.605  35.854  1.00  0.00     0.040 A 
ATOM     85  F   UNL A   1      43.186  26.473  35.282  1.00  0.00    -0.206 F 
ATOM     86  C   UNL A   1      46.691  27.246  35.771  1.00  0.00     0.006 A 
ENDBRANCH  62  79
ENDBRANCH  36  37
ENDBRANCH  28  31
ENDBRANCH  26  27
ENDBRANCH  25  26
ENDBRANCH   1  25
TORSDOF 14
ENDMDL
MODEL 3
REMARK VINA RESULT:     -11.8      4.993     10.643
REMARK SMILES Cc1cc(-c2cc(C(=O)NCCCCCCNC(=O)c3ccc(-c4c5nc(c(-c6c(F)cccc6F)c6ccc([nH]6)c(-c6c(F)cccc6F)c6nc(c(-c7c(F)cccc7F)c7ccc4[nH]7)C=C6)C=C5)cc3)c[nH]c2=O)ccc1Cl
REMARK SMILES IDX 14 1 13 2 12 3 11 4 10 5 8 6 9 7 7 9 5 10 6 11 76 12 75 13
REMARK SMILES IDX 77 14 74 15 4 17 1 18 2 19 3 20 80 21 79 22 81 23 78 24
REMARK SMILES IDX 15 25 16 26 17 27 18 28 19 30 20 31 21 32 73 33 22 34 72 35
REMARK SMILES IDX 23 36 24 37 25 38 66 39 26 40 71 41 65 42 67 43 27 44 70 45
REMARK SMILES IDX 64 46 63 47 28 49 54 50 37 51 53 52 38 53 41 54 52 55 68 56
REMARK SMILES IDX 39 57 40 58 51 60 69 61 42 62 29 63 30 64 35 65 31 66 32 67
REMARK SMILES IDX 34 68 36 69 33 70 55 71 56 72 61 73 57 74 58 75 60 76 62 77
REMARK SMILES IDX 59 78 43 79 44 80 49 81 45 82 46 83 48 84 50 85 47 86
REMARK H PARENT 10 8 75 16 17 29 67 48 41 59
REMARK Flexibility Score: inf
ROOT
ATOM      1  C   UNL A   1      33.934  28.275  24.654  1.00  0.00     0.002 C 
ENDROOT
BRANCH   1   2
ATOM      2  C   UNL A   1      33.175  28.257  23.320  1.00  0.00     0.002 C 
BRANCH   2   3
ATOM      3  C   UNL A   1      33.572  27.121  22.366  1.00  0.00     0.021 C 
BRANCH   3   4
ATOM      4  C   UNL A   1      32.370  26.325  21.846  1.00  0.00     0.116 C 
BRANCH   4   5
ATOM      5  N   UNL A   1      31.147  26.818  22.451  1.00  0.00    -0.352 N 
ATOM      6  C   UNL A   1      30.442  26.472  23.560  1.00  0.00     0.252 C 
ATOM      7  O   UNL A   1      29.385  27.080  23.752  1.00  0.00    -0.269 OA
ATOM      8  H   UNL A   1      30.740  27.562  21.950  1.00  0.00     0.163 HD
BRANCH   6   9
ATOM      9  C   UNL A   1      30.927  25.469  24.564  1.00  0.00     0.056 A 
ATOM     10  C   UNL A   1      32.559  23.889  25.472  1.00  0.00     0.048 A 
ATOM     11  C   UNL A   1      32.092  24.618  24.439  1.00  0.00     0.029 A 
ATOM     12  C   UNL A   1      31.745  23.814  26.728  1.00  0.00     0.255 A 
ATOM     13  N   UNL A   1      30.586  24.557  26.724  1.00  0.00    -0.328 N 
ATOM     14  O   UNL A   1      32.070  23.132  27.692  1.00  0.00    -0.269 OA
ATOM     15  C   UNL A   1      30.197  25.376  25.691  1.00  0.00     0.099 A 
ATOM     16  H   UNL A   1      29.999  24.499  27.511  1.00  0.00     0.169 HD
BRANCH  10  17
ATOM     17  C   UNL A   1      33.856  23.210  25.341  1.00  0.00    -0.012 A 
ATOM     18  C   UNL A   1      37.549  23.881  25.983  1.00  0.00     0.046 C 
ATOM     19  C   UNL A   1      36.282  23.168  25.600  1.00  0.00    -0.032 A 
ATOM     20  C   UNL A   1      35.054  23.850  25.679  1.00  0.00     0.014 A 
ATOM     21  C   UNL A   1      36.290  21.835  25.162  1.00  0.00     0.044 A 
ATOM     22  C   UNL A   1      35.100  21.196  24.808  1.00  0.00     0.021 A 
ATOM     23  Cl  UNL A   1      37.755  20.926  25.046  1.00  0.00    -0.084 Cl
ATOM     24  C   UNL A   1      33.889  21.880  24.898  1.00  0.00     0.010 A 
ENDBRANCH  10  17
ENDBRANCH   6   9
ENDBRANCH   4   5
ENDBRANCH   3   4
ENDBRANCH   2   3
ENDBRANCH   1   2
BRANCH   1  25
ATOM     25  C   UNL A   1      33.051  28.217  25.904  1.00  0.00     0.021 C 
BRANCH  25  26
ATOM     26  C   UNL A   1      33.794  28.480  27.211  1.00  0.00     0.116 C 
BRANCH  26  27
ATOM     27  N   UNL A   1      33.714  29.879  27.603  1.00  0.00    -0.352 N 
ATOM     28  C   UNL A   1      34.630  30.648  28.277  1.00  0.00     0.251 C 
ATOM     29  H   UNL A   1      32.883  30.340  27.350  1.00  0.00     0.163 HD
ATOM     30  O   UNL A   1      34.308  31.746  28.719  1.00  0.00    -0.269 OA
BRANCH  28  31
ATOM     31  C   UNL A   1      36.006  30.148  28.479  1.00  0.00     0.039 A 
ATOM     32  C   UNL A   1      36.911  30.210  27.416  1.00  0.00     0.014 A 
ATOM     33  C   UNL A   1      36.395  29.598  29.704  1.00  0.00     0.014 A 
ATOM     34  C   UNL A   1      38.223  29.766  27.597  1.00  0.00     0.010 A 
ATOM     35  C   UNL A   1      37.718  29.218  29.903  1.00  0.00     0.010 A 
ATOM     36  C   UNL A   1      38.643  29.292  28.850  1.00  0.00    -0.014 A 
BRANCH  36  37
ATOM     37  C   UNL A   1      40.044  28.859  29.078  1.00  0.00     0.031 A 
ATOM     38  C   UNL A   1      41.044  29.816  29.662  1.00  0.00     0.074 A 
ATOM     39  C   UNL A   1      40.431  27.629  28.691  1.00  0.00     0.049 A 
ATOM     40  N   UNL A   1      42.326  29.649  29.868  1.00  0.00    -0.248 NA
ATOM     41  C   UNL A   1      40.543  31.145  30.040  1.00  0.00     0.031 C 
ATOM     42  C   UNL A   1      39.566  26.630  28.061  1.00  0.00     0.029 A 
ATOM     43  N   UNL A   1      41.656  27.017  28.757  1.00  0.00    -0.354 N 
ATOM     44  C   UNL A   1      42.785  30.853  30.385  1.00  0.00     0.074 A 
ATOM     45  C   UNL A   1      41.657  31.759  30.409  1.00  0.00     0.031 C 
ATOM     46  C   UNL A   1      40.286  25.526  27.806  1.00  0.00     0.029 A 
ATOM     47  C   UNL A   1      41.666  25.751  28.226  1.00  0.00     0.049 A 
ATOM     48  H   UNL A   1      42.453  27.445  29.147  1.00  0.00     0.167 HD
ATOM     49  C   UNL A   1      44.026  31.168  30.825  1.00  0.00     0.037 A 
ATOM     50  C   UNL A   1      42.676  24.872  28.085  1.00  0.00     0.037 A 
ATOM     51  C   UNL A   1      45.143  30.260  30.813  1.00  0.00     0.049 A 
ATOM     52  C   UNL A   1      44.045  25.239  28.584  1.00  0.00     0.074 A 
ATOM     53  C   UNL A   1      46.428  30.464  31.284  1.00  0.00     0.029 A 
ATOM     54  N   UNL A   1      45.106  28.972  30.298  1.00  0.00    -0.354 N 
ATOM     55  N   UNL A   1      44.450  26.357  29.135  1.00  0.00    -0.248 NA
ATOM     56  C   UNL A   1      45.094  24.218  28.452  1.00  0.00     0.031 C 
ATOM     57  C   UNL A   1      47.179  29.313  31.020  1.00  0.00     0.029 A 
ATOM     58  C   UNL A   1      46.351  28.376  30.423  1.00  0.00     0.049 A 
ATOM     59  H   UNL A   1      44.313  28.545  29.902  1.00  0.00     0.167 HD
ATOM     60  C   UNL A   1      45.793  26.170  29.432  1.00  0.00     0.074 A 
ATOM     61  C   UNL A   1      46.130  24.824  29.015  1.00  0.00     0.031 C 
ATOM     62  C   UNL A   1      46.669  27.036  30.000  1.00  0.00     0.037 A 
BRANCH  49  63
ATOM     63  C   UNL A   1      44.233  32.558  31.354  1.00  0.00     0.057 A 
ATOM     64  C   UNL A   1      44.636  33.612  30.521  1.00  0.00     0.134 A 
ATOM     65  C   UNL A   1      44.025  32.850  32.707  1.00  0.00     0.134 A 
ATOM     66  F   UNL A   1      44.864  33.398  29.216  1.00  0.00    -0.206 F 
ATOM     67  C   UNL A   1      44.860  34.895  31.021  1.00  0.00     0.040 A 
ATOM     68  C   UNL A   1      44.219  34.137  33.215  1.00  0.00     0.040 A 
ATOM     69  F   UNL A   1      43.634  31.892  33.560  1.00  0.00    -0.206 F 
ATOM     70  C   UNL A   1      44.648  35.161  32.372  1.00  0.00     0.006 A 
ENDBRANCH  49  63
BRANCH  50  71
ATOM     71  C   UNL A   1      42.417  23.551  27.462  1.00  0.00     0.057 A 
ATOM     72  C   UNL A   1      42.094  22.435  28.242  1.00  0.00     0.134 A 
ATOM     73  C   UNL A   1      42.457  23.380  26.073  1.00  0.00     0.134 A 
ATOM     74  F   UNL A   1      42.055  22.535  29.578  1.00  0.00    -0.206 F 
ATOM     75  C   UNL A   1      41.833  21.192  27.663  1.00  0.00     0.040 A 
ATOM     76  C   UNL A   1      42.177  22.149  25.480  1.00  0.00     0.040 A 
ATOM     77  F   UNL A   1      42.749  24.416  25.271  1.00  0.00    -0.206 F 
ATOM     78  C   UNL A   1      41.867  21.048  26.278  1.00  0.00     0.006 A 
ENDBRANCH  50  71
BRANCH  62  79
ATOM     79  C   UNL A   1      48.070  26.545  30.221  1.00  0.00     0.057 A 
ATOM     80  C   UNL A   1      49.077  26.732  29.266  1.00  0.00     0.134 A 
ATOM     81  C   UNL A   1      48.422  25.912  31.420  1.00  0.00     0.134 A 
ATOM     82  F   UNL A   1      48.800  27.320  28.092  1.00  0.00    -0.206 F 
ATOM     83  C   UNL A   1      50.382  26.290  29.488  1.00  0.00     0.040 A 
ATOM     84  C   UNL A   1      49.729  25.487  31.662  1.00  0.00     0.040 A 
ATOM     85  F   UNL A   1      47.506  25.708  32.378  1.00  0.00    -0.206 F 
ATOM     86  C   UNL A   1      50.712  25.670  30.692  1.00  0.00     0.006 A 
ENDBRANCH  62  79
ENDBRANCH  36  37
ENDBRANCH  28  31
ENDBRANCH  26  27
ENDBRANCH  25  26
ENDBRANCH   1  25
TORSDOF 14
ENDMDL
