MODEL 1
REMARK VINA RESULT:     -11.3      0.000      0.000
REMARK SMILES CC1(C)CSC[C@H]([NH2+][C@H](C(=O)NCCCCCCNC(=O)c2ccc(-c3c4nc(c(-c5c(F)cccc5F)c5ccc([nH]5)c(-c5c(F)cccc5F)c5nc(c(-c6c(F)cccc6F)c6ccc3[nH]6)C=C5)C=C4)cc2)c2ccccc2)C1
REMARK SMILES IDX 15 1 14 2 13 3 12 4 10 5 11 6 9 8 8 9 7 12 1 13 2 14 3 15
REMARK SMILES IDX 4 16 82 17 5 18 6 19 76 20 77 21 81 22 78 23 80 24 79 25
REMARK SMILES IDX 16 26 17 27 18 28 19 29 20 30 21 32 22 33 23 34 75 35 24 36
REMARK SMILES IDX 74 37 25 38 26 39 27 40 68 41 28 42 73 43 67 44 69 45 29 46
REMARK SMILES IDX 72 47 66 48 65 49 30 51 56 52 39 53 55 54 40 55 43 56 54 57
REMARK SMILES IDX 70 58 41 59 42 60 53 62 71 63 44 64 31 65 32 66 37 67 33 68
REMARK SMILES IDX 34 69 36 70 38 71 35 72 57 73 58 74 63 75 59 76 60 77 62 78
REMARK SMILES IDX 64 79 61 80 45 81 46 82 51 83 47 84 48 85 50 86 52 87 49 88
REMARK H PARENT 12 7 8 10 8 11 19 31 69 50 43 61
REMARK Flexibility Score: inf
ROOT
ATOM      1  C   UNL A   1      29.876  30.203  24.007  1.00  0.00     0.002 C 
ENDROOT
BRANCH   1   2
ATOM      2  C   UNL A   1      30.254  29.705  22.605  1.00  0.00     0.021 C 
BRANCH   2   3
ATOM      3  C   UNL A   1      30.439  28.188  22.502  1.00  0.00     0.116 C 
BRANCH   3   4
ATOM      4  N   UNL A   1      31.721  27.871  21.910  1.00  0.00    -0.351 N 
ATOM      5  C   UNL A   1      32.801  27.262  22.489  1.00  0.00     0.283 C 
ATOM      6  O   UNL A   1      33.890  27.455  21.945  1.00  0.00    -0.268 OA
ATOM      7  H   UNL A   1      31.831  28.126  20.966  1.00  0.00     0.163 HD
BRANCH   5   8
ATOM      8  C   UNL A   1      32.583  26.348  23.738  1.00  0.00     0.304 C 
BRANCH   8   9
ATOM      9  N   UNL A   1      33.495  25.180  23.805  1.00  0.00    -0.329 N 
ATOM     10  H   UNL A   1      33.786  24.960  22.853  1.00  0.00     0.347 HD
ATOM     11  H   UNL A   1      34.250  25.467  24.428  1.00  0.00     0.347 HD
BRANCH   9  12
ATOM     12  C   UNL A   1      32.948  23.949  24.400  1.00  0.00     0.193 C 
ATOM     13  C   UNL A   1      31.508  22.520  26.816  1.00  0.00     0.012 C 
ATOM     14  C   UNL A   1      33.023  22.446  26.528  1.00  0.00    -0.021 C 
ATOM     15  C   UNL A   1      33.748  22.332  27.885  1.00  0.00     0.012 C 
ATOM     16  C   UNL A   1      33.372  21.188  25.704  1.00  0.00     0.076 C 
ATOM     17  C   UNL A   1      33.515  23.739  25.820  1.00  0.00     0.073 C 
ATOM     18  S   UNL A   1      32.702  21.182  24.019  1.00  0.00    -0.155 SA
ATOM     19  C   UNL A   1      33.350  22.788  23.470  1.00  0.00     0.134 C 
ENDBRANCH   9  12
ENDBRANCH   8   9
BRANCH   8  20
ATOM     20  C   UNL A   1      32.709  27.125  25.048  1.00  0.00     0.019 A 
ATOM     21  C   UNL A   1      31.688  27.116  26.013  1.00  0.00     0.010 A 
ATOM     22  C   UNL A   1      33.850  27.909  25.292  1.00  0.00     0.010 A 
ATOM     23  C   UNL A   1      31.831  27.812  27.214  1.00  0.00     0.001 A 
ATOM     24  C   UNL A   1      33.980  28.625  26.485  1.00  0.00     0.001 A 
ATOM     25  C   UNL A   1      32.978  28.566  27.450  1.00  0.00     0.000 A 
ENDBRANCH   8  20
ENDBRANCH   5   8
ENDBRANCH   3   4
ENDBRANCH   2   3
ENDBRANCH   1   2
BRANCH   1  26
ATOM     26  C   UNL A   1      31.062  30.526  24.920  1.00  0.00     0.002 C 
BRANCH  26  27
ATOM     27  C   UNL A   1      30.855  31.734  25.831  1.00  0.00     0.021 C 
BRANCH  27  28
ATOM     28  C   UNL A   1      32.032  32.041  26.750  1.00  0.00     0.116 C 
BRANCH  28  29
ATOM     29  N   UNL A   1      32.090  33.447  27.114  1.00  0.00    -0.352 N 
ATOM     30  C   UNL A   1      32.959  34.081  27.965  1.00  0.00     0.251 C 
ATOM     31  H   UNL A   1      31.412  34.024  26.692  1.00  0.00     0.163 HD
ATOM     32  O   UNL A   1      32.752  35.241  28.317  1.00  0.00    -0.269 OA
BRANCH  30  33
ATOM     33  C   UNL A   1      34.138  33.355  28.477  1.00  0.00     0.039 A 
ATOM     34  C   UNL A   1      35.328  34.056  28.681  1.00  0.00     0.014 A 
ATOM     35  C   UNL A   1      34.067  31.988  28.761  1.00  0.00     0.014 A 
ATOM     36  C   UNL A   1      36.432  33.398  29.225  1.00  0.00     0.010 A 
ATOM     37  C   UNL A   1      35.143  31.352  29.373  1.00  0.00     0.010 A 
ATOM     38  C   UNL A   1      36.338  32.049  29.606  1.00  0.00    -0.014 A 
BRANCH  38  39
ATOM     39  C   UNL A   1      37.481  31.352  30.250  1.00  0.00     0.031 A 
ATOM     40  C   UNL A   1      37.820  31.627  31.688  1.00  0.00     0.074 A 
ATOM     41  C   UNL A   1      38.249  30.519  29.521  1.00  0.00     0.049 A 
ATOM     42  N   UNL A   1      38.814  31.166  32.406  1.00  0.00    -0.248 NA
ATOM     43  C   UNL A   1      36.945  32.565  32.409  1.00  0.00     0.031 C 
ATOM     44  C   UNL A   1      38.053  30.209  28.103  1.00  0.00     0.029 A 
ATOM     45  N   UNL A   1      39.358  29.790  29.870  1.00  0.00    -0.354 N 
ATOM     46  C   UNL A   1      38.691  31.767  33.652  1.00  0.00     0.074 A 
ATOM     47  C   UNL A   1      37.559  32.665  33.579  1.00  0.00     0.031 C 
ATOM     48  C   UNL A   1      38.996  29.339  27.710  1.00  0.00     0.029 A 
ATOM     49  C   UNL A   1      39.886  29.060  28.832  1.00  0.00     0.049 A 
ATOM     50  H   UNL A   1      39.740  29.790  30.777  1.00  0.00     0.167 HD
ATOM     51  C   UNL A   1      39.438  31.570  34.763  1.00  0.00     0.037 A 
ATOM     52  C   UNL A   1      40.970  28.263  28.788  1.00  0.00     0.037 A 
ATOM     53  C   UNL A   1      40.548  30.657  34.840  1.00  0.00     0.049 A 
ATOM     54  C   UNL A   1      41.786  28.064  30.036  1.00  0.00     0.074 A 
ATOM     55  C   UNL A   1      41.326  30.337  35.939  1.00  0.00     0.029 A 
ATOM     56  N   UNL A   1      41.040  29.920  33.774  1.00  0.00    -0.354 N 
ATOM     57  N   UNL A   1      41.613  28.582  31.228  1.00  0.00    -0.248 NA
ATOM     58  C   UNL A   1      42.946  27.167  29.933  1.00  0.00     0.031 C 
ATOM     59  C   UNL A   1      42.321  29.446  35.526  1.00  0.00     0.029 A 
ATOM     60  C   UNL A   1      42.129  29.166  34.182  1.00  0.00     0.049 A 
ATOM     61  H   UNL A   1      40.670  29.930  32.861  1.00  0.00     0.167 HD
ATOM     62  C   UNL A   1      42.620  28.050  32.024  1.00  0.00     0.074 A 
ATOM     63  C   UNL A   1      43.392  27.161  31.182  1.00  0.00     0.031 C 
ATOM     64  C   UNL A   1      42.883  28.280  33.334  1.00  0.00     0.037 A 
BRANCH  51  65
ATOM     65  C   UNL A   1      39.081  32.360  35.991  1.00  0.00     0.057 A 
ATOM     66  C   UNL A   1      38.250  31.838  36.991  1.00  0.00     0.134 A 
ATOM     67  C   UNL A   1      39.610  33.641  36.194  1.00  0.00     0.134 A 
ATOM     68  F   UNL A   1      37.701  30.622  36.853  1.00  0.00    -0.206 F 
ATOM     69  C   UNL A   1      37.936  32.572  38.136  1.00  0.00     0.040 A 
ATOM     70  C   UNL A   1      39.327  34.372  37.350  1.00  0.00     0.040 A 
ATOM     71  F   UNL A   1      40.418  34.198  35.281  1.00  0.00    -0.206 F 
ATOM     72  C   UNL A   1      38.482  33.840  38.321  1.00  0.00     0.006 A 
ENDBRANCH  51  65
BRANCH  52  73
ATOM     73  C   UNL A   1      41.342  27.579  27.522  1.00  0.00     0.057 A 
ATOM     74  C   UNL A   1      40.897  26.282  27.243  1.00  0.00     0.134 A 
ATOM     75  C   UNL A   1      42.159  28.199  26.570  1.00  0.00     0.134 A 
ATOM     76  F   UNL A   1      40.126  25.628  28.125  1.00  0.00    -0.206 F 
ATOM     77  C   UNL A   1      41.270  25.616  26.075  1.00  0.00     0.040 A 
ATOM     78  C   UNL A   1      42.517  27.555  25.384  1.00  0.00     0.040 A 
ATOM     79  F   UNL A   1      42.611  29.445  26.772  1.00  0.00    -0.206 F 
ATOM     80  C   UNL A   1      42.079  26.256  25.138  1.00  0.00     0.006 A 
ENDBRANCH  52  73
BRANCH  64  81
ATOM     81  C   UNL A   1      44.029  27.530  33.947  1.00  0.00     0.057 A 
ATOM     82  C   UNL A   1      43.867  26.259  34.513  1.00  0.00     0.134 A 
ATOM     83  C   UNL A   1      45.321  28.072  33.936  1.00  0.00     0.134 A 
ATOM     84  F   UNL A   1      42.653  25.689  34.569  1.00  0.00    -0.206 F 
ATOM     85  C   UNL A   1      44.944  25.564  35.067  1.00  0.00     0.040 A 
ATOM     86  C   UNL A   1      46.411  27.375  34.459  1.00  0.00     0.040 A 
ATOM     87  F   UNL A   1      45.548  29.281  33.400  1.00  0.00    -0.206 F 
ATOM     88  C   UNL A   1      46.222  26.120  35.033  1.00  0.00     0.006 A 
ENDBRANCH  64  81
ENDBRANCH  38  39
ENDBRANCH  30  33
ENDBRANCH  28  29
ENDBRANCH  27  28
ENDBRANCH  26  27
ENDBRANCH   1  26
TORSDOF 16
ENDMDL
MODEL 2
REMARK VINA RESULT:     -11.2      0.637      6.259
REMARK SMILES CC1(C)CSC[C@H]([NH2+][C@H](C(=O)NCCCCCCNC(=O)c2ccc(-c3c4nc(c(-c5c(F)cccc5F)c5ccc([nH]5)c(-c5c(F)cccc5F)c5nc(c(-c6c(F)cccc6F)c6ccc3[nH]6)C=C5)C=C4)cc2)c2ccccc2)C1
REMARK SMILES IDX 15 1 14 2 13 3 12 4 10 5 11 6 9 8 8 9 7 12 1 13 2 14 3 15
REMARK SMILES IDX 4 16 82 17 5 18 6 19 76 20 77 21 81 22 78 23 80 24 79 25
REMARK SMILES IDX 16 26 17 27 18 28 19 29 20 30 21 32 22 33 23 34 75 35 24 36
REMARK SMILES IDX 74 37 25 38 26 39 27 40 68 41 28 42 73 43 67 44 69 45 29 46
REMARK SMILES IDX 72 47 66 48 65 49 30 51 56 52 39 53 55 54 40 55 43 56 54 57
REMARK SMILES IDX 70 58 41 59 42 60 53 62 71 63 44 64 31 65 32 66 37 67 33 68
REMARK SMILES IDX 34 69 36 70 38 71 35 72 57 73 58 74 63 75 59 76 60 77 62 78
REMARK SMILES IDX 64 79 61 80 45 81 46 82 51 83 47 84 48 85 50 86 52 87 49 88
REMARK H PARENT 12 7 8 10 8 11 19 31 69 50 43 61
REMARK Flexibility Score: inf
ROOT
ATOM      1  C   UNL A   1      29.894  30.127  24.197  1.00  0.00     0.002 C 
ENDROOT
BRANCH   1   2
ATOM      2  C   UNL A   1      30.170  29.607  22.780  1.00  0.00     0.021 C 
BRANCH   2   3
ATOM      3  C   UNL A   1      30.568  28.129  22.715  1.00  0.00     0.116 C 
BRANCH   3   4
ATOM      4  N   UNL A   1      31.852  27.976  22.067  1.00  0.00    -0.351 N 
ATOM      5  C   UNL A   1      33.013  27.469  22.583  1.00  0.00     0.283 C 
ATOM      6  O   UNL A   1      34.053  27.800  22.009  1.00  0.00    -0.268 OA
ATOM      7  H   UNL A   1      31.897  28.276  21.130  1.00  0.00     0.163 HD
BRANCH   5   8
ATOM      8  C   UNL A   1      32.945  26.492  23.800  1.00  0.00     0.304 C 
BRANCH   8   9
ATOM      9  N   UNL A   1      34.031  25.483  23.835  1.00  0.00    -0.329 N 
ATOM     10  H   UNL A   1      34.268  25.251  22.871  1.00  0.00     0.347 HD
ATOM     11  H   UNL A   1      34.784  25.921  24.367  1.00  0.00     0.347 HD
BRANCH   9  12
ATOM     12  C   UNL A   1      33.741  24.223  24.540  1.00  0.00     0.193 C 
ATOM     13  C   UNL A   1      34.318  22.283  26.960  1.00  0.00     0.012 C 
ATOM     14  C   UNL A   1      34.848  22.079  25.524  1.00  0.00    -0.021 C 
ATOM     15  C   UNL A   1      36.222  21.385  25.632  1.00  0.00     0.012 C 
ATOM     16  C   UNL A   1      33.918  21.151  24.714  1.00  0.00     0.076 C 
ATOM     17  C   UNL A   1      35.046  23.443  24.808  1.00  0.00     0.073 C 
ATOM     18  S   UNL A   1      32.275  21.839  24.378  1.00  0.00    -0.155 SA
ATOM     19  C   UNL A   1      32.794  23.413  23.634  1.00  0.00     0.134 C 
ENDBRANCH   9  12
ENDBRANCH   8   9
BRANCH   8  20
ATOM     20  C   UNL A   1      32.944  27.236  25.135  1.00  0.00     0.019 A 
ATOM     21  C   UNL A   1      34.024  28.044  25.530  1.00  0.00     0.010 A 
ATOM     22  C   UNL A   1      31.864  27.085  26.023  1.00  0.00     0.010 A 
ATOM     23  C   UNL A   1      33.994  28.735  26.743  1.00  0.00     0.001 A 
ATOM     24  C   UNL A   1      31.849  27.759  27.247  1.00  0.00     0.001 A 
ATOM     25  C   UNL A   1      32.907  28.593  27.600  1.00  0.00     0.000 A 
ENDBRANCH   8  20
ENDBRANCH   5   8
ENDBRANCH   3   4
ENDBRANCH   2   3
ENDBRANCH   1   2
BRANCH   1  26
ATOM     26  C   UNL A   1      31.141  30.513  24.997  1.00  0.00     0.002 C 
BRANCH  26  27
ATOM     27  C   UNL A   1      30.928  31.640  26.007  1.00  0.00     0.021 C 
BRANCH  27  28
ATOM     28  C   UNL A   1      32.182  32.052  26.769  1.00  0.00     0.116 C 
BRANCH  28  29
ATOM     29  N   UNL A   1      32.160  33.457  27.139  1.00  0.00    -0.352 N 
ATOM     30  C   UNL A   1      32.961  34.125  28.029  1.00  0.00     0.251 C 
ATOM     31  H   UNL A   1      31.477  34.005  26.688  1.00  0.00     0.163 HD
ATOM     32  O   UNL A   1      32.687  35.273  28.375  1.00  0.00    -0.269 OA
BRANCH  30  33
ATOM     33  C   UNL A   1      34.148  33.450  28.592  1.00  0.00     0.039 A 
ATOM     34  C   UNL A   1      35.367  34.129  28.612  1.00  0.00     0.014 A 
ATOM     35  C   UNL A   1      34.054  32.153  29.105  1.00  0.00     0.014 A 
ATOM     36  C   UNL A   1      36.482  33.529  29.200  1.00  0.00     0.010 A 
ATOM     37  C   UNL A   1      35.146  31.587  29.757  1.00  0.00     0.010 A 
ATOM     38  C   UNL A   1      36.372  32.267  29.806  1.00  0.00    -0.014 A 
BRANCH  38  39
ATOM     39  C   UNL A   1      37.530  31.643  30.496  1.00  0.00     0.031 A 
ATOM     40  C   UNL A   1      38.375  30.624  29.782  1.00  0.00     0.074 A 
ATOM     41  C   UNL A   1      37.782  31.949  31.783  1.00  0.00     0.049 A 
ATOM     42  N   UNL A   1      39.386  29.926  30.235  1.00  0.00    -0.248 NA
ATOM     43  C   UNL A   1      38.021  30.330  28.385  1.00  0.00     0.031 C 
ATOM     44  C   UNL A   1      37.005  32.884  32.600  1.00  0.00     0.029 A 
ATOM     45  N   UNL A   1      38.757  31.495  32.636  1.00  0.00    -0.354 N 
ATOM     46  C   UNL A   1      39.776  29.104  29.186  1.00  0.00     0.074 A 
ATOM     47  C   UNL A   1      38.863  29.350  28.092  1.00  0.00     0.031 C 
ATOM     48  C   UNL A   1      37.546  32.949  33.826  1.00  0.00     0.029 A 
ATOM     49  C   UNL A   1      38.680  32.035  33.898  1.00  0.00     0.049 A 
ATOM     50  H   UNL A   1      39.447  30.845  32.369  1.00  0.00     0.167 HD
ATOM     51  C   UNL A   1      40.817  28.238  29.132  1.00  0.00     0.037 A 
ATOM     52  C   UNL A   1      39.433  31.809  34.991  1.00  0.00     0.037 A 
ATOM     53  C   UNL A   1      41.739  28.014  30.214  1.00  0.00     0.049 A 
ATOM     54  C   UNL A   1      40.580  30.840  34.905  1.00  0.00     0.074 A 
ATOM     55  C   UNL A   1      42.864  27.209  30.234  1.00  0.00     0.029 A 
ATOM     56  N   UNL A   1      41.640  28.594  31.470  1.00  0.00    -0.354 N 
ATOM     57  N   UNL A   1      40.984  30.125  33.883  1.00  0.00    -0.248 NA
ATOM     58  C   UNL A   1      41.379  30.651  36.124  1.00  0.00     0.031 C 
ATOM     59  C   UNL A   1      43.416  27.260  31.518  1.00  0.00     0.029 A 
ATOM     60  C   UNL A   1      42.668  28.142  32.281  1.00  0.00     0.049 A 
ATOM     61  H   UNL A   1      40.941  29.232  31.744  1.00  0.00     0.167 HD
ATOM     62  C   UNL A   1      42.100  29.426  34.325  1.00  0.00     0.074 A 
ATOM     63  C   UNL A   1      42.317  29.813  35.703  1.00  0.00     0.031 C 
ATOM     64  C   UNL A   1      42.875  28.542  33.650  1.00  0.00     0.037 A 
BRANCH  51  65
ATOM     65  C   UNL A   1      41.015  27.467  27.858  1.00  0.00     0.057 A 
ATOM     66  C   UNL A   1      41.802  27.960  26.809  1.00  0.00     0.134 A 
ATOM     67  C   UNL A   1      40.445  26.198  27.697  1.00  0.00     0.134 A 
ATOM     68  F   UNL A   1      42.367  29.173  26.894  1.00  0.00    -0.206 F 
ATOM     69  C   UNL A   1      41.994  27.229  25.634  1.00  0.00     0.040 A 
ATOM     70  C   UNL A   1      40.655  25.445  26.539  1.00  0.00     0.040 A 
ATOM     71  F   UNL A   1      39.686  25.662  28.664  1.00  0.00    -0.206 F 
ATOM     72  C   UNL A   1      41.426  25.964  25.502  1.00  0.00     0.006 A 
ENDBRANCH  51  65
BRANCH  52  73
ATOM     73  C   UNL A   1      39.137  32.524  36.259  1.00  0.00     0.057 A 
ATOM     74  C   UNL A   1      38.265  31.980  37.210  1.00  0.00     0.134 A 
ATOM     75  C   UNL A   1      39.706  33.771  36.545  1.00  0.00     0.134 A 
ATOM     76  F   UNL A   1      37.675  30.796  36.985  1.00  0.00    -0.206 F 
ATOM     77  C   UNL A   1      37.951  32.659  38.389  1.00  0.00     0.040 A 
ATOM     78  C   UNL A   1      39.421  34.448  37.732  1.00  0.00     0.040 A 
ATOM     79  F   UNL A   1      40.555  34.342  35.680  1.00  0.00    -0.206 F 
ATOM     80  C   UNL A   1      38.535  33.896  38.654  1.00  0.00     0.006 A 
ENDBRANCH  52  73
BRANCH  64  81
ATOM     81  C   UNL A   1      44.051  27.961  34.379  1.00  0.00     0.057 A 
ATOM     82  C   UNL A   1      45.297  28.601  34.409  1.00  0.00     0.134 A 
ATOM     83  C   UNL A   1      43.923  26.763  35.094  1.00  0.00     0.134 A 
ATOM     84  F   UNL A   1      45.490  29.745  33.733  1.00  0.00    -0.206 F 
ATOM     85  C   UNL A   1      46.379  28.059  35.104  1.00  0.00     0.040 A 
ATOM     86  C   UNL A   1      44.989  26.226  35.817  1.00  0.00     0.040 A 
ATOM     87  F   UNL A   1      42.755  26.103  35.116  1.00  0.00    -0.206 F 
ATOM     88  C   UNL A   1      46.224  26.872  35.817  1.00  0.00     0.006 A 
ENDBRANCH  64  81
ENDBRANCH  38  39
ENDBRANCH  30  33
ENDBRANCH  28  29
ENDBRANCH  27  28
ENDBRANCH  26  27
ENDBRANCH   1  26
TORSDOF 16
ENDMDL
MODEL 3
REMARK VINA RESULT:     -11.2      2.059      2.722
REMARK SMILES CC1(C)CSC[C@H]([NH2+][C@H](C(=O)NCCCCCCNC(=O)c2ccc(-c3c4nc(c(-c5c(F)cccc5F)c5ccc([nH]5)c(-c5c(F)cccc5F)c5nc(c(-c6c(F)cccc6F)c6ccc3[nH]6)C=C5)C=C4)cc2)c2ccccc2)C1
REMARK SMILES IDX 15 1 14 2 13 3 12 4 10 5 11 6 9 8 8 9 7 12 1 13 2 14 3 15
REMARK SMILES IDX 4 16 82 17 5 18 6 19 76 20 77 21 81 22 78 23 80 24 79 25
REMARK SMILES IDX 16 26 17 27 18 28 19 29 20 30 21 32 22 33 23 34 75 35 24 36
REMARK SMILES IDX 74 37 25 38 26 39 27 40 68 41 28 42 73 43 67 44 69 45 29 46
REMARK SMILES IDX 72 47 66 48 65 49 30 51 56 52 39 53 55 54 40 55 43 56 54 57
REMARK SMILES IDX 70 58 41 59 42 60 53 62 71 63 44 64 31 65 32 66 37 67 33 68
REMARK SMILES IDX 34 69 36 70 38 71 35 72 57 73 58 74 63 75 59 76 60 77 62 78
REMARK SMILES IDX 64 79 61 80 45 81 46 82 51 83 47 84 48 85 50 86 52 87 49 88
REMARK H PARENT 12 7 8 10 8 11 19 31 69 50 43 61
REMARK Flexibility Score: inf
ROOT
ATOM      1  C   UNL A   1      30.649  29.646  24.249  1.00  0.00     0.002 C 
ENDROOT
BRANCH   1   2
ATOM      2  C   UNL A   1      31.303  29.027  23.006  1.00  0.00     0.021 C 
BRANCH   2   3
ATOM      3  C   UNL A   1      30.632  27.741  22.514  1.00  0.00     0.116 C 
BRANCH   3   4
ATOM      4  N   UNL A   1      31.449  27.095  21.509  1.00  0.00    -0.351 N 
ATOM      5  C   UNL A   1      32.305  26.038  21.657  1.00  0.00     0.283 C 
ATOM      6  O   UNL A   1      33.174  25.918  20.791  1.00  0.00    -0.268 OA
ATOM      7  H   UNL A   1      31.378  27.463  20.599  1.00  0.00     0.163 HD
BRANCH   5   8
ATOM      8  C   UNL A   1      32.101  25.051  22.851  1.00  0.00     0.304 C 
BRANCH   8   9
ATOM      9  N   UNL A   1      32.900  23.805  22.757  1.00  0.00    -0.329 N 
ATOM     10  H   UNL A   1      32.273  23.058  22.458  1.00  0.00     0.347 HD
ATOM     11  H   UNL A   1      33.652  24.019  22.102  1.00  0.00     0.347 HD
BRANCH   9  12
ATOM     12  C   UNL A   1      33.574  23.357  23.987  1.00  0.00     0.193 C 
ATOM     13  C   UNL A   1      35.997  23.614  25.991  1.00  0.00     0.012 C 
ATOM     14  C   UNL A   1      35.848  22.503  24.930  1.00  0.00    -0.021 C 
ATOM     15  C   UNL A   1      37.267  22.117  24.462  1.00  0.00     0.012 C 
ATOM     16  C   UNL A   1      35.196  21.241  25.534  1.00  0.00     0.076 C 
ATOM     17  C   UNL A   1      35.051  23.016  23.699  1.00  0.00     0.073 C 
ATOM     18  S   UNL A   1      33.470  21.458  26.047  1.00  0.00    -0.155 SA
ATOM     19  C   UNL A   1      32.811  22.116  24.487  1.00  0.00     0.134 C 
ENDBRANCH   9  12
ENDBRANCH   8   9
BRANCH   8  20
ATOM     20  C   UNL A   1      32.404  25.708  24.197  1.00  0.00     0.019 A 
ATOM     21  C   UNL A   1      33.605  26.400  24.428  1.00  0.00     0.010 A 
ATOM     22  C   UNL A   1      31.488  25.591  25.257  1.00  0.00     0.010 A 
ATOM     23  C   UNL A   1      33.853  27.014  25.656  1.00  0.00     0.001 A 
ATOM     24  C   UNL A   1      31.750  26.186  26.494  1.00  0.00     0.001 A 
ATOM     25  C   UNL A   1      32.925  26.908  26.689  1.00  0.00     0.000 A 
ENDBRANCH   8  20
ENDBRANCH   5   8
ENDBRANCH   3   4
ENDBRANCH   2   3
ENDBRANCH   1   2
BRANCH   1  26
ATOM     26  C   UNL A   1      31.616  29.996  25.383  1.00  0.00     0.002 C 
BRANCH  26  27
ATOM     27  C   UNL A   1      31.289  31.292  26.124  1.00  0.00     0.021 C 
BRANCH  27  28
ATOM     28  C   UNL A   1      32.430  31.840  26.973  1.00  0.00     0.116 C 
BRANCH  28  29
ATOM     29  N   UNL A   1      32.233  33.238  27.317  1.00  0.00    -0.352 N 
ATOM     30  C   UNL A   1      32.983  34.035  28.144  1.00  0.00     0.251 C 
ATOM     31  H   UNL A   1      31.455  33.673  26.900  1.00  0.00     0.163 HD
ATOM     32  O   UNL A   1      32.572  35.142  28.484  1.00  0.00    -0.269 OA
BRANCH  30  33
ATOM     33  C   UNL A   1      34.284  33.546  28.645  1.00  0.00     0.039 A 
ATOM     34  C   UNL A   1      34.328  32.866  29.863  1.00  0.00     0.014 A 
ATOM     35  C   UNL A   1      35.455  33.754  27.910  1.00  0.00     0.014 A 
ATOM     36  C   UNL A   1      35.539  32.342  30.317  1.00  0.00     0.010 A 
ATOM     37  C   UNL A   1      36.646  33.167  28.326  1.00  0.00     0.010 A 
ATOM     38  C   UNL A   1      36.702  32.460  29.537  1.00  0.00    -0.014 A 
BRANCH  38  39
ATOM     39  C   UNL A   1      37.984  31.850  29.973  1.00  0.00     0.031 A 
ATOM     40  C   UNL A   1      38.888  32.588  30.921  1.00  0.00     0.074 A 
ATOM     41  C   UNL A   1      38.361  30.660  29.466  1.00  0.00     0.049 A 
ATOM     42  N   UNL A   1      40.072  32.249  31.366  1.00  0.00    -0.248 NA
ATOM     43  C   UNL A   1      38.413  33.891  31.412  1.00  0.00     0.031 C 
ATOM     44  C   UNL A   1      37.595  29.869  28.500  1.00  0.00     0.029 A 
ATOM     45  N   UNL A   1      39.491  29.913  29.684  1.00  0.00    -0.354 N 
ATOM     46  C   UNL A   1      40.486  33.299  32.174  1.00  0.00     0.074 A 
ATOM     47  C   UNL A   1      39.453  34.310  32.117  1.00  0.00     0.031 C 
ATOM     48  C   UNL A   1      38.267  28.740  28.226  1.00  0.00     0.029 A 
ATOM     49  C   UNL A   1      39.526  28.744  28.962  1.00  0.00     0.049 A 
ATOM     50  H   UNL A   1      40.209  30.188  30.299  1.00  0.00     0.167 HD
ATOM     51  C   UNL A   1      41.615  33.402  32.915  1.00  0.00     0.037 A 
ATOM     52  C   UNL A   1      40.472  27.788  28.894  1.00  0.00     0.037 A 
ATOM     53  C   UNL A   1      42.628  32.383  32.989  1.00  0.00     0.049 A 
ATOM     54  C   UNL A   1      41.718  27.928  29.724  1.00  0.00     0.074 A 
ATOM     55  C   UNL A   1      43.776  32.364  33.764  1.00  0.00     0.029 A 
ATOM     56  N   UNL A   1      42.619  31.205  32.259  1.00  0.00    -0.354 N 
ATOM     57  N   UNL A   1      42.063  28.893  30.543  1.00  0.00    -0.248 NA
ATOM     58  C   UNL A   1      42.706  26.844  29.626  1.00  0.00     0.031 C 
ATOM     59  C   UNL A   1      44.487  31.198  33.463  1.00  0.00     0.029 A 
ATOM     60  C   UNL A   1      43.755  30.463  32.544  1.00  0.00     0.049 A 
ATOM     61  H   UNL A   1      41.910  30.934  31.631  1.00  0.00     0.167 HD
ATOM     62  C   UNL A   1      43.288  28.518  31.079  1.00  0.00     0.074 A 
ATOM     63  C   UNL A   1      43.621  27.232  30.503  1.00  0.00     0.031 C 
ATOM     64  C   UNL A   1      44.068  29.181  31.968  1.00  0.00     0.037 A 
BRANCH  51  65
ATOM     65  C   UNL A   1      41.815  34.662  33.708  1.00  0.00     0.057 A 
ATOM     66  C   UNL A   1      41.338  34.796  35.019  1.00  0.00     0.134 A 
ATOM     67  C   UNL A   1      42.529  35.739  33.168  1.00  0.00     0.134 A 
ATOM     68  F   UNL A   1      40.636  33.807  35.592  1.00  0.00    -0.206 F 
ATOM     69  C   UNL A   1      41.542  35.965  35.755  1.00  0.00     0.040 A 
ATOM     70  C   UNL A   1      42.765  36.902  33.905  1.00  0.00     0.040 A 
ATOM     71  F   UNL A   1      43.019  35.676  31.921  1.00  0.00    -0.206 F 
ATOM     72  C   UNL A   1      42.264  37.019  35.200  1.00  0.00     0.006 A 
ENDBRANCH  51  65
BRANCH  52  73
ATOM     73  C   UNL A   1      40.274  26.604  28.018  1.00  0.00     0.057 A 
ATOM     74  C   UNL A   1      40.842  26.546  26.741  1.00  0.00     0.134 A 
ATOM     75  C   UNL A   1      39.502  25.512  28.431  1.00  0.00     0.134 A 
ATOM     76  F   UNL A   1      41.577  27.570  26.282  1.00  0.00    -0.206 F 
ATOM     77  C   UNL A   1      40.632  25.456  25.895  1.00  0.00     0.040 A 
ATOM     78  C   UNL A   1      39.306  24.403  27.606  1.00  0.00     0.040 A 
ATOM     79  F   UNL A   1      38.937  25.501  29.647  1.00  0.00    -0.206 F 
ATOM     80  C   UNL A   1      39.865  24.377  26.330  1.00  0.00     0.006 A 
ENDBRANCH  52  73
BRANCH  64  81
ATOM     81  C   UNL A   1      45.340  28.511  32.401  1.00  0.00     0.057 A 
ATOM     82  C   UNL A   1      45.379  27.618  33.479  1.00  0.00     0.134 A 
ATOM     83  C   UNL A   1      46.534  28.732  31.702  1.00  0.00     0.134 A 
ATOM     84  F   UNL A   1      44.273  27.372  34.199  1.00  0.00    -0.206 F 
ATOM     85  C   UNL A   1      46.565  26.988  33.863  1.00  0.00     0.040 A 
ATOM     86  C   UNL A   1      47.719  28.086  32.056  1.00  0.00     0.040 A 
ATOM     87  F   UNL A   1      46.565  29.567  30.652  1.00  0.00    -0.206 F 
ATOM     88  C   UNL A   1      47.737  27.217  33.145  1.00  0.00     0.006 A 
ENDBRANCH  64  81
ENDBRANCH  38  39
ENDBRANCH  30  33
ENDBRANCH  28  29
ENDBRANCH  27  28
ENDBRANCH  26  27
ENDBRANCH   1  26
TORSDOF 16
ENDMDL
