MODEL 1
REMARK VINA RESULT:     -12.8      0.000      0.000
REMARK SMILES COC(=O)c1ccc(C)c(NC(=O)[C@H]2CC=CC[C@H]2C(=O)NCCCCCCNC(=O)c2ccc(-c3c4nc(c(-c5c(F)cccc5F)c5ccc([nH]5)c(-c5c(F)cccc5F)c5nc(c(-c6c(F)cccc6F)c6ccc3[nH]6)C=C5)C=C4)cc2)c1
REMARK SMILES IDX 24 1 23 2 22 3 20 4 21 5 19 7 14 8 15 9 16 10 18 11 17 12
REMARK SMILES IDX 12 13 11 14 13 16 10 17 5 18 6 19 86 20 7 21 8 22 9 23 3 24
REMARK SMILES IDX 4 25 2 26 1 27 25 28 26 29 27 30 28 31 29 32 30 33 31 35
REMARK SMILES IDX 32 36 33 37 85 38 34 39 84 40 35 41 36 42 37 43 78 44 38 45
REMARK SMILES IDX 83 46 77 47 79 48 39 49 82 50 76 51 75 52 40 54 66 55 49 56
REMARK SMILES IDX 65 57 50 58 53 59 64 60 80 61 51 62 52 63 63 65 81 66 54 67
REMARK SMILES IDX 41 68 42 69 47 70 43 71 44 72 46 73 48 74 45 75 67 76 68 77
REMARK SMILES IDX 73 78 69 79 70 80 72 81 74 82 71 83 55 84 56 85 61 86 57 87
REMARK SMILES IDX 58 88 60 89 62 90 59 91
REMARK H PARENT 22 6 11 15 29 34 79 53 53 64
REMARK Flexibility Score: inf
ROOT
ATOM      1  C   UNL A   1      35.043  23.147  26.132  1.00  0.00     0.021 C 
ENDROOT
BRANCH   1   2
ATOM      2  C   UNL A   1      34.803  24.626  25.829  1.00  0.00     0.116 C 
BRANCH   2   3
ATOM      3  N   UNL A   1      33.906  24.816  24.711  1.00  0.00    -0.356 N 
ATOM      4  C   UNL A   1      33.060  25.816  24.372  1.00  0.00     0.224 C 
ATOM      5  O   UNL A   1      32.423  25.663  23.323  1.00  0.00    -0.275 OA
ATOM      6  H   UNL A   1      33.914  24.071  24.067  1.00  0.00     0.163 HD
BRANCH   4   7
ATOM      7  C   UNL A   1      32.868  27.089  25.184  1.00  0.00     0.095 C 
ATOM      8  C   UNL A   1      33.168  28.419  24.452  1.00  0.00     0.095 C 
ATOM      9  C   UNL A   1      33.191  29.577  25.451  1.00  0.00     0.041 C 
ATOM     10  C   UNL A   1      32.139  29.509  26.522  1.00  0.00    -0.030 C 
ATOM     11  C   UNL A   1      31.654  27.090  26.119  1.00  0.00     0.041 C 
ATOM     12  C   UNL A   1      31.434  28.406  26.801  1.00  0.00    -0.030 C 
BRANCH   8  13
ATOM     13  C   UNL A   1      32.739  28.544  22.972  1.00  0.00     0.228 C 
ATOM     14  N   UNL A   1      31.559  28.575  22.319  1.00  0.00    -0.326 N 
ATOM     15  H   UNL A   1      31.732  28.242  21.409  1.00  0.00     0.169 HD
ATOM     16  O   UNL A   1      33.676  28.448  22.148  1.00  0.00    -0.274 OA
BRANCH  14  17
ATOM     17  C   UNL A   1      30.182  28.882  22.380  1.00  0.00     0.044 A 
ATOM     18  C   UNL A   1      28.516  30.652  21.981  1.00  0.00     0.062 A 
ATOM     19  C   UNL A   1      27.527  29.920  22.606  1.00  0.00     0.016 A 
ATOM     20  C   UNL A   1      29.837  30.172  21.904  1.00  0.00     0.042 A 
ATOM     21  C   UNL A   1      27.856  28.681  23.116  1.00  0.00     0.006 A 
ATOM     22  C   UNL A   1      29.169  28.160  23.022  1.00  0.00    -0.027 A 
ATOM     23  C   UNL A   1      29.375  26.877  23.736  1.00  0.00     0.046 C 
BRANCH  18  24
ATOM     24  C   UNL A   1      28.110  31.978  21.510  1.00  0.00     0.337 C 
ATOM     25  O   UNL A   1      27.953  32.166  20.308  1.00  0.00    -0.246 OA
BRANCH  24  26
ATOM     26  O   UNL A   1      27.986  32.969  22.421  1.00  0.00    -0.465 OA
ATOM     27  C   UNL A   1      29.089  33.503  23.164  1.00  0.00     0.282 C 
ENDBRANCH  24  26
ENDBRANCH  18  24
ENDBRANCH  14  17
ENDBRANCH   8  13
ENDBRANCH   4   7
ENDBRANCH   2   3
ENDBRANCH   1   2
BRANCH   1  28
ATOM     28  C   UNL A   1      35.869  22.354  25.116  1.00  0.00     0.002 C 
BRANCH  28  29
ATOM     29  C   UNL A   1      37.143  23.012  24.570  1.00  0.00     0.002 C 
BRANCH  29  30
ATOM     30  C   UNL A   1      38.123  23.608  25.583  1.00  0.00     0.021 C 
BRANCH  30  31
ATOM     31  C   UNL A   1      38.692  22.649  26.620  1.00  0.00     0.116 C 
BRANCH  31  32
ATOM     32  N   UNL A   1      40.100  22.792  26.947  1.00  0.00    -0.352 N 
ATOM     33  C   UNL A   1      40.854  23.928  27.220  1.00  0.00     0.251 C 
ATOM     34  H   UNL A   1      40.604  21.946  26.981  1.00  0.00     0.163 HD
ATOM     35  O   UNL A   1      42.066  23.786  27.386  1.00  0.00    -0.269 OA
BRANCH  33  36
ATOM     36  C   UNL A   1      40.256  25.288  27.417  1.00  0.00     0.039 A 
ATOM     37  C   UNL A   1      40.535  26.321  26.496  1.00  0.00     0.014 A 
ATOM     38  C   UNL A   1      39.535  25.621  28.547  1.00  0.00     0.014 A 
ATOM     39  C   UNL A   1      40.263  27.670  26.810  1.00  0.00     0.010 A 
ATOM     40  C   UNL A   1      39.295  26.933  28.869  1.00  0.00     0.010 A 
ATOM     41  C   UNL A   1      39.710  27.968  28.048  1.00  0.00    -0.014 A 
BRANCH  41  42
ATOM     42  C   UNL A   1      39.689  29.247  28.748  1.00  0.00     0.031 A 
ATOM     43  C   UNL A   1      38.611  30.238  28.623  1.00  0.00     0.074 A 
ATOM     44  C   UNL A   1      40.525  29.322  29.810  1.00  0.00     0.049 A 
ATOM     45  N   UNL A   1      38.742  31.469  28.992  1.00  0.00    -0.248 NA
ATOM     46  C   UNL A   1      37.286  29.920  28.111  1.00  0.00     0.031 C 
ATOM     47  C   UNL A   1      40.491  30.221  30.957  1.00  0.00     0.029 A 
ATOM     48  N   UNL A   1      41.695  28.582  29.999  1.00  0.00    -0.354 N 
ATOM     49  C   UNL A   1      37.485  32.024  29.030  1.00  0.00     0.074 A 
ATOM     50  C   UNL A   1      36.622  31.048  28.397  1.00  0.00     0.031 C 
ATOM     51  C   UNL A   1      41.697  30.201  31.551  1.00  0.00     0.029 A 
ATOM     52  C   UNL A   1      42.582  29.415  30.705  1.00  0.00     0.049 A 
ATOM     53  H   UNL A   1      41.866  27.661  29.696  1.00  0.00     0.167 HD
ATOM     54  C   UNL A   1      37.280  33.190  29.708  1.00  0.00     0.037 A 
ATOM     55  C   UNL A   1      43.684  29.881  30.043  1.00  0.00     0.037 A 
ATOM     56  C   UNL A   1      38.493  33.640  30.387  1.00  0.00     0.049 A 
ATOM     57  C   UNL A   1      43.663  31.378  29.799  1.00  0.00     0.074 A 
ATOM     58  C   UNL A   1      38.967  33.531  31.684  1.00  0.00     0.029 A 
ATOM     59  N   UNL A   1      39.571  34.040  29.623  1.00  0.00    -0.354 N 
ATOM     60  N   UNL A   1      42.704  32.178  30.176  1.00  0.00    -0.248 NA
ATOM     61  C   UNL A   1      44.687  32.072  29.018  1.00  0.00     0.031 C 
ATOM     62  C   UNL A   1      40.363  33.825  31.672  1.00  0.00     0.029 A 
ATOM     63  C   UNL A   1      40.727  34.127  30.373  1.00  0.00     0.049 A 
ATOM     64  H   UNL A   1      39.521  34.239  28.660  1.00  0.00     0.167 HD
ATOM     65  C   UNL A   1      42.896  33.409  29.615  1.00  0.00     0.074 A 
ATOM     66  C   UNL A   1      44.168  33.308  28.926  1.00  0.00     0.031 C 
ATOM     67  C   UNL A   1      41.977  34.413  29.691  1.00  0.00     0.037 A 
BRANCH  54  68
ATOM     68  C   UNL A   1      35.933  33.831  29.917  1.00  0.00     0.057 A 
ATOM     69  C   UNL A   1      35.157  34.275  28.828  1.00  0.00     0.134 A 
ATOM     70  C   UNL A   1      35.326  33.998  31.174  1.00  0.00     0.134 A 
ATOM     71  F   UNL A   1      35.568  34.123  27.562  1.00  0.00    -0.206 F 
ATOM     72  C   UNL A   1      33.913  34.901  28.983  1.00  0.00     0.040 A 
ATOM     73  C   UNL A   1      34.104  34.664  31.347  1.00  0.00     0.040 A 
ATOM     74  F   UNL A   1      35.868  33.478  32.285  1.00  0.00    -0.206 F 
ATOM     75  C   UNL A   1      33.393  35.123  30.247  1.00  0.00     0.006 A 
ENDBRANCH  54  68
BRANCH  55  76
ATOM     76  C   UNL A   1      44.201  28.867  29.069  1.00  0.00     0.057 A 
ATOM     77  C   UNL A   1      44.878  27.738  29.573  1.00  0.00     0.134 A 
ATOM     78  C   UNL A   1      43.670  28.762  27.777  1.00  0.00     0.134 A 
ATOM     79  F   UNL A   1      45.396  27.761  30.812  1.00  0.00    -0.206 F 
ATOM     80  C   UNL A   1      44.908  26.524  28.881  1.00  0.00     0.040 A 
ATOM     81  C   UNL A   1      43.714  27.557  27.067  1.00  0.00     0.040 A 
ATOM     82  F   UNL A   1      42.990  29.781  27.230  1.00  0.00    -0.206 F 
ATOM     83  C   UNL A   1      44.294  26.423  27.637  1.00  0.00     0.006 A 
ENDBRANCH  55  76
BRANCH  67  84
ATOM     84  C   UNL A   1      42.214  35.762  29.089  1.00  0.00     0.057 A 
ATOM     85  C   UNL A   1      41.665  36.116  27.851  1.00  0.00     0.134 A 
ATOM     86  C   UNL A   1      43.099  36.693  29.664  1.00  0.00     0.134 A 
ATOM     87  F   UNL A   1      40.839  35.282  27.200  1.00  0.00    -0.206 F 
ATOM     88  C   UNL A   1      41.960  37.334  27.230  1.00  0.00     0.040 A 
ATOM     89  C   UNL A   1      43.440  37.889  29.032  1.00  0.00     0.040 A 
ATOM     90  F   UNL A   1      43.649  36.488  30.870  1.00  0.00    -0.206 F 
ATOM     91  C   UNL A   1      42.863  38.218  27.813  1.00  0.00     0.006 A 
ENDBRANCH  67  84
ENDBRANCH  41  42
ENDBRANCH  33  36
ENDBRANCH  31  32
ENDBRANCH  30  31
ENDBRANCH  29  30
ENDBRANCH  28  29
ENDBRANCH   1  28
TORSDOF 17
ENDMDL
MODEL 2
REMARK VINA RESULT:     -12.6      1.834      3.249
REMARK SMILES COC(=O)c1ccc(C)c(NC(=O)[C@H]2CC=CC[C@H]2C(=O)NCCCCCCNC(=O)c2ccc(-c3c4nc(c(-c5c(F)cccc5F)c5ccc([nH]5)c(-c5c(F)cccc5F)c5nc(c(-c6c(F)cccc6F)c6ccc3[nH]6)C=C5)C=C4)cc2)c1
REMARK SMILES IDX 24 1 23 2 22 3 20 4 21 5 19 7 14 8 15 9 16 10 18 11 17 12
REMARK SMILES IDX 12 13 11 14 13 16 10 17 5 18 6 19 86 20 7 21 8 22 9 23 3 24
REMARK SMILES IDX 4 25 2 26 1 27 25 28 26 29 27 30 28 31 29 32 30 33 31 35
REMARK SMILES IDX 32 36 33 37 85 38 34 39 84 40 35 41 36 42 37 43 78 44 38 45
REMARK SMILES IDX 83 46 77 47 79 48 39 49 82 50 76 51 75 52 40 54 66 55 49 56
REMARK SMILES IDX 65 57 50 58 53 59 64 60 80 61 51 62 52 63 63 65 81 66 54 67
REMARK SMILES IDX 41 68 42 69 47 70 43 71 44 72 46 73 48 74 45 75 67 76 68 77
REMARK SMILES IDX 73 78 69 79 70 80 72 81 74 82 71 83 55 84 56 85 61 86 57 87
REMARK SMILES IDX 58 88 60 89 62 90 59 91
REMARK H PARENT 22 6 11 15 29 34 79 53 53 64
REMARK Flexibility Score: inf
ROOT
ATOM      1  C   UNL A   1      34.671  23.935  22.963  1.00  0.00     0.021 C 
ENDROOT
BRANCH   1   2
ATOM      2  C   UNL A   1      33.583  23.553  21.960  1.00  0.00     0.116 C 
BRANCH   2   3
ATOM      3  N   UNL A   1      32.275  23.485  22.573  1.00  0.00    -0.356 N 
ATOM      4  C   UNL A   1      31.857  23.123  23.808  1.00  0.00     0.224 C 
ATOM      5  O   UNL A   1      30.639  23.181  24.014  1.00  0.00    -0.275 OA
ATOM      6  H   UNL A   1      31.543  23.757  21.973  1.00  0.00     0.163 HD
BRANCH   4   7
ATOM      7  C   UNL A   1      32.784  22.677  24.930  1.00  0.00     0.095 C 
ATOM      8  C   UNL A   1      32.862  23.608  26.165  1.00  0.00     0.095 C 
ATOM      9  C   UNL A   1      34.012  23.180  27.077  1.00  0.00     0.041 C 
ATOM     10  C   UNL A   1      34.183  21.694  27.222  1.00  0.00    -0.030 C 
ATOM     11  C   UNL A   1      32.785  21.172  25.217  1.00  0.00     0.041 C 
ATOM     12  C   UNL A   1      33.613  20.797  26.408  1.00  0.00    -0.030 C 
BRANCH   8  13
ATOM     13  C   UNL A   1      31.554  24.273  26.653  1.00  0.00     0.228 C 
ATOM     14  N   UNL A   1      31.063  25.530  26.654  1.00  0.00    -0.326 N 
ATOM     15  H   UNL A   1      30.431  25.584  27.407  1.00  0.00     0.169 HD
ATOM     16  O   UNL A   1      30.819  23.531  27.344  1.00  0.00    -0.274 OA
BRANCH  14  17
ATOM     17  C   UNL A   1      31.067  26.800  26.039  1.00  0.00     0.044 A 
ATOM     18  C   UNL A   1      30.690  27.984  23.912  1.00  0.00     0.062 A 
ATOM     19  C   UNL A   1      31.210  29.156  24.424  1.00  0.00     0.016 A 
ATOM     20  C   UNL A   1      30.657  26.807  24.682  1.00  0.00     0.042 A 
ATOM     21  C   UNL A   1      31.657  29.156  25.730  1.00  0.00     0.006 A 
ATOM     22  C   UNL A   1      31.602  27.994  26.537  1.00  0.00    -0.027 A 
ATOM     23  C   UNL A   1      32.242  28.137  27.867  1.00  0.00     0.046 C 
BRANCH  18  24
ATOM     24  C   UNL A   1      30.285  28.042  22.505  1.00  0.00     0.337 C 
ATOM     25  O   UNL A   1      30.854  27.326  21.688  1.00  0.00    -0.246 OA
BRANCH  24  26
ATOM     26  O   UNL A   1      29.338  28.938  22.150  1.00  0.00    -0.465 OA
ATOM     27  C   UNL A   1      27.992  28.903  22.640  1.00  0.00     0.282 C 
ENDBRANCH  24  26
ENDBRANCH  18  24
ENDBRANCH  14  17
ENDBRANCH   8  13
ENDBRANCH   4   7
ENDBRANCH   2   3
ENDBRANCH   1   2
BRANCH   1  28
ATOM     28  C   UNL A   1      35.872  22.993  23.081  1.00  0.00     0.002 C 
BRANCH  28  29
ATOM     29  C   UNL A   1      36.774  23.145  24.313  1.00  0.00     0.002 C 
BRANCH  29  30
ATOM     30  C   UNL A   1      37.645  21.950  24.704  1.00  0.00     0.021 C 
BRANCH  30  31
ATOM     31  C   UNL A   1      38.316  22.018  26.071  1.00  0.00     0.116 C 
BRANCH  31  32
ATOM     32  N   UNL A   1      39.768  22.040  26.091  1.00  0.00    -0.352 N 
ATOM     33  C   UNL A   1      40.653  23.094  26.286  1.00  0.00     0.251 C 
ATOM     34  H   UNL A   1      40.196  21.166  25.943  1.00  0.00     0.163 HD
ATOM     35  O   UNL A   1      41.857  22.861  26.170  1.00  0.00    -0.269 OA
BRANCH  33  36
ATOM     36  C   UNL A   1      40.226  24.463  26.721  1.00  0.00     0.039 A 
ATOM     37  C   UNL A   1      40.684  25.601  26.023  1.00  0.00     0.014 A 
ATOM     38  C   UNL A   1      39.493  24.676  27.873  1.00  0.00     0.014 A 
ATOM     39  C   UNL A   1      40.571  26.892  26.580  1.00  0.00     0.010 A 
ATOM     40  C   UNL A   1      39.407  25.925  28.432  1.00  0.00     0.010 A 
ATOM     41  C   UNL A   1      39.995  27.029  27.836  1.00  0.00    -0.014 A 
BRANCH  41  42
ATOM     42  C   UNL A   1      40.100  28.147  28.767  1.00  0.00     0.031 A 
ATOM     43  C   UNL A   1      39.118  29.236  28.862  1.00  0.00     0.074 A 
ATOM     44  C   UNL A   1      40.951  27.942  29.800  1.00  0.00     0.049 A 
ATOM     45  N   UNL A   1      39.367  30.356  29.453  1.00  0.00    -0.248 NA
ATOM     46  C   UNL A   1      37.764  29.142  28.336  1.00  0.00     0.031 C 
ATOM     47  C   UNL A   1      41.012  28.604  31.097  1.00  0.00     0.029 A 
ATOM     48  N   UNL A   1      42.049  27.078  29.812  1.00  0.00    -0.354 N 
ATOM     49  C   UNL A   1      38.168  31.004  29.632  1.00  0.00     0.074 A 
ATOM     50  C   UNL A   1      37.211  30.249  28.849  1.00  0.00     0.031 C 
ATOM     51  C   UNL A   1      42.217  28.362  31.642  1.00  0.00     0.029 A 
ATOM     52  C   UNL A   1      43.016  27.676  30.638  1.00  0.00     0.049 A 
ATOM     53  H   UNL A   1      42.130  26.220  29.335  1.00  0.00     0.167 HD
ATOM     54  C   UNL A   1      38.080  32.032  30.524  1.00  0.00     0.037 A 
ATOM     55  C   UNL A   1      44.150  28.161  30.047  1.00  0.00     0.037 A 
ATOM     56  C   UNL A   1      39.337  32.234  31.241  1.00  0.00     0.049 A 
ATOM     57  C   UNL A   1      44.266  29.672  30.092  1.00  0.00     0.074 A 
ATOM     58  C   UNL A   1      39.812  31.836  32.481  1.00  0.00     0.029 A 
ATOM     59  N   UNL A   1      40.439  32.674  30.538  1.00  0.00    -0.354 N 
ATOM     60  N   UNL A   1      43.390  30.468  30.640  1.00  0.00    -0.248 NA
ATOM     61  C   UNL A   1      45.343  30.408  29.428  1.00  0.00     0.031 C 
ATOM     62  C   UNL A   1      41.228  32.001  32.486  1.00  0.00     0.029 A 
ATOM     63  C   UNL A   1      41.606  32.512  31.258  1.00  0.00     0.049 A 
ATOM     64  H   UNL A   1      40.398  33.057  29.632  1.00  0.00     0.167 HD
ATOM     65  C   UNL A   1      43.690  31.762  30.317  1.00  0.00     0.074 A 
ATOM     66  C   UNL A   1      44.941  31.680  29.586  1.00  0.00     0.031 C 
ATOM     67  C   UNL A   1      42.870  32.810  30.608  1.00  0.00     0.037 A 
BRANCH  54  68
ATOM     68  C   UNL A   1      36.800  32.740  30.888  1.00  0.00     0.057 A 
ATOM     69  C   UNL A   1      36.184  33.641  29.998  1.00  0.00     0.134 A 
ATOM     70  C   UNL A   1      36.103  32.536  32.092  1.00  0.00     0.134 A 
ATOM     71  F   UNL A   1      36.690  33.888  28.783  1.00  0.00    -0.206 F 
ATOM     72  C   UNL A   1      35.010  34.339  30.311  1.00  0.00     0.040 A 
ATOM     73  C   UNL A   1      34.954  33.262  32.437  1.00  0.00     0.040 A 
ATOM     74  F   UNL A   1      36.478  31.590  32.964  1.00  0.00    -0.206 F 
ATOM     75  C   UNL A   1      34.404  34.173  31.546  1.00  0.00     0.006 A 
ENDBRANCH  54  68
BRANCH  55  76
ATOM     76  C   UNL A   1      44.560  27.310  28.883  1.00  0.00     0.057 A 
ATOM     77  C   UNL A   1      45.115  26.040  29.144  1.00  0.00     0.134 A 
ATOM     78  C   UNL A   1      44.024  27.516  27.606  1.00  0.00     0.134 A 
ATOM     79  F   UNL A   1      45.629  25.766  30.354  1.00  0.00    -0.206 F 
ATOM     80  C   UNL A   1      45.019  24.989  28.228  1.00  0.00     0.040 A 
ATOM     81  C   UNL A   1      43.944  26.475  26.674  1.00  0.00     0.040 A 
ATOM     82  F   UNL A   1      43.456  28.686  27.281  1.00  0.00    -0.206 F 
ATOM     83  C   UNL A   1      44.400  25.198  27.000  1.00  0.00     0.006 A 
ENDBRANCH  55  76
BRANCH  67  84
ATOM     84  C   UNL A   1      43.225  34.223  30.267  1.00  0.00     0.057 A 
ATOM     85  C   UNL A   1      43.441  35.183  31.263  1.00  0.00     0.134 A 
ATOM     86  C   UNL A   1      43.233  34.693  28.941  1.00  0.00     0.134 A 
ATOM     87  F   UNL A   1      43.415  34.846  32.561  1.00  0.00    -0.206 F 
ATOM     88  C   UNL A   1      43.674  36.528  30.958  1.00  0.00     0.040 A 
ATOM     89  C   UNL A   1      43.414  36.040  28.625  1.00  0.00     0.040 A 
ATOM     90  F   UNL A   1      43.087  33.860  27.899  1.00  0.00    -0.206 F 
ATOM     91  C   UNL A   1      43.644  36.963  29.636  1.00  0.00     0.006 A 
ENDBRANCH  67  84
ENDBRANCH  41  42
ENDBRANCH  33  36
ENDBRANCH  31  32
ENDBRANCH  30  31
ENDBRANCH  29  30
ENDBRANCH  28  29
ENDBRANCH   1  28
TORSDOF 17
ENDMDL
MODEL 3
REMARK VINA RESULT:     -12.4      3.116      8.205
REMARK SMILES COC(=O)c1ccc(C)c(NC(=O)[C@H]2CC=CC[C@H]2C(=O)NCCCCCCNC(=O)c2ccc(-c3c4nc(c(-c5c(F)cccc5F)c5ccc([nH]5)c(-c5c(F)cccc5F)c5nc(c(-c6c(F)cccc6F)c6ccc3[nH]6)C=C5)C=C4)cc2)c1
REMARK SMILES IDX 24 1 23 2 22 3 20 4 21 5 19 7 14 8 15 9 16 10 18 11 17 12
REMARK SMILES IDX 12 13 11 14 13 16 10 17 5 18 6 19 86 20 7 21 8 22 9 23 3 24
REMARK SMILES IDX 4 25 2 26 1 27 25 28 26 29 27 30 28 31 29 32 30 33 31 35
REMARK SMILES IDX 32 36 33 37 85 38 34 39 84 40 35 41 36 42 37 43 78 44 38 45
REMARK SMILES IDX 83 46 77 47 79 48 39 49 82 50 76 51 75 52 40 54 66 55 49 56
REMARK SMILES IDX 65 57 50 58 53 59 64 60 80 61 51 62 52 63 63 65 81 66 54 67
REMARK SMILES IDX 41 68 42 69 47 70 43 71 44 72 46 73 48 74 45 75 67 76 68 77
REMARK SMILES IDX 73 78 69 79 70 80 72 81 74 82 71 83 55 84 56 85 61 86 57 87
REMARK SMILES IDX 58 88 60 89 62 90 59 91
REMARK H PARENT 22 6 11 15 29 34 79 53 53 64
REMARK Flexibility Score: inf
ROOT
ATOM      1  C   UNL A   1      34.552  29.631  27.328  1.00  0.00     0.021 C 
ENDROOT
BRANCH   1   2
ATOM      2  C   UNL A   1      34.107  28.565  26.327  1.00  0.00     0.116 C 
BRANCH   2   3
ATOM      3  N   UNL A   1      32.797  28.037  26.639  1.00  0.00    -0.356 N 
ATOM      4  C   UNL A   1      32.156  26.901  26.279  1.00  0.00     0.224 C 
ATOM      5  O   UNL A   1      31.016  26.748  26.732  1.00  0.00    -0.275 OA
ATOM      6  H   UNL A   1      32.268  28.618  27.231  1.00  0.00     0.163 HD
BRANCH   4   7
ATOM      7  C   UNL A   1      32.755  25.826  25.383  1.00  0.00     0.095 C 
ATOM      8  C   UNL A   1      32.420  25.927  23.875  1.00  0.00     0.095 C 
ATOM      9  C   UNL A   1      32.859  24.654  23.151  1.00  0.00     0.041 C 
ATOM     10  C   UNL A   1      34.172  24.086  23.612  1.00  0.00    -0.030 C 
ATOM     11  C   UNL A   1      34.188  25.408  25.732  1.00  0.00     0.041 C 
ATOM     12  C   UNL A   1      34.778  24.443  24.750  1.00  0.00    -0.030 C 
BRANCH   8  13
ATOM     13  C   UNL A   1      32.384  27.334  23.235  1.00  0.00     0.228 C 
ATOM     14  N   UNL A   1      31.422  28.123  22.714  1.00  0.00    -0.326 N 
ATOM     15  H   UNL A   1      31.864  28.711  22.060  1.00  0.00     0.169 HD
ATOM     16  O   UNL A   1      33.511  27.825  22.993  1.00  0.00    -0.274 OA
BRANCH  14  17
ATOM     17  C   UNL A   1      30.053  28.467  22.705  1.00  0.00     0.044 A 
ATOM     18  C   UNL A   1      28.465  30.310  22.315  1.00  0.00     0.062 A 
ATOM     19  C   UNL A   1      27.417  29.570  22.825  1.00  0.00     0.016 A 
ATOM     20  C   UNL A   1      29.775  29.795  22.293  1.00  0.00     0.042 A 
ATOM     21  C   UNL A   1      27.678  28.291  23.273  1.00  0.00     0.006 A 
ATOM     22  C   UNL A   1      28.980  27.737  23.230  1.00  0.00    -0.027 A 
ATOM     23  C   UNL A   1      29.104  26.405  23.870  1.00  0.00     0.046 C 
BRANCH  18  24
ATOM     24  C   UNL A   1      28.126  31.675  21.908  1.00  0.00     0.337 C 
ATOM     25  O   UNL A   1      28.069  31.947  20.713  1.00  0.00    -0.246 OA
BRANCH  24  26
ATOM     26  O   UNL A   1      27.953  32.605  22.872  1.00  0.00    -0.465 OA
ATOM     27  C   UNL A   1      28.879  33.671  23.120  1.00  0.00     0.282 C 
ENDBRANCH  24  26
ENDBRANCH  18  24
ENDBRANCH  14  17
ENDBRANCH   8  13
ENDBRANCH   4   7
ENDBRANCH   2   3
ENDBRANCH   1   2
BRANCH   1  28
ATOM     28  C   UNL A   1      33.578  30.780  27.601  1.00  0.00     0.002 C 
BRANCH  28  29
ATOM     29  C   UNL A   1      34.149  32.205  27.621  1.00  0.00     0.002 C 
BRANCH  29  30
ATOM     30  C   UNL A   1      33.210  33.338  28.036  1.00  0.00     0.021 C 
BRANCH  30  31
ATOM     31  C   UNL A   1      33.867  34.663  28.405  1.00  0.00     0.116 C 
BRANCH  31  32
ATOM     32  N   UNL A   1      34.095  34.914  29.818  1.00  0.00    -0.352 N 
ATOM     33  C   UNL A   1      34.838  34.203  30.753  1.00  0.00     0.251 C 
ATOM     34  H   UNL A   1      33.651  35.719  30.170  1.00  0.00     0.163 HD
ATOM     35  O   UNL A   1      34.801  34.584  31.924  1.00  0.00    -0.269 OA
BRANCH  33  36
ATOM     36  C   UNL A   1      35.749  33.068  30.395  1.00  0.00     0.039 A 
ATOM     37  C   UNL A   1      35.570  31.803  30.997  1.00  0.00     0.014 A 
ATOM     38  C   UNL A   1      36.855  33.236  29.586  1.00  0.00     0.014 A 
ATOM     39  C   UNL A   1      36.578  30.818  30.936  1.00  0.00     0.010 A 
ATOM     40  C   UNL A   1      37.851  32.293  29.548  1.00  0.00     0.010 A 
ATOM     41  C   UNL A   1      37.759  31.113  30.267  1.00  0.00    -0.014 A 
BRANCH  41  42
ATOM     42  C   UNL A   1      39.055  30.452  30.377  1.00  0.00     0.031 A 
ATOM     43  C   UNL A   1      39.422  29.230  29.648  1.00  0.00     0.074 A 
ATOM     44  C   UNL A   1      40.038  31.223  30.897  1.00  0.00     0.049 A 
ATOM     45  N   UNL A   1      40.430  28.493  29.976  1.00  0.00    -0.248 NA
ATOM     46  C   UNL A   1      38.712  28.758  28.467  1.00  0.00     0.031 C 
ATOM     47  C   UNL A   1      41.485  31.083  30.786  1.00  0.00     0.029 A 
ATOM     48  N   UNL A   1      39.871  32.311  31.758  1.00  0.00    -0.354 N 
ATOM     49  C   UNL A   1      40.671  27.636  28.929  1.00  0.00     0.074 A 
ATOM     50  C   UNL A   1      39.530  27.782  28.050  1.00  0.00     0.031 C 
ATOM     51  C   UNL A   1      42.060  31.822  31.750  1.00  0.00     0.029 A 
ATOM     52  C   UNL A   1      40.994  32.323  32.605  1.00  0.00     0.049 A 
ATOM     53  H   UNL A   1      39.117  32.943  31.771  1.00  0.00     0.167 HD
ATOM     54  C   UNL A   1      41.870  26.988  28.846  1.00  0.00     0.037 A 
ATOM     55  C   UNL A   1      40.805  32.005  33.921  1.00  0.00     0.037 A 
ATOM     56  C   UNL A   1      42.781  27.401  29.911  1.00  0.00     0.049 A 
ATOM     57  C   UNL A   1      41.448  30.695  34.334  1.00  0.00     0.074 A 
ATOM     58  C   UNL A   1      43.825  28.310  29.986  1.00  0.00     0.029 A 
ATOM     59  N   UNL A   1      42.468  27.076  31.215  1.00  0.00    -0.354 N 
ATOM     60  N   UNL A   1      42.130  29.920  33.537  1.00  0.00    -0.248 NA
ATOM     61  C   UNL A   1      41.282  30.111  35.665  1.00  0.00     0.031 C 
ATOM     62  C   UNL A   1      44.096  28.560  31.364  1.00  0.00     0.029 A 
ATOM     63  C   UNL A   1      43.229  27.792  32.119  1.00  0.00     0.049 A 
ATOM     64  H   UNL A   1      41.785  26.415  31.470  1.00  0.00     0.167 HD
ATOM     65  C   UNL A   1      42.379  28.732  34.165  1.00  0.00     0.074 A 
ATOM     66  C   UNL A   1      41.861  28.909  35.509  1.00  0.00     0.031 C 
ATOM     67  C   UNL A   1      42.933  27.659  33.535  1.00  0.00     0.037 A 
BRANCH  54  68
ATOM     68  C   UNL A   1      42.292  26.117  27.692  1.00  0.00     0.057 A 
ATOM     69  C   UNL A   1      42.310  24.713  27.804  1.00  0.00     0.134 A 
ATOM     70  C   UNL A   1      42.650  26.608  26.424  1.00  0.00     0.134 A 
ATOM     71  F   UNL A   1      41.930  24.090  28.926  1.00  0.00    -0.206 F 
ATOM     72  C   UNL A   1      42.723  23.871  26.763  1.00  0.00     0.040 A 
ATOM     73  C   UNL A   1      43.109  25.781  25.389  1.00  0.00     0.040 A 
ATOM     74  F   UNL A   1      42.522  27.908  26.118  1.00  0.00    -0.206 F 
ATOM     75  C   UNL A   1      43.152  24.404  25.558  1.00  0.00     0.006 A 
ENDBRANCH  54  68
BRANCH  55  76
ATOM     76  C   UNL A   1      39.475  32.492  34.410  1.00  0.00     0.057 A 
ATOM     77  C   UNL A   1      39.321  33.868  34.677  1.00  0.00     0.134 A 
ATOM     78  C   UNL A   1      38.304  31.755  34.190  1.00  0.00     0.134 A 
ATOM     79  F   UNL A   1      40.401  34.640  34.879  1.00  0.00    -0.206 F 
ATOM     80  C   UNL A   1      38.079  34.503  34.593  1.00  0.00     0.040 A 
ATOM     81  C   UNL A   1      37.053  32.379  34.126  1.00  0.00     0.040 A 
ATOM     82  F   UNL A   1      38.361  30.446  33.907  1.00  0.00    -0.206 F 
ATOM     83  C   UNL A   1      36.943  33.761  34.283  1.00  0.00     0.006 A 
ENDBRANCH  55  76
BRANCH  67  84
ATOM     84  C   UNL A   1      43.219  26.373  34.245  1.00  0.00     0.057 A 
ATOM     85  C   UNL A   1      44.515  25.846  34.307  1.00  0.00     0.134 A 
ATOM     86  C   UNL A   1      42.195  25.564  34.770  1.00  0.00     0.134 A 
ATOM     87  F   UNL A   1      45.558  26.521  33.800  1.00  0.00    -0.206 F 
ATOM     88  C   UNL A   1      44.780  24.598  34.880  1.00  0.00     0.040 A 
ATOM     89  C   UNL A   1      42.440  24.296  35.297  1.00  0.00     0.040 A 
ATOM     90  F   UNL A   1      40.921  25.982  34.811  1.00  0.00    -0.206 F 
ATOM     91  C   UNL A   1      43.739  23.812  35.362  1.00  0.00     0.006 A 
ENDBRANCH  67  84
ENDBRANCH  41  42
ENDBRANCH  33  36
ENDBRANCH  31  32
ENDBRANCH  30  31
ENDBRANCH  29  30
ENDBRANCH  28  29
ENDBRANCH   1  28
TORSDOF 17
ENDMDL
