MODEL 1
REMARK VINA RESULT:     -10.5      0.000      0.000
REMARK SMILES C#CCN(CC(=O)NCCCCCCNC(=O)c1ccc(-c2c3nc(c(-c4c(F)cccc4F)c4ccc([nH]4)c(-c4c(F)cccc4F)c4nc(c(-c5c(F)cccc5F)c5ccc2[nH]5)C=C4)C=C3)cc1)C(=O)N1CC[N@@H+]2CCC[C@H]2C1
REMARK SMILES IDX 11 1 10 2 9 3 8 4 6 5 7 6 5 8 4 9 3 10 2 11 1 12 72 13 73 14
REMARK SMILES IDX 74 15 75 16 82 17 76 18 81 19 77 20 80 21 78 22 79 24 12 25
REMARK SMILES IDX 13 26 14 27 15 28 16 29 17 31 18 32 19 33 71 34 20 35 70 36
REMARK SMILES IDX 21 37 22 38 23 39 64 40 24 41 69 42 63 43 65 44 25 45 68 46
REMARK SMILES IDX 62 47 61 48 26 50 52 51 35 52 51 53 36 54 39 55 50 56 66 57
REMARK SMILES IDX 37 58 38 59 49 61 67 62 40 63 27 64 28 65 33 66 29 67 30 68
REMARK SMILES IDX 32 69 34 70 31 71 53 72 54 73 59 74 55 75 56 76 58 77 60 78
REMARK SMILES IDX 57 79 41 80 42 81 47 82 43 83 44 84 46 85 48 86 45 87
REMARK H PARENT 8 7 77 23 15 30 65 49 39 60
REMARK Flexibility Score: inf
ROOT
ATOM      1  C   UNL A   1      31.848  29.317  27.197  1.00  0.00     0.002 C 
ENDROOT
BRANCH   1   2
ATOM      2  C   UNL A   1      33.164  28.533  27.133  1.00  0.00     0.021 C 
BRANCH   2   3
ATOM      3  C   UNL A   1      33.157  27.342  26.177  1.00  0.00     0.116 C 
BRANCH   3   4
ATOM      4  N   UNL A   1      32.217  26.307  26.540  1.00  0.00    -0.355 N 
ATOM      5  C   UNL A   1      32.308  24.950  26.449  1.00  0.00     0.239 C 
ATOM      6  O   UNL A   1      31.482  24.300  27.103  1.00  0.00    -0.273 OA
ATOM      7  H   UNL A   1      31.370  26.637  26.916  1.00  0.00     0.163 HD
BRANCH   5   8
ATOM      8  C   UNL A   1      33.429  24.217  25.688  1.00  0.00     0.222 C 
BRANCH   8   9
ATOM      9  N   UNL A   1      33.096  23.609  24.401  1.00  0.00    -0.304 N 
BRANCH   9  10
ATOM     10  C   UNL A   1      32.345  22.349  24.431  1.00  0.00     0.211 C 
BRANCH  10  11
ATOM     11  C   UNL A   1      33.239  21.153  24.715  1.00  0.00    -0.085 C 
ATOM     12  C   UNL A   1      34.006  20.127  24.958  1.00  0.00     0.006 C 
ENDBRANCH  10  11
ENDBRANCH   9  10
BRANCH   9  13
ATOM     13  C   UNL A   1      33.286  24.217  23.163  1.00  0.00     0.321 C 
ATOM     14  O   UNL A   1      33.783  23.612  22.213  1.00  0.00    -0.248 OA
BRANCH  13  15
ATOM     15  N   UNL A   1      32.769  25.489  22.992  1.00  0.00    -0.313 N 
ATOM     16  C   UNL A   1      33.410  26.478  22.109  1.00  0.00     0.183 C 
ATOM     17  C   UNL A   1      31.300  25.614  22.993  1.00  0.00     0.186 C 
ATOM     18  C   UNL A   1      32.973  27.927  22.438  1.00  0.00     0.284 C 
ATOM     19  C   UNL A   1      30.897  27.060  23.311  1.00  0.00     0.204 C 
ATOM     20  N   UNL A   1      31.512  28.011  22.368  1.00  0.00    -0.330 N 
ATOM     21  C   UNL A   1      29.427  27.417  23.161  1.00  0.00     0.073 C 
ATOM     22  C   UNL A   1      30.917  29.296  22.697  1.00  0.00     0.262 C 
ATOM     23  H   UNL A   1      31.329  27.816  21.383  1.00  0.00     0.348 HD
ATOM     24  C   UNL A   1      29.440  28.918  22.832  1.00  0.00     0.068 C 
ENDBRANCH  13  15
ENDBRANCH   9  13
ENDBRANCH   8   9
ENDBRANCH   5   8
ENDBRANCH   3   4
ENDBRANCH   2   3
ENDBRANCH   1   2
BRANCH   1  25
ATOM     25  C   UNL A   1      31.632  30.341  26.077  1.00  0.00     0.002 C 
BRANCH  25  26
ATOM     26  C   UNL A   1      31.435  31.788  26.536  1.00  0.00     0.021 C 
BRANCH  26  27
ATOM     27  C   UNL A   1      32.665  32.428  27.170  1.00  0.00     0.116 C 
BRANCH  27  28
ATOM     28  N   UNL A   1      32.427  33.815  27.540  1.00  0.00    -0.352 N 
ATOM     29  C   UNL A   1      33.056  34.589  28.482  1.00  0.00     0.251 C 
ATOM     30  H   UNL A   1      31.708  34.264  27.038  1.00  0.00     0.163 HD
ATOM     31  O   UNL A   1      32.583  35.674  28.802  1.00  0.00    -0.269 OA
BRANCH  29  32
ATOM     32  C   UNL A   1      34.297  34.107  29.129  1.00  0.00     0.039 A 
ATOM     33  C   UNL A   1      34.199  33.374  30.314  1.00  0.00     0.014 A 
ATOM     34  C   UNL A   1      35.550  34.390  28.580  1.00  0.00     0.014 A 
ATOM     35  C   UNL A   1      35.354  32.872  30.916  1.00  0.00     0.010 A 
ATOM     36  C   UNL A   1      36.694  33.828  29.140  1.00  0.00     0.010 A 
ATOM     37  C   UNL A   1      36.609  33.067  30.315  1.00  0.00    -0.014 A 
BRANCH  37  38
ATOM     38  C   UNL A   1      37.841  32.478  30.901  1.00  0.00     0.031 A 
ATOM     39  C   UNL A   1      38.466  31.257  30.286  1.00  0.00     0.074 A 
ATOM     40  C   UNL A   1      38.360  33.008  32.027  1.00  0.00     0.049 A 
ATOM     41  N   UNL A   1      39.500  30.564  30.691  1.00  0.00    -0.248 NA
ATOM     42  C   UNL A   1      37.828  30.728  29.071  1.00  0.00     0.031 C 
ATOM     43  C   UNL A   1      37.822  34.165  32.745  1.00  0.00     0.029 A 
ATOM     44  N   UNL A   1      39.453  32.636  32.768  1.00  0.00    -0.354 N 
ATOM     45  C   UNL A   1      39.629  29.515  29.789  1.00  0.00     0.074 A 
ATOM     46  C   UNL A   1      38.535  29.630  28.849  1.00  0.00     0.031 C 
ATOM     47  C   UNL A   1      38.598  34.421  33.810  1.00  0.00     0.029 A 
ATOM     48  C   UNL A   1      39.663  33.426  33.873  1.00  0.00     0.049 A 
ATOM     49  H   UNL A   1      40.032  31.876  32.532  1.00  0.00     0.167 HD
ATOM     50  C   UNL A   1      40.585  28.556  29.737  1.00  0.00     0.037 A 
ATOM     51  C   UNL A   1      40.604  33.351  34.834  1.00  0.00     0.037 A 
ATOM     52  C   UNL A   1      41.682  28.457  30.662  1.00  0.00     0.049 A 
ATOM     53  C   UNL A   1      41.646  32.269  34.760  1.00  0.00     0.074 A 
ATOM     54  C   UNL A   1      42.734  27.556  30.659  1.00  0.00     0.029 A 
ATOM     55  N   UNL A   1      41.868  29.283  31.761  1.00  0.00    -0.354 N 
ATOM     56  N   UNL A   1      41.795  31.325  33.862  1.00  0.00    -0.248 NA
ATOM     57  C   UNL A   1      42.653  32.247  35.830  1.00  0.00     0.031 C 
ATOM     58  C   UNL A   1      43.528  27.806  31.783  1.00  0.00     0.029 A 
ATOM     59  C   UNL A   1      43.003  28.898  32.455  1.00  0.00     0.049 A 
ATOM     60  H   UNL A   1      41.280  30.032  32.009  1.00  0.00     0.167 HD
ATOM     61  C   UNL A   1      42.928  30.616  34.241  1.00  0.00     0.074 A 
ATOM     62  C   UNL A   1      43.434  31.248  35.442  1.00  0.00     0.031 C 
ATOM     63  C   UNL A   1      43.499  29.540  33.646  1.00  0.00     0.037 A 
BRANCH  50  64
ATOM     64  C   UNL A   1      40.485  27.538  28.636  1.00  0.00     0.057 A 
ATOM     65  C   UNL A   1      39.670  26.404  28.748  1.00  0.00     0.134 A 
ATOM     66  C   UNL A   1      41.184  27.712  27.435  1.00  0.00     0.134 A 
ATOM     67  F   UNL A   1      38.981  26.171  29.876  1.00  0.00    -0.206 F 
ATOM     68  C   UNL A   1      39.575  25.466  27.719  1.00  0.00     0.040 A 
ATOM     69  C   UNL A   1      41.075  26.797  26.387  1.00  0.00     0.040 A 
ATOM     70  F   UNL A   1      41.977  28.780  27.256  1.00  0.00    -0.206 F 
ATOM     71  C   UNL A   1      40.274  25.665  26.531  1.00  0.00     0.006 A 
ENDBRANCH  50  64
BRANCH  51  72
ATOM     72  C   UNL A   1      40.618  34.342  35.940  1.00  0.00     0.057 A 
ATOM     73  C   UNL A   1      39.902  34.115  37.122  1.00  0.00     0.134 A 
ATOM     74  C   UNL A   1      41.335  35.539  35.842  1.00  0.00     0.134 A 
ATOM     75  F   UNL A   1      39.181  32.994  37.269  1.00  0.00    -0.206 F 
ATOM     76  C   UNL A   1      39.882  35.051  38.157  1.00  0.00     0.040 A 
ATOM     77  C   UNL A   1      41.346  36.472  36.880  1.00  0.00     0.040 A 
ATOM     78  F   UNL A   1      42.049  35.814  34.741  1.00  0.00    -0.206 F 
ATOM     79  C   UNL A   1      40.610  36.232  38.039  1.00  0.00     0.006 A 
ENDBRANCH  51  72
BRANCH  63  80
ATOM     80  C   UNL A   1      44.757  29.001  34.262  1.00  0.00     0.057 A 
ATOM     81  C   UNL A   1      44.735  27.982  35.222  1.00  0.00     0.134 A 
ATOM     82  C   UNL A   1      46.009  29.482  33.856  1.00  0.00     0.134 A 
ATOM     83  F   UNL A   1      43.570  27.487  35.663  1.00  0.00    -0.206 F 
ATOM     84  C   UNL A   1      45.914  27.478  35.776  1.00  0.00     0.040 A 
ATOM     85  C   UNL A   1      47.195  28.965  34.381  1.00  0.00     0.040 A 
ATOM     86  F   UNL A   1      46.101  30.451  32.934  1.00  0.00    -0.206 F 
ATOM     87  C   UNL A   1      47.148  27.965  35.349  1.00  0.00     0.006 A 
ENDBRANCH  63  80
ENDBRANCH  37  38
ENDBRANCH  29  32
ENDBRANCH  27  28
ENDBRANCH  26  27
ENDBRANCH  25  26
ENDBRANCH   1  25
TORSDOF 18
ENDMDL
MODEL 2
REMARK VINA RESULT:     -10.4      4.337      9.553
REMARK SMILES C#CCN(CC(=O)NCCCCCCNC(=O)c1ccc(-c2c3nc(c(-c4c(F)cccc4F)c4ccc([nH]4)c(-c4c(F)cccc4F)c4nc(c(-c5c(F)cccc5F)c5ccc2[nH]5)C=C4)C=C3)cc1)C(=O)N1CC[N@@H+]2CCC[C@H]2C1
REMARK SMILES IDX 11 1 10 2 9 3 8 4 6 5 7 6 5 8 4 9 3 10 2 11 1 12 72 13 73 14
REMARK SMILES IDX 74 15 75 16 82 17 76 18 81 19 77 20 80 21 78 22 79 24 12 25
REMARK SMILES IDX 13 26 14 27 15 28 16 29 17 31 18 32 19 33 71 34 20 35 70 36
REMARK SMILES IDX 21 37 22 38 23 39 64 40 24 41 69 42 63 43 65 44 25 45 68 46
REMARK SMILES IDX 62 47 61 48 26 50 52 51 35 52 51 53 36 54 39 55 50 56 66 57
REMARK SMILES IDX 37 58 38 59 49 61 67 62 40 63 27 64 28 65 33 66 29 67 30 68
REMARK SMILES IDX 32 69 34 70 31 71 53 72 54 73 59 74 55 75 56 76 58 77 60 78
REMARK SMILES IDX 57 79 41 80 42 81 47 82 43 83 44 84 46 85 48 86 45 87
REMARK H PARENT 8 7 77 23 15 30 65 49 39 60
REMARK Flexibility Score: inf
ROOT
ATOM      1  C   UNL A   1      36.940  22.130  25.168  1.00  0.00     0.002 C 
ENDROOT
BRANCH   1   2
ATOM      2  C   UNL A   1      35.849  22.884  25.938  1.00  0.00     0.021 C 
BRANCH   2   3
ATOM      3  C   UNL A   1      35.564  24.298  25.432  1.00  0.00     0.116 C 
BRANCH   3   4
ATOM      4  N   UNL A   1      34.955  24.337  24.122  1.00  0.00    -0.355 N 
ATOM      5  C   UNL A   1      34.029  25.186  23.597  1.00  0.00     0.239 C 
ATOM      6  O   UNL A   1      33.905  25.170  22.366  1.00  0.00    -0.273 OA
ATOM      7  H   UNL A   1      35.261  23.632  23.507  1.00  0.00     0.163 HD
BRANCH   5   8
ATOM      8  C   UNL A   1      33.239  26.213  24.431  1.00  0.00     0.222 C 
BRANCH   8   9
ATOM      9  N   UNL A   1      31.807  25.983  24.622  1.00  0.00    -0.304 N 
BRANCH   9  10
ATOM     10  C   UNL A   1      30.904  26.500  23.588  1.00  0.00     0.211 C 
BRANCH  10  11
ATOM     11  C   UNL A   1      30.695  28.001  23.704  1.00  0.00    -0.085 C 
ATOM     12  C   UNL A   1      30.516  29.288  23.803  1.00  0.00     0.006 C 
ENDBRANCH  10  11
ENDBRANCH   9  10
BRANCH   9  13
ATOM     13  C   UNL A   1      31.259  25.171  25.611  1.00  0.00     0.321 C 
ATOM     14  O   UNL A   1      30.319  25.548  26.311  1.00  0.00    -0.248 OA
BRANCH  13  15
ATOM     15  N   UNL A   1      31.714  23.867  25.691  1.00  0.00    -0.313 N 
ATOM     16  C   UNL A   1      31.679  23.105  26.949  1.00  0.00     0.183 C 
ATOM     17  C   UNL A   1      31.478  23.009  24.514  1.00  0.00     0.186 C 
ATOM     18  C   UNL A   1      32.652  21.900  26.933  1.00  0.00     0.284 C 
ATOM     19  C   UNL A   1      32.449  21.821  24.530  1.00  0.00     0.204 C 
ATOM     20  N   UNL A   1      32.338  21.051  25.782  1.00  0.00    -0.330 N 
ATOM     21  C   UNL A   1      32.219  20.727  23.499  1.00  0.00     0.073 C 
ATOM     22  C   UNL A   1      33.189  19.889  25.579  1.00  0.00     0.262 C 
ATOM     23  H   UNL A   1      31.397  20.724  26.002  1.00  0.00     0.348 HD
ATOM     24  C   UNL A   1      32.782  19.463  24.166  1.00  0.00     0.068 C 
ENDBRANCH  13  15
ENDBRANCH   9  13
ENDBRANCH   8   9
ENDBRANCH   5   8
ENDBRANCH   3   4
ENDBRANCH   2   3
ENDBRANCH   1   2
BRANCH   1  25
ATOM     25  C   UNL A   1      36.668  20.644  24.917  1.00  0.00     0.002 C 
BRANCH  25  26
ATOM     26  C   UNL A   1      37.906  19.745  24.874  1.00  0.00     0.021 C 
BRANCH  26  27
ATOM     27  C   UNL A   1      39.074  20.227  25.727  1.00  0.00     0.116 C 
BRANCH  27  28
ATOM     28  N   UNL A   1      40.121  19.224  25.833  1.00  0.00    -0.352 N 
ATOM     29  C   UNL A   1      41.459  19.380  26.099  1.00  0.00     0.251 C 
ATOM     30  H   UNL A   1      39.827  18.295  25.692  1.00  0.00     0.163 HD
ATOM     31  O   UNL A   1      42.231  18.440  25.943  1.00  0.00    -0.269 OA
BRANCH  29  32
ATOM     32  C   UNL A   1      41.975  20.689  26.558  1.00  0.00     0.039 A 
ATOM     33  C   UNL A   1      42.426  21.607  25.606  1.00  0.00     0.014 A 
ATOM     34  C   UNL A   1      42.030  21.004  27.917  1.00  0.00     0.014 A 
ATOM     35  C   UNL A   1      42.875  22.864  26.015  1.00  0.00     0.010 A 
ATOM     36  C   UNL A   1      42.408  22.282  28.318  1.00  0.00     0.010 A 
ATOM     37  C   UNL A   1      42.838  23.225  27.372  1.00  0.00    -0.014 A 
BRANCH  37  38
ATOM     38  C   UNL A   1      43.242  24.583  27.818  1.00  0.00     0.031 A 
ATOM     39  C   UNL A   1      42.200  25.620  28.130  1.00  0.00     0.074 A 
ATOM     40  C   UNL A   1      44.550  24.900  27.880  1.00  0.00     0.049 A 
ATOM     41  N   UNL A   1      42.358  26.875  28.470  1.00  0.00    -0.248 NA
ATOM     42  C   UNL A   1      40.794  25.202  28.020  1.00  0.00     0.031 C 
ATOM     43  C   UNL A   1      45.657  23.997  27.560  1.00  0.00     0.029 A 
ATOM     44  N   UNL A   1      45.171  26.074  28.226  1.00  0.00    -0.354 N 
ATOM     45  C   UNL A   1      41.076  27.396  28.602  1.00  0.00     0.074 A 
ATOM     46  C   UNL A   1      40.153  26.337  28.253  1.00  0.00     0.031 C 
ATOM     47  C   UNL A   1      46.819  24.642  27.745  1.00  0.00     0.029 A 
ATOM     48  C   UNL A   1      46.541  26.014  28.158  1.00  0.00     0.049 A 
ATOM     49  H   UNL A   1      44.680  26.884  28.497  1.00  0.00     0.167 HD
ATOM     50  C   UNL A   1      40.703  28.635  29.000  1.00  0.00     0.037 A 
ATOM     51  C   UNL A   1      47.470  26.960  28.393  1.00  0.00     0.037 A 
ATOM     52  C   UNL A   1      41.623  29.679  29.366  1.00  0.00     0.049 A 
ATOM     53  C   UNL A   1      47.029  28.332  28.821  1.00  0.00     0.074 A 
ATOM     54  C   UNL A   1      41.343  30.950  29.837  1.00  0.00     0.029 A 
ATOM     55  N   UNL A   1      43.005  29.575  29.296  1.00  0.00    -0.354 N 
ATOM     56  N   UNL A   1      45.815  28.790  29.009  1.00  0.00    -0.248 NA
ATOM     57  C   UNL A   1      48.088  29.318  29.075  1.00  0.00     0.031 C 
ATOM     58  C   UNL A   1      42.553  31.632  30.005  1.00  0.00     0.029 A 
ATOM     59  C   UNL A   1      43.589  30.767  29.692  1.00  0.00     0.049 A 
ATOM     60  H   UNL A   1      43.497  28.773  29.007  1.00  0.00     0.167 HD
ATOM     61  C   UNL A   1      45.963  30.104  29.431  1.00  0.00     0.074 A 
ATOM     62  C   UNL A   1      47.387  30.366  29.486  1.00  0.00     0.031 C 
ATOM     63  C   UNL A   1      45.008  31.012  29.748  1.00  0.00     0.037 A 
BRANCH  50  64
ATOM     64  C   UNL A   1      39.231  28.928  29.063  1.00  0.00     0.057 A 
ATOM     65  C   UNL A   1      38.492  28.763  30.243  1.00  0.00     0.134 A 
ATOM     66  C   UNL A   1      38.549  29.415  27.941  1.00  0.00     0.134 A 
ATOM     67  F   UNL A   1      39.081  28.290  31.352  1.00  0.00    -0.206 F 
ATOM     68  C   UNL A   1      37.126  29.044  30.297  1.00  0.00     0.040 A 
ATOM     69  C   UNL A   1      37.190  29.728  27.990  1.00  0.00     0.040 A 
ATOM     70  F   UNL A   1      39.195  29.605  26.780  1.00  0.00    -0.206 F 
ATOM     71  C   UNL A   1      36.473  29.535  29.169  1.00  0.00     0.006 A 
ENDBRANCH  50  64
BRANCH  51  72
ATOM     72  C   UNL A   1      48.913  26.638  28.250  1.00  0.00     0.057 A 
ATOM     73  C   UNL A   1      49.664  26.189  29.342  1.00  0.00     0.134 A 
ATOM     74  C   UNL A   1      49.577  26.779  27.026  1.00  0.00     0.134 A 
ATOM     75  F   UNL A   1      49.089  26.050  30.545  1.00  0.00    -0.206 F 
ATOM     76  C   UNL A   1      51.027  25.911  29.229  1.00  0.00     0.040 A 
ATOM     77  C   UNL A   1      50.934  26.479  26.891  1.00  0.00     0.040 A 
ATOM     78  F   UNL A   1      48.913  27.197  25.939  1.00  0.00    -0.206 F 
ATOM     79  C   UNL A   1      51.665  26.052  27.998  1.00  0.00     0.006 A 
ENDBRANCH  51  72
BRANCH  63  80
ATOM     80  C   UNL A   1      45.469  32.360  30.219  1.00  0.00     0.057 A 
ATOM     81  C   UNL A   1      45.649  33.432  29.337  1.00  0.00     0.134 A 
ATOM     82  C   UNL A   1      45.697  32.598  31.581  1.00  0.00     0.134 A 
ATOM     83  F   UNL A   1      45.461  33.269  28.020  1.00  0.00    -0.206 F 
ATOM     84  C   UNL A   1      46.064  34.687  29.790  1.00  0.00     0.040 A 
ATOM     85  C   UNL A   1      46.083  33.854  32.049  1.00  0.00     0.040 A 
ATOM     86  F   UNL A   1      45.534  31.616  32.481  1.00  0.00    -0.206 F 
ATOM     87  C   UNL A   1      46.274  34.902  31.151  1.00  0.00     0.006 A 
ENDBRANCH  63  80
ENDBRANCH  37  38
ENDBRANCH  29  32
ENDBRANCH  27  28
ENDBRANCH  26  27
ENDBRANCH  25  26
ENDBRANCH   1  25
TORSDOF 18
ENDMDL
MODEL 3
REMARK VINA RESULT:     -10.4      4.493      9.355
REMARK SMILES C#CCN(CC(=O)NCCCCCCNC(=O)c1ccc(-c2c3nc(c(-c4c(F)cccc4F)c4ccc([nH]4)c(-c4c(F)cccc4F)c4nc(c(-c5c(F)cccc5F)c5ccc2[nH]5)C=C4)C=C3)cc1)C(=O)N1CC[N@@H+]2CCC[C@H]2C1
REMARK SMILES IDX 11 1 10 2 9 3 8 4 6 5 7 6 5 8 4 9 3 10 2 11 1 12 72 13 73 14
REMARK SMILES IDX 74 15 75 16 82 17 76 18 81 19 77 20 80 21 78 22 79 24 12 25
REMARK SMILES IDX 13 26 14 27 15 28 16 29 17 31 18 32 19 33 71 34 20 35 70 36
REMARK SMILES IDX 21 37 22 38 23 39 64 40 24 41 69 42 63 43 65 44 25 45 68 46
REMARK SMILES IDX 62 47 61 48 26 50 52 51 35 52 51 53 36 54 39 55 50 56 66 57
REMARK SMILES IDX 37 58 38 59 49 61 67 62 40 63 27 64 28 65 33 66 29 67 30 68
REMARK SMILES IDX 32 69 34 70 31 71 53 72 54 73 59 74 55 75 56 76 58 77 60 78
REMARK SMILES IDX 57 79 41 80 42 81 47 82 43 83 44 84 46 85 48 86 45 87
REMARK H PARENT 8 7 77 23 15 30 65 49 39 60
REMARK Flexibility Score: inf
ROOT
ATOM      1  C   UNL A   1      37.403  22.214  24.751  1.00  0.00     0.002 C 
ENDROOT
BRANCH   1   2
ATOM      2  C   UNL A   1      37.012  23.036  25.985  1.00  0.00     0.021 C 
BRANCH   2   3
ATOM      3  C   UNL A   1      35.881  24.038  25.759  1.00  0.00     0.116 C 
BRANCH   3   4
ATOM      4  N   UNL A   1      35.245  23.918  24.467  1.00  0.00    -0.355 N 
ATOM      5  C   UNL A   1      34.399  24.760  23.810  1.00  0.00     0.239 C 
ATOM      6  O   UNL A   1      34.243  24.547  22.601  1.00  0.00    -0.273 OA
ATOM      7  H   UNL A   1      35.460  23.090  23.980  1.00  0.00     0.163 HD
BRANCH   5   8
ATOM      8  C   UNL A   1      33.743  25.993  24.460  1.00  0.00     0.222 C 
BRANCH   8   9
ATOM      9  N   UNL A   1      32.282  26.047  24.505  1.00  0.00    -0.304 N 
BRANCH   9  10
ATOM     10  C   UNL A   1      31.644  25.786  25.800  1.00  0.00     0.211 C 
BRANCH  10  11
ATOM     11  C   UNL A   1      32.048  24.440  26.380  1.00  0.00    -0.085 C 
ATOM     12  C   UNL A   1      32.394  23.285  26.877  1.00  0.00     0.006 C 
ENDBRANCH  10  11
ENDBRANCH   9  10
BRANCH   9  13
ATOM     13  C   UNL A   1      31.473  26.492  23.464  1.00  0.00     0.321 C 
ATOM     14  O   UNL A   1      31.153  25.755  22.531  1.00  0.00    -0.248 OA
BRANCH  13  15
ATOM     15  N   UNL A   1      30.920  27.755  23.581  1.00  0.00    -0.313 N 
ATOM     16  C   UNL A   1      31.716  28.918  24.004  1.00  0.00     0.183 C 
ATOM     17  C   UNL A   1      29.883  28.119  22.597  1.00  0.00     0.186 C 
ATOM     18  C   UNL A   1      30.831  30.076  24.528  1.00  0.00     0.284 C 
ATOM     19  C   UNL A   1      29.029  29.273  23.139  1.00  0.00     0.204 C 
ATOM     20  N   UNL A   1      29.859  30.438  23.494  1.00  0.00    -0.330 N 
ATOM     21  C   UNL A   1      28.037  29.909  22.178  1.00  0.00     0.073 C 
ATOM     22  C   UNL A   1      28.907  31.482  23.833  1.00  0.00     0.262 C 
ATOM     23  H   UNL A   1      30.458  30.781  22.743  1.00  0.00     0.348 HD
ATOM     24  C   UNL A   1      27.898  31.351  22.689  1.00  0.00     0.068 C 
ENDBRANCH  13  15
ENDBRANCH   9  13
ENDBRANCH   8   9
ENDBRANCH   5   8
ENDBRANCH   3   4
ENDBRANCH   2   3
ENDBRANCH   1   2
BRANCH   1  25
ATOM     25  C   UNL A   1      36.972  20.744  24.769  1.00  0.00     0.002 C 
BRANCH  25  26
ATOM     26  C   UNL A   1      38.110  19.725  24.872  1.00  0.00     0.021 C 
BRANCH  26  27
ATOM     27  C   UNL A   1      39.191  20.076  25.887  1.00  0.00     0.116 C 
BRANCH  27  28
ATOM     28  N   UNL A   1      40.262  19.092  25.905  1.00  0.00    -0.352 N 
ATOM     29  C   UNL A   1      41.612  19.271  26.076  1.00  0.00     0.251 C 
ATOM     30  H   UNL A   1      39.975  18.159  25.775  1.00  0.00     0.163 HD
ATOM     31  O   UNL A   1      42.388  18.348  25.853  1.00  0.00    -0.269 OA
BRANCH  29  32
ATOM     32  C   UNL A   1      42.135  20.584  26.513  1.00  0.00     0.039 A 
ATOM     33  C   UNL A   1      42.684  21.443  25.557  1.00  0.00     0.014 A 
ATOM     34  C   UNL A   1      42.102  20.961  27.857  1.00  0.00     0.014 A 
ATOM     35  C   UNL A   1      43.143  22.705  25.941  1.00  0.00     0.010 A 
ATOM     36  C   UNL A   1      42.491  22.245  28.228  1.00  0.00     0.010 A 
ATOM     37  C   UNL A   1      43.019  23.129  27.275  1.00  0.00    -0.014 A 
BRANCH  37  38
ATOM     38  C   UNL A   1      43.434  24.495  27.688  1.00  0.00     0.031 A 
ATOM     39  C   UNL A   1      42.400  25.534  28.020  1.00  0.00     0.074 A 
ATOM     40  C   UNL A   1      44.743  24.816  27.703  1.00  0.00     0.049 A 
ATOM     41  N   UNL A   1      42.565  26.794  28.337  1.00  0.00    -0.248 NA
ATOM     42  C   UNL A   1      40.992  25.110  27.961  1.00  0.00     0.031 C 
ATOM     43  C   UNL A   1      45.841  23.910  27.359  1.00  0.00     0.029 A 
ATOM     44  N   UNL A   1      45.371  25.996  28.012  1.00  0.00    -0.354 N 
ATOM     45  C   UNL A   1      41.287  27.313  28.503  1.00  0.00     0.074 A 
ATOM     46  C   UNL A   1      40.356  26.248  28.199  1.00  0.00     0.031 C 
ATOM     47  C   UNL A   1      47.007  24.561  27.497  1.00  0.00     0.029 A 
ATOM     48  C   UNL A   1      46.738  25.938  27.900  1.00  0.00     0.049 A 
ATOM     49  H   UNL A   1      44.887  26.808  28.287  1.00  0.00     0.167 HD
ATOM     50  C   UNL A   1      40.924  28.557  28.896  1.00  0.00     0.037 A 
ATOM     51  C   UNL A   1      47.672  26.889  28.091  1.00  0.00     0.037 A 
ATOM     52  C   UNL A   1      41.853  29.608  29.217  1.00  0.00     0.049 A 
ATOM     53  C   UNL A   1      47.241  28.267  28.514  1.00  0.00     0.074 A 
ATOM     54  C   UNL A   1      41.584  30.885  29.679  1.00  0.00     0.029 A 
ATOM     55  N   UNL A   1      43.231  29.507  29.103  1.00  0.00    -0.354 N 
ATOM     56  N   UNL A   1      46.032  28.724  28.735  1.00  0.00    -0.248 NA
ATOM     57  C   UNL A   1      48.306  29.259  28.720  1.00  0.00     0.031 C 
ATOM     58  C   UNL A   1      42.797  31.572  29.798  1.00  0.00     0.029 A 
ATOM     59  C   UNL A   1      43.825  30.705  29.463  1.00  0.00     0.049 A 
ATOM     60  H   UNL A   1      43.716  28.702  28.810  1.00  0.00     0.167 HD
ATOM     61  C   UNL A   1      46.191  30.044  29.134  1.00  0.00     0.074 A 
ATOM     62  C   UNL A   1      47.615  30.310  29.139  1.00  0.00     0.031 C 
ATOM     63  C   UNL A   1      45.244  30.954  29.470  1.00  0.00     0.037 A 
BRANCH  50  64
ATOM     64  C   UNL A   1      39.453  28.847  29.003  1.00  0.00     0.057 A 
ATOM     65  C   UNL A   1      38.746  28.657  30.198  1.00  0.00     0.134 A 
ATOM     66  C   UNL A   1      38.743  29.358  27.909  1.00  0.00     0.134 A 
ATOM     67  F   UNL A   1      39.363  28.161  31.281  1.00  0.00    -0.206 F 
ATOM     68  C   UNL A   1      37.381  28.936  30.292  1.00  0.00     0.040 A 
ATOM     69  C   UNL A   1      37.385  29.669  28.000  1.00  0.00     0.040 A 
ATOM     70  F   UNL A   1      39.359  29.572  26.736  1.00  0.00    -0.206 F 
ATOM     71  C   UNL A   1      36.699  29.450  29.193  1.00  0.00     0.006 A 
ENDBRANCH  50  64
BRANCH  51  72
ATOM     72  C   UNL A   1      49.110  26.569  27.905  1.00  0.00     0.057 A 
ATOM     73  C   UNL A   1      49.897  26.130  28.978  1.00  0.00     0.134 A 
ATOM     74  C   UNL A   1      49.735  26.700  26.660  1.00  0.00     0.134 A 
ATOM     75  F   UNL A   1      49.360  26.001  30.199  1.00  0.00    -0.206 F 
ATOM     76  C   UNL A   1      51.256  25.854  28.823  1.00  0.00     0.040 A 
ATOM     77  C   UNL A   1      51.087  26.402  26.485  1.00  0.00     0.040 A 
ATOM     78  F   UNL A   1      49.036  27.107  25.590  1.00  0.00    -0.206 F 
ATOM     79  C   UNL A   1      51.854  25.985  27.572  1.00  0.00     0.006 A 
ENDBRANCH  51  72
BRANCH  63  80
ATOM     80  C   UNL A   1      45.717  32.310  29.906  1.00  0.00     0.057 A 
ATOM     81  C   UNL A   1      46.040  32.589  31.240  1.00  0.00     0.134 A 
ATOM     82  C   UNL A   1      45.889  33.338  28.970  1.00  0.00     0.134 A 
ATOM     83  F   UNL A   1      45.886  31.653  32.188  1.00  0.00    -0.206 F 
ATOM     84  C   UNL A   1      46.494  33.850  31.631  1.00  0.00     0.040 A 
ATOM     85  C   UNL A   1      46.370  34.594  29.344  1.00  0.00     0.040 A 
ATOM     86  F   UNL A   1      45.606  33.135  27.675  1.00  0.00    -0.206 F 
ATOM     87  C   UNL A   1      46.667  34.854  30.680  1.00  0.00     0.006 A 
ENDBRANCH  63  80
ENDBRANCH  37  38
ENDBRANCH  29  32
ENDBRANCH  27  28
ENDBRANCH  26  27
ENDBRANCH  25  26
ENDBRANCH   1  25
TORSDOF 18
ENDMDL
