MODEL 1
REMARK VINA RESULT:     -11.3      0.000      0.000
REMARK SMILES O=C(NCCCCCCNC(=O)[C@@]1([NH2+]C2CC2)CCC[C@@H](n2cncn2)C1)c1ccc(-c2c3nc(c(-c4c(F)cccc4F)c4ccc([nH]4)c(-c4c(F)cccc4F)c4nc(c(-c5c(F)cccc5F)c5ccc2[nH]5)C=C4)C=C3)cc1
REMARK SMILES IDX 6 1 5 2 4 3 3 4 1 5 2 6 28 8 29 9 81 10 30 11 80 12 31 13
REMARK SMILES IDX 32 14 33 15 74 16 34 17 79 18 73 19 75 20 35 21 78 22 72 23
REMARK SMILES IDX 71 24 36 26 62 27 45 28 61 29 46 30 49 31 60 32 76 33 47 34
REMARK SMILES IDX 48 35 59 37 77 38 50 39 37 40 38 41 43 42 39 43 40 44 42 45
REMARK SMILES IDX 44 46 41 47 63 48 64 49 69 50 65 51 66 52 68 53 70 54 67 55
REMARK SMILES IDX 51 56 52 57 57 58 53 59 54 60 56 61 58 62 55 63 7 64 8 65
REMARK SMILES IDX 9 66 10 67 11 68 12 70 13 71 18 72 27 73 19 74 21 75 20 76
REMARK SMILES IDX 14 77 15 80 16 81 17 82 22 83 23 84 26 85 24 86 25 87
REMARK H PARENT 3 7 75 25 49 36 10 69 14 78 14 79
REMARK Flexibility Score: inf
ROOT
ATOM      1  C   UNL A   1      40.834  21.090  27.211  1.00  0.00     0.002 C 
ENDROOT
BRANCH   1   2
ATOM      2  C   UNL A   1      41.102  19.990  26.179  1.00  0.00     0.021 C 
BRANCH   2   3
ATOM      3  C   UNL A   1      42.483  19.348  26.313  1.00  0.00     0.116 C 
BRANCH   3   4
ATOM      4  N   UNL A   1      43.370  19.674  25.216  1.00  0.00    -0.352 N 
ATOM      5  O   UNL A   1      44.775  20.691  23.847  1.00  0.00    -0.269 OA
ATOM      6  C   UNL A   1      44.068  20.790  24.857  1.00  0.00     0.251 C 
ATOM      7  H   UNL A   1      43.499  18.923  24.593  1.00  0.00     0.163 HD
BRANCH   6   8
ATOM      8  C   UNL A   1      43.982  22.109  25.541  1.00  0.00     0.039 A 
ATOM      9  C   UNL A   1      44.633  22.460  26.726  1.00  0.00     0.014 A 
ATOM     10  C   UNL A   1      43.132  23.054  24.938  1.00  0.00     0.014 A 
ATOM     11  C   UNL A   1      44.357  23.669  27.353  1.00  0.00     0.010 A 
ATOM     12  C   UNL A   1      42.875  24.277  25.541  1.00  0.00     0.010 A 
ATOM     13  C   UNL A   1      43.455  24.560  26.774  1.00  0.00    -0.014 A 
BRANCH  13  14
ATOM     14  C   UNL A   1      43.247  25.846  27.429  1.00  0.00     0.031 A 
ATOM     15  C   UNL A   1      44.265  26.886  27.099  1.00  0.00     0.074 A 
ATOM     16  C   UNL A   1      42.143  26.125  28.148  1.00  0.00     0.049 A 
ATOM     17  N   UNL A   1      45.047  27.534  27.901  1.00  0.00    -0.248 NA
ATOM     18  C   UNL A   1      44.512  27.163  25.674  1.00  0.00     0.031 C 
ATOM     19  C   UNL A   1      40.936  25.309  28.302  1.00  0.00     0.029 A 
ATOM     20  N   UNL A   1      41.824  27.269  28.814  1.00  0.00    -0.354 N 
ATOM     21  C   UNL A   1      45.755  28.433  27.103  1.00  0.00     0.074 A 
ATOM     22  C   UNL A   1      45.493  28.061  25.739  1.00  0.00     0.031 C 
ATOM     23  C   UNL A   1      39.943  26.073  28.811  1.00  0.00     0.029 A 
ATOM     24  C   UNL A   1      40.478  27.384  29.138  1.00  0.00     0.049 A 
ATOM     25  H   UNL A   1      42.490  27.956  29.046  1.00  0.00     0.167 HD
ATOM     26  C   UNL A   1      46.327  29.556  27.623  1.00  0.00     0.037 A 
ATOM     27  C   UNL A   1      39.844  28.501  29.573  1.00  0.00     0.037 A 
ATOM     28  C   UNL A   1      46.522  29.435  29.044  1.00  0.00     0.049 A 
ATOM     29  C   UNL A   1      40.876  29.442  30.073  1.00  0.00     0.074 A 
ATOM     30  C   UNL A   1      47.233  28.583  29.867  1.00  0.00     0.029 A 
ATOM     31  N   UNL A   1      45.655  30.102  29.873  1.00  0.00    -0.354 N 
ATOM     32  N   UNL A   1      41.581  29.244  31.151  1.00  0.00    -0.248 NA
ATOM     33  C   UNL A   1      41.434  30.396  29.128  1.00  0.00     0.031 C 
ATOM     34  C   UNL A   1      46.415  28.421  31.024  1.00  0.00     0.029 A 
ATOM     35  C   UNL A   1      45.286  29.221  30.855  1.00  0.00     0.049 A 
ATOM     36  H   UNL A   1      45.356  31.036  29.780  1.00  0.00     0.167 HD
ATOM     37  C   UNL A   1      42.850  29.699  30.830  1.00  0.00     0.074 A 
ATOM     38  C   UNL A   1      42.678  30.478  29.605  1.00  0.00     0.031 C 
ATOM     39  C   UNL A   1      43.961  29.172  31.423  1.00  0.00     0.037 A 
BRANCH  26  40
ATOM     40  C   UNL A   1      46.342  30.901  26.927  1.00  0.00     0.057 A 
ATOM     41  C   UNL A   1      47.544  31.634  26.886  1.00  0.00     0.134 A 
ATOM     42  C   UNL A   1      45.187  31.636  26.593  1.00  0.00     0.134 A 
ATOM     43  F   UNL A   1      48.718  31.051  27.172  1.00  0.00    -0.206 F 
ATOM     44  C   UNL A   1      47.577  33.013  26.652  1.00  0.00     0.040 A 
ATOM     45  C   UNL A   1      45.216  33.004  26.308  1.00  0.00     0.040 A 
ATOM     46  F   UNL A   1      43.959  31.107  26.622  1.00  0.00    -0.206 F 
ATOM     47  C   UNL A   1      46.407  33.708  26.378  1.00  0.00     0.006 A 
ENDBRANCH  26  40
BRANCH  27  48
ATOM     48  C   UNL A   1      38.458  28.937  29.282  1.00  0.00     0.057 A 
ATOM     49  C   UNL A   1      37.506  29.065  30.302  1.00  0.00     0.134 A 
ATOM     50  C   UNL A   1      38.112  29.499  28.041  1.00  0.00     0.134 A 
ATOM     51  F   UNL A   1      37.761  28.604  31.535  1.00  0.00    -0.206 F 
ATOM     52  C   UNL A   1      36.286  29.730  30.104  1.00  0.00     0.040 A 
ATOM     53  C   UNL A   1      36.898  30.158  27.827  1.00  0.00     0.040 A 
ATOM     54  F   UNL A   1      38.981  29.510  27.020  1.00  0.00    -0.206 F 
ATOM     55  C   UNL A   1      35.984  30.286  28.865  1.00  0.00     0.006 A 
ENDBRANCH  27  48
BRANCH  39  56
ATOM     56  C   UNL A   1      43.763  28.259  32.598  1.00  0.00     0.057 A 
ATOM     57  C   UNL A   1      43.666  26.862  32.496  1.00  0.00     0.134 A 
ATOM     58  C   UNL A   1      43.826  28.796  33.887  1.00  0.00     0.134 A 
ATOM     59  F   UNL A   1      43.705  26.249  31.308  1.00  0.00    -0.206 F 
ATOM     60  C   UNL A   1      43.587  26.044  33.627  1.00  0.00     0.040 A 
ATOM     61  C   UNL A   1      43.783  27.987  35.025  1.00  0.00     0.040 A 
ATOM     62  F   UNL A   1      43.981  30.118  34.063  1.00  0.00    -0.206 F 
ATOM     63  C   UNL A   1      43.652  26.606  34.898  1.00  0.00     0.006 A 
ENDBRANCH  39  56
ENDBRANCH  13  14
ENDBRANCH   6   8
ENDBRANCH   3   4
ENDBRANCH   2   3
ENDBRANCH   1   2
BRANCH   1  64
ATOM     64  C   UNL A   1      39.940  22.230  26.710  1.00  0.00     0.002 C 
BRANCH  64  65
ATOM     65  C   UNL A   1      38.705  21.767  25.928  1.00  0.00     0.021 C 
BRANCH  65  66
ATOM     66  C   UNL A   1      37.729  22.908  25.638  1.00  0.00     0.116 C 
BRANCH  66  67
ATOM     67  N   UNL A   1      37.339  22.896  24.249  1.00  0.00    -0.351 N 
ATOM     68  C   UNL A   1      36.144  23.053  23.627  1.00  0.00     0.281 C 
ATOM     69  H   UNL A   1      38.089  22.744  23.630  1.00  0.00     0.163 HD
ATOM     70  O   UNL A   1      36.207  22.979  22.391  1.00  0.00    -0.268 OA
BRANCH  68  71
ATOM     71  C   UNL A   1      34.803  23.450  24.364  1.00  0.00     0.177 C 
ATOM     72  C   UNL A   1      34.777  23.586  25.902  1.00  0.00     0.079 C 
ATOM     73  C   UNL A   1      34.462  24.839  23.749  1.00  0.00     0.106 C 
ATOM     74  C   UNL A   1      33.449  24.136  26.431  1.00  0.00     0.009 C 
ATOM     75  C   UNL A   1      33.196  25.517  24.296  1.00  0.00     0.116 C 
ATOM     76  C   UNL A   1      33.173  25.511  25.837  1.00  0.00     0.028 C 
BRANCH  71  77
ATOM     77  N   UNL A   1      33.750  22.475  23.966  1.00  0.00    -0.331 N 
ATOM     78  H   UNL A   1      33.760  22.435  22.946  1.00  0.00     0.347 HD
ATOM     79  H   UNL A   1      32.915  22.844  24.421  1.00  0.00     0.347 HD
BRANCH  77  80
ATOM     80  C   UNL A   1      33.794  21.083  24.442  1.00  0.00     0.183 C 
ATOM     81  C   UNL A   1      32.923  20.477  25.506  1.00  0.00     0.071 C 
ATOM     82  C   UNL A   1      32.695  20.118  24.070  1.00  0.00     0.071 C 
ENDBRANCH  77  80
ENDBRANCH  71  77
BRANCH  75  83
ATOM     83  N   UNL A   1      33.050  26.865  23.741  1.00  0.00    -0.250 N 
ATOM     84  C   UNL A   1      31.987  27.370  23.053  1.00  0.00     0.220 A 
ATOM     85  N   UNL A   1      34.007  27.803  23.884  1.00  0.00    -0.160 NA
ATOM     86  N   UNL A   1      32.218  28.624  22.739  1.00  0.00    -0.224 NA
ATOM     87  C   UNL A   1      33.454  28.850  23.270  1.00  0.00     0.246 A 
ENDBRANCH  75  83
ENDBRANCH  68  71
ENDBRANCH  66  67
ENDBRANCH  65  66
ENDBRANCH  64  65
ENDBRANCH   1  64
TORSDOF 16
ENDMDL
MODEL 2
REMARK VINA RESULT:     -10.6      2.658      4.414
REMARK SMILES O=C(NCCCCCCNC(=O)[C@@]1([NH2+]C2CC2)CCC[C@@H](n2cncn2)C1)c1ccc(-c2c3nc(c(-c4c(F)cccc4F)c4ccc([nH]4)c(-c4c(F)cccc4F)c4nc(c(-c5c(F)cccc5F)c5ccc2[nH]5)C=C4)C=C3)cc1
REMARK SMILES IDX 6 1 5 2 4 3 3 4 1 5 2 6 28 8 29 9 81 10 30 11 80 12 31 13
REMARK SMILES IDX 32 14 33 15 74 16 34 17 79 18 73 19 75 20 35 21 78 22 72 23
REMARK SMILES IDX 71 24 36 26 62 27 45 28 61 29 46 30 49 31 60 32 76 33 47 34
REMARK SMILES IDX 48 35 59 37 77 38 50 39 37 40 38 41 43 42 39 43 40 44 42 45
REMARK SMILES IDX 44 46 41 47 63 48 64 49 69 50 65 51 66 52 68 53 70 54 67 55
REMARK SMILES IDX 51 56 52 57 57 58 53 59 54 60 56 61 58 62 55 63 7 64 8 65
REMARK SMILES IDX 9 66 10 67 11 68 12 70 13 71 18 72 27 73 19 74 21 75 20 76
REMARK SMILES IDX 14 77 15 80 16 81 17 82 22 83 23 84 26 85 24 86 25 87
REMARK H PARENT 3 7 75 25 49 36 10 69 14 78 14 79
REMARK Flexibility Score: inf
ROOT
ATOM      1  C   UNL A   1      37.731  22.892  24.919  1.00  0.00     0.002 C 
ENDROOT
BRANCH   1   2
ATOM      2  C   UNL A   1      38.370  21.721  25.672  1.00  0.00     0.021 C 
BRANCH   2   3
ATOM      3  C   UNL A   1      39.555  22.130  26.547  1.00  0.00     0.116 C 
BRANCH   3   4
ATOM      4  N   UNL A   1      40.797  22.232  25.812  1.00  0.00    -0.352 N 
ATOM      5  O   UNL A   1      42.769  22.872  25.047  1.00  0.00    -0.269 OA
ATOM      6  C   UNL A   1      41.823  23.133  25.799  1.00  0.00     0.251 C 
ATOM      7  H   UNL A   1      40.932  21.488  25.182  1.00  0.00     0.163 HD
BRANCH   6   8
ATOM      8  C   UNL A   1      41.846  24.413  26.557  1.00  0.00     0.039 A 
ATOM      9  C   UNL A   1      42.564  24.656  27.730  1.00  0.00     0.014 A 
ATOM     10  C   UNL A   1      41.035  25.441  26.042  1.00  0.00     0.014 A 
ATOM     11  C   UNL A   1      42.388  25.841  28.434  1.00  0.00     0.010 A 
ATOM     12  C   UNL A   1      40.878  26.640  26.723  1.00  0.00     0.010 A 
ATOM     13  C   UNL A   1      41.522  26.817  27.943  1.00  0.00    -0.014 A 
BRANCH  13  14
ATOM     14  C   UNL A   1      41.420  28.073  28.675  1.00  0.00     0.031 A 
ATOM     15  C   UNL A   1      42.510  29.051  28.390  1.00  0.00     0.074 A 
ATOM     16  C   UNL A   1      40.349  28.391  29.428  1.00  0.00     0.049 A 
ATOM     17  N   UNL A   1      43.349  29.590  29.216  1.00  0.00    -0.248 NA
ATOM     18  C   UNL A   1      42.760  29.394  26.980  1.00  0.00     0.031 C 
ATOM     19  C   UNL A   1      39.086  27.660  29.555  1.00  0.00     0.029 A 
ATOM     20  N   UNL A   1      40.127  29.514  30.165  1.00  0.00    -0.354 N 
ATOM     21  C   UNL A   1      44.114  30.480  28.460  1.00  0.00     0.074 A 
ATOM     22  C   UNL A   1      43.807  30.211  27.081  1.00  0.00     0.031 C 
ATOM     23  C   UNL A   1      38.161  28.465  30.124  1.00  0.00     0.029 A 
ATOM     24  C   UNL A   1      38.798  29.710  30.519  1.00  0.00     0.049 A 
ATOM     25  H   UNL A   1      40.846  30.134  30.426  1.00  0.00     0.167 HD
ATOM     26  C   UNL A   1      44.775  31.523  29.035  1.00  0.00     0.037 A 
ATOM     27  C   UNL A   1      38.256  30.844  31.029  1.00  0.00     0.037 A 
ATOM     28  C   UNL A   1      44.978  31.303  30.443  1.00  0.00     0.049 A 
ATOM     29  C   UNL A   1      39.363  31.673  31.566  1.00  0.00     0.074 A 
ATOM     30  C   UNL A   1      45.633  30.353  31.202  1.00  0.00     0.029 A 
ATOM     31  N   UNL A   1      44.175  31.983  31.324  1.00  0.00    -0.354 N 
ATOM     32  N   UNL A   1      40.064  31.359  32.618  1.00  0.00    -0.248 NA
ATOM     33  C   UNL A   1      39.979  32.637  30.669  1.00  0.00     0.031 C 
ATOM     34  C   UNL A   1      44.820  30.184  32.362  1.00  0.00     0.029 A 
ATOM     35  C   UNL A   1      43.752  31.076  32.259  1.00  0.00     0.049 A 
ATOM     36  H   UNL A   1      43.946  32.941  31.291  1.00  0.00     0.167 HD
ATOM     37  C   UNL A   1      41.360  31.735  32.302  1.00  0.00     0.074 A 
ATOM     38  C   UNL A   1      41.232  32.597  31.128  1.00  0.00     0.031 C 
ATOM     39  C   UNL A   1      42.435  31.092  32.845  1.00  0.00     0.037 A 
BRANCH  26  40
ATOM     40  C   UNL A   1      44.884  32.902  28.418  1.00  0.00     0.057 A 
ATOM     41  C   UNL A   1      46.159  33.405  28.092  1.00  0.00     0.134 A 
ATOM     42  C   UNL A   1      43.854  33.864  28.435  1.00  0.00     0.134 A 
ATOM     43  F   UNL A   1      47.226  32.593  28.031  1.00  0.00    -0.206 F 
ATOM     44  C   UNL A   1      46.408  34.771  27.917  1.00  0.00     0.040 A 
ATOM     45  C   UNL A   1      44.084  35.225  28.212  1.00  0.00     0.040 A 
ATOM     46  F   UNL A   1      42.592  33.567  28.766  1.00  0.00    -0.206 F 
ATOM     47  C   UNL A   1      45.370  35.689  27.994  1.00  0.00     0.006 A 
ENDBRANCH  26  40
BRANCH  27  48
ATOM     48  C   UNL A   1      36.904  31.399  30.788  1.00  0.00     0.057 A 
ATOM     49  C   UNL A   1      36.051  31.728  31.850  1.00  0.00     0.134 A 
ATOM     50  C   UNL A   1      36.522  31.874  29.521  1.00  0.00     0.134 A 
ATOM     51  F   UNL A   1      36.353  31.362  33.104  1.00  0.00    -0.206 F 
ATOM     52  C   UNL A   1      34.894  32.500  31.666  1.00  0.00     0.040 A 
ATOM     53  C   UNL A   1      35.369  32.639  29.321  1.00  0.00     0.040 A 
ATOM     54  F   UNL A   1      37.306  31.692  28.448  1.00  0.00    -0.206 F 
ATOM     55  C   UNL A   1      34.556  32.965  30.399  1.00  0.00     0.006 A 
ENDBRANCH  27  48
BRANCH  39  56
ATOM     56  C   UNL A   1      42.182  30.128  33.968  1.00  0.00     0.057 A 
ATOM     57  C   UNL A   1      41.858  28.775  33.780  1.00  0.00     0.134 A 
ATOM     58  C   UNL A   1      42.426  30.543  35.280  1.00  0.00     0.134 A 
ATOM     59  F   UNL A   1      41.711  28.261  32.553  1.00  0.00    -0.206 F 
ATOM     60  C   UNL A   1      41.735  27.890  34.854  1.00  0.00     0.040 A 
ATOM     61  C   UNL A   1      42.340  29.661  36.360  1.00  0.00     0.040 A 
ATOM     62  F   UNL A   1      42.801  31.807  35.532  1.00  0.00    -0.206 F 
ATOM     63  C   UNL A   1      41.983  28.331  36.151  1.00  0.00     0.006 A 
ENDBRANCH  39  56
ENDBRANCH  13  14
ENDBRANCH   6   8
ENDBRANCH   3   4
ENDBRANCH   2   3
ENDBRANCH   1   2
BRANCH   1  64
ATOM     64  C   UNL A   1      36.829  23.786  25.778  1.00  0.00     0.002 C 
BRANCH  64  65
ATOM     65  C   UNL A   1      35.645  24.400  25.022  1.00  0.00     0.021 C 
BRANCH  65  66
ATOM     66  C   UNL A   1      34.335  24.311  25.806  1.00  0.00     0.116 C 
BRANCH  66  67
ATOM     67  N   UNL A   1      34.383  23.216  26.744  1.00  0.00    -0.351 N 
ATOM     68  C   UNL A   1      33.753  22.015  26.792  1.00  0.00     0.281 C 
ATOM     69  H   UNL A   1      34.995  23.371  27.500  1.00  0.00     0.163 HD
ATOM     70  O   UNL A   1      34.059  21.326  27.776  1.00  0.00    -0.268 OA
BRANCH  68  71
ATOM     71  C   UNL A   1      32.831  21.449  25.640  1.00  0.00     0.177 C 
ATOM     72  C   UNL A   1      32.975  21.986  24.199  1.00  0.00     0.079 C 
ATOM     73  C   UNL A   1      33.174  19.931  25.629  1.00  0.00     0.106 C 
ATOM     74  C   UNL A   1      32.125  21.214  23.186  1.00  0.00     0.009 C 
ATOM     75  C   UNL A   1      32.441  19.090  24.571  1.00  0.00     0.116 C 
ATOM     76  C   UNL A   1      32.519  19.742  23.177  1.00  0.00     0.028 C 
BRANCH  71  77
ATOM     77  N   UNL A   1      31.411  21.619  26.059  1.00  0.00    -0.331 N 
ATOM     78  H   UNL A   1      31.162  20.785  26.591  1.00  0.00     0.347 HD
ATOM     79  H   UNL A   1      30.932  21.782  25.173  1.00  0.00     0.347 HD
BRANCH  77  80
ATOM     80  C   UNL A   1      30.998  22.775  26.872  1.00  0.00     0.183 C 
ATOM     81  C   UNL A   1      30.486  24.090  26.356  1.00  0.00     0.071 C 
ATOM     82  C   UNL A   1      29.538  23.128  27.003  1.00  0.00     0.071 C 
ENDBRANCH  77  80
ENDBRANCH  71  77
BRANCH  75  83
ATOM     83  N   UNL A   1      32.939  17.712  24.571  1.00  0.00    -0.250 N 
ATOM     84  C   UNL A   1      34.065  17.236  23.969  1.00  0.00     0.220 A 
ATOM     85  N   UNL A   1      32.301  16.722  25.226  1.00  0.00    -0.160 NA
ATOM     86  N   UNL A   1      34.189  15.951  24.213  1.00  0.00    -0.224 NA
ATOM     87  C   UNL A   1      33.100  15.680  24.987  1.00  0.00     0.246 A 
ENDBRANCH  75  83
ENDBRANCH  68  71
ENDBRANCH  66  67
ENDBRANCH  65  66
ENDBRANCH  64  65
ENDBRANCH   1  64
TORSDOF 16
ENDMDL
MODEL 3
REMARK VINA RESULT:     -10.5      2.338      3.999
REMARK SMILES O=C(NCCCCCCNC(=O)[C@@]1([NH2+]C2CC2)CCC[C@@H](n2cncn2)C1)c1ccc(-c2c3nc(c(-c4c(F)cccc4F)c4ccc([nH]4)c(-c4c(F)cccc4F)c4nc(c(-c5c(F)cccc5F)c5ccc2[nH]5)C=C4)C=C3)cc1
REMARK SMILES IDX 6 1 5 2 4 3 3 4 1 5 2 6 28 8 29 9 81 10 30 11 80 12 31 13
REMARK SMILES IDX 32 14 33 15 74 16 34 17 79 18 73 19 75 20 35 21 78 22 72 23
REMARK SMILES IDX 71 24 36 26 62 27 45 28 61 29 46 30 49 31 60 32 76 33 47 34
REMARK SMILES IDX 48 35 59 37 77 38 50 39 37 40 38 41 43 42 39 43 40 44 42 45
REMARK SMILES IDX 44 46 41 47 63 48 64 49 69 50 65 51 66 52 68 53 70 54 67 55
REMARK SMILES IDX 51 56 52 57 57 58 53 59 54 60 56 61 58 62 55 63 7 64 8 65
REMARK SMILES IDX 9 66 10 67 11 68 12 70 13 71 18 72 27 73 19 74 21 75 20 76
REMARK SMILES IDX 14 77 15 80 16 81 17 82 22 83 23 84 26 85 24 86 25 87
REMARK H PARENT 3 7 75 25 49 36 10 69 14 78 14 79
REMARK Flexibility Score: inf
ROOT
ATOM      1  C   UNL A   1      35.106  22.500  26.535  1.00  0.00     0.002 C 
ENDROOT
BRANCH   1   2
ATOM      2  C   UNL A   1      36.057  21.553  25.797  1.00  0.00     0.021 C 
BRANCH   2   3
ATOM      3  C   UNL A   1      37.307  22.244  25.251  1.00  0.00     0.116 C 
BRANCH   3   4
ATOM      4  N   UNL A   1      38.534  21.559  25.598  1.00  0.00    -0.352 N 
ATOM      5  O   UNL A   1      40.490  21.009  26.466  1.00  0.00    -0.269 OA
ATOM      6  C   UNL A   1      39.619  21.880  26.360  1.00  0.00     0.251 C 
ATOM      7  H   UNL A   1      38.599  20.663  25.196  1.00  0.00     0.163 HD
BRANCH   6   8
ATOM      8  C   UNL A   1      39.853  23.204  26.999  1.00  0.00     0.039 A 
ATOM      9  C   UNL A   1      39.060  24.342  26.837  1.00  0.00     0.014 A 
ATOM     10  C   UNL A   1      41.004  23.297  27.804  1.00  0.00     0.014 A 
ATOM     11  C   UNL A   1      39.462  25.564  27.362  1.00  0.00     0.010 A 
ATOM     12  C   UNL A   1      41.396  24.508  28.358  1.00  0.00     0.010 A 
ATOM     13  C   UNL A   1      40.645  25.649  28.095  1.00  0.00    -0.014 A 
BRANCH  13  14
ATOM     14  C   UNL A   1      40.994  26.935  28.686  1.00  0.00     0.031 A 
ATOM     15  C   UNL A   1      42.205  27.582  28.102  1.00  0.00     0.074 A 
ATOM     16  C   UNL A   1      40.202  27.564  29.576  1.00  0.00     0.049 A 
ATOM     17  N   UNL A   1      43.296  27.942  28.698  1.00  0.00    -0.248 NA
ATOM     18  C   UNL A   1      42.241  27.756  26.639  1.00  0.00     0.031 C 
ATOM     19  C   UNL A   1      38.853  27.190  30.007  1.00  0.00     0.029 A 
ATOM     20  N   UNL A   1      40.405  28.753  30.208  1.00  0.00    -0.354 N 
ATOM     21  C   UNL A   1      44.082  28.555  27.722  1.00  0.00     0.074 A 
ATOM     22  C   UNL A   1      43.450  28.283  26.459  1.00  0.00     0.031 C 
ATOM     23  C   UNL A   1      38.279  28.240  30.637  1.00  0.00     0.029 A 
ATOM     24  C   UNL A   1      39.260  29.305  30.767  1.00  0.00     0.049 A 
ATOM     25  H   UNL A   1      41.289  29.185  30.264  1.00  0.00     0.167 HD
ATOM     26  C   UNL A   1      45.074  29.431  28.047  1.00  0.00     0.037 A 
ATOM     27  C   UNL A   1      39.116  30.571  31.233  1.00  0.00     0.037 A 
ATOM     28  C   UNL A   1      45.497  29.260  29.413  1.00  0.00     0.049 A 
ATOM     29  C   UNL A   1      40.473  31.123  31.467  1.00  0.00     0.074 A 
ATOM     30  C   UNL A   1      46.046  28.227  30.147  1.00  0.00     0.029 A 
ATOM     31  N   UNL A   1      45.072  30.179  30.339  1.00  0.00    -0.354 N 
ATOM     32  N   UNL A   1      41.276  30.710  32.406  1.00  0.00    -0.248 NA
ATOM     33  C   UNL A   1      41.108  31.837  30.370  1.00  0.00     0.031 C 
ATOM     34  C   UNL A   1      45.466  28.348  31.444  1.00  0.00     0.029 A 
ATOM     35  C   UNL A   1      44.642  29.473  31.431  1.00  0.00     0.049 A 
ATOM     36  H   UNL A   1      45.076  31.159  30.239  1.00  0.00     0.167 HD
ATOM     37  C   UNL A   1      42.534  30.723  31.824  1.00  0.00     0.074 A 
ATOM     38  C   UNL A   1      42.381  31.508  30.601  1.00  0.00     0.031 C 
ATOM     39  C   UNL A   1      43.511  29.863  32.237  1.00  0.00     0.037 A 
BRANCH  26  40
ATOM     40  C   UNL A   1      45.382  30.693  27.268  1.00  0.00     0.057 A 
ATOM     41  C   UNL A   1      46.725  31.010  26.986  1.00  0.00     0.134 A 
ATOM     42  C   UNL A   1      44.470  31.750  27.075  1.00  0.00     0.134 A 
ATOM     43  F   UNL A   1      47.694  30.090  27.119  1.00  0.00    -0.206 F 
ATOM     44  C   UNL A   1      47.140  32.305  26.656  1.00  0.00     0.040 A 
ATOM     45  C   UNL A   1      44.868  33.035  26.697  1.00  0.00     0.040 A 
ATOM     46  F   UNL A   1      43.163  31.634  27.336  1.00  0.00    -0.206 F 
ATOM     47  C   UNL A   1      46.211  33.329  26.528  1.00  0.00     0.006 A 
ENDBRANCH  26  40
BRANCH  27  48
ATOM     48  C   UNL A   1      37.915  31.435  31.174  1.00  0.00     0.057 A 
ATOM     49  C   UNL A   1      37.407  31.895  29.952  1.00  0.00     0.134 A 
ATOM     50  C   UNL A   1      37.080  31.605  32.292  1.00  0.00     0.134 A 
ATOM     51  F   UNL A   1      38.107  31.735  28.820  1.00  0.00    -0.206 F 
ATOM     52  C   UNL A   1      36.134  32.475  29.845  1.00  0.00     0.040 A 
ATOM     53  C   UNL A   1      35.812  32.187  32.202  1.00  0.00     0.040 A 
ATOM     54  F   UNL A   1      37.429  31.127  33.496  1.00  0.00    -0.206 F 
ATOM     55  C   UNL A   1      35.329  32.614  30.971  1.00  0.00     0.006 A 
ENDBRANCH  27  48
BRANCH  39  56
ATOM     56  C   UNL A   1      43.267  29.072  33.489  1.00  0.00     0.057 A 
ATOM     57  C   UNL A   1      42.564  27.858  33.523  1.00  0.00     0.134 A 
ATOM     58  C   UNL A   1      43.896  29.472  34.672  1.00  0.00     0.134 A 
ATOM     59  F   UNL A   1      42.019  27.341  32.416  1.00  0.00    -0.206 F 
ATOM     60  C   UNL A   1      42.451  27.103  34.694  1.00  0.00     0.040 A 
ATOM     61  C   UNL A   1      43.820  28.710  35.841  1.00  0.00     0.040 A 
ATOM     62  F   UNL A   1      44.638  30.590  34.700  1.00  0.00    -0.206 F 
ATOM     63  C   UNL A   1      43.087  27.525  35.857  1.00  0.00     0.006 A 
ENDBRANCH  39  56
ENDBRANCH  13  14
ENDBRANCH   6   8
ENDBRANCH   3   4
ENDBRANCH   2   3
ENDBRANCH   1   2
BRANCH   1  64
ATOM     64  C   UNL A   1      34.123  21.805  27.484  1.00  0.00     0.002 C 
BRANCH  64  65
ATOM     65  C   UNL A   1      32.751  22.484  27.582  1.00  0.00     0.021 C 
BRANCH  65  66
ATOM     66  C   UNL A   1      32.601  23.652  26.607  1.00  0.00     0.116 C 
BRANCH  66  67
ATOM     67  N   UNL A   1      31.275  24.214  26.695  1.00  0.00    -0.351 N 
ATOM     68  C   UNL A   1      30.666  25.243  26.053  1.00  0.00     0.281 C 
ATOM     69  H   UNL A   1      30.697  23.761  27.351  1.00  0.00     0.163 HD
ATOM     70  O   UNL A   1      29.492  25.430  26.405  1.00  0.00    -0.268 OA
BRANCH  68  71
ATOM     71  C   UNL A   1      31.309  26.048  24.855  1.00  0.00     0.177 C 
ATOM     72  C   UNL A   1      31.851  25.295  23.619  1.00  0.00     0.079 C 
ATOM     73  C   UNL A   1      30.147  26.972  24.388  1.00  0.00     0.106 C 
ATOM     74  C   UNL A   1      32.284  26.234  22.490  1.00  0.00     0.009 C 
ATOM     75  C   UNL A   1      30.459  27.881  23.188  1.00  0.00     0.116 C 
ATOM     76  C   UNL A   1      31.109  27.092  22.036  1.00  0.00     0.028 C 
BRANCH  71  77
ATOM     77  N   UNL A   1      32.407  26.893  25.402  1.00  0.00    -0.331 N 
ATOM     78  H   UNL A   1      32.972  27.188  24.605  1.00  0.00     0.347 HD
ATOM     79  H   UNL A   1      32.840  26.282  26.095  1.00  0.00     0.347 HD
BRANCH  77  80
ATOM     80  C   UNL A   1      32.108  28.108  26.177  1.00  0.00     0.183 C 
ATOM     81  C   UNL A   1      31.912  28.190  27.665  1.00  0.00     0.071 C 
ATOM     82  C   UNL A   1      33.168  28.730  27.052  1.00  0.00     0.071 C 
ENDBRANCH  77  80
ENDBRANCH  71  77
BRANCH  75  83
ATOM     83  N   UNL A   1      29.258  28.603  22.762  1.00  0.00    -0.250 N 
ATOM     84  C   UNL A   1      27.988  28.457  23.235  1.00  0.00     0.220 A 
ATOM     85  N   UNL A   1      29.299  29.561  21.814  1.00  0.00    -0.160 NA
ATOM     86  N   UNL A   1      27.186  29.297  22.622  1.00  0.00    -0.224 NA
ATOM     87  C   UNL A   1      28.025  29.955  21.772  1.00  0.00     0.246 A 
ENDBRANCH  75  83
ENDBRANCH  68  71
ENDBRANCH  66  67
ENDBRANCH  65  66
ENDBRANCH  64  65
ENDBRANCH   1  64
TORSDOF 16
ENDMDL
