MODEL 1
REMARK VINA RESULT:     -10.9      0.000      0.000
REMARK SMILES Cc1nsc(N[C@@H](C)C2CCCC2)c1C(=O)NCCCCCCNC(=O)c1ccc(-c2c3nc(c(-c4c(F)cccc4F)c4ccc([nH]4)c(-c4c(F)cccc4F)c4nc(c(-c5c(F)cccc5F)c5ccc2[nH]5)C=C4)C=C3)cc1
REMARK SMILES IDX 20 1 19 2 18 3 17 4 15 5 16 6 14 8 1 9 2 10 3 11 4 12 5 13
REMARK SMILES IDX 6 14 7 16 8 17 9 18 10 19 13 20 11 21 12 22 21 23 22 24
REMARK SMILES IDX 23 25 24 26 25 27 26 29 27 30 28 31 80 32 29 33 79 34 30 35
REMARK SMILES IDX 31 36 32 37 73 38 33 39 78 40 72 41 74 42 34 43 77 44 71 45
REMARK SMILES IDX 70 46 35 48 61 49 44 50 60 51 45 52 48 53 59 54 75 55 46 56
REMARK SMILES IDX 47 57 58 59 76 60 49 61 36 62 37 63 42 64 38 65 39 66 41 67
REMARK SMILES IDX 43 68 40 69 62 70 63 71 68 72 64 73 65 74 67 75 69 76 66 77
REMARK SMILES IDX 50 78 51 79 56 80 52 81 53 82 55 83 57 84 54 85
REMARK H PARENT 17 7 6 15 24 28 74 47 48 58
REMARK Flexibility Score: inf
ROOT
ATOM      1  C   UNL A   1      39.497  21.574  26.121  1.00  0.00     0.002 C 
ENDROOT
BRANCH   1   2
ATOM      2  C   UNL A   1      39.042  23.017  26.350  1.00  0.00     0.021 C 
BRANCH   2   3
ATOM      3  C   UNL A   1      37.620  23.410  25.952  1.00  0.00     0.116 C 
BRANCH   3   4
ATOM      4  N   UNL A   1      37.344  23.431  24.539  1.00  0.00    -0.352 N 
ATOM      5  C   UNL A   1      36.303  22.934  23.787  1.00  0.00     0.256 C 
ATOM      6  O   UNL A   1      36.404  23.168  22.576  1.00  0.00    -0.269 OA
ATOM      7  H   UNL A   1      38.033  23.890  24.006  1.00  0.00     0.163 HD
BRANCH   5   8
ATOM      8  C   UNL A   1      35.178  22.129  24.311  1.00  0.00     0.097 A 
ATOM      9  C   UNL A   1      36.148  19.715  24.954  1.00  0.00     0.069 C 
ATOM     10  C   UNL A   1      35.088  20.746  24.775  1.00  0.00     0.066 A 
ATOM     11  N   UNL A   1      33.878  20.320  25.138  1.00  0.00    -0.195 NA
ATOM     12  S   UNL A   1      32.819  21.559  25.077  1.00  0.00    -0.018 S 
ATOM     13  C   UNL A   1      33.930  22.749  24.535  1.00  0.00     0.122 A 
BRANCH  13  14
ATOM     14  N   UNL A   1      33.618  24.066  24.349  1.00  0.00    -0.372 N 
ATOM     15  H   UNL A   1      33.686  24.661  25.132  1.00  0.00     0.161 HD
BRANCH  14  16
ATOM     16  C   UNL A   1      33.192  24.669  23.087  1.00  0.00     0.080 C 
ATOM     17  C   UNL A   1      31.673  24.520  22.965  1.00  0.00     0.031 C 
BRANCH  16  18
ATOM     18  C   UNL A   1      33.717  26.117  23.023  1.00  0.00     0.011 C 
ATOM     19  C   UNL A   1      32.846  27.065  22.198  1.00  0.00     0.006 C 
ATOM     20  C   UNL A   1      33.842  26.859  24.355  1.00  0.00     0.006 C 
ATOM     21  C   UNL A   1      33.411  28.439  22.531  1.00  0.00     0.000 C 
ATOM     22  C   UNL A   1      33.895  28.342  23.978  1.00  0.00     0.000 C 
ENDBRANCH  16  18
ENDBRANCH  14  16
ENDBRANCH  13  14
ENDBRANCH   5   8
ENDBRANCH   3   4
ENDBRANCH   2   3
ENDBRANCH   1   2
BRANCH   1  23
ATOM     23  C   UNL A   1      40.750  21.054  26.837  1.00  0.00     0.002 C 
BRANCH  23  24
ATOM     24  C   UNL A   1      41.403  19.747  26.372  1.00  0.00     0.021 C 
BRANCH  24  25
ATOM     25  C   UNL A   1      42.866  19.535  26.737  1.00  0.00     0.116 C 
BRANCH  25  26
ATOM     26  N   UNL A   1      43.789  19.608  25.605  1.00  0.00    -0.352 N 
ATOM     27  C   UNL A   1      44.184  20.718  24.874  1.00  0.00     0.251 C 
ATOM     28  H   UNL A   1      44.183  18.751  25.323  1.00  0.00     0.163 HD
ATOM     29  O   UNL A   1      44.675  20.592  23.760  1.00  0.00    -0.269 OA
BRANCH  27  30
ATOM     30  C   UNL A   1      44.003  22.064  25.452  1.00  0.00     0.039 A 
ATOM     31  C   UNL A   1      43.057  22.971  24.958  1.00  0.00     0.014 A 
ATOM     32  C   UNL A   1      44.804  22.415  26.528  1.00  0.00     0.014 A 
ATOM     33  C   UNL A   1      42.882  24.197  25.607  1.00  0.00     0.010 A 
ATOM     34  C   UNL A   1      44.486  23.510  27.283  1.00  0.00     0.010 A 
ATOM     35  C   UNL A   1      43.598  24.458  26.779  1.00  0.00    -0.014 A 
BRANCH  35  36
ATOM     36  C   UNL A   1      43.498  25.724  27.504  1.00  0.00     0.031 A 
ATOM     37  C   UNL A   1      44.465  26.808  27.173  1.00  0.00     0.074 A 
ATOM     38  C   UNL A   1      42.384  26.014  28.213  1.00  0.00     0.049 A 
ATOM     39  N   UNL A   1      45.222  27.477  27.984  1.00  0.00    -0.248 NA
ATOM     40  C   UNL A   1      44.619  27.198  25.764  1.00  0.00     0.031 C 
ATOM     41  C   UNL A   1      41.164  25.208  28.372  1.00  0.00     0.029 A 
ATOM     42  N   UNL A   1      42.044  27.187  28.811  1.00  0.00    -0.354 N 
ATOM     43  C   UNL A   1      45.848  28.464  27.222  1.00  0.00     0.074 A 
ATOM     44  C   UNL A   1      45.519  28.180  25.849  1.00  0.00     0.031 C 
ATOM     45  C   UNL A   1      40.151  26.001  28.776  1.00  0.00     0.029 A 
ATOM     46  C   UNL A   1      40.692  27.309  29.087  1.00  0.00     0.049 A 
ATOM     47  H   UNL A   1      42.701  27.887  29.028  1.00  0.00     0.167 HD
ATOM     48  C   UNL A   1      46.469  29.540  27.790  1.00  0.00     0.037 A 
ATOM     49  C   UNL A   1      40.050  28.421  29.509  1.00  0.00     0.037 A 
ATOM     50  C   UNL A   1      46.681  29.349  29.201  1.00  0.00     0.049 A 
ATOM     51  C   UNL A   1      41.073  29.318  30.100  1.00  0.00     0.074 A 
ATOM     52  C   UNL A   1      47.376  28.432  29.963  1.00  0.00     0.029 A 
ATOM     53  N   UNL A   1      45.846  29.996  30.079  1.00  0.00    -0.354 N 
ATOM     54  N   UNL A   1      41.738  29.050  31.192  1.00  0.00    -0.248 NA
ATOM     55  C   UNL A   1      41.667  30.333  29.244  1.00  0.00     0.031 C 
ATOM     56  C   UNL A   1      46.563  28.224  31.117  1.00  0.00     0.029 A 
ATOM     57  C   UNL A   1      45.451  29.059  30.999  1.00  0.00     0.049 A 
ATOM     58  H   UNL A   1      45.584  30.944  30.053  1.00  0.00     0.167 HD
ATOM     59  C   UNL A   1      43.015  29.539  30.959  1.00  0.00     0.074 A 
ATOM     60  C   UNL A   1      42.878  30.415  29.799  1.00  0.00     0.031 C 
ATOM     61  C   UNL A   1      44.114  28.972  31.543  1.00  0.00     0.037 A 
BRANCH  48  62
ATOM     62  C   UNL A   1      46.667  30.883  27.136  1.00  0.00     0.057 A 
ATOM     63  C   UNL A   1      47.952  31.456  27.079  1.00  0.00     0.134 A 
ATOM     64  C   UNL A   1      45.612  31.749  26.789  1.00  0.00     0.134 A 
ATOM     65  F   UNL A   1      49.039  30.744  27.415  1.00  0.00    -0.206 F 
ATOM     66  C   UNL A   1      48.167  32.799  26.742  1.00  0.00     0.040 A 
ATOM     67  C   UNL A   1      45.819  33.078  26.400  1.00  0.00     0.040 A 
ATOM     68  F   UNL A   1      44.329  31.384  26.903  1.00  0.00    -0.206 F 
ATOM     69  C   UNL A   1      47.096  33.615  26.401  1.00  0.00     0.006 A 
ENDBRANCH  48  62
BRANCH  49  70
ATOM     70  C   UNL A   1      38.662  28.837  29.217  1.00  0.00     0.057 A 
ATOM     71  C   UNL A   1      37.702  28.915  30.231  1.00  0.00     0.134 A 
ATOM     72  C   UNL A   1      38.298  29.398  27.977  1.00  0.00     0.134 A 
ATOM     73  F   UNL A   1      37.971  28.447  31.458  1.00  0.00    -0.206 F 
ATOM     74  C   UNL A   1      36.458  29.529  30.034  1.00  0.00     0.040 A 
ATOM     75  C   UNL A   1      37.055  30.001  27.762  1.00  0.00     0.040 A 
ATOM     76  F   UNL A   1      39.165  29.454  26.955  1.00  0.00    -0.206 F 
ATOM     77  C   UNL A   1      36.134  30.080  28.798  1.00  0.00     0.006 A 
ENDBRANCH  49  70
BRANCH  61  78
ATOM     78  C   UNL A   1      43.899  27.958  32.636  1.00  0.00     0.057 A 
ATOM     79  C   UNL A   1      43.867  26.572  32.419  1.00  0.00     0.134 A 
ATOM     80  C   UNL A   1      43.903  28.380  33.970  1.00  0.00     0.134 A 
ATOM     81  F   UNL A   1      43.974  26.061  31.189  1.00  0.00    -0.206 F 
ATOM     82  C   UNL A   1      43.795  25.654  33.470  1.00  0.00     0.040 A 
ATOM     83  C   UNL A   1      43.865  27.472  35.033  1.00  0.00     0.040 A 
ATOM     84  F   UNL A   1      43.998  29.686  34.265  1.00  0.00    -0.206 F 
ATOM     85  C   UNL A   1      43.801  26.104  34.784  1.00  0.00     0.006 A 
ENDBRANCH  61  78
ENDBRANCH  35  36
ENDBRANCH  27  30
ENDBRANCH  25  26
ENDBRANCH  24  25
ENDBRANCH  23  24
ENDBRANCH   1  23
TORSDOF 16
ENDMDL
MODEL 2
REMARK VINA RESULT:     -10.7      2.997      8.147
REMARK SMILES Cc1nsc(N[C@@H](C)C2CCCC2)c1C(=O)NCCCCCCNC(=O)c1ccc(-c2c3nc(c(-c4c(F)cccc4F)c4ccc([nH]4)c(-c4c(F)cccc4F)c4nc(c(-c5c(F)cccc5F)c5ccc2[nH]5)C=C4)C=C3)cc1
REMARK SMILES IDX 20 1 19 2 18 3 17 4 15 5 16 6 14 8 1 9 2 10 3 11 4 12 5 13
REMARK SMILES IDX 6 14 7 16 8 17 9 18 10 19 13 20 11 21 12 22 21 23 22 24
REMARK SMILES IDX 23 25 24 26 25 27 26 29 27 30 28 31 80 32 29 33 79 34 30 35
REMARK SMILES IDX 31 36 32 37 73 38 33 39 78 40 72 41 74 42 34 43 77 44 71 45
REMARK SMILES IDX 70 46 35 48 61 49 44 50 60 51 45 52 48 53 59 54 75 55 46 56
REMARK SMILES IDX 47 57 58 59 76 60 49 61 36 62 37 63 42 64 38 65 39 66 41 67
REMARK SMILES IDX 43 68 40 69 62 70 63 71 68 72 64 73 65 74 67 75 69 76 66 77
REMARK SMILES IDX 50 78 51 79 56 80 52 81 53 82 55 83 57 84 54 85
REMARK H PARENT 17 7 6 15 24 28 74 47 48 58
REMARK Flexibility Score: inf
ROOT
ATOM      1  C   UNL A   1      34.220  28.921  26.296  1.00  0.00     0.002 C 
ENDROOT
BRANCH   1   2
ATOM      2  C   UNL A   1      33.328  27.740  26.685  1.00  0.00     0.021 C 
BRANCH   2   3
ATOM      3  C   UNL A   1      31.821  27.963  26.794  1.00  0.00     0.116 C 
BRANCH   3   4
ATOM      4  N   UNL A   1      31.002  26.781  26.720  1.00  0.00    -0.352 N 
ATOM      5  C   UNL A   1      30.647  25.959  25.673  1.00  0.00     0.256 C 
ATOM      6  O   UNL A   1      29.929  25.008  26.007  1.00  0.00    -0.269 OA
ATOM      7  H   UNL A   1      30.622  26.506  27.586  1.00  0.00     0.163 HD
BRANCH   5   8
ATOM      8  C   UNL A   1      31.001  26.180  24.255  1.00  0.00     0.097 A 
ATOM      9  C   UNL A   1      29.739  28.401  23.447  1.00  0.00     0.069 C 
ATOM     10  C   UNL A   1      30.593  27.192  23.283  1.00  0.00     0.066 A 
ATOM     11  N   UNL A   1      31.077  27.058  22.048  1.00  0.00    -0.195 NA
ATOM     12  S   UNL A   1      32.134  25.817  22.004  1.00  0.00    -0.018 S 
ATOM     13  C   UNL A   1      31.989  25.369  23.655  1.00  0.00     0.122 A 
BRANCH  13  14
ATOM     14  N   UNL A   1      32.717  24.378  24.252  1.00  0.00    -0.372 N 
ATOM     15  H   UNL A   1      32.580  23.459  23.925  1.00  0.00     0.161 HD
BRANCH  14  16
ATOM     16  C   UNL A   1      33.682  24.566  25.334  1.00  0.00     0.080 C 
ATOM     17  C   UNL A   1      33.264  23.689  26.517  1.00  0.00     0.031 C 
BRANCH  16  18
ATOM     18  C   UNL A   1      35.100  24.303  24.790  1.00  0.00     0.011 C 
ATOM     19  C   UNL A   1      35.994  23.494  25.730  1.00  0.00     0.006 C 
ATOM     20  C   UNL A   1      35.195  23.512  23.483  1.00  0.00     0.006 C 
ATOM     21  C   UNL A   1      37.190  23.139  24.858  1.00  0.00     0.000 C 
ATOM     22  C   UNL A   1      36.633  22.988  23.443  1.00  0.00     0.000 C 
ENDBRANCH  16  18
ENDBRANCH  14  16
ENDBRANCH  13  14
ENDBRANCH   5   8
ENDBRANCH   3   4
ENDBRANCH   2   3
ENDBRANCH   1   2
BRANCH   1  23
ATOM     23  C   UNL A   1      34.756  29.856  27.388  1.00  0.00     0.002 C 
BRANCH  23  24
ATOM     24  C   UNL A   1      34.082  31.213  27.625  1.00  0.00     0.021 C 
BRANCH  24  25
ATOM     25  C   UNL A   1      34.959  32.340  28.149  1.00  0.00     0.116 C 
BRANCH  25  26
ATOM     26  N   UNL A   1      34.652  32.760  29.516  1.00  0.00    -0.352 N 
ATOM     27  C   UNL A   1      35.107  32.230  30.713  1.00  0.00     0.251 C 
ATOM     28  H   UNL A   1      34.038  33.526  29.597  1.00  0.00     0.163 HD
ATOM     29  O   UNL A   1      34.512  32.446  31.760  1.00  0.00    -0.269 OA
BRANCH  27  30
ATOM     30  C   UNL A   1      36.321  31.390  30.714  1.00  0.00     0.039 A 
ATOM     31  C   UNL A   1      36.266  29.992  30.782  1.00  0.00     0.014 A 
ATOM     32  C   UNL A   1      37.547  32.033  30.636  1.00  0.00     0.014 A 
ATOM     33  C   UNL A   1      37.452  29.257  30.694  1.00  0.00     0.010 A 
ATOM     34  C   UNL A   1      38.673  31.316  30.337  1.00  0.00     0.010 A 
ATOM     35  C   UNL A   1      38.657  29.929  30.464  1.00  0.00    -0.014 A 
BRANCH  35  36
ATOM     36  C   UNL A   1      39.945  29.241  30.388  1.00  0.00     0.031 A 
ATOM     37  C   UNL A   1      40.690  28.990  31.655  1.00  0.00     0.074 A 
ATOM     38  C   UNL A   1      40.298  28.580  29.262  1.00  0.00     0.049 A 
ATOM     39  N   UNL A   1      41.919  29.290  31.930  1.00  0.00    -0.248 NA
ATOM     40  C   UNL A   1      39.981  28.330  32.760  1.00  0.00     0.031 C 
ATOM     41  C   UNL A   1      39.531  28.418  28.017  1.00  0.00     0.029 A 
ATOM     42  N   UNL A   1      41.365  27.761  29.062  1.00  0.00    -0.354 N 
ATOM     43  C   UNL A   1      42.193  28.740  33.183  1.00  0.00     0.074 A 
ATOM     44  C   UNL A   1      40.936  28.252  33.690  1.00  0.00     0.031 C 
ATOM     45  C   UNL A   1      40.015  27.368  27.325  1.00  0.00     0.029 A 
ATOM     46  C   UNL A   1      41.230  26.915  27.973  1.00  0.00     0.049 A 
ATOM     47  H   UNL A   1      42.161  27.770  29.640  1.00  0.00     0.167 HD
ATOM     48  C   UNL A   1      43.467  28.587  33.651  1.00  0.00     0.037 A 
ATOM     49  C   UNL A   1      42.042  25.886  27.644  1.00  0.00     0.037 A 
ATOM     50  C   UNL A   1      44.414  29.343  32.874  1.00  0.00     0.049 A 
ATOM     51  C   UNL A   1      43.340  26.120  28.322  1.00  0.00     0.074 A 
ATOM     52  C   UNL A   1      44.585  30.682  32.584  1.00  0.00     0.029 A 
ATOM     53  N   UNL A   1      45.197  28.671  31.967  1.00  0.00    -0.354 N 
ATOM     54  N   UNL A   1      44.149  27.105  28.035  1.00  0.00    -0.248 NA
ATOM     55  C   UNL A   1      43.554  25.498  29.620  1.00  0.00     0.031 C 
ATOM     56  C   UNL A   1      45.029  30.710  31.229  1.00  0.00     0.029 A 
ATOM     57  C   UNL A   1      45.138  29.387  30.799  1.00  0.00     0.049 A 
ATOM     58  H   UNL A   1      45.700  27.840  32.125  1.00  0.00     0.167 HD
ATOM     59  C   UNL A   1      44.678  27.497  29.256  1.00  0.00     0.074 A 
ATOM     60  C   UNL A   1      44.367  26.402  30.171  1.00  0.00     0.031 C 
ATOM     61  C   UNL A   1      45.067  28.787  29.485  1.00  0.00     0.037 A 
BRANCH  48  62
ATOM     62  C   UNL A   1      43.913  27.558  34.657  1.00  0.00     0.057 A 
ATOM     63  C   UNL A   1      44.517  27.966  35.862  1.00  0.00     0.134 A 
ATOM     64  C   UNL A   1      44.006  26.180  34.380  1.00  0.00     0.134 A 
ATOM     65  F   UNL A   1      44.523  29.258  36.226  1.00  0.00    -0.206 F 
ATOM     66  C   UNL A   1      45.196  27.078  36.706  1.00  0.00     0.040 A 
ATOM     67  C   UNL A   1      44.637  25.275  35.241  1.00  0.00     0.040 A 
ATOM     68  F   UNL A   1      43.581  25.660  33.222  1.00  0.00    -0.206 F 
ATOM     69  C   UNL A   1      45.258  25.725  36.396  1.00  0.00     0.006 A 
ENDBRANCH  48  62
BRANCH  49  70
ATOM     70  C   UNL A   1      41.678  24.617  26.979  1.00  0.00     0.057 A 
ATOM     71  C   UNL A   1      42.548  24.002  26.072  1.00  0.00     0.134 A 
ATOM     72  C   UNL A   1      40.572  23.849  27.393  1.00  0.00     0.134 A 
ATOM     73  F   UNL A   1      43.652  24.635  25.652  1.00  0.00    -0.206 F 
ATOM     74  C   UNL A   1      42.342  22.694  25.613  1.00  0.00     0.040 A 
ATOM     75  C   UNL A   1      40.346  22.548  26.932  1.00  0.00     0.040 A 
ATOM     76  F   UNL A   1      39.716  24.303  28.319  1.00  0.00    -0.206 F 
ATOM     77  C   UNL A   1      41.241  21.961  26.048  1.00  0.00     0.006 A 
ENDBRANCH  49  70
BRANCH  61  78
ATOM     78  C   UNL A   1      45.137  29.731  28.313  1.00  0.00     0.057 A 
ATOM     79  C   UNL A   1      44.065  30.536  27.895  1.00  0.00     0.134 A 
ATOM     80  C   UNL A   1      46.371  29.967  27.698  1.00  0.00     0.134 A 
ATOM     81  F   UNL A   1      42.873  30.469  28.494  1.00  0.00    -0.206 F 
ATOM     82  C   UNL A   1      44.203  31.494  26.885  1.00  0.00     0.040 A 
ATOM     83  C   UNL A   1      46.530  30.945  26.711  1.00  0.00     0.040 A 
ATOM     84  F   UNL A   1      47.461  29.286  28.087  1.00  0.00    -0.206 F 
ATOM     85  C   UNL A   1      45.442  31.705  26.295  1.00  0.00     0.006 A 
ENDBRANCH  61  78
ENDBRANCH  35  36
ENDBRANCH  27  30
ENDBRANCH  25  26
ENDBRANCH  24  25
ENDBRANCH  23  24
ENDBRANCH   1  23
TORSDOF 16
ENDMDL
MODEL 3
REMARK VINA RESULT:     -10.4      2.479      3.182
REMARK SMILES Cc1nsc(N[C@@H](C)C2CCCC2)c1C(=O)NCCCCCCNC(=O)c1ccc(-c2c3nc(c(-c4c(F)cccc4F)c4ccc([nH]4)c(-c4c(F)cccc4F)c4nc(c(-c5c(F)cccc5F)c5ccc2[nH]5)C=C4)C=C3)cc1
REMARK SMILES IDX 20 1 19 2 18 3 17 4 15 5 16 6 14 8 1 9 2 10 3 11 4 12 5 13
REMARK SMILES IDX 6 14 7 16 8 17 9 18 10 19 13 20 11 21 12 22 21 23 22 24
REMARK SMILES IDX 23 25 24 26 25 27 26 29 27 30 28 31 80 32 29 33 79 34 30 35
REMARK SMILES IDX 31 36 32 37 73 38 33 39 78 40 72 41 74 42 34 43 77 44 71 45
REMARK SMILES IDX 70 46 35 48 61 49 44 50 60 51 45 52 48 53 59 54 75 55 46 56
REMARK SMILES IDX 47 57 58 59 76 60 49 61 36 62 37 63 42 64 38 65 39 66 41 67
REMARK SMILES IDX 43 68 40 69 62 70 63 71 68 72 64 73 65 74 67 75 69 76 66 77
REMARK SMILES IDX 50 78 51 79 56 80 52 81 53 82 55 83 57 84 54 85
REMARK H PARENT 17 7 6 15 24 28 74 47 48 58
REMARK Flexibility Score: inf
ROOT
ATOM      1  C   UNL A   1      37.574  23.735  26.076  1.00  0.00     0.002 C 
ENDROOT
BRANCH   1   2
ATOM      2  C   UNL A   1      37.041  22.709  25.074  1.00  0.00     0.021 C 
BRANCH   2   3
ATOM      3  C   UNL A   1      36.430  21.414  25.604  1.00  0.00     0.116 C 
BRANCH   3   4
ATOM      4  N   UNL A   1      35.358  21.566  26.555  1.00  0.00    -0.352 N 
ATOM      5  C   UNL A   1      33.998  21.724  26.406  1.00  0.00     0.256 C 
ATOM      6  O   UNL A   1      33.384  21.803  27.478  1.00  0.00    -0.269 OA
ATOM      7  H   UNL A   1      35.655  21.554  27.493  1.00  0.00     0.163 HD
BRANCH   5   8
ATOM      8  C   UNL A   1      33.289  21.861  25.116  1.00  0.00     0.097 A 
ATOM      9  C   UNL A   1      32.720  19.391  24.245  1.00  0.00     0.069 C 
ATOM     10  C   UNL A   1      32.774  20.877  24.165  1.00  0.00     0.066 A 
ATOM     11  N   UNL A   1      32.223  21.361  23.051  1.00  0.00    -0.195 NA
ATOM     12  S   UNL A   1      32.167  22.989  23.129  1.00  0.00    -0.018 S 
ATOM     13  C   UNL A   1      32.904  23.144  24.672  1.00  0.00     0.122 A 
BRANCH  13  14
ATOM     14  N   UNL A   1      33.083  24.331  25.324  1.00  0.00    -0.372 N 
ATOM     15  H   UNL A   1      33.988  24.531  25.658  1.00  0.00     0.161 HD
BRANCH  14  16
ATOM     16  C   UNL A   1      32.045  25.332  25.569  1.00  0.00     0.080 C 
ATOM     17  C   UNL A   1      30.811  24.624  26.136  1.00  0.00     0.031 C 
BRANCH  16  18
ATOM     18  C   UNL A   1      32.627  26.449  26.456  1.00  0.00     0.011 C 
ATOM     19  C   UNL A   1      33.748  27.254  25.798  1.00  0.00     0.006 C 
ATOM     20  C   UNL A   1      31.656  27.543  26.906  1.00  0.00     0.006 C 
ATOM     21  C   UNL A   1      33.933  28.434  26.742  1.00  0.00     0.000 C 
ATOM     22  C   UNL A   1      32.547  28.716  27.320  1.00  0.00     0.000 C 
ENDBRANCH  16  18
ENDBRANCH  14  16
ENDBRANCH  13  14
ENDBRANCH   5   8
ENDBRANCH   3   4
ENDBRANCH   2   3
ENDBRANCH   1   2
BRANCH   1  23
ATOM     23  C   UNL A   1      38.976  23.554  26.671  1.00  0.00     0.002 C 
BRANCH  23  24
ATOM     24  C   UNL A   1      39.713  22.222  26.488  1.00  0.00     0.021 C 
BRANCH  24  25
ATOM     25  C   UNL A   1      41.096  22.103  27.111  1.00  0.00     0.116 C 
BRANCH  25  26
ATOM     26  N   UNL A   1      42.200  22.194  26.155  1.00  0.00    -0.352 N 
ATOM     27  C   UNL A   1      42.756  23.321  25.571  1.00  0.00     0.251 C 
ATOM     28  H   UNL A   1      42.604  21.335  25.891  1.00  0.00     0.163 HD
ATOM     29  O   UNL A   1      43.423  23.233  24.549  1.00  0.00    -0.269 OA
BRANCH  27  30
ATOM     30  C   UNL A   1      42.530  24.641  26.193  1.00  0.00     0.039 A 
ATOM     31  C   UNL A   1      41.715  25.617  25.605  1.00  0.00     0.014 A 
ATOM     32  C   UNL A   1      43.150  24.895  27.406  1.00  0.00     0.014 A 
ATOM     33  C   UNL A   1      41.478  26.813  26.290  1.00  0.00     0.010 A 
ATOM     34  C   UNL A   1      42.751  25.962  28.164  1.00  0.00     0.010 A 
ATOM     35  C   UNL A   1      41.997  26.976  27.578  1.00  0.00    -0.014 A 
BRANCH  35  36
ATOM     36  C   UNL A   1      41.823  28.204  28.353  1.00  0.00     0.031 A 
ATOM     37  C   UNL A   1      42.792  29.316  28.144  1.00  0.00     0.074 A 
ATOM     38  C   UNL A   1      40.656  28.444  28.994  1.00  0.00     0.049 A 
ATOM     39  N   UNL A   1      43.478  29.956  29.037  1.00  0.00    -0.248 NA
ATOM     40  C   UNL A   1      43.038  29.776  26.769  1.00  0.00     0.031 C 
ATOM     41  C   UNL A   1      39.442  27.614  29.026  1.00  0.00     0.029 A 
ATOM     42  N   UNL A   1      40.255  29.582  29.620  1.00  0.00    -0.354 N 
ATOM     43  C   UNL A   1      44.139  30.988  28.370  1.00  0.00     0.074 A 
ATOM     44  C   UNL A   1      43.913  30.766  26.964  1.00  0.00     0.031 C 
ATOM     45  C   UNL A   1      38.390  28.372  29.393  1.00  0.00     0.029 A 
ATOM     46  C   UNL A   1      38.884  29.671  29.803  1.00  0.00     0.049 A 
ATOM     47  H   UNL A   1      40.883  30.279  29.916  1.00  0.00     0.167 HD
ATOM     48  C   UNL A   1      44.699  32.043  29.030  1.00  0.00     0.037 A 
ATOM     49  C   UNL A   1      38.195  30.752  30.230  1.00  0.00     0.037 A 
ATOM     50  C   UNL A   1      44.814  31.788  30.442  1.00  0.00     0.049 A 
ATOM     51  C   UNL A   1      39.158  31.634  30.935  1.00  0.00     0.074 A 
ATOM     52  C   UNL A   1      45.469  30.845  31.209  1.00  0.00     0.029 A 
ATOM     53  N   UNL A   1      43.907  32.380  31.288  1.00  0.00    -0.354 N 
ATOM     54  N   UNL A   1      39.748  31.324  32.058  1.00  0.00    -0.248 NA
ATOM     55  C   UNL A   1      39.792  32.697  30.172  1.00  0.00     0.031 C 
ATOM     56  C   UNL A   1      44.580  30.571  32.290  1.00  0.00     0.029 A 
ATOM     57  C   UNL A   1      43.464  31.394  32.132  1.00  0.00     0.049 A 
ATOM     58  H   UNL A   1      43.631  33.324  31.287  1.00  0.00     0.167 HD
ATOM     59  C   UNL A   1      41.030  31.841  31.940  1.00  0.00     0.074 A 
ATOM     60  C   UNL A   1      40.960  32.770  30.816  1.00  0.00     0.031 C 
ATOM     61  C   UNL A   1      42.094  31.263  32.574  1.00  0.00     0.037 A 
BRANCH  48  62
ATOM     62  C   UNL A   1      44.919  33.419  28.456  1.00  0.00     0.057 A 
ATOM     63  C   UNL A   1      46.228  33.898  28.258  1.00  0.00     0.134 A 
ATOM     64  C   UNL A   1      43.904  34.387  28.329  1.00  0.00     0.134 A 
ATOM     65  F   UNL A   1      47.287  33.082  28.381  1.00  0.00    -0.206 F 
ATOM     66  C   UNL A   1      46.509  35.245  27.994  1.00  0.00     0.040 A 
ATOM     67  C   UNL A   1      44.168  35.726  28.015  1.00  0.00     0.040 A 
ATOM     68  F   UNL A   1      42.623  34.110  28.599  1.00  0.00    -0.206 F 
ATOM     69  C   UNL A   1      45.475  36.165  27.871  1.00  0.00     0.006 A 
ENDBRANCH  48  62
BRANCH  49  70
ATOM     70  C   UNL A   1      36.824  31.162  29.859  1.00  0.00     0.057 A 
ATOM     71  C   UNL A   1      35.975  31.769  30.790  1.00  0.00     0.134 A 
ATOM     72  C   UNL A   1      36.391  31.187  28.519  1.00  0.00     0.134 A 
ATOM     73  F   UNL A   1      36.319  31.834  32.084  1.00  0.00    -0.206 F 
ATOM     74  C   UNL A   1      34.771  32.380  30.413  1.00  0.00     0.040 A 
ATOM     75  C   UNL A   1      35.186  31.781  28.130  1.00  0.00     0.040 A 
ATOM     76  F   UNL A   1      37.159  30.708  27.529  1.00  0.00    -0.206 F 
ATOM     77  C   UNL A   1      34.377  32.393  29.078  1.00  0.00     0.006 A 
ENDBRANCH  49  70
BRANCH  61  78
ATOM     78  C   UNL A   1      41.820  30.194  33.600  1.00  0.00     0.057 A 
ATOM     79  C   UNL A   1      41.739  28.826  33.299  1.00  0.00     0.134 A 
ATOM     80  C   UNL A   1      41.815  30.534  34.957  1.00  0.00     0.134 A 
ATOM     81  F   UNL A   1      41.849  28.386  32.042  1.00  0.00    -0.206 F 
ATOM     82  C   UNL A   1      41.612  27.850  34.292  1.00  0.00     0.040 A 
ATOM     83  C   UNL A   1      41.722  29.567  35.962  1.00  0.00     0.040 A 
ATOM     84  F   UNL A   1      41.955  31.816  35.332  1.00  0.00    -0.206 F 
ATOM     85  C   UNL A   1      41.611  28.219  35.630  1.00  0.00     0.006 A 
ENDBRANCH  61  78
ENDBRANCH  35  36
ENDBRANCH  27  30
ENDBRANCH  25  26
ENDBRANCH  24  25
ENDBRANCH  23  24
ENDBRANCH   1  23
TORSDOF 16
ENDMDL
