MODEL 1
REMARK VINA RESULT:      -9.8      0.000      0.000
REMARK SMILES C[N@@H+](C[C@H]1CCC[N@@H+]1CC(=O)NCCCCCCNC(=O)c1ccc(-c2c3nc(c(-c4c(F)cccc4F)c4ccc([nH]4)c(-c4c(F)cccc4F)c4nc(c(-c5c(F)cccc5F)c5ccc2[nH]5)C=C4)C=C3)cc1)C1CC1
REMARK SMILES IDX 14 1 13 2 12 3 10 4 11 5 9 7 8 8 4 9 5 10 6 11 7 12 3 14
REMARK SMILES IDX 2 15 1 16 76 18 77 19 78 20 15 21 16 22 17 23 18 24 19 25
REMARK SMILES IDX 20 26 21 28 22 29 23 30 75 31 24 32 74 33 25 34 26 35 27 36
REMARK SMILES IDX 68 37 28 38 73 39 67 40 69 41 29 42 72 43 66 44 65 45 30 47
REMARK SMILES IDX 56 48 39 49 55 50 40 51 43 52 54 53 70 54 41 55 42 56 53 58
REMARK SMILES IDX 71 59 44 60 31 61 32 62 37 63 33 64 34 65 36 66 38 67 35 68
REMARK SMILES IDX 57 69 58 70 63 71 59 72 60 73 62 74 64 75 61 76 45 77 46 78
REMARK SMILES IDX 51 79 47 80 48 81 50 82 52 83 49 84
REMARK H PARENT 12 6 8 13 2 17 19 27 69 46 43 57
REMARK Flexibility Score: inf
ROOT
ATOM      1  C   UNL A   1      37.211  22.663  25.592  1.00  0.00     0.021 C 
ENDROOT
BRANCH   1   2
ATOM      2  C   UNL A   1      36.017  23.535  25.991  1.00  0.00     0.116 C 
BRANCH   2   3
ATOM      3  N   UNL A   1      35.440  24.178  24.823  1.00  0.00    -0.351 N 
ATOM      4  C   UNL A   1      34.331  24.967  24.695  1.00  0.00     0.275 C 
ATOM      5  O   UNL A   1      33.992  25.272  23.548  1.00  0.00    -0.269 OA
ATOM      6  H   UNL A   1      35.928  24.018  23.984  1.00  0.00     0.163 HD
BRANCH   4   7
ATOM      7  C   UNL A   1      33.561  25.483  25.924  1.00  0.00     0.363 C 
BRANCH   7   8
ATOM      8  N   UNL A   1      32.755  26.709  25.717  1.00  0.00    -0.320 N 
ATOM      9  C   UNL A   1      33.507  27.964  25.883  1.00  0.00     0.240 C 
ATOM     10  C   UNL A   1      33.057  28.487  27.246  1.00  0.00     0.077 C 
ATOM     11  C   UNL A   1      31.612  28.064  27.348  1.00  0.00     0.068 C 
ATOM     12  C   UNL A   1      31.546  26.769  26.552  1.00  0.00     0.263 C 
ATOM     13  H   UNL A   1      32.479  26.630  24.738  1.00  0.00     0.348 HD
BRANCH   9  14
ATOM     14  C   UNL A   1      33.230  28.996  24.745  1.00  0.00     0.327 C 
BRANCH  14  15
ATOM     15  N   UNL A   1      32.902  28.424  23.416  1.00  0.00    -0.330 N 
ATOM     16  C   UNL A   1      34.019  28.550  22.485  1.00  0.00     0.333 C 
ATOM     17  H   UNL A   1      32.785  27.417  23.533  1.00  0.00     0.348 HD
BRANCH  15  18
ATOM     18  C   UNL A   1      31.570  28.823  22.907  1.00  0.00     0.184 C 
ATOM     19  C   UNL A   1      30.334  27.969  23.039  1.00  0.00     0.071 C 
ATOM     20  C   UNL A   1      30.488  29.194  23.887  1.00  0.00     0.071 C 
ENDBRANCH  15  18
ENDBRANCH  14  15
ENDBRANCH   9  14
ENDBRANCH   7   8
ENDBRANCH   4   7
ENDBRANCH   2   3
ENDBRANCH   1   2
BRANCH   1  21
ATOM     21  C   UNL A   1      36.994  21.768  24.373  1.00  0.00     0.002 C 
BRANCH  21  22
ATOM     22  C   UNL A   1      36.785  20.282  24.680  1.00  0.00     0.002 C 
BRANCH  22  23
ATOM     23  C   UNL A   1      38.054  19.432  24.829  1.00  0.00     0.021 C 
BRANCH  23  24
ATOM     24  C   UNL A   1      39.060  19.912  25.877  1.00  0.00     0.116 C 
BRANCH  24  25
ATOM     25  N   UNL A   1      40.261  19.097  25.884  1.00  0.00    -0.352 N 
ATOM     26  C   UNL A   1      41.566  19.490  26.051  1.00  0.00     0.251 C 
ATOM     27  H   UNL A   1      40.120  18.132  25.753  1.00  0.00     0.163 HD
ATOM     28  O   UNL A   1      42.482  18.714  25.802  1.00  0.00    -0.269 OA
BRANCH  26  29
ATOM     29  C   UNL A   1      41.874  20.855  26.529  1.00  0.00     0.039 A 
ATOM     30  C   UNL A   1      41.792  21.130  27.898  1.00  0.00     0.014 A 
ATOM     31  C   UNL A   1      42.188  21.875  25.626  1.00  0.00     0.014 A 
ATOM     32  C   UNL A   1      42.059  22.420  28.368  1.00  0.00     0.010 A 
ATOM     33  C   UNL A   1      42.492  23.151  26.099  1.00  0.00     0.010 A 
ATOM     34  C   UNL A   1      42.423  23.438  27.472  1.00  0.00    -0.014 A 
BRANCH  34  35
ATOM     35  C   UNL A   1      42.711  24.820  27.940  1.00  0.00     0.031 A 
ATOM     36  C   UNL A   1      44.106  25.193  28.358  1.00  0.00     0.074 A 
ATOM     37  C   UNL A   1      41.712  25.714  28.060  1.00  0.00     0.049 A 
ATOM     38  N   UNL A   1      44.534  26.291  28.928  1.00  0.00    -0.248 NA
ATOM     39  C   UNL A   1      45.155  24.188  28.122  1.00  0.00     0.031 C 
ATOM     40  C   UNL A   1      40.315  25.478  27.699  1.00  0.00     0.029 A 
ATOM     41  N   UNL A   1      41.718  26.999  28.547  1.00  0.00    -0.354 N 
ATOM     42  C   UNL A   1      45.894  26.101  29.139  1.00  0.00     0.074 A 
ATOM     43  C   UNL A   1      46.214  24.773  28.663  1.00  0.00     0.031 C 
ATOM     44  C   UNL A   1      39.596  26.577  27.983  1.00  0.00     0.029 A 
ATOM     45  C   UNL A   1      40.473  27.579  28.582  1.00  0.00     0.049 A 
ATOM     46  H   UNL A   1      42.537  27.459  28.844  1.00  0.00     0.167 HD
ATOM     47  C   UNL A   1      46.795  26.960  29.674  1.00  0.00     0.037 A 
ATOM     48  C   UNL A   1      40.079  28.773  29.065  1.00  0.00     0.037 A 
ATOM     49  C   UNL A   1      46.484  28.292  30.121  1.00  0.00     0.049 A 
ATOM     50  C   UNL A   1      41.094  29.700  29.676  1.00  0.00     0.074 A 
ATOM     51  C   UNL A   1      47.342  29.254  30.624  1.00  0.00     0.029 A 
ATOM     52  N   UNL A   1      45.214  28.848  30.121  1.00  0.00    -0.354 N 
ATOM     53  N   UNL A   1      42.384  29.525  29.831  1.00  0.00    -0.248 NA
ATOM     54  C   UNL A   1      40.600  30.989  30.182  1.00  0.00     0.031 C 
ATOM     55  C   UNL A   1      46.586  30.380  30.965  1.00  0.00     0.029 A 
ATOM     56  C   UNL A   1      45.263  30.133  30.634  1.00  0.00     0.049 A 
ATOM     57  H   UNL A   1      44.399  28.397  29.803  1.00  0.00     0.167 HD
ATOM     58  C   UNL A   1      42.859  30.690  30.420  1.00  0.00     0.074 A 
ATOM     59  C   UNL A   1      41.720  31.567  30.594  1.00  0.00     0.031 C 
ATOM     60  C   UNL A   1      44.125  31.004  30.783  1.00  0.00     0.037 A 
BRANCH  47  61
ATOM     61  C   UNL A   1      48.211  26.485  29.810  1.00  0.00     0.057 A 
ATOM     62  C   UNL A   1      48.666  25.840  30.967  1.00  0.00     0.134 A 
ATOM     63  C   UNL A   1      49.117  26.630  28.751  1.00  0.00     0.134 A 
ATOM     64  F   UNL A   1      47.851  25.678  32.020  1.00  0.00    -0.206 F 
ATOM     65  C   UNL A   1      49.978  25.374  31.074  1.00  0.00     0.040 A 
ATOM     66  C   UNL A   1      50.424  26.147  28.837  1.00  0.00     0.040 A 
ATOM     67  F   UNL A   1      48.742  27.230  27.611  1.00  0.00    -0.206 F 
ATOM     68  C   UNL A   1      50.859  25.521  30.004  1.00  0.00     0.006 A 
ENDBRANCH  47  61
BRANCH  48  69
ATOM     69  C   UNL A   1      38.649  29.164  28.996  1.00  0.00     0.057 A 
ATOM     70  C   UNL A   1      38.099  29.686  27.820  1.00  0.00     0.134 A 
ATOM     71  C   UNL A   1      37.802  29.037  30.104  1.00  0.00     0.134 A 
ATOM     72  F   UNL A   1      38.867  29.852  26.733  1.00  0.00    -0.206 F 
ATOM     73  C   UNL A   1      36.763  30.083  27.750  1.00  0.00     0.040 A 
ATOM     74  C   UNL A   1      36.458  29.408  30.042  1.00  0.00     0.040 A 
ATOM     75  F   UNL A   1      38.268  28.540  31.258  1.00  0.00    -0.206 F 
ATOM     76  C   UNL A   1      35.937  29.940  28.864  1.00  0.00     0.006 A 
ENDBRANCH  48  69
BRANCH  60  77
ATOM     77  C   UNL A   1      44.364  32.366  31.363  1.00  0.00     0.057 A 
ATOM     78  C   UNL A   1      44.360  32.592  32.743  1.00  0.00     0.134 A 
ATOM     79  C   UNL A   1      44.668  33.449  30.528  1.00  0.00     0.134 A 
ATOM     80  F   UNL A   1      44.063  31.599  33.595  1.00  0.00    -0.206 F 
ATOM     81  C   UNL A   1      44.641  33.853  33.274  1.00  0.00     0.040 A 
ATOM     82  C   UNL A   1      44.973  34.708  31.047  1.00  0.00     0.040 A 
ATOM     83  F   UNL A   1      44.696  33.295  29.195  1.00  0.00    -0.206 F 
ATOM     84  C   UNL A   1      44.958  34.912  32.426  1.00  0.00     0.006 A 
ENDBRANCH  60  77
ENDBRANCH  34  35
ENDBRANCH  26  29
ENDBRANCH  24  25
ENDBRANCH  23  24
ENDBRANCH  22  23
ENDBRANCH  21  22
ENDBRANCH   1  21
TORSDOF 17
ENDMDL
MODEL 2
REMARK VINA RESULT:      -9.7      1.998      6.738
REMARK SMILES C[N@@H+](C[C@H]1CCC[N@@H+]1CC(=O)NCCCCCCNC(=O)c1ccc(-c2c3nc(c(-c4c(F)cccc4F)c4ccc([nH]4)c(-c4c(F)cccc4F)c4nc(c(-c5c(F)cccc5F)c5ccc2[nH]5)C=C4)C=C3)cc1)C1CC1
REMARK SMILES IDX 14 1 13 2 12 3 10 4 11 5 9 7 8 8 4 9 5 10 6 11 7 12 3 14
REMARK SMILES IDX 2 15 1 16 76 18 77 19 78 20 15 21 16 22 17 23 18 24 19 25
REMARK SMILES IDX 20 26 21 28 22 29 23 30 75 31 24 32 74 33 25 34 26 35 27 36
REMARK SMILES IDX 68 37 28 38 73 39 67 40 69 41 29 42 72 43 66 44 65 45 30 47
REMARK SMILES IDX 56 48 39 49 55 50 40 51 43 52 54 53 70 54 41 55 42 56 53 58
REMARK SMILES IDX 71 59 44 60 31 61 32 62 37 63 33 64 34 65 36 66 38 67 35 68
REMARK SMILES IDX 57 69 58 70 63 71 59 72 60 73 62 74 64 75 61 76 45 77 46 78
REMARK SMILES IDX 51 79 47 80 48 81 50 82 52 83 49 84
REMARK H PARENT 12 6 8 13 2 17 19 27 69 46 43 57
REMARK Flexibility Score: inf
ROOT
ATOM      1  C   UNL A   1      33.774  20.444  24.397  1.00  0.00     0.021 C 
ENDROOT
BRANCH   1   2
ATOM      2  C   UNL A   1      32.503  21.095  24.948  1.00  0.00     0.116 C 
BRANCH   2   3
ATOM      3  N   UNL A   1      32.666  21.430  26.352  1.00  0.00    -0.351 N 
ATOM      4  C   UNL A   1      32.157  22.462  27.089  1.00  0.00     0.275 C 
ATOM      5  O   UNL A   1      32.573  22.581  28.245  1.00  0.00    -0.269 OA
ATOM      6  H   UNL A   1      33.239  20.809  26.857  1.00  0.00     0.163 HD
BRANCH   4   7
ATOM      7  C   UNL A   1      31.089  23.413  26.518  1.00  0.00     0.363 C 
BRANCH   7   8
ATOM      8  N   UNL A   1      31.580  24.449  25.579  1.00  0.00    -0.320 N 
ATOM      9  C   UNL A   1      32.574  25.368  26.157  1.00  0.00     0.240 C 
ATOM     10  C   UNL A   1      31.789  26.656  26.401  1.00  0.00     0.077 C 
ATOM     11  C   UNL A   1      30.793  26.704  25.268  1.00  0.00     0.068 C 
ATOM     12  C   UNL A   1      30.505  25.242  24.962  1.00  0.00     0.263 C 
ATOM     13  H   UNL A   1      32.039  23.894  24.857  1.00  0.00     0.348 HD
BRANCH   9  14
ATOM     14  C   UNL A   1      33.801  25.604  25.222  1.00  0.00     0.327 C 
BRANCH  14  15
ATOM     15  N   UNL A   1      34.416  24.387  24.637  1.00  0.00    -0.330 N 
ATOM     16  C   UNL A   1      35.712  24.096  25.242  1.00  0.00     0.333 C 
ATOM     17  H   UNL A   1      33.833  23.591  24.897  1.00  0.00     0.348 HD
BRANCH  15  18
ATOM     18  C   UNL A   1      34.351  24.337  23.159  1.00  0.00     0.184 C 
ATOM     19  C   UNL A   1      33.256  23.637  22.393  1.00  0.00     0.071 C 
ATOM     20  C   UNL A   1      33.293  25.133  22.441  1.00  0.00     0.071 C 
ENDBRANCH  15  18
ENDBRANCH  14  15
ENDBRANCH   9  14
ENDBRANCH   7   8
ENDBRANCH   4   7
ENDBRANCH   2   3
ENDBRANCH   1   2
BRANCH   1  21
ATOM     21  C   UNL A   1      34.960  20.397  25.359  1.00  0.00     0.002 C 
BRANCH  21  22
ATOM     22  C   UNL A   1      36.324  20.699  24.734  1.00  0.00     0.002 C 
BRANCH  22  23
ATOM     23  C   UNL A   1      37.436  19.673  24.996  1.00  0.00     0.021 C 
BRANCH  23  24
ATOM     24  C   UNL A   1      38.741  20.233  25.565  1.00  0.00     0.116 C 
BRANCH  24  25
ATOM     25  N   UNL A   1      39.736  19.195  25.753  1.00  0.00    -0.352 N 
ATOM     26  C   UNL A   1      41.077  19.325  26.017  1.00  0.00     0.251 C 
ATOM     27  H   UNL A   1      39.405  18.270  25.682  1.00  0.00     0.163 HD
ATOM     28  O   UNL A   1      41.825  18.359  25.920  1.00  0.00    -0.269 OA
BRANCH  26  29
ATOM     29  C   UNL A   1      41.629  20.638  26.419  1.00  0.00     0.039 A 
ATOM     30  C   UNL A   1      41.755  20.934  27.780  1.00  0.00     0.014 A 
ATOM     31  C   UNL A   1      41.968  21.595  25.458  1.00  0.00     0.014 A 
ATOM     32  C   UNL A   1      42.254  22.177  28.180  1.00  0.00     0.010 A 
ATOM     33  C   UNL A   1      42.502  22.820  25.858  1.00  0.00     0.010 A 
ATOM     34  C   UNL A   1      42.644  23.126  27.221  1.00  0.00    -0.014 A 
BRANCH  34  35
ATOM     35  C   UNL A   1      43.176  24.457  27.614  1.00  0.00     0.031 A 
ATOM     36  C   UNL A   1      42.230  25.545  28.041  1.00  0.00     0.074 A 
ATOM     37  C   UNL A   1      44.495  24.712  27.519  1.00  0.00     0.049 A 
ATOM     38  N   UNL A   1      42.476  26.808  28.282  1.00  0.00    -0.248 NA
ATOM     39  C   UNL A   1      40.817  25.165  28.196  1.00  0.00     0.031 C 
ATOM     40  C   UNL A   1      45.517  23.750  27.110  1.00  0.00     0.029 A 
ATOM     41  N   UNL A   1      45.196  25.873  27.736  1.00  0.00    -0.354 N 
ATOM     42  C   UNL A   1      41.248  27.378  28.595  1.00  0.00     0.074 A 
ATOM     43  C   UNL A   1      40.256  26.331  28.486  1.00  0.00     0.031 C 
ATOM     44  C   UNL A   1      46.714  24.360  27.099  1.00  0.00     0.029 A 
ATOM     45  C   UNL A   1      46.538  25.764  27.460  1.00  0.00     0.049 A 
ATOM     46  H   UNL A   1      44.778  26.704  28.058  1.00  0.00     0.167 HD
ATOM     47  C   UNL A   1      40.975  28.657  28.950  1.00  0.00     0.037 A 
ATOM     48  C   UNL A   1      47.512  26.695  27.471  1.00  0.00     0.037 A 
ATOM     49  C   UNL A   1      41.965  29.693  29.088  1.00  0.00     0.049 A 
ATOM     50  C   UNL A   1      47.179  28.114  27.845  1.00  0.00     0.074 A 
ATOM     51  C   UNL A   1      41.789  31.003  29.497  1.00  0.00     0.029 A 
ATOM     52  N   UNL A   1      43.315  29.535  28.817  1.00  0.00    -0.354 N 
ATOM     53  N   UNL A   1      46.021  28.629  28.180  1.00  0.00    -0.248 NA
ATOM     54  C   UNL A   1      48.287  29.080  27.841  1.00  0.00     0.031 C 
ATOM     55  C   UNL A   1      43.027  31.649  29.438  1.00  0.00     0.029 A 
ATOM     56  C   UNL A   1      43.980  30.730  29.032  1.00  0.00     0.049 A 
ATOM     57  H   UNL A   1      43.738  28.698  28.517  1.00  0.00     0.167 HD
ATOM     58  C   UNL A   1      46.266  29.969  28.456  1.00  0.00     0.074 A 
ATOM     59  C   UNL A   1      47.683  30.188  28.252  1.00  0.00     0.031 C 
ATOM     60  C   UNL A   1      45.395  30.930  28.845  1.00  0.00     0.037 A 
BRANCH  47  61
ATOM     61  C   UNL A   1      39.542  29.013  29.213  1.00  0.00     0.057 A 
ATOM     62  C   UNL A   1      38.693  29.463  28.193  1.00  0.00     0.134 A 
ATOM     63  C   UNL A   1      38.991  28.857  30.492  1.00  0.00     0.134 A 
ATOM     64  F   UNL A   1      39.162  29.642  26.950  1.00  0.00    -0.206 F 
ATOM     65  C   UNL A   1      37.352  29.764  28.441  1.00  0.00     0.040 A 
ATOM     66  C   UNL A   1      37.646  29.132  30.746  1.00  0.00     0.040 A 
ATOM     67  F   UNL A   1      39.747  28.422  31.511  1.00  0.00    -0.206 F 
ATOM     68  C   UNL A   1      36.825  29.592  29.719  1.00  0.00     0.006 A 
ENDBRANCH  47  61
BRANCH  48  69
ATOM     69  C   UNL A   1      48.901  26.318  27.110  1.00  0.00     0.057 A 
ATOM     70  C   UNL A   1      49.815  25.911  28.089  1.00  0.00     0.134 A 
ATOM     71  C   UNL A   1      49.351  26.365  25.786  1.00  0.00     0.134 A 
ATOM     72  F   UNL A   1      49.448  25.868  29.378  1.00  0.00    -0.206 F 
ATOM     73  C   UNL A   1      51.132  25.581  27.767  1.00  0.00     0.040 A 
ATOM     74  C   UNL A   1      50.659  26.015  25.446  1.00  0.00     0.040 A 
ATOM     75  F   UNL A   1      48.522  26.742  24.802  1.00  0.00    -0.206 F 
ATOM     76  C   UNL A   1      51.556  25.629  26.439  1.00  0.00     0.006 A 
ENDBRANCH  48  69
BRANCH  60  77
ATOM     77  C   UNL A   1      45.946  32.296  29.122  1.00  0.00     0.057 A 
ATOM     78  C   UNL A   1      46.395  32.668  30.394  1.00  0.00     0.134 A 
ATOM     79  C   UNL A   1      46.089  33.227  28.085  1.00  0.00     0.134 A 
ATOM     80  F   UNL A   1      46.275  31.826  31.431  1.00  0.00    -0.206 F 
ATOM     81  C   UNL A   1      46.961  33.923  30.627  1.00  0.00     0.040 A 
ATOM     82  C   UNL A   1      46.672  34.476  28.301  1.00  0.00     0.040 A 
ATOM     83  F   UNL A   1      45.684  32.929  26.840  1.00  0.00    -0.206 F 
ATOM     84  C   UNL A   1      47.109  34.827  29.577  1.00  0.00     0.006 A 
ENDBRANCH  60  77
ENDBRANCH  34  35
ENDBRANCH  26  29
ENDBRANCH  24  25
ENDBRANCH  23  24
ENDBRANCH  22  23
ENDBRANCH  21  22
ENDBRANCH   1  21
TORSDOF 17
ENDMDL
MODEL 3
REMARK VINA RESULT:      -9.7      4.482      9.103
REMARK SMILES C[N@@H+](C[C@H]1CCC[N@@H+]1CC(=O)NCCCCCCNC(=O)c1ccc(-c2c3nc(c(-c4c(F)cccc4F)c4ccc([nH]4)c(-c4c(F)cccc4F)c4nc(c(-c5c(F)cccc5F)c5ccc2[nH]5)C=C4)C=C3)cc1)C1CC1
REMARK SMILES IDX 14 1 13 2 12 3 10 4 11 5 9 7 8 8 4 9 5 10 6 11 7 12 3 14
REMARK SMILES IDX 2 15 1 16 76 18 77 19 78 20 15 21 16 22 17 23 18 24 19 25
REMARK SMILES IDX 20 26 21 28 22 29 23 30 75 31 24 32 74 33 25 34 26 35 27 36
REMARK SMILES IDX 68 37 28 38 73 39 67 40 69 41 29 42 72 43 66 44 65 45 30 47
REMARK SMILES IDX 56 48 39 49 55 50 40 51 43 52 54 53 70 54 41 55 42 56 53 58
REMARK SMILES IDX 71 59 44 60 31 61 32 62 37 63 33 64 34 65 36 66 38 67 35 68
REMARK SMILES IDX 57 69 58 70 63 71 59 72 60 73 62 74 64 75 61 76 45 77 46 78
REMARK SMILES IDX 51 79 47 80 48 81 50 82 52 83 49 84
REMARK H PARENT 12 6 8 13 2 17 19 27 69 46 43 57
REMARK Flexibility Score: inf
ROOT
ATOM      1  C   UNL A   1      32.460  28.604  27.000  1.00  0.00     0.021 C 
ENDROOT
BRANCH   1   2
ATOM      2  C   UNL A   1      31.378  27.824  26.249  1.00  0.00     0.116 C 
BRANCH   2   3
ATOM      3  N   UNL A   1      31.234  26.487  26.800  1.00  0.00    -0.351 N 
ATOM      4  C   UNL A   1      31.885  25.323  26.500  1.00  0.00     0.275 C 
ATOM      5  O   UNL A   1      31.463  24.294  27.035  1.00  0.00    -0.269 OA
ATOM      6  H   UNL A   1      30.554  26.406  27.507  1.00  0.00     0.163 HD
BRANCH   4   7
ATOM      7  C   UNL A   1      33.108  25.299  25.566  1.00  0.00     0.363 C 
BRANCH   7   8
ATOM      8  N   UNL A   1      32.857  24.838  24.180  1.00  0.00    -0.320 N 
ATOM      9  C   UNL A   1      31.610  25.350  23.588  1.00  0.00     0.240 C 
ATOM     10  C   UNL A   1      30.660  24.155  23.638  1.00  0.00     0.077 C 
ATOM     11  C   UNL A   1      31.555  22.958  23.423  1.00  0.00     0.068 C 
ATOM     12  C   UNL A   1      32.886  23.375  24.031  1.00  0.00     0.263 C 
ATOM     13  H   UNL A   1      33.642  25.239  23.667  1.00  0.00     0.348 HD
BRANCH   9  14
ATOM     14  C   UNL A   1      31.800  25.880  22.132  1.00  0.00     0.327 C 
BRANCH  14  15
ATOM     15  N   UNL A   1      32.116  27.324  22.004  1.00  0.00    -0.330 N 
ATOM     16  C   UNL A   1      33.556  27.563  22.022  1.00  0.00     0.333 C 
ATOM     17  H   UNL A   1      31.824  27.623  21.073  1.00  0.00     0.348 HD
BRANCH  15  18
ATOM     18  C   UNL A   1      31.292  28.194  22.872  1.00  0.00     0.184 C 
ATOM     19  C   UNL A   1      30.526  29.393  22.369  1.00  0.00     0.071 C 
ATOM     20  C   UNL A   1      29.791  28.146  22.752  1.00  0.00     0.071 C 
ENDBRANCH  15  18
ENDBRANCH  14  15
ENDBRANCH   9  14
ENDBRANCH   7   8
ENDBRANCH   4   7
ENDBRANCH   2   3
ENDBRANCH   1   2
BRANCH   1  21
ATOM     21  C   UNL A   1      32.709  30.028  26.504  1.00  0.00     0.002 C 
BRANCH  21  22
ATOM     22  C   UNL A   1      31.464  30.789  26.042  1.00  0.00     0.002 C 
BRANCH  22  23
ATOM     23  C   UNL A   1      31.357  32.254  26.486  1.00  0.00     0.021 C 
BRANCH  23  24
ATOM     24  C   UNL A   1      32.559  32.808  27.254  1.00  0.00     0.116 C 
BRANCH  24  25
ATOM     25  N   UNL A   1      32.365  34.196  27.630  1.00  0.00    -0.352 N 
ATOM     26  C   UNL A   1      32.977  34.911  28.630  1.00  0.00     0.251 C 
ATOM     27  H   UNL A   1      31.706  34.694  27.094  1.00  0.00     0.163 HD
ATOM     28  O   UNL A   1      32.539  36.005  28.967  1.00  0.00    -0.269 OA
BRANCH  26  29
ATOM     29  C   UNL A   1      34.171  34.361  29.309  1.00  0.00     0.039 A 
ATOM     30  C   UNL A   1      35.434  34.591  28.755  1.00  0.00     0.014 A 
ATOM     31  C   UNL A   1      34.041  33.575  30.457  1.00  0.00     0.014 A 
ATOM     32  C   UNL A   1      36.573  34.062  29.371  1.00  0.00     0.010 A 
ATOM     33  C   UNL A   1      35.180  33.081  31.093  1.00  0.00     0.010 A 
ATOM     34  C   UNL A   1      36.455  33.313  30.553  1.00  0.00    -0.014 A 
BRANCH  34  35
ATOM     35  C   UNL A   1      37.646  32.736  31.230  1.00  0.00     0.031 A 
ATOM     36  C   UNL A   1      38.330  31.532  30.643  1.00  0.00     0.074 A 
ATOM     37  C   UNL A   1      38.068  33.243  32.403  1.00  0.00     0.049 A 
ATOM     38  N   UNL A   1      39.286  30.795  31.149  1.00  0.00    -0.248 NA
ATOM     39  C   UNL A   1      37.862  31.087  29.322  1.00  0.00     0.031 C 
ATOM     40  C   UNL A   1      37.488  34.400  33.084  1.00  0.00     0.029 A 
ATOM     41  N   UNL A   1      39.071  32.829  33.245  1.00  0.00    -0.354 N 
ATOM     42  C   UNL A   1      39.518  29.788  30.220  1.00  0.00     0.074 A 
ATOM     43  C   UNL A   1      38.584  29.992  29.134  1.00  0.00     0.031 C 
ATOM     44  C   UNL A   1      38.139  34.600  34.241  1.00  0.00     0.029 A 
ATOM     45  C   UNL A   1      39.154  33.563  34.404  1.00  0.00     0.049 A 
ATOM     46  H   UNL A   1      39.673  32.077  33.038  1.00  0.00     0.167 HD
ATOM     47  C   UNL A   1      40.433  28.789  30.266  1.00  0.00     0.037 A 
ATOM     48  C   UNL A   1      39.941  33.403  35.485  1.00  0.00     0.037 A 
ATOM     49  C   UNL A   1      41.382  28.602  31.332  1.00  0.00     0.049 A 
ATOM     50  C   UNL A   1      40.933  32.272  35.523  1.00  0.00     0.074 A 
ATOM     51  C   UNL A   1      42.383  27.653  31.437  1.00  0.00     0.029 A 
ATOM     52  N   UNL A   1      41.445  29.380  32.478  1.00  0.00    -0.354 N 
ATOM     53  N   UNL A   1      41.170  31.352  34.619  1.00  0.00    -0.248 NA
ATOM     54  C   UNL A   1      41.763  32.154  36.730  1.00  0.00     0.031 C 
ATOM     55  C   UNL A   1      43.028  27.831  32.664  1.00  0.00     0.029 A 
ATOM     56  C   UNL A   1      42.455  28.918  33.304  1.00  0.00     0.049 A 
ATOM     57  H   UNL A   1      40.858  30.146  32.675  1.00  0.00     0.167 HD
ATOM     58  C   UNL A   1      42.196  30.569  35.133  1.00  0.00     0.074 A 
ATOM     59  C   UNL A   1      42.539  31.121  36.427  1.00  0.00     0.031 C 
ATOM     60  C   UNL A   1      42.800  29.490  34.581  1.00  0.00     0.037 A 
BRANCH  47  61
ATOM     61  C   UNL A   1      40.451  27.812  29.128  1.00  0.00     0.057 A 
ATOM     62  C   UNL A   1      39.643  26.668  29.123  1.00  0.00     0.134 A 
ATOM     63  C   UNL A   1      41.250  28.046  28.001  1.00  0.00     0.134 A 
ATOM     64  F   UNL A   1      38.863  26.383  30.176  1.00  0.00    -0.206 F 
ATOM     65  C   UNL A   1      39.644  25.780  28.046  1.00  0.00     0.040 A 
ATOM     66  C   UNL A   1      41.242  27.177  26.908  1.00  0.00     0.040 A 
ATOM     67  F   UNL A   1      42.040  29.128  27.938  1.00  0.00    -0.206 F 
ATOM     68  C   UNL A   1      40.441  26.037  26.932  1.00  0.00     0.006 A 
ENDBRANCH  47  61
BRANCH  48  69
ATOM     69  C   UNL A   1      39.823  34.338  36.632  1.00  0.00     0.057 A 
ATOM     70  C   UNL A   1      40.531  35.545  36.655  1.00  0.00     0.134 A 
ATOM     71  C   UNL A   1      39.011  34.043  37.734  1.00  0.00     0.134 A 
ATOM     72  F   UNL A   1      41.341  35.870  35.637  1.00  0.00    -0.206 F 
ATOM     73  C   UNL A   1      40.449  36.419  37.739  1.00  0.00     0.040 A 
ATOM     74  C   UNL A   1      38.903  34.919  38.815  1.00  0.00     0.040 A 
ATOM     75  F   UNL A   1      38.305  32.904  37.770  1.00  0.00    -0.206 F 
ATOM     76  C   UNL A   1      39.629  36.108  38.823  1.00  0.00     0.006 A 
ENDBRANCH  48  69
BRANCH  60  77
ATOM     77  C   UNL A   1      43.924  28.856  35.345  1.00  0.00     0.057 A 
ATOM     78  C   UNL A   1      45.251  29.269  35.184  1.00  0.00     0.134 A 
ATOM     79  C   UNL A   1      43.663  27.867  36.301  1.00  0.00     0.134 A 
ATOM     80  F   UNL A   1      45.568  30.204  34.276  1.00  0.00    -0.206 F 
ATOM     81  C   UNL A   1      46.282  28.713  35.944  1.00  0.00     0.040 A 
ATOM     82  C   UNL A   1      44.682  27.319  37.081  1.00  0.00     0.040 A 
ATOM     83  F   UNL A   1      42.409  27.432  36.508  1.00  0.00    -0.206 F 
ATOM     84  C   UNL A   1      45.997  27.741  36.901  1.00  0.00     0.006 A 
ENDBRANCH  60  77
ENDBRANCH  34  35
ENDBRANCH  26  29
ENDBRANCH  24  25
ENDBRANCH  23  24
ENDBRANCH  22  23
ENDBRANCH  21  22
ENDBRANCH   1  21
TORSDOF 17
ENDMDL
