MODEL 1
REMARK VINA RESULT:     -11.2      0.000      0.000
REMARK SMILES CNC(=O)NC1=[NH+]N=CN[C@@H]1C(=O)NCCCCCCNC(=O)c1ccc(-c2c3nc(c(-c4c(F)cccc4F)c4ccc([nH]4)c(-c4c(F)cccc4F)c4nc(c(-c5c(F)cccc5F)c5ccc2[nH]5)C=C4)C=C3)cc1
REMARK SMILES IDX 18 1 17 2 16 3 15 4 14 5 12 6 13 7 11 9 1 10 2 11 3 12 4 14
REMARK SMILES IDX 5 15 6 16 7 18 8 19 10 21 9 22 19 24 20 25 21 26 22 27 23 29
REMARK SMILES IDX 24 30 25 31 77 32 26 33 76 34 27 35 28 36 29 37 70 38 30 39
REMARK SMILES IDX 75 40 69 41 71 42 31 43 74 44 68 45 67 46 32 48 58 49 41 50
REMARK SMILES IDX 57 51 42 52 45 53 56 54 72 55 43 56 44 57 55 59 73 60 46 61
REMARK SMILES IDX 33 62 34 63 39 64 35 65 36 66 38 67 40 68 37 69 59 70 60 71
REMARK SMILES IDX 65 72 61 73 62 74 64 75 66 76 63 77 47 78 48 79 53 80 49 81
REMARK SMILES IDX 50 82 52 83 54 84 51 85
REMARK H PARENT 14 8 2 13 5 17 7 20 10 23 21 28 71 47 45 58
REMARK Flexibility Score: inf
ROOT
ATOM      1  C   UNL A   1      37.014  20.656  24.506  1.00  0.00     0.002 C 
ENDROOT
BRANCH   1   2
ATOM      2  C   UNL A   1      35.722  20.686  25.328  1.00  0.00     0.002 C 
BRANCH   2   3
ATOM      3  C   UNL A   1      34.538  19.957  24.684  1.00  0.00     0.021 C 
BRANCH   3   4
ATOM      4  C   UNL A   1      33.380  19.713  25.650  1.00  0.00     0.116 C 
BRANCH   4   5
ATOM      5  N   UNL A   1      33.528  20.510  26.849  1.00  0.00    -0.354 N 
ATOM      6  C   UNL A   1      33.075  21.764  27.128  1.00  0.00     0.255 C 
ATOM      7  O   UNL A   1      33.474  22.280  28.178  1.00  0.00    -0.272 OA
ATOM      8  H   UNL A   1      34.035  20.079  27.576  1.00  0.00     0.163 HD
BRANCH   6   9
ATOM      9  C   UNL A   1      32.143  22.543  26.186  1.00  0.00     0.287 C 
ATOM     10  C   UNL A   1      32.684  23.933  23.224  1.00  0.00     0.147 C 
ATOM     11  N   UNL A   1      33.978  23.867  23.879  1.00  0.00    -0.321 N 
ATOM     12  C   UNL A   1      34.354  24.359  25.089  1.00  0.00     0.406 C 
ATOM     13  H   UNL A   1      34.683  23.398  23.375  1.00  0.00     0.167 HD
ATOM     14  O   UNL A   1      35.543  24.517  25.350  1.00  0.00    -0.221 OA
ATOM     15  N   UNL A   1      33.376  24.725  25.967  1.00  0.00    -0.191 N 
ATOM     16  C   UNL A   1      32.239  24.058  26.344  1.00  0.00     0.309 C 
ATOM     17  H   UNL A   1      33.507  25.602  26.394  1.00  0.00     0.317 HD
ATOM     18  N   UNL A   1      31.282  24.817  26.789  1.00  0.00    -0.148 N 
ATOM     19  N   UNL A   1      30.004  24.260  26.993  1.00  0.00    -0.077 NA
ATOM     20  H   UNL A   1      31.449  25.768  26.982  1.00  0.00     0.342 HD
ATOM     21  N   UNL A   1      30.761  22.110  26.330  1.00  0.00    -0.352 N 
ATOM     22  C   UNL A   1      29.825  23.008  26.725  1.00  0.00     0.241 C 
ATOM     23  H   UNL A   1      30.509  21.178  26.143  1.00  0.00     0.163 HD
ENDBRANCH   6   9
ENDBRANCH   4   5
ENDBRANCH   3   4
ENDBRANCH   2   3
ENDBRANCH   1   2
BRANCH   1  24
ATOM     24  C   UNL A   1      38.029  19.597  24.947  1.00  0.00     0.021 C 
BRANCH  24  25
ATOM     25  C   UNL A   1      39.141  20.135  25.838  1.00  0.00     0.116 C 
BRANCH  25  26
ATOM     26  N   UNL A   1      40.299  19.255  25.838  1.00  0.00    -0.352 N 
ATOM     27  C   UNL A   1      41.620  19.564  26.036  1.00  0.00     0.251 C 
ATOM     28  H   UNL A   1      40.107  18.303  25.674  1.00  0.00     0.163 HD
ATOM     29  O   UNL A   1      42.495  18.748  25.771  1.00  0.00    -0.269 OA
BRANCH  27  30
ATOM     30  C   UNL A   1      41.982  20.894  26.563  1.00  0.00     0.039 A 
ATOM     31  C   UNL A   1      42.355  21.899  25.669  1.00  0.00     0.014 A 
ATOM     32  C   UNL A   1      41.961  21.143  27.939  1.00  0.00     0.014 A 
ATOM     33  C   UNL A   1      42.662  23.170  26.152  1.00  0.00     0.010 A 
ATOM     34  C   UNL A   1      42.191  22.430  28.412  1.00  0.00     0.010 A 
ATOM     35  C   UNL A   1      42.556  23.453  27.524  1.00  0.00    -0.014 A 
BRANCH  35  36
ATOM     36  C   UNL A   1      42.833  24.811  28.049  1.00  0.00     0.031 A 
ATOM     37  C   UNL A   1      44.230  25.195  28.450  1.00  0.00     0.074 A 
ATOM     38  C   UNL A   1      41.815  25.679  28.217  1.00  0.00     0.049 A 
ATOM     39  N   UNL A   1      44.661  26.314  28.974  1.00  0.00    -0.248 NA
ATOM     40  C   UNL A   1      45.277  24.179  28.261  1.00  0.00     0.031 C 
ATOM     41  C   UNL A   1      40.411  25.404  27.909  1.00  0.00     0.029 A 
ATOM     42  N   UNL A   1      41.807  26.965  28.693  1.00  0.00    -0.354 N 
ATOM     43  C   UNL A   1      46.022  26.130  29.188  1.00  0.00     0.074 A 
ATOM     44  C   UNL A   1      46.333  24.775  28.792  1.00  0.00     0.031 C 
ATOM     45  C   UNL A   1      39.681  26.498  28.179  1.00  0.00     0.029 A 
ATOM     46  C   UNL A   1      40.557  27.535  28.716  1.00  0.00     0.049 A 
ATOM     47  H   UNL A   1      42.619  27.435  28.991  1.00  0.00     0.167 HD
ATOM     48  C   UNL A   1      46.933  27.020  29.650  1.00  0.00     0.037 A 
ATOM     49  C   UNL A   1      40.163  28.754  29.129  1.00  0.00     0.037 A 
ATOM     50  C   UNL A   1      46.620  28.374  30.024  1.00  0.00     0.049 A 
ATOM     51  C   UNL A   1      41.192  29.717  29.651  1.00  0.00     0.074 A 
ATOM     52  C   UNL A   1      47.479  29.371  30.449  1.00  0.00     0.029 A 
ATOM     53  N   UNL A   1      45.343  28.918  30.024  1.00  0.00    -0.354 N 
ATOM     54  N   UNL A   1      42.487  29.556  29.778  1.00  0.00    -0.248 NA
ATOM     55  C   UNL A   1      40.706  31.037  30.078  1.00  0.00     0.031 C 
ATOM     56  C   UNL A   1      46.717  30.503  30.755  1.00  0.00     0.029 A 
ATOM     57  C   UNL A   1      45.390  30.231  30.465  1.00  0.00     0.049 A 
ATOM     58  H   UNL A   1      44.526  28.442  29.750  1.00  0.00     0.167 HD
ATOM     59  C   UNL A   1      42.975  30.761  30.270  1.00  0.00     0.074 A 
ATOM     60  C   UNL A   1      41.837  31.647  30.403  1.00  0.00     0.031 C 
ATOM     61  C   UNL A   1      44.249  31.102  30.584  1.00  0.00     0.037 A 
BRANCH  48  62
ATOM     62  C   UNL A   1      48.355  26.555  29.775  1.00  0.00     0.057 A 
ATOM     63  C   UNL A   1      48.829  25.924  30.933  1.00  0.00     0.134 A 
ATOM     64  C   UNL A   1      49.255  26.710  28.713  1.00  0.00     0.134 A 
ATOM     65  F   UNL A   1      48.025  25.754  31.993  1.00  0.00    -0.206 F 
ATOM     66  C   UNL A   1      50.152  25.490  31.040  1.00  0.00     0.040 A 
ATOM     67  C   UNL A   1      50.571  26.253  28.796  1.00  0.00     0.040 A 
ATOM     68  F   UNL A   1      48.868  27.299  27.572  1.00  0.00    -0.206 F 
ATOM     69  C   UNL A   1      51.025  25.646  29.966  1.00  0.00     0.006 A 
ENDBRANCH  48  62
BRANCH  49  70
ATOM     70  C   UNL A   1      38.732  29.142  29.046  1.00  0.00     0.057 A 
ATOM     71  C   UNL A   1      37.894  29.055  30.163  1.00  0.00     0.134 A 
ATOM     72  C   UNL A   1      38.165  29.597  27.848  1.00  0.00     0.134 A 
ATOM     73  F   UNL A   1      38.374  28.611  31.333  1.00  0.00    -0.206 F 
ATOM     74  C   UNL A   1      36.539  29.383  30.089  1.00  0.00     0.040 A 
ATOM     75  C   UNL A   1      36.818  29.955  27.767  1.00  0.00     0.040 A 
ATOM     76  F   UNL A   1      38.916  29.713  26.744  1.00  0.00    -0.206 F 
ATOM     77  C   UNL A   1      35.999  29.839  28.889  1.00  0.00     0.006 A 
ENDBRANCH  49  70
BRANCH  61  78
ATOM     78  C   UNL A   1      44.485  32.506  31.061  1.00  0.00     0.057 A 
ATOM     79  C   UNL A   1      44.470  32.842  32.420  1.00  0.00     0.134 A 
ATOM     80  C   UNL A   1      44.767  33.529  30.146  1.00  0.00     0.134 A 
ATOM     81  F   UNL A   1      44.194  31.912  33.347  1.00  0.00    -0.206 F 
ATOM     82  C   UNL A   1      44.699  34.149  32.851  1.00  0.00     0.040 A 
ATOM     83  C   UNL A   1      45.028  34.834  30.566  1.00  0.00     0.040 A 
ATOM     84  F   UNL A   1      44.807  33.275  28.830  1.00  0.00    -0.206 F 
ATOM     85  C   UNL A   1      44.987  35.148  31.923  1.00  0.00     0.006 A 
ENDBRANCH  61  78
ENDBRANCH  35  36
ENDBRANCH  27  30
ENDBRANCH  25  26
ENDBRANCH  24  25
ENDBRANCH   1  24
TORSDOF 13
ENDMDL
MODEL 2
REMARK VINA RESULT:     -11.2      4.574      9.458
REMARK SMILES CNC(=O)NC1=[NH+]N=CN[C@@H]1C(=O)NCCCCCCNC(=O)c1ccc(-c2c3nc(c(-c4c(F)cccc4F)c4ccc([nH]4)c(-c4c(F)cccc4F)c4nc(c(-c5c(F)cccc5F)c5ccc2[nH]5)C=C4)C=C3)cc1
REMARK SMILES IDX 18 1 17 2 16 3 15 4 14 5 12 6 13 7 11 9 1 10 2 11 3 12 4 14
REMARK SMILES IDX 5 15 6 16 7 18 8 19 10 21 9 22 19 24 20 25 21 26 22 27 23 29
REMARK SMILES IDX 24 30 25 31 77 32 26 33 76 34 27 35 28 36 29 37 70 38 30 39
REMARK SMILES IDX 75 40 69 41 71 42 31 43 74 44 68 45 67 46 32 48 58 49 41 50
REMARK SMILES IDX 57 51 42 52 45 53 56 54 72 55 43 56 44 57 55 59 73 60 46 61
REMARK SMILES IDX 33 62 34 63 39 64 35 65 36 66 38 67 40 68 37 69 59 70 60 71
REMARK SMILES IDX 65 72 61 73 62 74 64 75 66 76 63 77 47 78 48 79 53 80 49 81
REMARK SMILES IDX 50 82 52 83 54 84 51 85
REMARK H PARENT 14 8 2 13 5 17 7 20 10 23 21 28 71 47 45 58
REMARK Flexibility Score: inf
ROOT
ATOM      1  C   UNL A   1      32.097  30.657  27.142  1.00  0.00     0.002 C 
ENDROOT
BRANCH   1   2
ATOM      2  C   UNL A   1      33.618  30.483  27.082  1.00  0.00     0.002 C 
BRANCH   2   3
ATOM      3  C   UNL A   1      34.116  29.077  27.435  1.00  0.00     0.021 C 
BRANCH   3   4
ATOM      4  C   UNL A   1      33.936  28.069  26.302  1.00  0.00     0.116 C 
BRANCH   4   5
ATOM      5  N   UNL A   1      34.157  28.693  25.014  1.00  0.00    -0.354 N 
ATOM      6  C   UNL A   1      33.312  28.834  23.954  1.00  0.00     0.255 C 
ATOM      7  O   UNL A   1      33.801  29.272  22.907  1.00  0.00    -0.272 OA
ATOM      8  H   UNL A   1      35.055  29.074  24.884  1.00  0.00     0.163 HD
BRANCH   6   9
ATOM      9  C   UNL A   1      31.828  28.439  24.012  1.00  0.00     0.287 C 
ATOM     10  C   UNL A   1      30.289  25.908  25.503  1.00  0.00     0.147 C 
ATOM     11  N   UNL A   1      31.658  25.475  25.289  1.00  0.00    -0.321 N 
ATOM     12  C   UNL A   1      32.372  25.426  24.133  1.00  0.00     0.406 C 
ATOM     13  H   UNL A   1      32.138  25.177  26.096  1.00  0.00     0.167 HD
ATOM     14  O   UNL A   1      33.383  24.733  24.060  1.00  0.00    -0.221 OA
ATOM     15  N   UNL A   1      31.899  26.113  23.054  1.00  0.00    -0.191 N 
ATOM     16  C   UNL A   1      31.429  27.399  22.967  1.00  0.00     0.309 C 
ATOM     17  H   UNL A   1      31.894  25.609  22.209  1.00  0.00     0.317 HD
ATOM     18  N   UNL A   1      30.616  27.619  21.978  1.00  0.00    -0.148 N 
ATOM     19  N   UNL A   1      29.909  28.837  21.928  1.00  0.00    -0.077 NA
ATOM     20  H   UNL A   1      30.496  26.943  21.271  1.00  0.00     0.342 HD
ATOM     21  N   UNL A   1      30.964  29.606  23.911  1.00  0.00    -0.352 N 
ATOM     22  C   UNL A   1      30.092  29.696  22.877  1.00  0.00     0.241 C 
ATOM     23  H   UNL A   1      31.013  30.321  24.585  1.00  0.00     0.163 HD
ENDBRANCH   6   9
ENDBRANCH   4   5
ENDBRANCH   3   4
ENDBRANCH   2   3
ENDBRANCH   1   2
BRANCH   1  24
ATOM     24  C   UNL A   1      31.614  32.106  27.035  1.00  0.00     0.021 C 
BRANCH  24  25
ATOM     25  C   UNL A   1      32.729  33.117  26.806  1.00  0.00     0.116 C 
BRANCH  25  26
ATOM     26  N   UNL A   1      32.543  34.312  27.615  1.00  0.00    -0.352 N 
ATOM     27  C   UNL A   1      33.136  34.654  28.803  1.00  0.00     0.251 C 
ATOM     28  H   UNL A   1      31.901  34.968  27.259  1.00  0.00     0.163 HD
ATOM     29  O   UNL A   1      32.698  35.581  29.473  1.00  0.00    -0.269 OA
BRANCH  27  30
ATOM     30  C   UNL A   1      34.306  33.887  29.274  1.00  0.00     0.039 A 
ATOM     31  C   UNL A   1      35.587  34.327  28.933  1.00  0.00     0.014 A 
ATOM     32  C   UNL A   1      34.136  32.732  30.043  1.00  0.00     0.014 A 
ATOM     33  C   UNL A   1      36.700  33.632  29.404  1.00  0.00     0.010 A 
ATOM     34  C   UNL A   1      35.246  32.087  30.577  1.00  0.00     0.010 A 
ATOM     35  C   UNL A   1      36.539  32.523  30.252  1.00  0.00    -0.014 A 
BRANCH  35  36
ATOM     36  C   UNL A   1      37.713  31.803  30.801  1.00  0.00     0.031 A 
ATOM     37  C   UNL A   1      38.233  32.142  32.170  1.00  0.00     0.074 A 
ATOM     38  C   UNL A   1      38.342  30.884  30.044  1.00  0.00     0.049 A 
ATOM     39  N   UNL A   1      39.273  31.660  32.802  1.00  0.00    -0.248 NA
ATOM     40  C   UNL A   1      37.503  33.178  32.919  1.00  0.00     0.031 C 
ATOM     41  C   UNL A   1      37.960  30.503  28.682  1.00  0.00     0.029 A 
ATOM     42  N   UNL A   1      39.441  30.107  30.310  1.00  0.00    -0.354 N 
ATOM     43  C   UNL A   1      39.328  32.341  34.011  1.00  0.00     0.074 A 
ATOM     44  C   UNL A   1      38.255  33.309  34.002  1.00  0.00     0.031 C 
ATOM     45  C   UNL A   1      38.793  29.547  28.244  1.00  0.00     0.029 A 
ATOM     46  C   UNL A   1      39.791  29.276  29.274  1.00  0.00     0.049 A 
ATOM     47  H   UNL A   1      39.932  30.141  31.162  1.00  0.00     0.167 HD
ATOM     48  C   UNL A   1      40.183  32.159  35.046  1.00  0.00     0.037 A 
ATOM     49  C   UNL A   1      40.807  28.398  29.166  1.00  0.00     0.037 A 
ATOM     50  C   UNL A   1      41.238  31.180  35.058  1.00  0.00     0.049 A 
ATOM     51  C   UNL A   1      41.750  28.225  30.324  1.00  0.00     0.074 A 
ATOM     52  C   UNL A   1      42.120  30.876  36.079  1.00  0.00     0.029 A 
ATOM     53  N   UNL A   1      41.556  30.349  33.992  1.00  0.00    -0.354 N 
ATOM     54  N   UNL A   1      41.746  28.824  31.490  1.00  0.00    -0.248 NA
ATOM     55  C   UNL A   1      42.833  27.248  30.153  1.00  0.00     0.031 C 
ATOM     56  C   UNL A   1      43.006  29.897  35.613  1.00  0.00     0.029 A 
ATOM     57  C   UNL A   1      42.638  29.550  34.324  1.00  0.00     0.049 A 
ATOM     58  H   UNL A   1      41.082  30.330  33.130  1.00  0.00     0.167 HD
ATOM     59  C   UNL A   1      42.805  28.274  32.204  1.00  0.00     0.074 A 
ATOM     60  C   UNL A   1      43.418  27.284  31.342  1.00  0.00     0.031 C 
ATOM     61  C   UNL A   1      43.231  28.563  33.458  1.00  0.00     0.037 A 
BRANCH  48  62
ATOM     62  C   UNL A   1      40.010  33.037  36.252  1.00  0.00     0.057 A 
ATOM     63  C   UNL A   1      40.733  34.227  36.412  1.00  0.00     0.134 A 
ATOM     64  C   UNL A   1      39.086  32.706  37.252  1.00  0.00     0.134 A 
ATOM     65  F   UNL A   1      41.644  34.597  35.499  1.00  0.00    -0.206 F 
ATOM     66  C   UNL A   1      40.564  35.040  37.533  1.00  0.00     0.040 A 
ATOM     67  C   UNL A   1      38.886  33.527  38.363  1.00  0.00     0.040 A 
ATOM     68  F   UNL A   1      38.355  31.586  37.161  1.00  0.00    -0.206 F 
ATOM     69  C   UNL A   1      39.632  34.696  38.509  1.00  0.00     0.006 A 
ENDBRANCH  48  62
BRANCH  49  70
ATOM     70  C   UNL A   1      40.973  27.600  27.925  1.00  0.00     0.057 A 
ATOM     71  C   UNL A   1      40.381  26.339  27.792  1.00  0.00     0.134 A 
ATOM     72  C   UNL A   1      41.736  28.070  26.849  1.00  0.00     0.134 A 
ATOM     73  F   UNL A   1      39.652  25.827  28.794  1.00  0.00    -0.206 F 
ATOM     74  C   UNL A   1      40.559  25.563  26.645  1.00  0.00     0.040 A 
ATOM     75  C   UNL A   1      41.900  27.318  25.684  1.00  0.00     0.040 A 
ATOM     76  F   UNL A   1      42.323  29.275  26.909  1.00  0.00    -0.206 F 
ATOM     77  C   UNL A   1      41.317  26.055  25.585  1.00  0.00     0.006 A 
ENDBRANCH  49  70
BRANCH  61  78
ATOM     78  C   UNL A   1      44.390  27.769  33.989  1.00  0.00     0.057 A 
ATOM     79  C   UNL A   1      44.219  26.521  34.600  1.00  0.00     0.134 A 
ATOM     80  C   UNL A   1      45.699  28.249  33.853  1.00  0.00     0.134 A 
ATOM     81  F   UNL A   1      42.990  26.011  34.772  1.00  0.00    -0.206 F 
ATOM     82  C   UNL A   1      45.305  25.790  35.082  1.00  0.00     0.040 A 
ATOM     83  C   UNL A   1      46.797  27.514  34.303  1.00  0.00     0.040 A 
ATOM     84  F   UNL A   1      45.936  29.432  33.268  1.00  0.00    -0.206 F 
ATOM     85  C   UNL A   1      46.600  26.283  34.927  1.00  0.00     0.006 A 
ENDBRANCH  61  78
ENDBRANCH  35  36
ENDBRANCH  27  30
ENDBRANCH  25  26
ENDBRANCH  24  25
ENDBRANCH   1  24
TORSDOF 13
ENDMDL
MODEL 3
REMARK VINA RESULT:     -11.2      1.514      2.618
REMARK SMILES CNC(=O)NC1=[NH+]N=CN[C@@H]1C(=O)NCCCCCCNC(=O)c1ccc(-c2c3nc(c(-c4c(F)cccc4F)c4ccc([nH]4)c(-c4c(F)cccc4F)c4nc(c(-c5c(F)cccc5F)c5ccc2[nH]5)C=C4)C=C3)cc1
REMARK SMILES IDX 18 1 17 2 16 3 15 4 14 5 12 6 13 7 11 9 1 10 2 11 3 12 4 14
REMARK SMILES IDX 5 15 6 16 7 18 8 19 10 21 9 22 19 24 20 25 21 26 22 27 23 29
REMARK SMILES IDX 24 30 25 31 77 32 26 33 76 34 27 35 28 36 29 37 70 38 30 39
REMARK SMILES IDX 75 40 69 41 71 42 31 43 74 44 68 45 67 46 32 48 58 49 41 50
REMARK SMILES IDX 57 51 42 52 45 53 56 54 72 55 43 56 44 57 55 59 73 60 46 61
REMARK SMILES IDX 33 62 34 63 39 64 35 65 36 66 38 67 40 68 37 69 59 70 60 71
REMARK SMILES IDX 65 72 61 73 62 74 64 75 66 76 63 77 47 78 48 79 53 80 49 81
REMARK SMILES IDX 50 82 52 83 54 84 51 85
REMARK H PARENT 14 8 2 13 5 17 7 20 10 23 21 28 71 47 45 58
REMARK Flexibility Score: inf
ROOT
ATOM      1  C   UNL A   1      36.726  20.329  24.745  1.00  0.00     0.002 C 
ENDROOT
BRANCH   1   2
ATOM      2  C   UNL A   1      37.121  21.807  24.678  1.00  0.00     0.002 C 
BRANCH   2   3
ATOM      3  C   UNL A   1      36.514  22.579  23.501  1.00  0.00     0.021 C 
BRANCH   3   4
ATOM      4  C   UNL A   1      35.579  23.706  23.933  1.00  0.00     0.116 C 
BRANCH   4   5
ATOM      5  N   UNL A   1      34.305  23.612  23.254  1.00  0.00    -0.354 N 
ATOM      6  C   UNL A   1      33.045  23.513  23.765  1.00  0.00     0.255 C 
ATOM      7  O   UNL A   1      32.134  23.289  22.961  1.00  0.00    -0.272 OA
ATOM      8  H   UNL A   1      34.355  23.622  22.270  1.00  0.00     0.163 HD
BRANCH   6   9
ATOM      9  C   UNL A   1      32.744  23.628  25.268  1.00  0.00     0.287 C 
ATOM     10  C   UNL A   1      33.773  21.827  27.855  1.00  0.00     0.147 C 
ATOM     11  N   UNL A   1      33.877  20.960  26.696  1.00  0.00    -0.321 N 
ATOM     12  C   UNL A   1      32.920  20.615  25.794  1.00  0.00     0.406 C 
ATOM     13  H   UNL A   1      34.767  20.567  26.540  1.00  0.00     0.167 HD
ATOM     14  O   UNL A   1      33.071  19.627  25.081  1.00  0.00    -0.221 OA
ATOM     15  N   UNL A   1      31.777  21.357  25.752  1.00  0.00    -0.191 N 
ATOM     16  C   UNL A   1      31.611  22.718  25.738  1.00  0.00     0.309 C 
ATOM     17  H   UNL A   1      30.942  20.835  25.730  1.00  0.00     0.317 HD
ATOM     18  N   UNL A   1      30.464  23.135  26.182  1.00  0.00    -0.148 N 
ATOM     19  N   UNL A   1      30.278  24.512  26.415  1.00  0.00    -0.077 NA
ATOM     20  H   UNL A   1      29.734  22.497  26.354  1.00  0.00     0.342 HD
ATOM     21  N   UNL A   1      32.470  25.006  25.649  1.00  0.00    -0.352 N 
ATOM     22  C   UNL A   1      31.262  25.317  26.181  1.00  0.00     0.241 C 
ATOM     23  H   UNL A   1      33.153  25.703  25.522  1.00  0.00     0.163 HD
ENDBRANCH   6   9
ENDBRANCH   4   5
ENDBRANCH   3   4
ENDBRANCH   2   3
ENDBRANCH   1   2
BRANCH   1  24
ATOM     24  C   UNL A   1      37.898  19.361  24.924  1.00  0.00     0.021 C 
BRANCH  24  25
ATOM     25  C   UNL A   1      39.047  19.923  25.751  1.00  0.00     0.116 C 
BRANCH  25  26
ATOM     26  N   UNL A   1      40.131  18.962  25.884  1.00  0.00    -0.352 N 
ATOM     27  C   UNL A   1      41.472  19.188  26.055  1.00  0.00     0.251 C 
ATOM     28  H   UNL A   1      39.863  18.015  25.848  1.00  0.00     0.163 HD
ATOM     29  O   UNL A   1      42.279  18.277  25.914  1.00  0.00    -0.269 OA
BRANCH  27  30
ATOM     30  C   UNL A   1      41.939  20.544  26.402  1.00  0.00     0.039 A 
ATOM     31  C   UNL A   1      42.258  21.435  25.376  1.00  0.00     0.014 A 
ATOM     32  C   UNL A   1      42.070  20.930  27.740  1.00  0.00     0.014 A 
ATOM     33  C   UNL A   1      42.665  22.731  25.692  1.00  0.00     0.010 A 
ATOM     34  C   UNL A   1      42.399  22.244  28.051  1.00  0.00     0.010 A 
ATOM     35  C   UNL A   1      42.712  23.154  27.030  1.00  0.00    -0.014 A 
BRANCH  35  36
ATOM     36  C   UNL A   1      43.095  24.543  27.381  1.00  0.00     0.031 A 
ATOM     37  C   UNL A   1      44.538  24.959  27.343  1.00  0.00     0.074 A 
ATOM     38  C   UNL A   1      42.148  25.410  27.788  1.00  0.00     0.049 A 
ATOM     39  N   UNL A   1      45.076  26.110  27.661  1.00  0.00    -0.248 NA
ATOM     40  C   UNL A   1      45.511  23.941  26.914  1.00  0.00     0.031 C 
ATOM     41  C   UNL A   1      40.721  25.108  27.912  1.00  0.00     0.029 A 
ATOM     42  N   UNL A   1      42.246  26.722  28.178  1.00  0.00    -0.354 N 
ATOM     43  C   UNL A   1      46.444  25.948  27.484  1.00  0.00     0.074 A 
ATOM     44  C   UNL A   1      46.661  24.575  27.087  1.00  0.00     0.031 C 
ATOM     45  C   UNL A   1      40.073  26.211  28.322  1.00  0.00     0.029 A 
ATOM     46  C   UNL A   1      41.042  27.283  28.528  1.00  0.00     0.049 A 
ATOM     47  H   UNL A   1      43.097  27.214  28.205  1.00  0.00     0.167 HD
ATOM     48  C   UNL A   1      47.428  26.869  27.617  1.00  0.00     0.037 A 
ATOM     49  C   UNL A   1      40.754  28.521  28.972  1.00  0.00     0.037 A 
ATOM     50  C   UNL A   1      47.203  28.241  27.993  1.00  0.00     0.049 A 
ATOM     51  C   UNL A   1      41.866  29.520  29.124  1.00  0.00     0.074 A 
ATOM     52  C   UNL A   1      48.125  29.267  28.099  1.00  0.00     0.029 A 
ATOM     53  N   UNL A   1      45.968  28.775  28.331  1.00  0.00    -0.354 N 
ATOM     54  N   UNL A   1      43.147  29.376  28.883  1.00  0.00    -0.248 NA
ATOM     55  C   UNL A   1      41.492  30.858  29.603  1.00  0.00     0.031 C 
ATOM     56  C   UNL A   1      47.455  30.409  28.551  1.00  0.00     0.029 A 
ATOM     57  C   UNL A   1      46.108  30.111  28.670  1.00  0.00     0.049 A 
ATOM     58  H   UNL A   1      45.118  28.278  28.329  1.00  0.00     0.167 HD
ATOM     59  C   UNL A   1      43.726  30.611  29.149  1.00  0.00     0.074 A 
ATOM     60  C   UNL A   1      42.653  31.495  29.557  1.00  0.00     0.031 C 
ATOM     61  C   UNL A   1      45.028  30.979  29.065  1.00  0.00     0.037 A 
BRANCH  48  62
ATOM     62  C   UNL A   1      48.837  26.423  27.352  1.00  0.00     0.057 A 
ATOM     63  C   UNL A   1      49.402  26.475  26.070  1.00  0.00     0.134 A 
ATOM     64  C   UNL A   1      49.651  25.965  28.396  1.00  0.00     0.134 A 
ATOM     65  F   UNL A   1      48.675  26.891  25.022  1.00  0.00    -0.206 F 
ATOM     66  C   UNL A   1      50.714  26.063  25.833  1.00  0.00     0.040 A 
ATOM     67  C   UNL A   1      50.974  25.579  28.176  1.00  0.00     0.040 A 
ATOM     68  F   UNL A   1      49.178  25.895  29.648  1.00  0.00    -0.206 F 
ATOM     69  C   UNL A   1      51.508  25.621  26.889  1.00  0.00     0.006 A 
ENDBRANCH  48  62
BRANCH  49  70
ATOM     70  C   UNL A   1      39.351  28.893  29.283  1.00  0.00     0.057 A 
ATOM     71  C   UNL A   1      38.524  29.471  28.312  1.00  0.00     0.134 A 
ATOM     72  C   UNL A   1      38.805  28.694  30.557  1.00  0.00     0.134 A 
ATOM     73  F   UNL A   1      38.993  29.702  27.078  1.00  0.00    -0.206 F 
ATOM     74  C   UNL A   1      37.214  29.859  28.602  1.00  0.00     0.040 A 
ATOM     75  C   UNL A   1      37.488  29.051  30.854  1.00  0.00     0.040 A 
ATOM     76  F   UNL A   1      39.541  28.137  31.530  1.00  0.00    -0.206 F 
ATOM     77  C   UNL A   1      36.692  29.644  29.875  1.00  0.00     0.006 A 
ENDBRANCH  49  70
BRANCH  61  78
ATOM     78  C   UNL A   1      45.358  32.410  29.379  1.00  0.00     0.057 A 
ATOM     79  C   UNL A   1      45.744  32.819  30.661  1.00  0.00     0.134 A 
ATOM     80  C   UNL A   1      45.322  33.384  28.373  1.00  0.00     0.134 A 
ATOM     81  F   UNL A   1      45.787  31.939  31.673  1.00  0.00    -0.206 F 
ATOM     82  C   UNL A   1      46.056  34.151  30.938  1.00  0.00     0.040 A 
ATOM     83  C   UNL A   1      45.662  34.713  28.630  1.00  0.00     0.040 A 
ATOM     84  F   UNL A   1      44.971  33.058  27.120  1.00  0.00    -0.206 F 
ATOM     85  C   UNL A   1      46.023  35.101  29.919  1.00  0.00     0.006 A 
ENDBRANCH  61  78
ENDBRANCH  35  36
ENDBRANCH  27  30
ENDBRANCH  25  26
ENDBRANCH  24  25
ENDBRANCH   1  24
TORSDOF 13
ENDMDL
