MODEL 1
REMARK VINA RESULT:     -12.2      0.000      0.000
REMARK SMILES Cc1nn([C@H]2CCS(=O)(=O)C2)c(C)c1[C@@H]([NH3+])C(=O)NCCCCCCNC(=O)c1ccc(-c2c3nc(c(-c4c(F)cccc4F)c4ccc([nH]4)c(-c4c(F)cccc4F)c4nc(c(-c5c(F)cccc5F)c5ccc2[nH]5)C=C4)C=C3)cc1
REMARK SMILES IDX 22 1 21 2 20 3 19 4 17 5 18 6 15 8 14 9 1 10 2 11 3 12 4 13
REMARK SMILES IDX 12 14 13 15 5 16 6 17 11 18 7 19 8 20 9 21 10 22 16 23 23 27
REMARK SMILES IDX 24 28 25 29 26 30 27 31 28 33 29 34 30 35 82 36 31 37 81 38
REMARK SMILES IDX 32 39 33 40 34 41 75 42 35 43 80 44 74 45 76 46 36 47 79 48
REMARK SMILES IDX 73 49 72 50 37 52 63 53 46 54 62 55 47 56 50 57 61 58 77 59
REMARK SMILES IDX 48 60 49 61 60 63 78 64 51 65 38 66 39 67 44 68 40 69 41 70
REMARK SMILES IDX 43 71 45 72 42 73 64 74 65 75 70 76 66 77 67 78 69 79 71 80
REMARK SMILES IDX 68 81 52 82 53 83 58 84 54 85 55 86 57 87 59 88 56 89
REMARK H PARENT 19 7 16 24 16 25 16 26 26 32 76 51 50 62
REMARK Flexibility Score: inf
ROOT
ATOM      1  C   UNL A   1      31.771  28.154  25.760  1.00  0.00     0.002 C 
ENDROOT
BRANCH   1   2
ATOM      2  C   UNL A   1      31.109  26.884  26.306  1.00  0.00     0.021 C 
BRANCH   2   3
ATOM      3  C   UNL A   1      30.446  25.985  25.258  1.00  0.00     0.116 C 
BRANCH   3   4
ATOM      4  N   UNL A   1      30.181  24.654  25.770  1.00  0.00    -0.351 N 
ATOM      5  C   UNL A   1      30.757  23.453  25.462  1.00  0.00     0.283 C 
ATOM      6  O   UNL A   1      30.347  22.465  26.088  1.00  0.00    -0.268 OA
ATOM      7  H   UNL A   1      29.471  24.607  26.450  1.00  0.00     0.163 HD
BRANCH   5   8
ATOM      8  C   UNL A   1      31.893  23.279  24.411  1.00  0.00     0.306 C 
BRANCH   8   9
ATOM      9  C   UNL A   1      32.798  22.112  24.701  1.00  0.00     0.063 A 
ATOM     10  C   UNL A   1      34.631  23.317  26.176  1.00  0.00     0.069 C 
ATOM     11  C   UNL A   1      33.948  22.155  25.551  1.00  0.00     0.069 A 
ATOM     12  N   UNL A   1      34.485  20.946  25.724  1.00  0.00    -0.177 NA
ATOM     13  N   UNL A   1      33.686  20.128  25.028  1.00  0.00    -0.265 N 
ATOM     14  C   UNL A   1      32.852  20.820  24.174  1.00  0.00     0.046 A 
ATOM     15  C   UNL A   1      32.209  20.214  22.973  1.00  0.00     0.067 C 
BRANCH  13  16
ATOM     16  C   UNL A   1      33.790  18.701  25.306  1.00  0.00     0.123 C 
ATOM     17  C   UNL A   1      32.449  17.966  25.045  1.00  0.00     0.044 C 
ATOM     18  C   UNL A   1      34.822  18.005  24.441  1.00  0.00     0.164 C 
ATOM     19  C   UNL A   1      32.757  16.484  25.079  1.00  0.00     0.139 C 
ATOM     20  S   UNL A   1      34.293  16.354  24.217  1.00  0.00     0.152 S 
ATOM     21  O   UNL A   1      35.191  15.490  24.929  1.00  0.00    -0.229 OA
ATOM     22  O   UNL A   1      34.013  16.229  22.793  1.00  0.00    -0.229 OA
ENDBRANCH  13  16
ENDBRANCH   8   9
BRANCH   8  23
ATOM     23  N   UNL A   1      31.370  23.261  23.035  1.00  0.00    -0.343 N 
ATOM     24  H   UNL A   1      31.895  23.922  22.463  1.00  0.00     0.345 HD
ATOM     25  H   UNL A   1      30.385  23.523  23.042  1.00  0.00     0.345 HD
ATOM     26  H   UNL A   1      31.468  22.322  22.647  1.00  0.00     0.345 HD
ENDBRANCH   8  23
ENDBRANCH   5   8
ENDBRANCH   3   4
ENDBRANCH   2   3
ENDBRANCH   1   2
BRANCH   1  27
ATOM     27  C   UNL A   1      33.288  28.273  26.003  1.00  0.00     0.002 C 
BRANCH  27  28
ATOM     28  C   UNL A   1      33.767  29.440  26.884  1.00  0.00     0.021 C 
BRANCH  28  29
ATOM     29  C   UNL A   1      35.189  29.287  27.419  1.00  0.00     0.116 C 
BRANCH  29  30
ATOM     30  N   UNL A   1      35.380  29.897  28.737  1.00  0.00    -0.352 N 
ATOM     31  C   UNL A   1      36.431  29.742  29.627  1.00  0.00     0.251 C 
ATOM     32  H   UNL A   1      34.661  30.501  29.033  1.00  0.00     0.163 HD
ATOM     33  O   UNL A   1      36.308  30.077  30.801  1.00  0.00    -0.269 OA
BRANCH  31  34
ATOM     34  C   UNL A   1      37.714  29.181  29.155  1.00  0.00     0.039 A 
ATOM     35  C   UNL A   1      38.379  29.656  28.017  1.00  0.00     0.014 A 
ATOM     36  C   UNL A   1      38.261  28.135  29.873  1.00  0.00     0.014 A 
ATOM     37  C   UNL A   1      39.655  29.158  27.699  1.00  0.00     0.010 A 
ATOM     38  C   UNL A   1      39.547  27.731  29.615  1.00  0.00     0.010 A 
ATOM     39  C   UNL A   1      40.265  28.214  28.539  1.00  0.00    -0.014 A 
BRANCH  39  40
ATOM     40  C   UNL A   1      41.685  27.836  28.444  1.00  0.00     0.031 A 
ATOM     41  C   UNL A   1      41.937  26.565  27.701  1.00  0.00     0.074 A 
ATOM     42  C   UNL A   1      42.736  28.653  28.720  1.00  0.00     0.049 A 
ATOM     43  N   UNL A   1      42.459  25.476  28.160  1.00  0.00    -0.248 NA
ATOM     44  C   UNL A   1      41.479  26.454  26.306  1.00  0.00     0.031 C 
ATOM     45  C   UNL A   1      42.733  30.070  29.122  1.00  0.00     0.029 A 
ATOM     46  N   UNL A   1      44.075  28.398  28.610  1.00  0.00    -0.354 N 
ATOM     47  C   UNL A   1      42.575  24.610  27.075  1.00  0.00     0.074 A 
ATOM     48  C   UNL A   1      41.845  25.211  25.990  1.00  0.00     0.031 C 
ATOM     49  C   UNL A   1      43.976  30.591  29.010  1.00  0.00     0.029 A 
ATOM     50  C   UNL A   1      44.904  29.515  28.726  1.00  0.00     0.049 A 
ATOM     51  H   UNL A   1      44.430  27.492  28.459  1.00  0.00     0.167 HD
ATOM     52  C   UNL A   1      43.442  23.560  27.102  1.00  0.00     0.037 A 
ATOM     53  C   UNL A   1      46.258  29.557  28.621  1.00  0.00     0.037 A 
ATOM     54  C   UNL A   1      43.843  23.248  28.451  1.00  0.00     0.049 A 
ATOM     55  C   UNL A   1      46.750  28.177  28.820  1.00  0.00     0.074 A 
ATOM     56  C   UNL A   1      43.160  22.919  29.607  1.00  0.00     0.029 A 
ATOM     57  N   UNL A   1      45.087  23.655  28.866  1.00  0.00    -0.354 N 
ATOM     58  N   UNL A   1      46.716  27.545  29.957  1.00  0.00    -0.248 NA
ATOM     59  C   UNL A   1      46.904  27.344  27.640  1.00  0.00     0.031 C 
ATOM     60  C   UNL A   1      43.827  23.640  30.643  1.00  0.00     0.029 A 
ATOM     61  C   UNL A   1      44.917  24.296  30.069  1.00  0.00     0.049 A 
ATOM     62  H   UNL A   1      45.938  23.513  28.394  1.00  0.00     0.167 HD
ATOM     63  C   UNL A   1      46.381  26.245  29.617  1.00  0.00     0.074 A 
ATOM     64  C   UNL A   1      46.610  26.158  28.176  1.00  0.00     0.031 C 
ATOM     65  C   UNL A   1      45.685  25.447  30.480  1.00  0.00     0.037 A 
BRANCH  52  66
ATOM     66  C   UNL A   1      44.186  23.049  25.896  1.00  0.00     0.057 A 
ATOM     67  C   UNL A   1      44.166  21.675  25.601  1.00  0.00     0.134 A 
ATOM     68  C   UNL A   1      45.145  23.801  25.188  1.00  0.00     0.134 A 
ATOM     69  F   UNL A   1      43.315  20.848  26.228  1.00  0.00    -0.206 F 
ATOM     70  C   UNL A   1      45.074  21.085  24.712  1.00  0.00     0.040 A 
ATOM     71  C   UNL A   1      46.023  23.231  24.262  1.00  0.00     0.040 A 
ATOM     72  F   UNL A   1      45.353  25.102  25.428  1.00  0.00    -0.206 F 
ATOM     73  C   UNL A   1      46.011  21.863  24.042  1.00  0.00     0.006 A 
ENDBRANCH  52  66
BRANCH  53  74
ATOM     74  C   UNL A   1      47.176  30.630  28.172  1.00  0.00     0.057 A 
ATOM     75  C   UNL A   1      46.972  31.297  26.953  1.00  0.00     0.134 A 
ATOM     76  C   UNL A   1      48.066  31.246  29.065  1.00  0.00     0.134 A 
ATOM     77  F   UNL A   1      46.127  30.802  26.038  1.00  0.00    -0.206 F 
ATOM     78  C   UNL A   1      47.571  32.531  26.667  1.00  0.00     0.040 A 
ATOM     79  C   UNL A   1      48.671  32.479  28.793  1.00  0.00     0.040 A 
ATOM     80  F   UNL A   1      48.302  30.715  30.270  1.00  0.00    -0.206 F 
ATOM     81  C   UNL A   1      48.407  33.138  27.599  1.00  0.00     0.006 A 
ENDBRANCH  53  74
BRANCH  65  82
ATOM     82  C   UNL A   1      45.521  25.921  31.902  1.00  0.00     0.057 A 
ATOM     83  C   UNL A   1      46.480  25.761  32.916  1.00  0.00     0.134 A 
ATOM     84  C   UNL A   1      44.385  26.670  32.229  1.00  0.00     0.134 A 
ATOM     85  F   UNL A   1      47.647  25.150  32.684  1.00  0.00    -0.206 F 
ATOM     86  C   UNL A   1      46.288  26.274  34.205  1.00  0.00     0.040 A 
ATOM     87  C   UNL A   1      44.198  27.217  33.501  1.00  0.00     0.040 A 
ATOM     88  F   UNL A   1      43.444  26.912  31.303  1.00  0.00    -0.206 F 
ATOM     89  C   UNL A   1      45.145  27.008  34.499  1.00  0.00     0.006 A 
ENDBRANCH  65  82
ENDBRANCH  39  40
ENDBRANCH  31  34
ENDBRANCH  29  30
ENDBRANCH  28  29
ENDBRANCH  27  28
ENDBRANCH   1  27
TORSDOF 16
ENDMDL
MODEL 2
REMARK VINA RESULT:     -12.0      1.907      6.107
REMARK SMILES Cc1nn([C@H]2CCS(=O)(=O)C2)c(C)c1[C@@H]([NH3+])C(=O)NCCCCCCNC(=O)c1ccc(-c2c3nc(c(-c4c(F)cccc4F)c4ccc([nH]4)c(-c4c(F)cccc4F)c4nc(c(-c5c(F)cccc5F)c5ccc2[nH]5)C=C4)C=C3)cc1
REMARK SMILES IDX 22 1 21 2 20 3 19 4 17 5 18 6 15 8 14 9 1 10 2 11 3 12 4 13
REMARK SMILES IDX 12 14 13 15 5 16 6 17 11 18 7 19 8 20 9 21 10 22 16 23 23 27
REMARK SMILES IDX 24 28 25 29 26 30 27 31 28 33 29 34 30 35 82 36 31 37 81 38
REMARK SMILES IDX 32 39 33 40 34 41 75 42 35 43 80 44 74 45 76 46 36 47 79 48
REMARK SMILES IDX 73 49 72 50 37 52 63 53 46 54 62 55 47 56 50 57 61 58 77 59
REMARK SMILES IDX 48 60 49 61 60 63 78 64 51 65 38 66 39 67 44 68 40 69 41 70
REMARK SMILES IDX 43 71 45 72 42 73 64 74 65 75 70 76 66 77 67 78 69 79 71 80
REMARK SMILES IDX 68 81 52 82 53 83 58 84 54 85 55 86 57 87 59 88 56 89
REMARK H PARENT 19 7 16 24 16 25 16 26 26 32 76 51 50 62
REMARK Flexibility Score: inf
ROOT
ATOM      1  C   UNL A   1      31.584  28.197  27.606  1.00  0.00     0.002 C 
ENDROOT
BRANCH   1   2
ATOM      2  C   UNL A   1      31.852  26.907  26.824  1.00  0.00     0.021 C 
BRANCH   2   3
ATOM      3  C   UNL A   1      30.660  26.357  26.034  1.00  0.00     0.116 C 
BRANCH   3   4
ATOM      4  N   UNL A   1      30.256  25.044  26.500  1.00  0.00    -0.351 N 
ATOM      5  C   UNL A   1      30.673  23.799  26.120  1.00  0.00     0.283 C 
ATOM      6  O   UNL A   1      30.168  22.839  26.719  1.00  0.00    -0.268 OA
ATOM      7  H   UNL A   1      29.569  25.051  27.205  1.00  0.00     0.163 HD
BRANCH   5   8
ATOM      8  C   UNL A   1      31.743  23.541  25.018  1.00  0.00     0.306 C 
BRANCH   8   9
ATOM      9  C   UNL A   1      32.323  22.153  25.067  1.00  0.00     0.063 A 
ATOM     10  C   UNL A   1      33.644  22.295  27.352  1.00  0.00     0.069 C 
ATOM     11  C   UNL A   1      33.086  21.619  26.153  1.00  0.00     0.069 A 
ATOM     12  N   UNL A   1      33.363  20.326  25.979  1.00  0.00    -0.177 NA
ATOM     13  N   UNL A   1      32.769  20.015  24.821  1.00  0.00    -0.265 N 
ATOM     14  C   UNL A   1      32.395  21.137  24.111  1.00  0.00     0.046 A 
ATOM     15  C   UNL A   1      32.153  21.145  22.640  1.00  0.00     0.067 C 
BRANCH  13  16
ATOM     16  C   UNL A   1      32.578  18.599  24.530  1.00  0.00     0.123 C 
ATOM     17  C   UNL A   1      33.598  18.086  23.480  1.00  0.00     0.044 C 
ATOM     18  C   UNL A   1      32.758  17.717  25.750  1.00  0.00     0.164 C 
ATOM     19  C   UNL A   1      33.499  16.575  23.485  1.00  0.00     0.139 C 
ATOM     20  S   UNL A   1      33.353  16.170  25.197  1.00  0.00     0.152 S 
ATOM     21  O   UNL A   1      32.320  15.192  25.390  1.00  0.00    -0.229 OA
ATOM     22  O   UNL A   1      34.692  16.048  25.757  1.00  0.00    -0.229 OA
ENDBRANCH  13  16
ENDBRANCH   8   9
BRANCH   8  23
ATOM     23  N   UNL A   1      31.251  23.901  23.679  1.00  0.00    -0.343 N 
ATOM     24  H   UNL A   1      30.829  24.829  23.709  1.00  0.00     0.345 HD
ATOM     25  H   UNL A   1      30.554  23.220  23.378  1.00  0.00     0.345 HD
ATOM     26  H   UNL A   1      32.029  23.902  23.020  1.00  0.00     0.345 HD
ENDBRANCH   8  23
ENDBRANCH   5   8
ENDBRANCH   3   4
ENDBRANCH   2   3
ENDBRANCH   1   2
BRANCH   1  27
ATOM     27  C   UNL A   1      31.913  29.507  26.865  1.00  0.00     0.002 C 
BRANCH  27  28
ATOM     28  C   UNL A   1      33.339  29.657  26.305  1.00  0.00     0.021 C 
BRANCH  28  29
ATOM     29  C   UNL A   1      34.419  29.847  27.367  1.00  0.00     0.116 C 
BRANCH  29  30
ATOM     30  N   UNL A   1      34.330  31.135  28.059  1.00  0.00    -0.352 N 
ATOM     31  C   UNL A   1      35.035  31.583  29.165  1.00  0.00     0.251 C 
ATOM     32  H   UNL A   1      33.677  31.772  27.688  1.00  0.00     0.163 HD
ATOM     33  O   UNL A   1      34.642  32.555  29.802  1.00  0.00    -0.269 OA
BRANCH  31  34
ATOM     34  C   UNL A   1      36.277  30.893  29.571  1.00  0.00     0.039 A 
ATOM     35  C   UNL A   1      36.278  29.706  30.317  1.00  0.00     0.014 A 
ATOM     36  C   UNL A   1      37.480  31.462  29.200  1.00  0.00     0.014 A 
ATOM     37  C   UNL A   1      37.492  29.041  30.562  1.00  0.00     0.010 A 
ATOM     38  C   UNL A   1      38.645  30.752  29.353  1.00  0.00     0.010 A 
ATOM     39  C   UNL A   1      38.687  29.549  30.031  1.00  0.00    -0.014 A 
BRANCH  39  40
ATOM     40  C   UNL A   1      39.951  28.797  30.000  1.00  0.00     0.031 A 
ATOM     41  C   UNL A   1      40.572  28.579  31.342  1.00  0.00     0.074 A 
ATOM     42  C   UNL A   1      40.419  28.086  28.939  1.00  0.00     0.049 A 
ATOM     43  N   UNL A   1      41.716  29.011  31.759  1.00  0.00    -0.248 NA
ATOM     44  C   UNL A   1      39.799  27.872  32.376  1.00  0.00     0.031 C 
ATOM     45  C   UNL A   1      39.796  27.858  27.625  1.00  0.00     0.029 A 
ATOM     46  N   UNL A   1      41.550  27.323  28.847  1.00  0.00    -0.354 N 
ATOM     47  C   UNL A   1      41.897  28.474  33.032  1.00  0.00     0.074 A 
ATOM     48  C   UNL A   1      40.639  27.888  33.412  1.00  0.00     0.031 C 
ATOM     49  C   UNL A   1      40.436  26.864  26.969  1.00  0.00     0.029 A 
ATOM     50  C   UNL A   1      41.630  26.515  27.712  1.00  0.00     0.049 A 
ATOM     51  H   UNL A   1      42.257  27.342  29.531  1.00  0.00     0.167 HD
ATOM     52  C   UNL A   1      43.138  28.378  33.585  1.00  0.00     0.037 A 
ATOM     53  C   UNL A   1      42.615  25.639  27.386  1.00  0.00     0.037 A 
ATOM     54  C   UNL A   1      44.077  29.240  32.914  1.00  0.00     0.049 A 
ATOM     55  C   UNL A   1      43.804  26.006  28.187  1.00  0.00     0.074 A 
ATOM     56  C   UNL A   1      44.125  30.597  32.656  1.00  0.00     0.029 A 
ATOM     57  N   UNL A   1      44.962  28.670  32.031  1.00  0.00    -0.354 N 
ATOM     58  N   UNL A   1      44.507  27.085  28.000  1.00  0.00    -0.248 NA
ATOM     59  C   UNL A   1      43.963  25.367  29.481  1.00  0.00     0.031 C 
ATOM     60  C   UNL A   1      44.608  30.697  31.316  1.00  0.00     0.029 A 
ATOM     61  C   UNL A   1      44.900  29.406  30.873  1.00  0.00     0.049 A 
ATOM     62  H   UNL A   1      45.531  27.885  32.196  1.00  0.00     0.167 HD
ATOM     63  C   UNL A   1      44.828  27.512  29.277  1.00  0.00     0.074 A 
ATOM     64  C   UNL A   1      44.556  26.364  30.140  1.00  0.00     0.031 C 
ATOM     65  C   UNL A   1      45.016  28.836  29.552  1.00  0.00     0.037 A 
BRANCH  52  66
ATOM     66  C   UNL A   1      43.570  27.258  34.495  1.00  0.00     0.057 A 
ATOM     67  C   UNL A   1      43.985  27.552  35.806  1.00  0.00     0.134 A 
ATOM     68  C   UNL A   1      43.868  25.954  34.050  1.00  0.00     0.134 A 
ATOM     69  F   UNL A   1      43.782  28.768  36.336  1.00  0.00    -0.206 F 
ATOM     70  C   UNL A   1      44.696  26.635  36.592  1.00  0.00     0.040 A 
ATOM     71  C   UNL A   1      44.533  25.015  34.844  1.00  0.00     0.040 A 
ATOM     72  F   UNL A   1      43.625  25.555  32.795  1.00  0.00    -0.206 F 
ATOM     73  C   UNL A   1      44.976  25.362  36.109  1.00  0.00     0.006 A 
ENDBRANCH  52  66
BRANCH  53  74
ATOM     74  C   UNL A   1      42.594  24.385  26.597  1.00  0.00     0.057 A 
ATOM     75  C   UNL A   1      43.292  24.279  25.383  1.00  0.00     0.134 A 
ATOM     76  C   UNL A   1      42.172  23.174  27.167  1.00  0.00     0.134 A 
ATOM     77  F   UNL A   1      43.754  25.375  24.765  1.00  0.00    -0.206 F 
ATOM     78  C   UNL A   1      43.603  23.041  24.804  1.00  0.00     0.040 A 
ATOM     79  C   UNL A   1      42.476  21.930  26.601  1.00  0.00     0.040 A 
ATOM     80  F   UNL A   1      41.534  23.158  28.343  1.00  0.00    -0.206 F 
ATOM     81  C   UNL A   1      43.213  21.859  25.425  1.00  0.00     0.006 A 
ENDBRANCH  53  74
BRANCH  65  82
ATOM     82  C   UNL A   1      45.124  29.789  28.390  1.00  0.00     0.057 A 
ATOM     83  C   UNL A   1      44.039  30.454  27.795  1.00  0.00     0.134 A 
ATOM     84  C   UNL A   1      46.399  30.132  27.924  1.00  0.00     0.134 A 
ATOM     85  F   UNL A   1      42.787  30.278  28.231  1.00  0.00    -0.206 F 
ATOM     86  C   UNL A   1      44.214  31.371  26.751  1.00  0.00     0.040 A 
ATOM     87  C   UNL A   1      46.588  31.072  26.907  1.00  0.00     0.040 A 
ATOM     88  F   UNL A   1      47.491  29.580  28.474  1.00  0.00    -0.206 F 
ATOM     89  C   UNL A   1      45.494  31.685  26.307  1.00  0.00     0.006 A 
ENDBRANCH  65  82
ENDBRANCH  39  40
ENDBRANCH  31  34
ENDBRANCH  29  30
ENDBRANCH  28  29
ENDBRANCH  27  28
ENDBRANCH   1  27
TORSDOF 16
ENDMDL
MODEL 3
REMARK VINA RESULT:     -12.0      3.747      7.989
REMARK SMILES Cc1nn([C@H]2CCS(=O)(=O)C2)c(C)c1[C@@H]([NH3+])C(=O)NCCCCCCNC(=O)c1ccc(-c2c3nc(c(-c4c(F)cccc4F)c4ccc([nH]4)c(-c4c(F)cccc4F)c4nc(c(-c5c(F)cccc5F)c5ccc2[nH]5)C=C4)C=C3)cc1
REMARK SMILES IDX 22 1 21 2 20 3 19 4 17 5 18 6 15 8 14 9 1 10 2 11 3 12 4 13
REMARK SMILES IDX 12 14 13 15 5 16 6 17 11 18 7 19 8 20 9 21 10 22 16 23 23 27
REMARK SMILES IDX 24 28 25 29 26 30 27 31 28 33 29 34 30 35 82 36 31 37 81 38
REMARK SMILES IDX 32 39 33 40 34 41 75 42 35 43 80 44 74 45 76 46 36 47 79 48
REMARK SMILES IDX 73 49 72 50 37 52 63 53 46 54 62 55 47 56 50 57 61 58 77 59
REMARK SMILES IDX 48 60 49 61 60 63 78 64 51 65 38 66 39 67 44 68 40 69 41 70
REMARK SMILES IDX 43 71 45 72 42 73 64 74 65 75 70 76 66 77 67 78 69 79 71 80
REMARK SMILES IDX 68 81 52 82 53 83 58 84 54 85 55 86 57 87 59 88 56 89
REMARK H PARENT 19 7 16 24 16 25 16 26 26 32 76 51 50 62
REMARK Flexibility Score: inf
ROOT
ATOM      1  C   UNL A   1      32.841  27.389  26.205  1.00  0.00     0.002 C 
ENDROOT
BRANCH   1   2
ATOM      2  C   UNL A   1      31.556  26.558  26.278  1.00  0.00     0.021 C 
BRANCH   2   3
ATOM      3  C   UNL A   1      31.592  25.224  25.524  1.00  0.00     0.116 C 
BRANCH   3   4
ATOM      4  N   UNL A   1      32.776  25.097  24.696  1.00  0.00    -0.351 N 
ATOM      5  C   UNL A   1      32.940  25.266  23.350  1.00  0.00     0.283 C 
ATOM      6  O   UNL A   1      34.089  25.119  22.910  1.00  0.00    -0.268 OA
ATOM      7  H   UNL A   1      33.594  24.848  25.183  1.00  0.00     0.163 HD
BRANCH   5   8
ATOM      8  C   UNL A   1      31.787  25.650  22.376  1.00  0.00     0.306 C 
BRANCH   8   9
ATOM      9  C   UNL A   1      31.249  27.036  22.611  1.00  0.00     0.063 A 
ATOM     10  C   UNL A   1      33.503  28.415  22.547  1.00  0.00     0.069 C 
ATOM     11  C   UNL A   1      32.029  28.235  22.597  1.00  0.00     0.069 A 
ATOM     12  N   UNL A   1      31.270  29.326  22.710  1.00  0.00    -0.177 NA
ATOM     13  N   UNL A   1      30.020  28.851  22.768  1.00  0.00    -0.265 N 
ATOM     14  C   UNL A   1      29.990  27.493  23.007  1.00  0.00     0.046 A 
ATOM     15  C   UNL A   1      28.811  26.778  23.575  1.00  0.00     0.067 C 
BRANCH  13  16
ATOM     16  C   UNL A   1      28.937  29.799  22.532  1.00  0.00     0.123 C 
ATOM     17  C   UNL A   1      28.492  30.501  23.841  1.00  0.00     0.044 C 
ATOM     18  C   UNL A   1      29.324  30.910  21.575  1.00  0.00     0.164 C 
ATOM     19  C   UNL A   1      27.595  31.650  23.431  1.00  0.00     0.139 C 
ATOM     20  S   UNL A   1      28.402  32.328  22.014  1.00  0.00     0.152 S 
ATOM     21  O   UNL A   1      27.447  32.586  20.974  1.00  0.00    -0.229 OA
ATOM     22  O   UNL A   1      29.385  33.303  22.467  1.00  0.00    -0.229 OA
ENDBRANCH  13  16
ENDBRANCH   8   9
BRANCH   8  23
ATOM     23  N   UNL A   1      32.154  25.418  20.971  1.00  0.00    -0.343 N 
ATOM     24  H   UNL A   1      32.360  24.428  20.831  1.00  0.00     0.345 HD
ATOM     25  H   UNL A   1      32.977  25.973  20.738  1.00  0.00     0.345 HD
ATOM     26  H   UNL A   1      31.379  25.691  20.367  1.00  0.00     0.345 HD
ENDBRANCH   8  23
ENDBRANCH   5   8
ENDBRANCH   3   4
ENDBRANCH   2   3
ENDBRANCH   1   2
BRANCH   1  27
ATOM     27  C   UNL A   1      32.979  28.499  27.266  1.00  0.00     0.002 C 
BRANCH  27  28
ATOM     28  C   UNL A   1      33.361  29.903  26.766  1.00  0.00     0.021 C 
BRANCH  28  29
ATOM     29  C   UNL A   1      34.681  30.434  27.320  1.00  0.00     0.116 C 
BRANCH  29  30
ATOM     30  N   UNL A   1      34.508  31.550  28.253  1.00  0.00    -0.352 N 
ATOM     31  C   UNL A   1      35.108  31.759  29.485  1.00  0.00     0.251 C 
ATOM     32  H   UNL A   1      33.878  32.250  27.965  1.00  0.00     0.163 HD
ATOM     33  O   UNL A   1      34.644  32.576  30.273  1.00  0.00    -0.269 OA
BRANCH  31  34
ATOM     34  C   UNL A   1      36.323  31.000  29.846  1.00  0.00     0.039 A 
ATOM     35  C   UNL A   1      36.280  29.706  30.384  1.00  0.00     0.014 A 
ATOM     36  C   UNL A   1      37.546  31.612  29.649  1.00  0.00     0.014 A 
ATOM     37  C   UNL A   1      37.477  28.999  30.589  1.00  0.00     0.010 A 
ATOM     38  C   UNL A   1      38.700  30.876  29.753  1.00  0.00     0.010 A 
ATOM     39  C   UNL A   1      38.702  29.578  30.224  1.00  0.00    -0.014 A 
BRANCH  39  40
ATOM     40  C   UNL A   1      39.967  28.829  30.147  1.00  0.00     0.031 A 
ATOM     41  C   UNL A   1      40.618  28.580  31.469  1.00  0.00     0.074 A 
ATOM     42  C   UNL A   1      40.412  28.147  29.058  1.00  0.00     0.049 A 
ATOM     43  N   UNL A   1      41.770  29.004  31.870  1.00  0.00    -0.248 NA
ATOM     44  C   UNL A   1      39.869  27.846  32.502  1.00  0.00     0.031 C 
ATOM     45  C   UNL A   1      39.760  27.949  27.753  1.00  0.00     0.029 A 
ATOM     46  N   UNL A   1      41.543  27.389  28.922  1.00  0.00    -0.354 N 
ATOM     47  C   UNL A   1      41.981  28.437  33.125  1.00  0.00     0.074 A 
ATOM     48  C   UNL A   1      40.732  27.838  33.519  1.00  0.00     0.031 C 
ATOM     49  C   UNL A   1      40.387  26.973  27.058  1.00  0.00     0.029 A 
ATOM     50  C   UNL A   1      41.599  26.609  27.766  1.00  0.00     0.049 A 
ATOM     51  H   UNL A   1      42.265  27.392  29.591  1.00  0.00     0.167 HD
ATOM     52  C   UNL A   1      43.233  28.330  33.648  1.00  0.00     0.037 A 
ATOM     53  C   UNL A   1      42.578  25.744  27.396  1.00  0.00     0.037 A 
ATOM     54  C   UNL A   1      44.156  29.211  32.978  1.00  0.00     0.049 A 
ATOM     55  C   UNL A   1      43.784  26.094  28.179  1.00  0.00     0.074 A 
ATOM     56  C   UNL A   1      44.195  30.575  32.752  1.00  0.00     0.029 A 
ATOM     57  N   UNL A   1      45.022  28.666  32.061  1.00  0.00    -0.354 N 
ATOM     58  N   UNL A   1      44.480  27.179  28.003  1.00  0.00    -0.248 NA
ATOM     59  C   UNL A   1      43.973  25.423  29.453  1.00  0.00     0.031 C 
ATOM     60  C   UNL A   1      44.648  30.708  31.405  1.00  0.00     0.029 A 
ATOM     61  C   UNL A   1      44.932  29.430  30.924  1.00  0.00     0.049 A 
ATOM     62  H   UNL A   1      45.596  27.878  32.194  1.00  0.00     0.167 HD
ATOM     63  C   UNL A   1      44.829  27.575  29.283  1.00  0.00     0.074 A 
ATOM     64  C   UNL A   1      44.579  26.405  30.124  1.00  0.00     0.031 C 
ATOM     65  C   UNL A   1      45.020  28.892  29.587  1.00  0.00     0.037 A 
BRANCH  52  66
ATOM     66  C   UNL A   1      43.689  27.189  34.520  1.00  0.00     0.057 A 
ATOM     67  C   UNL A   1      43.736  25.888  33.991  1.00  0.00     0.134 A 
ATOM     68  C   UNL A   1      43.803  27.271  35.923  1.00  0.00     0.134 A 
ATOM     69  F   UNL A   1      43.612  25.677  32.672  1.00  0.00    -0.206 F 
ATOM     70  C   UNL A   1      43.831  24.750  34.802  1.00  0.00     0.040 A 
ATOM     71  C   UNL A   1      43.948  26.145  36.739  1.00  0.00     0.040 A 
ATOM     72  F   UNL A   1      43.679  28.428  36.584  1.00  0.00    -0.206 F 
ATOM     73  C   UNL A   1      43.933  24.876  36.183  1.00  0.00     0.006 A 
ENDBRANCH  52  66
BRANCH  53  74
ATOM     74  C   UNL A   1      42.542  24.509  26.577  1.00  0.00     0.057 A 
ATOM     75  C   UNL A   1      43.294  24.399  25.396  1.00  0.00     0.134 A 
ATOM     76  C   UNL A   1      42.041  23.307  27.097  1.00  0.00     0.134 A 
ATOM     77  F   UNL A   1      43.833  25.487  24.828  1.00  0.00    -0.206 F 
ATOM     78  C   UNL A   1      43.579  23.162  24.804  1.00  0.00     0.040 A 
ATOM     79  C   UNL A   1      42.318  22.063  26.516  1.00  0.00     0.040 A 
ATOM     80  F   UNL A   1      41.345  23.293  28.240  1.00  0.00    -0.206 F 
ATOM     81  C   UNL A   1      43.108  21.985  25.377  1.00  0.00     0.006 A 
ENDBRANCH  53  74
BRANCH  65  82
ATOM     82  C   UNL A   1      45.101  29.874  28.446  1.00  0.00     0.057 A 
ATOM     83  C   UNL A   1      44.003  30.561  27.900  1.00  0.00     0.134 A 
ATOM     84  C   UNL A   1      46.363  30.221  27.952  1.00  0.00     0.134 A 
ATOM     85  F   UNL A   1      42.763  30.380  28.368  1.00  0.00    -0.206 F 
ATOM     86  C   UNL A   1      44.153  31.503  26.875  1.00  0.00     0.040 A 
ATOM     87  C   UNL A   1      46.529  31.186  26.954  1.00  0.00     0.040 A 
ATOM     88  F   UNL A   1      47.468  29.650  28.456  1.00  0.00    -0.206 F 
ATOM     89  C   UNL A   1      45.421  31.820  26.402  1.00  0.00     0.006 A 
ENDBRANCH  65  82
ENDBRANCH  39  40
ENDBRANCH  31  34
ENDBRANCH  29  30
ENDBRANCH  28  29
ENDBRANCH  27  28
ENDBRANCH   1  27
TORSDOF 16
ENDMDL
