MODEL 1
REMARK VINA RESULT:     -11.5      0.000      0.000
REMARK SMILES C[C@@H](C(=O)NCCCCCCNC(=O)c1ccc(-c2c3nc(c(-c4c(F)cccc4F)c4ccc([nH]4)c(-c4c(F)cccc4F)c4nc(c(-c5c(F)cccc5F)c5ccc2[nH]5)C=C4)C=C3)cc1)c1ccc(C[C@H]2CCCC2=O)cc1
REMARK SMILES IDX 8 1 7 2 6 3 5 4 3 5 4 6 2 8 1 9 69 10 70 11 81 12 71 13
REMARK SMILES IDX 80 14 72 15 73 16 74 17 75 18 78 19 76 20 77 21 79 22 9 23
REMARK SMILES IDX 10 24 11 25 12 26 13 27 14 29 15 30 16 31 68 32 17 33 67 34
REMARK SMILES IDX 18 35 19 36 20 37 61 38 21 39 66 40 60 41 62 42 22 43 65 44
REMARK SMILES IDX 59 45 58 46 23 48 49 49 32 50 48 51 33 52 36 53 47 54 63 55
REMARK SMILES IDX 34 56 35 57 46 59 64 60 37 61 24 62 25 63 30 64 26 65 27 66
REMARK SMILES IDX 29 67 31 68 28 69 50 70 51 71 56 72 52 73 53 74 55 75 57 76
REMARK SMILES IDX 54 77 38 78 39 79 44 80 40 81 41 82 43 83 45 84 42 85
REMARK H PARENT 5 7 12 28 62 47 36 58
REMARK Flexibility Score: inf
ROOT
ATOM      1  C   UNL A   1      32.487  29.887  26.988  1.00  0.00     0.002 C 
ENDROOT
BRANCH   1   2
ATOM      2  C   UNL A   1      33.647  29.279  26.186  1.00  0.00     0.021 C 
BRANCH   2   3
ATOM      3  C   UNL A   1      33.920  27.807  26.505  1.00  0.00     0.116 C 
BRANCH   3   4
ATOM      4  N   UNL A   1      33.842  27.012  25.299  1.00  0.00    -0.356 N 
ATOM      5  C   UNL A   1      32.788  26.324  24.772  1.00  0.00     0.227 C 
ATOM      6  O   UNL A   1      33.043  25.534  23.861  1.00  0.00    -0.274 OA
ATOM      7  H   UNL A   1      34.676  26.960  24.780  1.00  0.00     0.163 HD
BRANCH   5   8
ATOM      8  C   UNL A   1      31.367  26.586  25.292  1.00  0.00     0.105 C 
ATOM      9  C   UNL A   1      30.644  25.294  25.692  1.00  0.00     0.023 C 
BRANCH   8  10
ATOM     10  C   UNL A   1      30.551  27.398  24.290  1.00  0.00    -0.036 A 
ATOM     11  C   UNL A   1      31.171  28.415  23.552  1.00  0.00     0.005 A 
ATOM     12  C   UNL A   1      29.196  27.128  24.050  1.00  0.00     0.005 A 
ATOM     13  C   UNL A   1      30.440  29.178  22.639  1.00  0.00     0.004 A 
ATOM     14  C   UNL A   1      28.460  27.907  23.157  1.00  0.00     0.004 A 
ATOM     15  C   UNL A   1      29.069  28.956  22.463  1.00  0.00    -0.047 A 
BRANCH  15  16
ATOM     16  C   UNL A   1      28.248  29.846  21.562  1.00  0.00     0.047 C 
BRANCH  16  17
ATOM     17  C   UNL A   1      27.591  31.056  22.239  1.00  0.00     0.060 C 
ATOM     18  C   UNL A   1      27.864  31.237  23.737  1.00  0.00     0.012 C 
ATOM     19  C   UNL A   1      28.079  32.369  21.670  1.00  0.00     0.136 C 
ATOM     20  C   UNL A   1      28.997  32.251  23.848  1.00  0.00     0.009 C 
ATOM     21  C   UNL A   1      28.791  33.217  22.689  1.00  0.00     0.076 C 
ATOM     22  O   UNL A   1      27.900  32.717  20.508  1.00  0.00    -0.299 OA
ENDBRANCH  16  17
ENDBRANCH  15  16
ENDBRANCH   8  10
ENDBRANCH   5   8
ENDBRANCH   3   4
ENDBRANCH   2   3
ENDBRANCH   1   2
BRANCH   1  23
ATOM     23  C   UNL A   1      31.525  30.760  26.177  1.00  0.00     0.002 C 
BRANCH  23  24
ATOM     24  C   UNL A   1      31.349  32.185  26.703  1.00  0.00     0.021 C 
BRANCH  24  25
ATOM     25  C   UNL A   1      32.629  32.832  27.224  1.00  0.00     0.116 C 
BRANCH  25  26
ATOM     26  N   UNL A   1      32.418  34.210  27.635  1.00  0.00    -0.352 N 
ATOM     27  C   UNL A   1      33.055  34.928  28.613  1.00  0.00     0.251 C 
ATOM     28  H   UNL A   1      31.717  34.696  27.143  1.00  0.00     0.163 HD
ATOM     29  O   UNL A   1      32.621  36.028  28.955  1.00  0.00    -0.269 OA
BRANCH  27  30
ATOM     30  C   UNL A   1      34.256  34.376  29.274  1.00  0.00     0.039 A 
ATOM     31  C   UNL A   1      34.100  33.643  30.453  1.00  0.00     0.014 A 
ATOM     32  C   UNL A   1      35.531  34.595  28.744  1.00  0.00     0.014 A 
ATOM     33  C   UNL A   1      35.220  33.087  31.076  1.00  0.00     0.010 A 
ATOM     34  C   UNL A   1      36.638  33.985  29.329  1.00  0.00     0.010 A 
ATOM     35  C   UNL A   1      36.494  33.232  30.504  1.00  0.00    -0.014 A 
BRANCH  35  36
ATOM     36  C   UNL A   1      37.689  32.613  31.130  1.00  0.00     0.031 A 
ATOM     37  C   UNL A   1      38.334  31.409  30.501  1.00  0.00     0.074 A 
ATOM     38  C   UNL A   1      38.160  33.101  32.295  1.00  0.00     0.049 A 
ATOM     39  N   UNL A   1      39.347  30.697  30.927  1.00  0.00    -0.248 NA
ATOM     40  C   UNL A   1      37.748  30.927  29.241  1.00  0.00     0.031 C 
ATOM     41  C   UNL A   1      37.595  34.235  33.027  1.00  0.00     0.029 A 
ATOM     42  N   UNL A   1      39.217  32.697  33.069  1.00  0.00    -0.354 N 
ATOM     43  C   UNL A   1      39.507  29.677  29.997  1.00  0.00     0.074 A 
ATOM     44  C   UNL A   1      38.459  29.833  29.013  1.00  0.00     0.031 C 
ATOM     45  C   UNL A   1      38.325  34.451  34.133  1.00  0.00     0.029 A 
ATOM     46  C   UNL A   1      39.387  33.453  34.204  1.00  0.00     0.049 A 
ATOM     47  H   UNL A   1      39.799  31.939  32.834  1.00  0.00     0.167 HD
ATOM     48  C   UNL A   1      40.457  28.712  29.955  1.00  0.00     0.037 A 
ATOM     49  C   UNL A   1      40.298  33.349  35.191  1.00  0.00     0.037 A 
ATOM     50  C   UNL A   1      41.517  28.575  30.918  1.00  0.00     0.049 A 
ATOM     51  C   UNL A   1      41.343  32.272  35.118  1.00  0.00     0.074 A 
ATOM     52  C   UNL A   1      42.560  27.667  30.930  1.00  0.00     0.029 A 
ATOM     53  N   UNL A   1      41.667  29.372  32.043  1.00  0.00    -0.354 N 
ATOM     54  N   UNL A   1      41.521  31.353  34.201  1.00  0.00    -0.248 NA
ATOM     55  C   UNL A   1      42.319  32.223  36.216  1.00  0.00     0.031 C 
ATOM     56  C   UNL A   1      43.323  27.891  32.082  1.00  0.00     0.029 A 
ATOM     57  C   UNL A   1      42.778  28.966  32.765  1.00  0.00     0.049 A 
ATOM     58  H   UNL A   1      41.073  30.117  32.292  1.00  0.00     0.167 HD
ATOM     59  C   UNL A   1      42.644  30.635  34.593  1.00  0.00     0.074 A 
ATOM     60  C   UNL A   1      43.112  31.233  35.826  1.00  0.00     0.031 C 
ATOM     61  C   UNL A   1      43.234  29.577  33.986  1.00  0.00     0.037 A 
BRANCH  48  62
ATOM     62  C   UNL A   1      40.392  27.730  28.821  1.00  0.00     0.057 A 
ATOM     63  C   UNL A   1      39.597  26.579  28.887  1.00  0.00     0.134 A 
ATOM     64  C   UNL A   1      41.109  27.953  27.639  1.00  0.00     0.134 A 
ATOM     65  F   UNL A   1      38.895  26.300  29.995  1.00  0.00    -0.206 F 
ATOM     66  C   UNL A   1      39.539  25.670  27.829  1.00  0.00     0.040 A 
ATOM     67  C   UNL A   1      41.038  27.066  26.564  1.00  0.00     0.040 A 
ATOM     68  F   UNL A   1      41.886  29.039  27.507  1.00  0.00    -0.206 F 
ATOM     69  C   UNL A   1      40.257  25.916  26.660  1.00  0.00     0.006 A 
ENDBRANCH  48  62
BRANCH  49  70
ATOM     70  C   UNL A   1      40.280  34.311  36.320  1.00  0.00     0.057 A 
ATOM     71  C   UNL A   1      39.629  34.001  37.520  1.00  0.00     0.134 A 
ATOM     72  C   UNL A   1      40.903  35.561  36.228  1.00  0.00     0.134 A 
ATOM     73  F   UNL A   1      38.998  32.826  37.661  1.00  0.00    -0.206 F 
ATOM     74  C   UNL A   1      39.583  34.905  38.581  1.00  0.00     0.040 A 
ATOM     75  C   UNL A   1      40.884  36.466  37.290  1.00  0.00     0.040 A 
ATOM     76  F   UNL A   1      41.550  35.915  35.108  1.00  0.00    -0.206 F 
ATOM     77  C   UNL A   1      40.215  36.141  38.469  1.00  0.00     0.006 A 
ENDBRANCH  49  70
BRANCH  61  78
ATOM     78  C   UNL A   1      44.471  29.023  34.629  1.00  0.00     0.057 A 
ATOM     79  C   UNL A   1      44.414  27.984  35.567  1.00  0.00     0.134 A 
ATOM     80  C   UNL A   1      45.736  29.513  34.279  1.00  0.00     0.134 A 
ATOM     81  F   UNL A   1      43.233  27.482  35.955  1.00  0.00    -0.206 F 
ATOM     82  C   UNL A   1      45.572  27.468  36.151  1.00  0.00     0.040 A 
ATOM     83  C   UNL A   1      46.901  28.987  34.837  1.00  0.00     0.040 A 
ATOM     84  F   UNL A   1      45.859  30.501  33.380  1.00  0.00    -0.206 F 
ATOM     85  C   UNL A   1      46.820  27.965  35.781  1.00  0.00     0.006 A 
ENDBRANCH  61  78
ENDBRANCH  35  36
ENDBRANCH  27  30
ENDBRANCH  25  26
ENDBRANCH  24  25
ENDBRANCH  23  24
ENDBRANCH   1  23
TORSDOF 16
ENDMDL
MODEL 2
REMARK VINA RESULT:     -11.4      0.944      6.228
REMARK SMILES C[C@@H](C(=O)NCCCCCCNC(=O)c1ccc(-c2c3nc(c(-c4c(F)cccc4F)c4ccc([nH]4)c(-c4c(F)cccc4F)c4nc(c(-c5c(F)cccc5F)c5ccc2[nH]5)C=C4)C=C3)cc1)c1ccc(C[C@H]2CCCC2=O)cc1
REMARK SMILES IDX 8 1 7 2 6 3 5 4 3 5 4 6 2 8 1 9 69 10 70 11 81 12 71 13
REMARK SMILES IDX 80 14 72 15 73 16 74 17 75 18 78 19 76 20 77 21 79 22 9 23
REMARK SMILES IDX 10 24 11 25 12 26 13 27 14 29 15 30 16 31 68 32 17 33 67 34
REMARK SMILES IDX 18 35 19 36 20 37 61 38 21 39 66 40 60 41 62 42 22 43 65 44
REMARK SMILES IDX 59 45 58 46 23 48 49 49 32 50 48 51 33 52 36 53 47 54 63 55
REMARK SMILES IDX 34 56 35 57 46 59 64 60 37 61 24 62 25 63 30 64 26 65 27 66
REMARK SMILES IDX 29 67 31 68 28 69 50 70 51 71 56 72 52 73 53 74 55 75 57 76
REMARK SMILES IDX 54 77 38 78 39 79 44 80 40 81 41 82 43 83 45 84 42 85
REMARK H PARENT 5 7 12 28 62 47 36 58
REMARK Flexibility Score: inf
ROOT
ATOM      1  C   UNL A   1      32.147  29.859  27.115  1.00  0.00     0.002 C 
ENDROOT
BRANCH   1   2
ATOM      2  C   UNL A   1      33.521  29.389  26.617  1.00  0.00     0.021 C 
BRANCH   2   3
ATOM      3  C   UNL A   1      33.723  27.873  26.691  1.00  0.00     0.116 C 
BRANCH   3   4
ATOM      4  N   UNL A   1      33.809  27.315  25.359  1.00  0.00    -0.356 N 
ATOM      5  C   UNL A   1      32.870  26.647  24.628  1.00  0.00     0.227 C 
ATOM      6  O   UNL A   1      33.264  26.069  23.614  1.00  0.00    -0.274 OA
ATOM      7  H   UNL A   1      34.676  27.437  24.910  1.00  0.00     0.163 HD
BRANCH   5   8
ATOM      8  C   UNL A   1      31.397  26.678  25.065  1.00  0.00     0.105 C 
ATOM      9  C   UNL A   1      30.811  25.272  25.243  1.00  0.00     0.023 C 
BRANCH   8  10
ATOM     10  C   UNL A   1      30.554  27.520  24.112  1.00  0.00    -0.036 A 
ATOM     11  C   UNL A   1      31.159  28.541  23.367  1.00  0.00     0.005 A 
ATOM     12  C   UNL A   1      29.186  27.275  23.923  1.00  0.00     0.005 A 
ATOM     13  C   UNL A   1      30.404  29.331  22.499  1.00  0.00     0.004 A 
ATOM     14  C   UNL A   1      28.426  28.081  23.076  1.00  0.00     0.004 A 
ATOM     15  C   UNL A   1      29.023  29.134  22.375  1.00  0.00    -0.047 A 
BRANCH  15  16
ATOM     16  C   UNL A   1      28.180  30.052  21.525  1.00  0.00     0.047 C 
BRANCH  16  17
ATOM     17  C   UNL A   1      27.549  31.244  22.256  1.00  0.00     0.060 C 
ATOM     18  C   UNL A   1      27.855  31.373  23.752  1.00  0.00     0.012 C 
ATOM     19  C   UNL A   1      28.036  32.571  21.720  1.00  0.00     0.136 C 
ATOM     20  C   UNL A   1      28.999  32.374  23.872  1.00  0.00     0.009 C 
ATOM     21  C   UNL A   1      28.777  33.379  22.751  1.00  0.00     0.076 C 
ATOM     22  O   UNL A   1      27.835  32.959  20.574  1.00  0.00    -0.299 OA
ENDBRANCH  16  17
ENDBRANCH  15  16
ENDBRANCH   8  10
ENDBRANCH   5   8
ENDBRANCH   3   4
ENDBRANCH   2   3
ENDBRANCH   1   2
BRANCH   1  23
ATOM     23  C   UNL A   1      31.405  30.809  26.170  1.00  0.00     0.002 C 
BRANCH  23  24
ATOM     24  C   UNL A   1      31.332  32.262  26.643  1.00  0.00     0.021 C 
BRANCH  24  25
ATOM     25  C   UNL A   1      32.686  32.913  26.905  1.00  0.00     0.116 C 
BRANCH  25  26
ATOM     26  N   UNL A   1      32.559  34.169  27.626  1.00  0.00    -0.352 N 
ATOM     27  C   UNL A   1      33.224  34.594  28.747  1.00  0.00     0.251 C 
ATOM     28  H   UNL A   1      31.903  34.803  27.259  1.00  0.00     0.163 HD
ATOM     29  O   UNL A   1      32.858  35.611  29.335  1.00  0.00    -0.269 OA
BRANCH  27  30
ATOM     30  C   UNL A   1      34.372  33.821  29.265  1.00  0.00     0.039 A 
ATOM     31  C   UNL A   1      35.665  34.214  28.910  1.00  0.00     0.014 A 
ATOM     32  C   UNL A   1      34.176  32.703  30.082  1.00  0.00     0.014 A 
ATOM     33  C   UNL A   1      36.764  33.515  29.415  1.00  0.00     0.010 A 
ATOM     34  C   UNL A   1      35.272  32.049  30.636  1.00  0.00     0.010 A 
ATOM     35  C   UNL A   1      36.577  32.443  30.302  1.00  0.00    -0.014 A 
BRANCH  35  36
ATOM     36  C   UNL A   1      37.734  31.716  30.880  1.00  0.00     0.031 A 
ATOM     37  C   UNL A   1      38.229  32.055  32.258  1.00  0.00     0.074 A 
ATOM     38  C   UNL A   1      38.375  30.789  30.141  1.00  0.00     0.049 A 
ATOM     39  N   UNL A   1      39.256  31.572  32.911  1.00  0.00    -0.248 NA
ATOM     40  C   UNL A   1      37.485  33.092  32.991  1.00  0.00     0.031 C 
ATOM     41  C   UNL A   1      38.022  30.403  28.775  1.00  0.00     0.029 A 
ATOM     42  N   UNL A   1      39.465  30.010  30.436  1.00  0.00    -0.354 N 
ATOM     43  C   UNL A   1      39.290  32.256  34.120  1.00  0.00     0.074 A 
ATOM     44  C   UNL A   1      38.213  33.220  34.090  1.00  0.00     0.031 C 
ATOM     45  C   UNL A   1      38.864  29.444  28.358  1.00  0.00     0.029 A 
ATOM     46  C   UNL A   1      39.834  29.171  29.412  1.00  0.00     0.049 A 
ATOM     47  H   UNL A   1      39.937  30.048  31.299  1.00  0.00     0.167 HD
ATOM     48  C   UNL A   1      40.130  32.079  35.168  1.00  0.00     0.037 A 
ATOM     49  C   UNL A   1      40.844  28.284  29.335  1.00  0.00     0.037 A 
ATOM     50  C   UNL A   1      41.182  31.099  35.208  1.00  0.00     0.049 A 
ATOM     51  C   UNL A   1      41.758  28.104  30.514  1.00  0.00     0.074 A 
ATOM     52  C   UNL A   1      42.048  30.803  36.246  1.00  0.00     0.029 A 
ATOM     53  N   UNL A   1      41.512  30.254  34.159  1.00  0.00    -0.354 N 
ATOM     54  N   UNL A   1      41.740  28.713  31.674  1.00  0.00    -0.248 NA
ATOM     55  C   UNL A   1      42.829  27.107  30.374  1.00  0.00     0.031 C 
ATOM     56  C   UNL A   1      42.925  29.803  35.813  1.00  0.00     0.029 A 
ATOM     57  C   UNL A   1      42.579  29.447  34.520  1.00  0.00     0.049 A 
ATOM     58  H   UNL A   1      41.055  30.230  33.287  1.00  0.00     0.167 HD
ATOM     59  C   UNL A   1      42.776  28.154  32.414  1.00  0.00     0.074 A 
ATOM     60  C   UNL A   1      43.394  27.150  31.573  1.00  0.00     0.031 C 
ATOM     61  C   UNL A   1      43.177  28.447  33.674  1.00  0.00     0.037 A 
BRANCH  48  62
ATOM     62  C   UNL A   1      39.935  32.966  36.364  1.00  0.00     0.057 A 
ATOM     63  C   UNL A   1      39.004  32.661  37.365  1.00  0.00     0.134 A 
ATOM     64  C   UNL A   1      40.706  34.122  36.530  1.00  0.00     0.134 A 
ATOM     65  F   UNL A   1      38.224  31.574  37.260  1.00  0.00    -0.206 F 
ATOM     66  C   UNL A   1      38.827  33.488  38.475  1.00  0.00     0.040 A 
ATOM     67  C   UNL A   1      40.558  34.944  37.649  1.00  0.00     0.040 A 
ATOM     68  F   UNL A   1      41.621  34.471  35.612  1.00  0.00    -0.206 F 
ATOM     69  C   UNL A   1      39.611  34.631  38.623  1.00  0.00     0.006 A 
ENDBRANCH  48  62
BRANCH  49  70
ATOM     70  C   UNL A   1      41.027  27.474  28.105  1.00  0.00     0.057 A 
ATOM     71  C   UNL A   1      41.818  27.939  27.049  1.00  0.00     0.134 A 
ATOM     72  C   UNL A   1      40.413  26.226  27.952  1.00  0.00     0.134 A 
ATOM     73  F   UNL A   1      42.417  29.136  27.130  1.00  0.00    -0.206 F 
ATOM     74  C   UNL A   1      41.980  27.200  25.876  1.00  0.00     0.040 A 
ATOM     75  C   UNL A   1      40.584  25.466  26.794  1.00  0.00     0.040 A 
ATOM     76  F   UNL A   1      39.649  25.721  28.931  1.00  0.00    -0.206 F 
ATOM     77  C   UNL A   1      41.364  25.957  25.748  1.00  0.00     0.006 A 
ENDBRANCH  49  70
BRANCH  61  78
ATOM     78  C   UNL A   1      44.316  27.645  34.232  1.00  0.00     0.057 A 
ATOM     79  C   UNL A   1      44.116  26.395  34.831  1.00  0.00     0.134 A 
ATOM     80  C   UNL A   1      45.632  28.117  34.139  1.00  0.00     0.134 A 
ATOM     81  F   UNL A   1      42.879  25.895  34.962  1.00  0.00    -0.206 F 
ATOM     82  C   UNL A   1      45.183  25.652  35.337  1.00  0.00     0.040 A 
ATOM     83  C   UNL A   1      46.709  27.372  34.619  1.00  0.00     0.040 A 
ATOM     84  F   UNL A   1      45.891  29.304  33.570  1.00  0.00    -0.206 F 
ATOM     85  C   UNL A   1      46.485  26.137  35.226  1.00  0.00     0.006 A 
ENDBRANCH  61  78
ENDBRANCH  35  36
ENDBRANCH  27  30
ENDBRANCH  25  26
ENDBRANCH  24  25
ENDBRANCH  23  24
ENDBRANCH   1  23
TORSDOF 16
ENDMDL
MODEL 3
REMARK VINA RESULT:     -11.1      5.608     10.401
REMARK SMILES C[C@@H](C(=O)NCCCCCCNC(=O)c1ccc(-c2c3nc(c(-c4c(F)cccc4F)c4ccc([nH]4)c(-c4c(F)cccc4F)c4nc(c(-c5c(F)cccc5F)c5ccc2[nH]5)C=C4)C=C3)cc1)c1ccc(C[C@H]2CCCC2=O)cc1
REMARK SMILES IDX 8 1 7 2 6 3 5 4 3 5 4 6 2 8 1 9 69 10 70 11 81 12 71 13
REMARK SMILES IDX 80 14 72 15 73 16 74 17 75 18 78 19 76 20 77 21 79 22 9 23
REMARK SMILES IDX 10 24 11 25 12 26 13 27 14 29 15 30 16 31 68 32 17 33 67 34
REMARK SMILES IDX 18 35 19 36 20 37 61 38 21 39 66 40 60 41 62 42 22 43 65 44
REMARK SMILES IDX 59 45 58 46 23 48 49 49 32 50 48 51 33 52 36 53 47 54 63 55
REMARK SMILES IDX 34 56 35 57 46 59 64 60 37 61 24 62 25 63 30 64 26 65 27 66
REMARK SMILES IDX 29 67 31 68 28 69 50 70 51 71 56 72 52 73 53 74 55 75 57 76
REMARK SMILES IDX 54 77 38 78 39 79 44 80 40 81 41 82 43 83 45 84 42 85
REMARK H PARENT 5 7 12 28 62 47 36 58
REMARK Flexibility Score: inf
ROOT
ATOM      1  C   UNL A   1      37.171  21.879  24.575  1.00  0.00     0.002 C 
ENDROOT
BRANCH   1   2
ATOM      2  C   UNL A   1      36.324  22.608  23.522  1.00  0.00     0.021 C 
BRANCH   2   3
ATOM      3  C   UNL A   1      35.900  24.020  23.935  1.00  0.00     0.116 C 
BRANCH   3   4
ATOM      4  N   UNL A   1      35.166  23.976  25.181  1.00  0.00    -0.356 N 
ATOM      5  C   UNL A   1      33.830  23.812  25.404  1.00  0.00     0.227 C 
ATOM      6  O   UNL A   1      33.425  24.047  26.544  1.00  0.00    -0.274 OA
ATOM      7  H   UNL A   1      35.714  24.079  25.992  1.00  0.00     0.163 HD
BRANCH   5   8
ATOM      8  C   UNL A   1      32.920  23.318  24.269  1.00  0.00     0.105 C 
ATOM      9  C   UNL A   1      31.558  24.022  24.263  1.00  0.00     0.023 C 
BRANCH   8  10
ATOM     10  C   UNL A   1      32.767  21.800  24.303  1.00  0.00    -0.036 A 
ATOM     11  C   UNL A   1      32.344  21.119  23.154  1.00  0.00     0.005 A 
ATOM     12  C   UNL A   1      33.081  21.051  25.447  1.00  0.00     0.005 A 
ATOM     13  C   UNL A   1      32.186  19.732  23.167  1.00  0.00     0.004 A 
ATOM     14  C   UNL A   1      32.898  19.669  25.468  1.00  0.00     0.004 A 
ATOM     15  C   UNL A   1      32.424  18.999  24.336  1.00  0.00    -0.047 A 
BRANCH  15  16
ATOM     16  C   UNL A   1      32.150  17.516  24.392  1.00  0.00     0.047 C 
BRANCH  16  17
ATOM     17  C   UNL A   1      33.282  16.610  23.890  1.00  0.00     0.060 C 
ATOM     18  C   UNL A   1      34.624  17.288  23.593  1.00  0.00     0.012 C 
ATOM     19  C   UNL A   1      33.676  15.565  24.908  1.00  0.00     0.136 C 
ATOM     20  C   UNL A   1      35.495  17.076  24.826  1.00  0.00     0.009 C 
ATOM     21  C   UNL A   1      35.101  15.710  25.370  1.00  0.00     0.076 C 
ATOM     22  O   UNL A   1      32.925  14.680  25.304  1.00  0.00    -0.299 OA
ENDBRANCH  16  17
ENDBRANCH  15  16
ENDBRANCH   8  10
ENDBRANCH   5   8
ENDBRANCH   3   4
ENDBRANCH   2   3
ENDBRANCH   1   2
BRANCH   1  23
ATOM     23  C   UNL A   1      36.820  20.403  24.781  1.00  0.00     0.002 C 
BRANCH  23  24
ATOM     24  C   UNL A   1      38.023  19.472  24.948  1.00  0.00     0.021 C 
BRANCH  24  25
ATOM     25  C   UNL A   1      39.164  20.052  25.778  1.00  0.00     0.116 C 
BRANCH  25  26
ATOM     26  N   UNL A   1      40.296  19.144  25.862  1.00  0.00    -0.352 N 
ATOM     27  C   UNL A   1      41.611  19.424  26.127  1.00  0.00     0.251 C 
ATOM     28  H   UNL A   1      40.090  18.195  25.705  1.00  0.00     0.163 HD
ATOM     29  O   UNL A   1      42.471  18.557  25.975  1.00  0.00    -0.269 OA
BRANCH  27  30
ATOM     30  C   UNL A   1      42.004  20.774  26.581  1.00  0.00     0.039 A 
ATOM     31  C   UNL A   1      42.338  21.737  25.625  1.00  0.00     0.014 A 
ATOM     32  C   UNL A   1      42.061  21.086  27.943  1.00  0.00     0.014 A 
ATOM     33  C   UNL A   1      42.682  23.027  26.032  1.00  0.00     0.010 A 
ATOM     34  C   UNL A   1      42.339  22.390  28.344  1.00  0.00     0.010 A 
ATOM     35  C   UNL A   1      42.660  23.371  27.393  1.00  0.00    -0.014 A 
BRANCH  35  36
ATOM     36  C   UNL A   1      42.983  24.748  27.840  1.00  0.00     0.031 A 
ATOM     37  C   UNL A   1      44.415  25.165  28.033  1.00  0.00     0.074 A 
ATOM     38  C   UNL A   1      41.985  25.607  28.127  1.00  0.00     0.049 A 
ATOM     39  N   UNL A   1      44.893  26.303  28.471  1.00  0.00    -0.248 NA
ATOM     40  C   UNL A   1      45.444  24.163  27.716  1.00  0.00     0.031 C 
ATOM     41  C   UNL A   1      40.556  25.309  28.025  1.00  0.00     0.029 A 
ATOM     42  N   UNL A   1      42.023  26.904  28.572  1.00  0.00    -0.354 N 
ATOM     43  C   UNL A   1      46.273  26.146  28.496  1.00  0.00     0.074 A 
ATOM     44  C   UNL A   1      46.553  24.790  28.078  1.00  0.00     0.031 C 
ATOM     45  C   UNL A   1      39.854  26.399  28.374  1.00  0.00     0.029 A 
ATOM     46  C   UNL A   1      40.780  27.460  28.756  1.00  0.00     0.049 A 
ATOM     47  H   UNL A   1      42.862  27.391  28.743  1.00  0.00     0.167 HD
ATOM     48  C   UNL A   1      47.223  27.058  28.816  1.00  0.00     0.037 A 
ATOM     49  C   UNL A   1      40.429  28.687  29.185  1.00  0.00     0.037 A 
ATOM     50  C   UNL A   1      46.945  28.416  29.204  1.00  0.00     0.049 A 
ATOM     51  C   UNL A   1      41.502  29.681  29.529  1.00  0.00     0.074 A 
ATOM     52  C   UNL A   1      47.839  29.431  29.491  1.00  0.00     0.029 A 
ATOM     53  N   UNL A   1      45.673  28.946  29.358  1.00  0.00    -0.354 N 
ATOM     54  N   UNL A   1      42.804  29.540  29.488  1.00  0.00    -0.248 NA
ATOM     55  C   UNL A   1      41.055  31.009  29.973  1.00  0.00     0.031 C 
ATOM     56  C   UNL A   1      47.109  30.568  29.854  1.00  0.00     0.029 A 
ATOM     57  C   UNL A   1      45.759  30.272  29.753  1.00  0.00     0.049 A 
ATOM     58  H   UNL A   1      44.833  28.455  29.209  1.00  0.00     0.167 HD
ATOM     59  C   UNL A   1      43.333  30.766  29.872  1.00  0.00     0.074 A 
ATOM     60  C   UNL A   1      42.209  31.642  30.131  1.00  0.00     0.031 C 
ATOM     61  C   UNL A   1      44.631  31.132  29.998  1.00  0.00     0.037 A 
BRANCH  48  62
ATOM     62  C   UNL A   1      48.655  26.613  28.754  1.00  0.00     0.057 A 
ATOM     63  C   UNL A   1      49.309  26.074  29.868  1.00  0.00     0.134 A 
ATOM     64  C   UNL A   1      49.379  26.697  27.558  1.00  0.00     0.134 A 
ATOM     65  F   UNL A   1      48.677  25.977  31.047  1.00  0.00    -0.206 F 
ATOM     66  C   UNL A   1      50.641  25.660  29.804  1.00  0.00     0.040 A 
ATOM     67  C   UNL A   1      50.702  26.261  27.474  1.00  0.00     0.040 A 
ATOM     68  F   UNL A   1      48.811  27.198  26.450  1.00  0.00    -0.206 F 
ATOM     69  C   UNL A   1      51.340  25.747  28.601  1.00  0.00     0.006 A 
ENDBRANCH  48  62
BRANCH  49  70
ATOM     70  C   UNL A   1      38.995  29.055  29.284  1.00  0.00     0.057 A 
ATOM     71  C   UNL A   1      38.304  28.938  30.495  1.00  0.00     0.134 A 
ATOM     72  C   UNL A   1      38.280  29.525  28.176  1.00  0.00     0.134 A 
ATOM     73  F   UNL A   1      38.932  28.477  31.587  1.00  0.00    -0.206 F 
ATOM     74  C   UNL A   1      36.950  29.258  30.599  1.00  0.00     0.040 A 
ATOM     75  C   UNL A   1      36.931  29.869  28.270  1.00  0.00     0.040 A 
ATOM     76  F   UNL A   1      38.887  29.667  26.989  1.00  0.00    -0.206 F 
ATOM     77  C   UNL A   1      36.261  29.728  29.484  1.00  0.00     0.006 A 
ENDBRANCH  49  70
BRANCH  61  78
ATOM     78  C   UNL A   1      44.905  32.552  30.400  1.00  0.00     0.057 A 
ATOM     79  C   UNL A   1      44.959  33.588  29.459  1.00  0.00     0.134 A 
ATOM     80  C   UNL A   1      45.083  32.888  31.748  1.00  0.00     0.134 A 
ATOM     81  F   UNL A   1      44.810  33.329  28.152  1.00  0.00    -0.206 F 
ATOM     82  C   UNL A   1      45.203  34.907  29.844  1.00  0.00     0.040 A 
ATOM     83  C   UNL A   1      45.303  34.207  32.147  1.00  0.00     0.040 A 
ATOM     84  F   UNL A   1      45.035  31.943  32.698  1.00  0.00    -0.206 F 
ATOM     85  C   UNL A   1      45.369  35.220  31.192  1.00  0.00     0.006 A 
ENDBRANCH  61  78
ENDBRANCH  35  36
ENDBRANCH  27  30
ENDBRANCH  25  26
ENDBRANCH  24  25
ENDBRANCH  23  24
ENDBRANCH   1  23
TORSDOF 16
ENDMDL
