MODEL 1
REMARK VINA RESULT:     -11.5      0.000      0.000
REMARK SMILES CN(Cc1ncc(C(=O)NCCCCCCNC(=O)c2ccc(-c3c4nc(c(-c5c(F)cccc5F)c5ccc([nH]5)c(-c5c(F)cccc5F)c5nc(c(-c6c(F)cccc6F)c6ccc3[nH]6)C=C5)C=C4)cc2)cn1)S(=O)(=O)c1ccc(Cl)cc1
REMARK SMILES IDX 12 1 11 2 10 3 8 4 9 5 7 7 4 8 5 9 75 10 6 11 74 12 3 13
REMARK SMILES IDX 2 14 1 15 76 16 77 17 78 18 79 19 80 20 85 21 81 22 84 23
REMARK SMILES IDX 82 24 83 25 13 26 14 27 15 28 16 29 17 30 18 31 19 33 20 34
REMARK SMILES IDX 21 35 73 36 22 37 72 38 23 39 24 40 25 41 66 42 26 43 71 44
REMARK SMILES IDX 65 45 67 46 27 47 70 48 64 49 63 50 28 52 54 53 37 54 53 55
REMARK SMILES IDX 38 56 41 57 52 58 68 59 39 60 40 61 51 63 69 64 42 65 29 66
REMARK SMILES IDX 30 67 35 68 31 69 32 70 34 71 36 72 33 73 55 74 56 75 61 76
REMARK SMILES IDX 57 77 58 78 60 79 62 80 59 81 43 82 44 83 49 84 45 85 46 86
REMARK SMILES IDX 48 87 50 88 47 89
REMARK H PARENT 10 6 17 32 67 51 41 62
REMARK Flexibility Score: inf
ROOT
ATOM      1  C   UNL A   1      31.940  28.406  25.870  1.00  0.00     0.021 C 
ENDROOT
BRANCH   1   2
ATOM      2  C   UNL A   1      32.493  29.205  24.689  1.00  0.00     0.116 C 
BRANCH   2   3
ATOM      3  N   UNL A   1      31.493  29.317  23.638  1.00  0.00    -0.352 N 
ATOM      4  C   UNL A   1      31.135  28.441  22.647  1.00  0.00     0.254 C 
ATOM      5  O   UNL A   1      30.189  28.712  21.911  1.00  0.00    -0.269 OA
ATOM      6  H   UNL A   1      30.989  30.163  23.640  1.00  0.00     0.163 HD
BRANCH   4   7
ATOM      7  C   UNL A   1      31.808  27.151  22.486  1.00  0.00     0.076 A 
ATOM      8  C   UNL A   1      33.013  24.728  22.429  1.00  0.00     0.143 A 
ATOM      9  N   UNL A   1      33.707  25.780  21.943  1.00  0.00    -0.239 NA
ATOM     10  N   UNL A   1      31.724  24.777  22.832  1.00  0.00    -0.239 NA
ATOM     11  C   UNL A   1      33.075  26.974  21.979  1.00  0.00     0.128 A 
ATOM     12  C   UNL A   1      31.149  25.999  22.846  1.00  0.00     0.128 A 
BRANCH   8  13
ATOM     13  C   UNL A   1      33.765  23.433  22.658  1.00  0.00     0.179 C 
BRANCH  13  14
ATOM     14  N   UNL A   1      34.715  23.393  23.824  1.00  0.00    -0.193 NA
ATOM     15  C   UNL A   1      36.071  22.945  23.416  1.00  0.00     0.125 C 
BRANCH  14  16
ATOM     16  S   UNL A   1      34.176  22.596  25.236  1.00  0.00     0.243 S 
ATOM     17  O   UNL A   1      35.208  22.690  26.243  1.00  0.00    -0.207 OA
ATOM     18  O   UNL A   1      32.833  23.074  25.516  1.00  0.00    -0.207 OA
BRANCH  16  19
ATOM     19  C   UNL A   1      33.997  20.891  24.773  1.00  0.00     0.082 A 
ATOM     20  C   UNL A   1      35.062  20.000  24.945  1.00  0.00     0.023 A 
ATOM     21  C   UNL A   1      32.790  20.464  24.210  1.00  0.00     0.023 A 
ATOM     22  C   UNL A   1      34.907  18.666  24.564  1.00  0.00     0.022 A 
ATOM     23  C   UNL A   1      32.649  19.133  23.813  1.00  0.00     0.022 A 
ATOM     24  C   UNL A   1      33.704  18.240  23.996  1.00  0.00     0.041 A 
ATOM     25  Cl  UNL A   1      33.527  16.599  23.509  1.00  0.00    -0.084 Cl
ENDBRANCH  16  19
ENDBRANCH  14  16
ENDBRANCH  13  14
ENDBRANCH   8  13
ENDBRANCH   4   7
ENDBRANCH   2   3
ENDBRANCH   1   2
BRANCH   1  26
ATOM     26  C   UNL A   1      31.805  29.225  27.161  1.00  0.00     0.002 C 
BRANCH  26  27
ATOM     27  C   UNL A   1      32.731  30.443  27.259  1.00  0.00     0.002 C 
BRANCH  27  28
ATOM     28  C   UNL A   1      32.027  31.803  27.269  1.00  0.00     0.021 C 
BRANCH  28  29
ATOM     29  C   UNL A   1      32.903  32.985  26.857  1.00  0.00     0.116 C 
BRANCH  29  30
ATOM     30  N   UNL A   1      32.623  34.177  27.639  1.00  0.00    -0.352 N 
ATOM     31  C   UNL A   1      33.194  34.608  28.808  1.00  0.00     0.251 C 
ATOM     32  H   UNL A   1      31.918  34.761  27.275  1.00  0.00     0.163 HD
ATOM     33  O   UNL A   1      32.703  35.554  29.418  1.00  0.00    -0.269 OA
BRANCH  31  34
ATOM     34  C   UNL A   1      34.392  33.931  29.352  1.00  0.00     0.039 A 
ATOM     35  C   UNL A   1      34.221  32.958  30.340  1.00  0.00     0.014 A 
ATOM     36  C   UNL A   1      35.679  34.278  28.927  1.00  0.00     0.014 A 
ATOM     37  C   UNL A   1      35.334  32.300  30.869  1.00  0.00     0.010 A 
ATOM     38  C   UNL A   1      36.784  33.582  29.414  1.00  0.00     0.010 A 
ATOM     39  C   UNL A   1      36.622  32.591  30.394  1.00  0.00    -0.014 A 
BRANCH  39  40
ATOM     40  C   UNL A   1      37.807  31.870  30.922  1.00  0.00     0.031 A 
ATOM     41  C   UNL A   1      38.352  32.193  32.285  1.00  0.00     0.074 A 
ATOM     42  C   UNL A   1      38.423  30.953  30.152  1.00  0.00     0.049 A 
ATOM     43  N   UNL A   1      39.391  31.688  32.901  1.00  0.00    -0.248 NA
ATOM     44  C   UNL A   1      37.651  33.239  33.046  1.00  0.00     0.031 C 
ATOM     45  C   UNL A   1      38.025  30.586  28.791  1.00  0.00     0.029 A 
ATOM     46  N   UNL A   1      39.518  30.166  30.402  1.00  0.00    -0.354 N 
ATOM     47  C   UNL A   1      39.478  32.363  34.112  1.00  0.00     0.074 A 
ATOM     48  C   UNL A   1      38.412  33.343  34.126  1.00  0.00     0.031 C 
ATOM     49  C   UNL A   1      38.852  29.631  28.335  1.00  0.00     0.029 A 
ATOM     50  C   UNL A   1      39.849  29.335  29.361  1.00  0.00     0.049 A 
ATOM     51  H   UNL A   1      40.020  30.195  31.249  1.00  0.00     0.167 HD
ATOM     52  C   UNL A   1      40.353  32.172  35.127  1.00  0.00     0.037 A 
ATOM     53  C   UNL A   1      40.840  28.433  29.246  1.00  0.00     0.037 A 
ATOM     54  C   UNL A   1      41.393  31.176  35.128  1.00  0.00     0.049 A 
ATOM     55  C   UNL A   1      41.776  28.214  30.400  1.00  0.00     0.074 A 
ATOM     56  C   UNL A   1      42.288  30.863  36.136  1.00  0.00     0.029 A 
ATOM     57  N   UNL A   1      41.675  30.331  34.066  1.00  0.00    -0.354 N 
ATOM     58  N   UNL A   1      41.805  28.814  31.565  1.00  0.00    -0.248 NA
ATOM     59  C   UNL A   1      42.811  27.185  30.226  1.00  0.00     0.031 C 
ATOM     60  C   UNL A   1      43.131  29.847  35.674  1.00  0.00     0.029 A 
ATOM     61  C   UNL A   1      42.738  29.504  34.390  1.00  0.00     0.049 A 
ATOM     62  H   UNL A   1      41.191  30.320  33.209  1.00  0.00     0.167 HD
ATOM     63  C   UNL A   1      42.844  28.222  32.271  1.00  0.00     0.074 A 
ATOM     64  C   UNL A   1      43.411  27.206  31.408  1.00  0.00     0.031 C 
ATOM     65  C   UNL A   1      43.289  28.496  33.521  1.00  0.00     0.037 A 
BRANCH  52  66
ATOM     66  C   UNL A   1      40.214  33.056  36.330  1.00  0.00     0.057 A 
ATOM     67  C   UNL A   1      39.309  32.764  37.360  1.00  0.00     0.134 A 
ATOM     68  C   UNL A   1      41.011  34.199  36.475  1.00  0.00     0.134 A 
ATOM     69  F   UNL A   1      38.508  31.692  37.274  1.00  0.00    -0.206 F 
ATOM     70  C   UNL A   1      39.185  33.590  38.478  1.00  0.00     0.040 A 
ATOM     71  C   UNL A   1      40.911  35.019  37.600  1.00  0.00     0.040 A 
ATOM     72  F   UNL A   1      41.901  34.533  35.528  1.00  0.00    -0.206 F 
ATOM     73  C   UNL A   1      39.992  34.719  38.602  1.00  0.00     0.006 A 
ENDBRANCH  52  66
BRANCH  53  74
ATOM     74  C   UNL A   1      40.974  27.638  28.002  1.00  0.00     0.057 A 
ATOM     75  C   UNL A   1      41.733  28.111  26.925  1.00  0.00     0.134 A 
ATOM     76  C   UNL A   1      40.354  26.392  27.859  1.00  0.00     0.134 A 
ATOM     77  F   UNL A   1      42.336  29.307  26.998  1.00  0.00    -0.206 F 
ATOM     78  C   UNL A   1      41.859  27.380  25.743  1.00  0.00     0.040 A 
ATOM     79  C   UNL A   1      40.488  25.640  26.691  1.00  0.00     0.040 A 
ATOM     80  F   UNL A   1      39.620  25.882  28.859  1.00  0.00    -0.206 F 
ATOM     81  C   UNL A   1      41.238  26.138  25.626  1.00  0.00     0.006 A 
ENDBRANCH  53  74
BRANCH  65  82
ATOM     82  C   UNL A   1      44.428  27.668  34.035  1.00  0.00     0.057 A 
ATOM     83  C   UNL A   1      45.758  28.092  33.915  1.00  0.00     0.134 A 
ATOM     84  C   UNL A   1      44.191  26.445  34.673  1.00  0.00     0.134 A 
ATOM     85  F   UNL A   1      46.051  29.249  33.302  1.00  0.00    -0.206 F 
ATOM     86  C   UNL A   1      46.814  27.315  34.393  1.00  0.00     0.040 A 
ATOM     87  C   UNL A   1      45.237  25.669  35.173  1.00  0.00     0.040 A 
ATOM     88  F   UNL A   1      42.939  25.987  34.823  1.00  0.00    -0.206 F 
ATOM     89  C   UNL A   1      46.554  26.102  35.028  1.00  0.00     0.006 A 
ENDBRANCH  65  82
ENDBRANCH  39  40
ENDBRANCH  31  34
ENDBRANCH  29  30
ENDBRANCH  28  29
ENDBRANCH  27  28
ENDBRANCH  26  27
ENDBRANCH   1  26
TORSDOF 17
ENDMDL
MODEL 2
REMARK VINA RESULT:     -11.4      4.271      9.589
REMARK SMILES CN(Cc1ncc(C(=O)NCCCCCCNC(=O)c2ccc(-c3c4nc(c(-c5c(F)cccc5F)c5ccc([nH]5)c(-c5c(F)cccc5F)c5nc(c(-c6c(F)cccc6F)c6ccc3[nH]6)C=C5)C=C4)cc2)cn1)S(=O)(=O)c1ccc(Cl)cc1
REMARK SMILES IDX 12 1 11 2 10 3 8 4 9 5 7 7 4 8 5 9 75 10 6 11 74 12 3 13
REMARK SMILES IDX 2 14 1 15 76 16 77 17 78 18 79 19 80 20 85 21 81 22 84 23
REMARK SMILES IDX 82 24 83 25 13 26 14 27 15 28 16 29 17 30 18 31 19 33 20 34
REMARK SMILES IDX 21 35 73 36 22 37 72 38 23 39 24 40 25 41 66 42 26 43 71 44
REMARK SMILES IDX 65 45 67 46 27 47 70 48 64 49 63 50 28 52 54 53 37 54 53 55
REMARK SMILES IDX 38 56 41 57 52 58 68 59 39 60 40 61 51 63 69 64 42 65 29 66
REMARK SMILES IDX 30 67 35 68 31 69 32 70 34 71 36 72 33 73 55 74 56 75 61 76
REMARK SMILES IDX 57 77 58 78 60 79 62 80 59 81 43 82 44 83 49 84 45 85 46 86
REMARK SMILES IDX 48 87 50 88 47 89
REMARK H PARENT 10 6 17 32 67 51 41 62
REMARK Flexibility Score: inf
ROOT
ATOM      1  C   UNL A   1      35.988  22.020  24.944  1.00  0.00     0.021 C 
ENDROOT
BRANCH   1   2
ATOM      2  C   UNL A   1      35.131  21.700  26.169  1.00  0.00     0.116 C 
BRANCH   2   3
ATOM      3  N   UNL A   1      34.061  20.781  25.815  1.00  0.00    -0.352 N 
ATOM      4  C   UNL A   1      32.720  20.999  25.630  1.00  0.00     0.254 C 
ATOM      5  O   UNL A   1      32.004  20.078  25.244  1.00  0.00    -0.269 OA
ATOM      6  H   UNL A   1      34.346  19.848  25.688  1.00  0.00     0.163 HD
BRANCH   4   7
ATOM      7  C   UNL A   1      32.128  22.325  25.811  1.00  0.00     0.076 A 
ATOM      8  C   UNL A   1      31.238  24.871  26.045  1.00  0.00     0.143 A 
ATOM      9  N   UNL A   1      31.239  24.107  27.159  1.00  0.00    -0.239 NA
ATOM     10  N   UNL A   1      31.537  24.423  24.806  1.00  0.00    -0.239 NA
ATOM     11  C   UNL A   1      31.682  22.839  27.007  1.00  0.00     0.128 A 
ATOM     12  C   UNL A   1      31.975  23.149  24.720  1.00  0.00     0.128 A 
BRANCH   8  13
ATOM     13  C   UNL A   1      31.008  26.359  26.212  1.00  0.00     0.179 C 
BRANCH  13  14
ATOM     14  N   UNL A   1      32.215  27.206  26.511  1.00  0.00    -0.193 NA
ATOM     15  C   UNL A   1      31.974  28.127  27.651  1.00  0.00     0.125 C 
BRANCH  14  16
ATOM     16  S   UNL A   1      32.951  28.001  25.190  1.00  0.00     0.243 S 
ATOM     17  O   UNL A   1      33.660  29.159  25.683  1.00  0.00    -0.207 OA
ATOM     18  O   UNL A   1      33.649  26.992  24.412  1.00  0.00    -0.207 OA
BRANCH  16  19
ATOM     19  C   UNL A   1      31.608  28.558  24.170  1.00  0.00     0.082 A 
ATOM     20  C   UNL A   1      30.900  29.715  24.509  1.00  0.00     0.023 A 
ATOM     21  C   UNL A   1      31.255  27.807  23.044  1.00  0.00     0.023 A 
ATOM     22  C   UNL A   1      29.839  30.131  23.702  1.00  0.00     0.022 A 
ATOM     23  C   UNL A   1      30.181  28.217  22.253  1.00  0.00     0.022 A 
ATOM     24  C   UNL A   1      29.481  29.379  22.582  1.00  0.00     0.041 A 
ATOM     25  Cl  UNL A   1      28.160  29.884  21.603  1.00  0.00    -0.084 Cl
ENDBRANCH  16  19
ENDBRANCH  14  16
ENDBRANCH  13  14
ENDBRANCH   8  13
ENDBRANCH   4   7
ENDBRANCH   2   3
ENDBRANCH   1   2
BRANCH   1  26
ATOM     26  C   UNL A   1      37.363  21.337  24.955  1.00  0.00     0.002 C 
BRANCH  26  27
ATOM     27  C   UNL A   1      37.349  19.843  24.614  1.00  0.00     0.002 C 
BRANCH  27  28
ATOM     28  C   UNL A   1      38.466  19.013  25.255  1.00  0.00     0.021 C 
BRANCH  28  29
ATOM     29  C   UNL A   1      39.589  19.829  25.893  1.00  0.00     0.116 C 
BRANCH  29  30
ATOM     30  N   UNL A   1      40.860  19.124  25.874  1.00  0.00    -0.352 N 
ATOM     31  C   UNL A   1      42.126  19.601  26.094  1.00  0.00     0.251 C 
ATOM     32  H   UNL A   1      40.802  18.161  25.675  1.00  0.00     0.163 HD
ATOM     33  O   UNL A   1      43.098  18.888  25.861  1.00  0.00    -0.269 OA
BRANCH  31  34
ATOM     34  C   UNL A   1      42.333  20.978  26.595  1.00  0.00     0.039 A 
ATOM     35  C   UNL A   1      42.172  21.224  27.961  1.00  0.00     0.014 A 
ATOM     36  C   UNL A   1      42.642  22.029  25.725  1.00  0.00     0.014 A 
ATOM     37  C   UNL A   1      42.365  22.514  28.463  1.00  0.00     0.010 A 
ATOM     38  C   UNL A   1      42.889  23.303  26.234  1.00  0.00     0.010 A 
ATOM     39  C   UNL A   1      42.747  23.558  27.607  1.00  0.00    -0.014 A 
BRANCH  39  40
ATOM     40  C   UNL A   1      42.992  24.923  28.137  1.00  0.00     0.031 A 
ATOM     41  C   UNL A   1      44.376  25.348  28.538  1.00  0.00     0.074 A 
ATOM     42  C   UNL A   1      41.955  25.767  28.301  1.00  0.00     0.049 A 
ATOM     43  N   UNL A   1      44.778  26.486  29.045  1.00  0.00    -0.248 NA
ATOM     44  C   UNL A   1      45.447  24.353  28.372  1.00  0.00     0.031 C 
ATOM     45  C   UNL A   1      40.556  25.457  27.999  1.00  0.00     0.029 A 
ATOM     46  N   UNL A   1      41.918  27.056  28.767  1.00  0.00    -0.354 N 
ATOM     47  C   UNL A   1      46.140  26.341  29.271  1.00  0.00     0.074 A 
ATOM     48  C   UNL A   1      46.490  24.989  28.887  1.00  0.00     0.031 C 
ATOM     49  C   UNL A   1      39.801  26.535  28.268  1.00  0.00     0.029 A 
ATOM     50  C   UNL A   1      40.658  27.600  28.781  1.00  0.00     0.049 A 
ATOM     51  H   UNL A   1      42.720  27.545  29.063  1.00  0.00     0.167 HD
ATOM     52  C   UNL A   1      47.023  27.255  29.738  1.00  0.00     0.037 A 
ATOM     53  C   UNL A   1      40.240  28.822  29.159  1.00  0.00     0.037 A 
ATOM     54  C   UNL A   1      46.683  28.608  30.090  1.00  0.00     0.049 A 
ATOM     55  C   UNL A   1      41.244  29.829  29.641  1.00  0.00     0.074 A 
ATOM     56  C   UNL A   1      47.520  29.628  30.512  1.00  0.00     0.029 A 
ATOM     57  N   UNL A   1      45.400  29.132  30.059  1.00  0.00    -0.354 N 
ATOM     58  N   UNL A   1      42.540  29.698  29.787  1.00  0.00    -0.248 NA
ATOM     59  C   UNL A   1      40.728  31.158  30.000  1.00  0.00     0.031 C 
ATOM     60  C   UNL A   1      46.738  30.760  30.763  1.00  0.00     0.029 A 
ATOM     61  C   UNL A   1      45.420  30.456  30.466  1.00  0.00     0.049 A 
ATOM     62  H   UNL A   1      44.594  28.636  29.789  1.00  0.00     0.167 HD
ATOM     63  C   UNL A   1      42.999  30.931  30.233  1.00  0.00     0.074 A 
ATOM     64  C   UNL A   1      41.843  31.801  30.320  1.00  0.00     0.031 C 
ATOM     65  C   UNL A   1      44.262  31.309  30.544  1.00  0.00     0.037 A 
BRANCH  52  66
ATOM     66  C   UNL A   1      48.451  26.818  29.886  1.00  0.00     0.057 A 
ATOM     67  C   UNL A   1      48.910  26.184  31.048  1.00  0.00     0.134 A 
ATOM     68  C   UNL A   1      49.370  27.010  28.846  1.00  0.00     0.134 A 
ATOM     69  F   UNL A   1      48.082  25.983  32.084  1.00  0.00    -0.206 F 
ATOM     70  C   UNL A   1      50.239  25.778  31.181  1.00  0.00     0.040 A 
ATOM     71  C   UNL A   1      50.696  26.588  28.959  1.00  0.00     0.040 A 
ATOM     72  F   UNL A   1      48.993  27.607  27.705  1.00  0.00    -0.206 F 
ATOM     73  C   UNL A   1      51.135  25.976  30.131  1.00  0.00     0.006 A 
ENDBRANCH  52  66
BRANCH  53  74
ATOM     74  C   UNL A   1      38.803  29.174  29.061  1.00  0.00     0.057 A 
ATOM     75  C   UNL A   1      37.967  29.098  30.181  1.00  0.00     0.134 A 
ATOM     76  C   UNL A   1      38.233  29.594  27.855  1.00  0.00     0.134 A 
ATOM     77  F   UNL A   1      38.453  28.685  31.360  1.00  0.00    -0.206 F 
ATOM     78  C   UNL A   1      36.610  29.414  30.101  1.00  0.00     0.040 A 
ATOM     79  C   UNL A   1      36.882  29.932  27.765  1.00  0.00     0.040 A 
ATOM     80  F   UNL A   1      38.986  29.693  26.749  1.00  0.00    -0.206 F 
ATOM     81  C   UNL A   1      36.066  29.837  28.890  1.00  0.00     0.006 A 
ENDBRANCH  53  74
BRANCH  65  82
ATOM     82  C   UNL A   1      44.460  32.729  30.983  1.00  0.00     0.057 A 
ATOM     83  C   UNL A   1      44.433  33.091  32.335  1.00  0.00     0.134 A 
ATOM     84  C   UNL A   1      44.699  33.739  30.044  1.00  0.00     0.134 A 
ATOM     85  F   UNL A   1      44.195  32.170  33.282  1.00  0.00    -0.206 F 
ATOM     86  C   UNL A   1      44.615  34.415  32.737  1.00  0.00     0.040 A 
ATOM     87  C   UNL A   1      44.903  35.063  30.434  1.00  0.00     0.040 A 
ATOM     88  F   UNL A   1      44.742  33.455  28.733  1.00  0.00    -0.206 F 
ATOM     89  C   UNL A   1      44.855  35.404  31.785  1.00  0.00     0.006 A 
ENDBRANCH  65  82
ENDBRANCH  39  40
ENDBRANCH  31  34
ENDBRANCH  29  30
ENDBRANCH  28  29
ENDBRANCH  27  28
ENDBRANCH  26  27
ENDBRANCH   1  26
TORSDOF 17
ENDMDL
MODEL 3
REMARK VINA RESULT:     -11.4      1.466      2.060
REMARK SMILES CN(Cc1ncc(C(=O)NCCCCCCNC(=O)c2ccc(-c3c4nc(c(-c5c(F)cccc5F)c5ccc([nH]5)c(-c5c(F)cccc5F)c5nc(c(-c6c(F)cccc6F)c6ccc3[nH]6)C=C5)C=C4)cc2)cn1)S(=O)(=O)c1ccc(Cl)cc1
REMARK SMILES IDX 12 1 11 2 10 3 8 4 9 5 7 7 4 8 5 9 75 10 6 11 74 12 3 13
REMARK SMILES IDX 2 14 1 15 76 16 77 17 78 18 79 19 80 20 85 21 81 22 84 23
REMARK SMILES IDX 82 24 83 25 13 26 14 27 15 28 16 29 17 30 18 31 19 33 20 34
REMARK SMILES IDX 21 35 73 36 22 37 72 38 23 39 24 40 25 41 66 42 26 43 71 44
REMARK SMILES IDX 65 45 67 46 27 47 70 48 64 49 63 50 28 52 54 53 37 54 53 55
REMARK SMILES IDX 38 56 41 57 52 58 68 59 39 60 40 61 51 63 69 64 42 65 29 66
REMARK SMILES IDX 30 67 35 68 31 69 32 70 34 71 36 72 33 73 55 74 56 75 61 76
REMARK SMILES IDX 57 77 58 78 60 79 62 80 59 81 43 82 44 83 49 84 45 85 46 86
REMARK SMILES IDX 48 87 50 88 47 89
REMARK H PARENT 10 6 17 32 67 51 41 62
REMARK Flexibility Score: inf
ROOT
ATOM      1  C   UNL A   1      31.878  28.321  26.025  1.00  0.00     0.021 C 
ENDROOT
BRANCH   1   2
ATOM      2  C   UNL A   1      32.519  28.987  24.807  1.00  0.00     0.116 C 
BRANCH   2   3
ATOM      3  N   UNL A   1      31.551  29.118  23.730  1.00  0.00    -0.352 N 
ATOM      4  C   UNL A   1      31.241  28.270  22.698  1.00  0.00     0.254 C 
ATOM      5  O   UNL A   1      30.314  28.549  21.942  1.00  0.00    -0.269 OA
ATOM      6  H   UNL A   1      31.031  29.954  23.744  1.00  0.00     0.163 HD
BRANCH   4   7
ATOM      7  C   UNL A   1      31.943  26.999  22.515  1.00  0.00     0.076 A 
ATOM      8  C   UNL A   1      33.192  24.599  22.415  1.00  0.00     0.143 A 
ATOM      9  N   UNL A   1      33.886  25.681  22.000  1.00  0.00    -0.239 NA
ATOM     10  N   UNL A   1      31.887  24.612  22.765  1.00  0.00    -0.239 NA
ATOM     11  C   UNL A   1      33.233  26.862  22.056  1.00  0.00     0.128 A 
ATOM     12  C   UNL A   1      31.290  25.822  22.802  1.00  0.00     0.128 A 
BRANCH   8  13
ATOM     13  C   UNL A   1      33.957  23.309  22.624  1.00  0.00     0.179 C 
BRANCH  13  14
ATOM     14  N   UNL A   1      35.037  23.318  23.670  1.00  0.00    -0.193 NA
ATOM     15  C   UNL A   1      36.367  22.991  23.094  1.00  0.00     0.125 C 
BRANCH  14  16
ATOM     16  S   UNL A   1      34.732  22.447  25.108  1.00  0.00     0.243 S 
ATOM     17  O   UNL A   1      34.664  21.039  24.792  1.00  0.00    -0.207 OA
ATOM     18  O   UNL A   1      35.666  22.928  26.112  1.00  0.00    -0.207 OA
BRANCH  16  19
ATOM     19  C   UNL A   1      33.125  22.979  25.646  1.00  0.00     0.082 A 
ATOM     20  C   UNL A   1      32.026  22.121  25.534  1.00  0.00     0.023 A 
ATOM     21  C   UNL A   1      32.974  24.273  26.154  1.00  0.00     0.023 A 
ATOM     22  C   UNL A   1      30.768  22.561  25.951  1.00  0.00     0.022 A 
ATOM     23  C   UNL A   1      31.710  24.713  26.551  1.00  0.00     0.022 A 
ATOM     24  C   UNL A   1      30.615  23.854  26.453  1.00  0.00     0.041 A 
ATOM     25  Cl  UNL A   1      29.058  24.398  26.945  1.00  0.00    -0.084 Cl
ENDBRANCH  16  19
ENDBRANCH  14  16
ENDBRANCH  13  14
ENDBRANCH   8  13
ENDBRANCH   4   7
ENDBRANCH   2   3
ENDBRANCH   1   2
BRANCH   1  26
ATOM     26  C   UNL A   1      31.801  29.232  27.259  1.00  0.00     0.002 C 
BRANCH  26  27
ATOM     27  C   UNL A   1      32.709  30.465  27.214  1.00  0.00     0.002 C 
BRANCH  27  28
ATOM     28  C   UNL A   1      31.986  31.815  27.267  1.00  0.00     0.021 C 
BRANCH  28  29
ATOM     29  C   UNL A   1      32.820  33.011  26.814  1.00  0.00     0.116 C 
BRANCH  29  30
ATOM     30  N   UNL A   1      32.587  34.187  27.635  1.00  0.00    -0.352 N 
ATOM     31  C   UNL A   1      33.187  34.565  28.808  1.00  0.00     0.251 C 
ATOM     32  H   UNL A   1      31.897  34.803  27.299  1.00  0.00     0.163 HD
ATOM     33  O   UNL A   1      32.734  35.506  29.453  1.00  0.00    -0.269 OA
BRANCH  31  34
ATOM     34  C   UNL A   1      34.372  33.836  29.315  1.00  0.00     0.039 A 
ATOM     35  C   UNL A   1      35.641  34.255  28.906  1.00  0.00     0.014 A 
ATOM     36  C   UNL A   1      34.237  32.723  30.151  1.00  0.00     0.014 A 
ATOM     37  C   UNL A   1      36.777  33.588  29.371  1.00  0.00     0.010 A 
ATOM     38  C   UNL A   1      35.372  32.094  30.660  1.00  0.00     0.010 A 
ATOM     39  C   UNL A   1      36.652  32.517  30.269  1.00  0.00    -0.014 A 
BRANCH  39  40
ATOM     40  C   UNL A   1      37.855  31.827  30.799  1.00  0.00     0.031 A 
ATOM     41  C   UNL A   1      38.420  32.201  32.141  1.00  0.00     0.074 A 
ATOM     42  C   UNL A   1      38.468  30.892  30.048  1.00  0.00     0.049 A 
ATOM     43  N   UNL A   1      39.475  31.729  32.754  1.00  0.00    -0.248 NA
ATOM     44  C   UNL A   1      37.720  33.264  32.879  1.00  0.00     0.031 C 
ATOM     45  C   UNL A   1      38.051  30.476  28.708  1.00  0.00     0.029 A 
ATOM     46  N   UNL A   1      39.577  30.127  30.305  1.00  0.00    -0.354 N 
ATOM     47  C   UNL A   1      39.575  32.445  33.940  1.00  0.00     0.074 A 
ATOM     48  C   UNL A   1      38.499  33.413  33.941  1.00  0.00     0.031 C 
ATOM     49  C   UNL A   1      38.881  29.516  28.269  1.00  0.00     0.029 A 
ATOM     50  C   UNL A   1      39.900  29.265  29.286  1.00  0.00     0.049 A 
ATOM     51  H   UNL A   1      40.093  30.189  31.141  1.00  0.00     0.167 HD
ATOM     52  C   UNL A   1      40.470  32.297  34.946  1.00  0.00     0.037 A 
ATOM     53  C   UNL A   1      40.899  28.371  29.183  1.00  0.00     0.037 A 
ATOM     54  C   UNL A   1      41.522  31.315  34.960  1.00  0.00     0.049 A 
ATOM     55  C   UNL A   1      41.859  28.202  30.326  1.00  0.00     0.074 A 
ATOM     56  C   UNL A   1      42.439  31.046  35.962  1.00  0.00     0.029 A 
ATOM     57  N   UNL A   1      41.795  30.438  33.922  1.00  0.00    -0.354 N 
ATOM     58  N   UNL A   1      41.900  28.841  31.470  1.00  0.00    -0.248 NA
ATOM     59  C   UNL A   1      42.903  27.180  30.168  1.00  0.00     0.031 C 
ATOM     60  C   UNL A   1      43.285  30.024  35.519  1.00  0.00     0.029 A 
ATOM     61  C   UNL A   1      42.874  29.635  34.254  1.00  0.00     0.049 A 
ATOM     62  H   UNL A   1      41.297  30.393  33.074  1.00  0.00     0.167 HD
ATOM     63  C   UNL A   1      42.959  28.285  32.177  1.00  0.00     0.074 A 
ATOM     64  C   UNL A   1      43.523  27.247  31.338  1.00  0.00     0.031 C 
ATOM     65  C   UNL A   1      43.422  28.605  33.409  1.00  0.00     0.037 A 
BRANCH  52  66
ATOM     66  C   UNL A   1      40.342  33.220  36.121  1.00  0.00     0.057 A 
ATOM     67  C   UNL A   1      41.073  34.413  36.205  1.00  0.00     0.134 A 
ATOM     68  C   UNL A   1      39.459  32.927  37.169  1.00  0.00     0.134 A 
ATOM     69  F   UNL A   1      41.945  34.743  35.240  1.00  0.00    -0.206 F 
ATOM     70  C   UNL A   1      40.949  35.269  37.300  1.00  0.00     0.040 A 
ATOM     71  C   UNL A   1      39.311  33.787  38.258  1.00  0.00     0.040 A 
ATOM     72  F   UNL A   1      38.727  31.803  37.148  1.00  0.00    -0.206 F 
ATOM     73  C   UNL A   1      40.061  34.958  38.329  1.00  0.00     0.006 A 
ENDBRANCH  52  66
BRANCH  53  74
ATOM     74  C   UNL A   1      41.022  27.537  27.964  1.00  0.00     0.057 A 
ATOM     75  C   UNL A   1      41.778  27.971  26.869  1.00  0.00     0.134 A 
ATOM     76  C   UNL A   1      40.392  26.292  27.863  1.00  0.00     0.134 A 
ATOM     77  F   UNL A   1      42.389  29.165  26.901  1.00  0.00    -0.206 F 
ATOM     78  C   UNL A   1      41.891  27.203  25.709  1.00  0.00     0.040 A 
ATOM     79  C   UNL A   1      40.514  25.503  26.718  1.00  0.00     0.040 A 
ATOM     80  F   UNL A   1      39.660  25.818  28.882  1.00  0.00    -0.206 F 
ATOM     81  C   UNL A   1      41.262  25.962  25.634  1.00  0.00     0.006 A 
ENDBRANCH  53  74
BRANCH  65  82
ATOM     82  C   UNL A   1      44.580  27.808  33.929  1.00  0.00     0.057 A 
ATOM     83  C   UNL A   1      45.904  28.229  33.748  1.00  0.00     0.134 A 
ATOM     84  C   UNL A   1      44.368  26.618  34.635  1.00  0.00     0.134 A 
ATOM     85  F   UNL A   1      46.173  29.354  33.069  1.00  0.00    -0.206 F 
ATOM     86  C   UNL A   1      46.977  27.481  34.232  1.00  0.00     0.040 A 
ATOM     87  C   UNL A   1      45.432  25.872  35.142  1.00  0.00     0.040 A 
ATOM     88  F   UNL A   1      43.123  26.163  34.846  1.00  0.00    -0.206 F 
ATOM     89  C   UNL A   1      46.743  26.300  34.936  1.00  0.00     0.006 A 
ENDBRANCH  65  82
ENDBRANCH  39  40
ENDBRANCH  31  34
ENDBRANCH  29  30
ENDBRANCH  28  29
ENDBRANCH  27  28
ENDBRANCH  26  27
ENDBRANCH   1  26
TORSDOF 17
ENDMDL
