MODEL 1
REMARK VINA RESULT:     -12.8      0.000      0.000
REMARK SMILES Cc1nn([C@H]2CCS(=O)(=O)C2)c(C)c1/C=C(\CC(=O)NCCCCCCNC(=O)c1ccc(-c2c3nc(c(-c4c(F)cccc4F)c4ccc([nH]4)c(-c4c(F)cccc4F)c4nc(c(-c5c(F)cccc5F)c5ccc2[nH]5)C=C4)C=C3)cc1)c1nc2ccccc2s1
REMARK SMILES IDX 23 1 22 2 21 3 20 4 18 5 19 6 17 8 16 9 15 10 14 11 1 12
REMARK SMILES IDX 2 13 3 14 4 15 12 16 13 17 5 18 6 19 11 20 7 21 8 22 9 23
REMARK SMILES IDX 10 24 84 25 85 26 92 27 86 28 91 29 87 30 90 31 88 32 89 33
REMARK SMILES IDX 24 34 25 35 26 36 27 37 28 38 29 40 30 41 31 42 83 43 32 44
REMARK SMILES IDX 82 45 33 46 34 47 35 48 76 49 36 50 81 51 75 52 77 53 37 54
REMARK SMILES IDX 80 55 74 56 73 57 38 59 64 60 47 61 63 62 48 63 51 64 62 65
REMARK SMILES IDX 78 66 49 67 50 68 61 70 79 71 52 72 39 73 40 74 45 75 41 76
REMARK SMILES IDX 42 77 44 78 46 79 43 80 65 81 66 82 71 83 67 84 68 85 70 86
REMARK SMILES IDX 72 87 69 88 53 89 54 90 59 91 55 92 56 93 58 94 60 95 57 96
REMARK H PARENT 20 7 27 39 77 58 51 69
REMARK Flexibility Score: inf
ROOT
ATOM      1  C   UNL A   1      38.228  21.858  25.836  1.00  0.00     0.002 C 
ENDROOT
BRANCH   1   2
ATOM      2  C   UNL A   1      37.710  23.299  25.813  1.00  0.00     0.021 C 
BRANCH   2   3
ATOM      3  C   UNL A   1      36.454  23.453  24.962  1.00  0.00     0.116 C 
BRANCH   3   4
ATOM      4  N   UNL A   1      35.278  23.287  25.791  1.00  0.00    -0.356 N 
ATOM      5  C   UNL A   1      33.974  23.400  25.401  1.00  0.00     0.224 C 
ATOM      6  O   UNL A   1      33.102  23.564  26.255  1.00  0.00    -0.275 OA
ATOM      7  H   UNL A   1      35.435  23.071  26.738  1.00  0.00     0.163 HD
BRANCH   5   8
ATOM      8  C   UNL A   1      33.631  23.097  23.951  1.00  0.00     0.138 C 
BRANCH   8   9
ATOM      9  C   UNL A   1      32.243  22.584  23.598  1.00  0.00    -0.002 C 
ATOM     10  C   UNL A   1      31.220  23.378  23.183  1.00  0.00     0.019 C 
BRANCH  10  11
ATOM     11  C   UNL A   1      31.206  24.817  23.138  1.00  0.00     0.019 A 
ATOM     12  C   UNL A   1      32.872  25.306  21.169  1.00  0.00     0.069 C 
ATOM     13  C   UNL A   1      31.834  25.653  22.175  1.00  0.00     0.067 A 
ATOM     14  N   UNL A   1      31.395  26.914  22.267  1.00  0.00    -0.177 NA
ATOM     15  N   UNL A   1      30.544  26.900  23.313  1.00  0.00    -0.265 N 
ATOM     16  C   UNL A   1      30.634  25.720  24.025  1.00  0.00     0.043 A 
ATOM     17  C   UNL A   1      30.187  25.560  25.436  1.00  0.00     0.067 C 
BRANCH  15  18
ATOM     18  C   UNL A   1      29.736  28.089  23.577  1.00  0.00     0.123 C 
ATOM     19  C   UNL A   1      30.566  29.396  23.672  1.00  0.00     0.044 C 
ATOM     20  C   UNL A   1      28.703  28.397  22.495  1.00  0.00     0.164 C 
ATOM     21  C   UNL A   1      29.585  30.561  23.747  1.00  0.00     0.139 C 
ATOM     22  S   UNL A   1      28.150  30.042  22.834  1.00  0.00     0.152 S 
ATOM     23  O   UNL A   1      27.030  29.957  23.738  1.00  0.00    -0.229 OA
ATOM     24  O   UNL A   1      28.088  30.771  21.578  1.00  0.00    -0.229 OA
ENDBRANCH  15  18
ENDBRANCH  10  11
BRANCH   9  25
ATOM     25  C   UNL A   1      32.008  21.174  23.734  1.00  0.00     0.121 A 
ATOM     26  N   UNL A   1      31.990  20.541  24.890  1.00  0.00    -0.236 NA
ATOM     27  S   UNL A   1      32.058  20.129  22.361  1.00  0.00    -0.114 S 
ATOM     28  C   UNL A   1      32.450  19.249  24.715  1.00  0.00     0.082 A 
ATOM     29  C   UNL A   1      32.585  18.844  23.387  1.00  0.00     0.055 A 
ATOM     30  C   UNL A   1      32.863  18.377  25.741  1.00  0.00     0.030 A 
ATOM     31  C   UNL A   1      33.128  17.596  23.043  1.00  0.00     0.021 A 
ATOM     32  C   UNL A   1      33.494  17.175  25.407  1.00  0.00     0.002 A 
ATOM     33  C   UNL A   1      33.629  16.794  24.074  1.00  0.00     0.002 A 
ENDBRANCH   9  25
ENDBRANCH   8   9
ENDBRANCH   5   8
ENDBRANCH   3   4
ENDBRANCH   2   3
ENDBRANCH   1   2
BRANCH   1  34
ATOM     34  C   UNL A   1      39.643  21.699  26.410  1.00  0.00     0.002 C 
BRANCH  34  35
ATOM     35  C   UNL A   1      40.365  20.397  26.036  1.00  0.00     0.021 C 
BRANCH  35  36
ATOM     36  C   UNL A   1      41.574  20.112  26.911  1.00  0.00     0.116 C 
BRANCH  36  37
ATOM     37  N   UNL A   1      42.766  19.824  26.112  1.00  0.00    -0.352 N 
ATOM     38  C   UNL A   1      43.586  20.706  25.442  1.00  0.00     0.251 C 
ATOM     39  H   UNL A   1      43.016  18.875  26.045  1.00  0.00     0.163 HD
ATOM     40  O   UNL A   1      44.314  20.330  24.531  1.00  0.00    -0.269 OA
BRANCH  38  41
ATOM     41  C   UNL A   1      43.585  22.116  25.857  1.00  0.00     0.039 A 
ATOM     42  C   UNL A   1      42.900  23.095  25.134  1.00  0.00     0.014 A 
ATOM     43  C   UNL A   1      44.278  22.437  27.021  1.00  0.00     0.014 A 
ATOM     44  C   UNL A   1      42.870  24.393  25.637  1.00  0.00     0.010 A 
ATOM     45  C   UNL A   1      44.088  23.656  27.608  1.00  0.00     0.010 A 
ATOM     46  C   UNL A   1      43.460  24.658  26.883  1.00  0.00    -0.014 A 
BRANCH  46  47
ATOM     47  C   UNL A   1      43.339  25.960  27.521  1.00  0.00     0.031 A 
ATOM     48  C   UNL A   1      44.417  26.907  27.135  1.00  0.00     0.074 A 
ATOM     49  C   UNL A   1      42.223  26.333  28.187  1.00  0.00     0.049 A 
ATOM     50  N   UNL A   1      45.386  27.344  27.867  1.00  0.00    -0.248 NA
ATOM     51  C   UNL A   1      44.543  27.272  25.711  1.00  0.00     0.031 C 
ATOM     52  C   UNL A   1      40.960  25.590  28.326  1.00  0.00     0.029 A 
ATOM     53  N   UNL A   1      41.935  27.511  28.804  1.00  0.00    -0.354 N 
ATOM     54  C   UNL A   1      46.099  28.232  27.063  1.00  0.00     0.074 A 
ATOM     55  C   UNL A   1      45.679  27.974  25.714  1.00  0.00     0.031 C 
ATOM     56  C   UNL A   1      39.986  26.416  28.767  1.00  0.00     0.029 A 
ATOM     57  C   UNL A   1      40.589  27.685  29.121  1.00  0.00     0.049 A 
ATOM     58  H   UNL A   1      42.623  28.186  29.010  1.00  0.00     0.167 HD
ATOM     59  C   UNL A   1      46.739  29.300  27.614  1.00  0.00     0.037 A 
ATOM     60  C   UNL A   1      40.020  28.806  29.629  1.00  0.00     0.037 A 
ATOM     61  C   UNL A   1      46.834  29.139  29.046  1.00  0.00     0.049 A 
ATOM     62  C   UNL A   1      41.115  29.614  30.208  1.00  0.00     0.074 A 
ATOM     63  C   UNL A   1      47.482  28.286  29.910  1.00  0.00     0.029 A 
ATOM     64  N   UNL A   1      45.820  29.733  29.753  1.00  0.00    -0.354 N 
ATOM     65  N   UNL A   1      41.813  29.251  31.248  1.00  0.00    -0.248 NA
ATOM     66  C   UNL A   1      41.716  30.648  29.381  1.00  0.00     0.031 C 
ATOM     67  C   UNL A   1      46.603  28.141  31.027  1.00  0.00     0.029 A 
ATOM     68  C   UNL A   1      45.492  28.964  30.833  1.00  0.00     0.049 A 
ATOM     69  H   UNL A   1      45.392  30.588  29.517  1.00  0.00     0.167 HD
ATOM     70  C   UNL A   1      43.101  29.680  30.971  1.00  0.00     0.074 A 
ATOM     71  C   UNL A   1      42.950  30.651  29.890  1.00  0.00     0.031 C 
ATOM     72  C   UNL A   1      44.176  28.979  31.437  1.00  0.00     0.037 A 
BRANCH  59  73
ATOM     73  C   UNL A   1      46.828  30.678  26.982  1.00  0.00     0.057 A 
ATOM     74  C   UNL A   1      48.064  31.356  27.014  1.00  0.00     0.134 A 
ATOM     75  C   UNL A   1      45.724  31.486  26.642  1.00  0.00     0.134 A 
ATOM     76  F   UNL A   1      49.197  30.709  27.331  1.00  0.00    -0.206 F 
ATOM     77  C   UNL A   1      48.175  32.738  26.813  1.00  0.00     0.040 A 
ATOM     78  C   UNL A   1      45.831  32.857  26.392  1.00  0.00     0.040 A 
ATOM     79  F   UNL A   1      44.468  31.029  26.630  1.00  0.00    -0.206 F 
ATOM     80  C   UNL A   1      47.054  33.496  26.510  1.00  0.00     0.006 A 
ENDBRANCH  59  73
BRANCH  60  81
ATOM     81  C   UNL A   1      38.674  29.377  29.391  1.00  0.00     0.057 A 
ATOM     82  C   UNL A   1      38.220  29.644  28.090  1.00  0.00     0.134 A 
ATOM     83  C   UNL A   1      37.695  29.375  30.399  1.00  0.00     0.134 A 
ATOM     84  F   UNL A   1      39.074  29.630  27.057  1.00  0.00    -0.206 F 
ATOM     85  C   UNL A   1      36.865  29.856  27.801  1.00  0.00     0.040 A 
ATOM     86  C   UNL A   1      36.338  29.589  30.123  1.00  0.00     0.040 A 
ATOM     87  F   UNL A   1      38.010  29.065  31.664  1.00  0.00    -0.206 F 
ATOM     88  C   UNL A   1      35.917  29.813  28.818  1.00  0.00     0.006 A 
ENDBRANCH  60  81
BRANCH  72  89
ATOM     89  C   UNL A   1      43.940  28.003  32.557  1.00  0.00     0.057 A 
ATOM     90  C   UNL A   1      43.802  26.617  32.399  1.00  0.00     0.134 A 
ATOM     91  C   UNL A   1      44.001  28.489  33.867  1.00  0.00     0.134 A 
ATOM     92  F   UNL A   1      43.807  26.050  31.187  1.00  0.00    -0.206 F 
ATOM     93  C   UNL A   1      43.708  25.758  33.500  1.00  0.00     0.040 A 
ATOM     94  C   UNL A   1      43.943  27.640  34.974  1.00  0.00     0.040 A 
ATOM     95  F   UNL A   1      44.175  29.801  34.092  1.00  0.00    -0.206 F 
ATOM     96  C   UNL A   1      43.790  26.270  34.793  1.00  0.00     0.006 A 
ENDBRANCH  72  89
ENDBRANCH  46  47
ENDBRANCH  38  41
ENDBRANCH  36  37
ENDBRANCH  35  36
ENDBRANCH  34  35
ENDBRANCH   1  34
TORSDOF 17
ENDMDL
MODEL 2
REMARK VINA RESULT:     -12.7      1.902      5.407
REMARK SMILES Cc1nn([C@H]2CCS(=O)(=O)C2)c(C)c1/C=C(\CC(=O)NCCCCCCNC(=O)c1ccc(-c2c3nc(c(-c4c(F)cccc4F)c4ccc([nH]4)c(-c4c(F)cccc4F)c4nc(c(-c5c(F)cccc5F)c5ccc2[nH]5)C=C4)C=C3)cc1)c1nc2ccccc2s1
REMARK SMILES IDX 23 1 22 2 21 3 20 4 18 5 19 6 17 8 16 9 15 10 14 11 1 12
REMARK SMILES IDX 2 13 3 14 4 15 12 16 13 17 5 18 6 19 11 20 7 21 8 22 9 23
REMARK SMILES IDX 10 24 84 25 85 26 92 27 86 28 91 29 87 30 90 31 88 32 89 33
REMARK SMILES IDX 24 34 25 35 26 36 27 37 28 38 29 40 30 41 31 42 83 43 32 44
REMARK SMILES IDX 82 45 33 46 34 47 35 48 76 49 36 50 81 51 75 52 77 53 37 54
REMARK SMILES IDX 80 55 74 56 73 57 38 59 64 60 47 61 63 62 48 63 51 64 62 65
REMARK SMILES IDX 78 66 49 67 50 68 61 70 79 71 52 72 39 73 40 74 45 75 41 76
REMARK SMILES IDX 42 77 44 78 46 79 43 80 65 81 66 82 71 83 67 84 68 85 70 86
REMARK SMILES IDX 72 87 69 88 53 89 54 90 59 91 55 92 56 93 58 94 60 95 57 96
REMARK H PARENT 20 7 27 39 77 58 51 69
REMARK Flexibility Score: inf
ROOT
ATOM      1  C   UNL A   1      38.580  21.678  25.971  1.00  0.00     0.002 C 
ENDROOT
BRANCH   1   2
ATOM      2  C   UNL A   1      38.166  23.127  25.699  1.00  0.00     0.021 C 
BRANCH   2   3
ATOM      3  C   UNL A   1      36.671  23.352  25.900  1.00  0.00     0.116 C 
BRANCH   3   4
ATOM      4  N   UNL A   1      36.062  23.747  24.647  1.00  0.00    -0.356 N 
ATOM      5  C   UNL A   1      34.754  24.080  24.437  1.00  0.00     0.224 C 
ATOM      6  O   UNL A   1      34.308  24.070  23.289  1.00  0.00    -0.275 OA
ATOM      7  H   UNL A   1      36.654  23.778  23.862  1.00  0.00     0.163 HD
BRANCH   5   8
ATOM      8  C   UNL A   1      33.967  24.662  25.600  1.00  0.00     0.138 C 
BRANCH   8   9
ATOM      9  C   UNL A   1      32.466  24.429  25.684  1.00  0.00    -0.002 C 
ATOM     10  C   UNL A   1      31.892  23.204  25.817  1.00  0.00     0.019 C 
BRANCH  10  11
ATOM     11  C   UNL A   1      32.555  21.927  25.760  1.00  0.00     0.019 A 
ATOM     12  C   UNL A   1      34.066  22.015  27.905  1.00  0.00     0.069 C 
ATOM     13  C   UNL A   1      33.413  21.360  26.742  1.00  0.00     0.067 A 
ATOM     14  N   UNL A   1      33.632  20.061  26.502  1.00  0.00    -0.177 NA
ATOM     15  N   UNL A   1      32.975  19.814  25.351  1.00  0.00    -0.265 N 
ATOM     16  C   UNL A   1      32.561  20.983  24.741  1.00  0.00     0.043 A 
ATOM     17  C   UNL A   1      32.223  21.096  23.296  1.00  0.00     0.067 C 
BRANCH  15  18
ATOM     18  C   UNL A   1      32.853  18.431  24.895  1.00  0.00     0.123 C 
ATOM     19  C   UNL A   1      33.718  18.108  23.649  1.00  0.00     0.044 C 
ATOM     20  C   UNL A   1      33.299  17.392  25.922  1.00  0.00     0.164 C 
ATOM     21  C   UNL A   1      33.646  16.603  23.414  1.00  0.00     0.139 C 
ATOM     22  S   UNL A   1      33.429  15.875  25.022  1.00  0.00     0.152 S 
ATOM     23  O   UNL A   1      32.145  15.220  25.065  1.00  0.00    -0.229 OA
ATOM     24  O   UNL A   1      34.659  15.211  25.420  1.00  0.00    -0.229 OA
ENDBRANCH  15  18
ENDBRANCH  10  11
BRANCH   9  25
ATOM     25  C   UNL A   1      31.615  25.582  25.596  1.00  0.00     0.121 A 
ATOM     26  N   UNL A   1      30.465  25.599  24.953  1.00  0.00    -0.236 NA
ATOM     27  S   UNL A   1      32.189  27.146  26.050  1.00  0.00    -0.114 S 
ATOM     28  C   UNL A   1      30.245  26.862  24.436  1.00  0.00     0.082 A 
ATOM     29  C   UNL A   1      31.115  27.850  24.898  1.00  0.00     0.055 A 
ATOM     30  C   UNL A   1      29.299  27.193  23.446  1.00  0.00     0.030 A 
ATOM     31  C   UNL A   1      31.082  29.161  24.398  1.00  0.00     0.021 A 
ATOM     32  C   UNL A   1      29.323  28.468  22.873  1.00  0.00     0.002 A 
ATOM     33  C   UNL A   1      30.207  29.436  23.341  1.00  0.00     0.002 A 
ENDBRANCH   9  25
ENDBRANCH   8   9
ENDBRANCH   5   8
ENDBRANCH   3   4
ENDBRANCH   2   3
ENDBRANCH   1   2
BRANCH   1  34
ATOM     34  C   UNL A   1      40.043  21.504  26.403  1.00  0.00     0.002 C 
BRANCH  34  35
ATOM     35  C   UNL A   1      40.676  20.147  26.063  1.00  0.00     0.021 C 
BRANCH  35  36
ATOM     36  C   UNL A   1      41.931  19.855  26.867  1.00  0.00     0.116 C 
BRANCH  36  37
ATOM     37  N   UNL A   1      43.095  19.655  26.004  1.00  0.00    -0.352 N 
ATOM     38  C   UNL A   1      43.822  20.596  25.308  1.00  0.00     0.251 C 
ATOM     39  H   UNL A   1      43.399  18.724  25.907  1.00  0.00     0.163 HD
ATOM     40  O   UNL A   1      44.524  20.280  24.354  1.00  0.00    -0.269 OA
BRANCH  38  41
ATOM     41  C   UNL A   1      43.755  21.997  25.747  1.00  0.00     0.039 A 
ATOM     42  C   UNL A   1      43.051  22.962  25.024  1.00  0.00     0.014 A 
ATOM     43  C   UNL A   1      44.405  22.324  26.934  1.00  0.00     0.014 A 
ATOM     44  C   UNL A   1      42.957  24.248  25.548  1.00  0.00     0.010 A 
ATOM     45  C   UNL A   1      44.153  23.523  27.537  1.00  0.00     0.010 A 
ATOM     46  C   UNL A   1      43.505  24.513  26.813  1.00  0.00    -0.014 A 
BRANCH  46  47
ATOM     47  C   UNL A   1      43.316  25.798  27.471  1.00  0.00     0.031 A 
ATOM     48  C   UNL A   1      44.310  26.822  27.056  1.00  0.00     0.074 A 
ATOM     49  C   UNL A   1      42.202  26.084  28.181  1.00  0.00     0.049 A 
ATOM     50  N   UNL A   1      45.273  27.319  27.758  1.00  0.00    -0.248 NA
ATOM     51  C   UNL A   1      44.358  27.208  25.633  1.00  0.00     0.031 C 
ATOM     52  C   UNL A   1      41.001  25.253  28.357  1.00  0.00     0.029 A 
ATOM     53  N   UNL A   1      41.856  27.234  28.822  1.00  0.00    -0.354 N 
ATOM     54  C   UNL A   1      45.891  28.263  26.939  1.00  0.00     0.074 A 
ATOM     55  C   UNL A   1      45.440  27.987  25.602  1.00  0.00     0.031 C 
ATOM     56  C   UNL A   1      39.988  26.005  28.843  1.00  0.00     0.029 A 
ATOM     57  C   UNL A   1      40.513  27.310  29.189  1.00  0.00     0.049 A 
ATOM     58  H   UNL A   1      42.502  27.954  29.010  1.00  0.00     0.167 HD
ATOM     59  C   UNL A   1      46.474  29.368  27.478  1.00  0.00     0.037 A 
ATOM     60  C   UNL A   1      39.887  28.383  29.731  1.00  0.00     0.037 A 
ATOM     61  C   UNL A   1      46.634  29.202  28.903  1.00  0.00     0.049 A 
ATOM     62  C   UNL A   1      40.943  29.261  30.279  1.00  0.00     0.074 A 
ATOM     63  C   UNL A   1      47.372  28.388  29.734  1.00  0.00     0.029 A 
ATOM     64  N   UNL A   1      45.608  29.716  29.654  1.00  0.00    -0.354 N 
ATOM     65  N   UNL A   1      41.703  28.939  31.289  1.00  0.00    -0.248 NA
ATOM     66  C   UNL A   1      41.439  30.343  29.442  1.00  0.00     0.031 C 
ATOM     67  C   UNL A   1      46.548  28.171  30.880  1.00  0.00     0.029 A 
ATOM     68  C   UNL A   1      45.375  28.916  30.736  1.00  0.00     0.049 A 
ATOM     69  H   UNL A   1      45.113  30.540  29.443  1.00  0.00     0.167 HD
ATOM     70  C   UNL A   1      42.946  29.460  30.970  1.00  0.00     0.074 A 
ATOM     71  C   UNL A   1      42.687  30.428  29.907  1.00  0.00     0.031 C 
ATOM     72  C   UNL A   1      44.085  28.832  31.388  1.00  0.00     0.037 A 
BRANCH  59  73
ATOM     73  C   UNL A   1      46.444  30.754  26.860  1.00  0.00     0.057 A 
ATOM     74  C   UNL A   1      47.627  31.520  26.860  1.00  0.00     0.134 A 
ATOM     75  C   UNL A   1      45.273  31.483  26.563  1.00  0.00     0.134 A 
ATOM     76  F   UNL A   1      48.813  30.955  27.134  1.00  0.00    -0.206 F 
ATOM     77  C   UNL A   1      47.631  32.909  26.671  1.00  0.00     0.040 A 
ATOM     78  C   UNL A   1      45.273  32.861  26.325  1.00  0.00     0.040 A 
ATOM     79  F   UNL A   1      44.054  30.936  26.585  1.00  0.00    -0.206 F 
ATOM     80  C   UNL A   1      46.449  33.586  26.412  1.00  0.00     0.006 A 
ENDBRANCH  59  73
BRANCH  60  81
ATOM     81  C   UNL A   1      38.496  28.860  29.548  1.00  0.00     0.057 A 
ATOM     82  C   UNL A   1      37.636  29.023  30.645  1.00  0.00     0.134 A 
ATOM     83  C   UNL A   1      38.085  29.462  28.347  1.00  0.00     0.134 A 
ATOM     84  F   UNL A   1      37.961  28.515  31.843  1.00  0.00    -0.206 F 
ATOM     85  C   UNL A   1      36.456  29.775  30.565  1.00  0.00     0.040 A 
ATOM     86  C   UNL A   1      36.908  30.214  28.253  1.00  0.00     0.040 A 
ATOM     87  F   UNL A   1      38.865  29.426  27.257  1.00  0.00    -0.206 F 
ATOM     88  C   UNL A   1      36.097  30.388  29.369  1.00  0.00     0.006 A 
ENDBRANCH  60  81
BRANCH  72  89
ATOM     89  C   UNL A   1      43.959  27.833  32.505  1.00  0.00     0.057 A 
ATOM     90  C   UNL A   1      43.751  28.157  33.853  1.00  0.00     0.134 A 
ATOM     91  C   UNL A   1      43.904  26.478  32.162  1.00  0.00     0.134 A 
ATOM     92  F   UNL A   1      43.713  29.430  34.266  1.00  0.00    -0.206 F 
ATOM     93  C   UNL A   1      43.520  27.170  34.818  1.00  0.00     0.040 A 
ATOM     94  C   UNL A   1      43.640  25.487  33.109  1.00  0.00     0.040 A 
ATOM     95  F   UNL A   1      44.052  26.099  30.883  1.00  0.00    -0.206 F 
ATOM     96  C   UNL A   1      43.453  25.831  34.444  1.00  0.00     0.006 A 
ENDBRANCH  72  89
ENDBRANCH  46  47
ENDBRANCH  38  41
ENDBRANCH  36  37
ENDBRANCH  35  36
ENDBRANCH  34  35
ENDBRANCH   1  34
TORSDOF 17
ENDMDL
MODEL 3
REMARK VINA RESULT:     -12.7      2.124      5.743
REMARK SMILES Cc1nn([C@H]2CCS(=O)(=O)C2)c(C)c1/C=C(\CC(=O)NCCCCCCNC(=O)c1ccc(-c2c3nc(c(-c4c(F)cccc4F)c4ccc([nH]4)c(-c4c(F)cccc4F)c4nc(c(-c5c(F)cccc5F)c5ccc2[nH]5)C=C4)C=C3)cc1)c1nc2ccccc2s1
REMARK SMILES IDX 23 1 22 2 21 3 20 4 18 5 19 6 17 8 16 9 15 10 14 11 1 12
REMARK SMILES IDX 2 13 3 14 4 15 12 16 13 17 5 18 6 19 11 20 7 21 8 22 9 23
REMARK SMILES IDX 10 24 84 25 85 26 92 27 86 28 91 29 87 30 90 31 88 32 89 33
REMARK SMILES IDX 24 34 25 35 26 36 27 37 28 38 29 40 30 41 31 42 83 43 32 44
REMARK SMILES IDX 82 45 33 46 34 47 35 48 76 49 36 50 81 51 75 52 77 53 37 54
REMARK SMILES IDX 80 55 74 56 73 57 38 59 64 60 47 61 63 62 48 63 51 64 62 65
REMARK SMILES IDX 78 66 49 67 50 68 61 70 79 71 52 72 39 73 40 74 45 75 41 76
REMARK SMILES IDX 42 77 44 78 46 79 43 80 65 81 66 82 71 83 67 84 68 85 70 86
REMARK SMILES IDX 72 87 69 88 53 89 54 90 59 91 55 92 56 93 58 94 60 95 57 96
REMARK H PARENT 20 7 27 39 77 58 51 69
REMARK Flexibility Score: inf
ROOT
ATOM      1  C   UNL A   1      37.370  22.155  25.365  1.00  0.00     0.002 C 
ENDROOT
BRANCH   1   2
ATOM      2  C   UNL A   1      37.142  23.668  25.406  1.00  0.00     0.021 C 
BRANCH   2   3
ATOM      3  C   UNL A   1      35.785  24.037  25.995  1.00  0.00     0.116 C 
BRANCH   3   4
ATOM      4  N   UNL A   1      35.267  22.926  26.766  1.00  0.00    -0.356 N 
ATOM      5  C   UNL A   1      34.158  22.178  26.489  1.00  0.00     0.224 C 
ATOM      6  O   UNL A   1      33.652  21.499  27.383  1.00  0.00    -0.275 OA
ATOM      7  H   UNL A   1      35.768  22.685  27.578  1.00  0.00     0.163 HD
BRANCH   5   8
ATOM      8  C   UNL A   1      33.729  22.043  25.037  1.00  0.00     0.138 C 
BRANCH   8   9
ATOM      9  C   UNL A   1      32.358  21.473  24.707  1.00  0.00    -0.002 C 
ATOM     10  C   UNL A   1      31.217  22.210  24.665  1.00  0.00     0.019 C 
BRANCH  10  11
ATOM     11  C   UNL A   1      31.063  23.590  25.050  1.00  0.00     0.019 A 
ATOM     12  C   UNL A   1      29.583  23.377  27.209  1.00  0.00     0.069 C 
ATOM     13  C   UNL A   1      30.451  24.087  26.233  1.00  0.00     0.067 A 
ATOM     14  N   UNL A   1      30.722  25.387  26.409  1.00  0.00    -0.177 NA
ATOM     15  N   UNL A   1      31.445  25.731  25.324  1.00  0.00    -0.265 N 
ATOM     16  C   UNL A   1      31.418  24.742  24.361  1.00  0.00     0.043 A 
ATOM     17  C   UNL A   1      31.719  24.970  22.921  1.00  0.00     0.067 C 
BRANCH  15  18
ATOM     18  C   UNL A   1      32.069  27.052  25.287  1.00  0.00     0.123 C 
ATOM     19  C   UNL A   1      31.159  28.153  24.682  1.00  0.00     0.044 C 
ATOM     20  C   UNL A   1      32.442  27.608  26.660  1.00  0.00     0.164 C 
ATOM     21  C   UNL A   1      31.855  29.494  24.891  1.00  0.00     0.139 C 
ATOM     22  S   UNL A   1      32.797  29.319  26.388  1.00  0.00     0.152 S 
ATOM     23  O   UNL A   1      34.199  29.437  26.071  1.00  0.00    -0.229 OA
ATOM     24  O   UNL A   1      32.167  30.090  27.447  1.00  0.00    -0.229 OA
ENDBRANCH  15  18
ENDBRANCH  10  11
BRANCH   9  25
ATOM     25  C   UNL A   1      32.277  20.063  24.446  1.00  0.00     0.121 A 
ATOM     26  N   UNL A   1      32.205  19.145  25.388  1.00  0.00    -0.236 NA
ATOM     27  S   UNL A   1      32.602  19.432  22.873  1.00  0.00    -0.114 S 
ATOM     28  C   UNL A   1      32.830  17.991  24.956  1.00  0.00     0.082 A 
ATOM     29  C   UNL A   1      33.158  17.969  23.600  1.00  0.00     0.055 A 
ATOM     30  C   UNL A   1      33.225  16.913  25.773  1.00  0.00     0.030 A 
ATOM     31  C   UNL A   1      33.879  16.909  23.028  1.00  0.00     0.021 A 
ATOM     32  C   UNL A   1      34.027  15.902  25.234  1.00  0.00     0.002 A 
ATOM     33  C   UNL A   1      34.353  15.905  23.880  1.00  0.00     0.002 A 
ENDBRANCH   9  25
ENDBRANCH   8   9
ENDBRANCH   5   8
ENDBRANCH   3   4
ENDBRANCH   2   3
ENDBRANCH   1   2
BRANCH   1  34
ATOM     34  C   UNL A   1      38.780  21.711  25.782  1.00  0.00     0.002 C 
BRANCH  34  35
ATOM     35  C   UNL A   1      39.214  20.328  25.275  1.00  0.00     0.021 C 
BRANCH  35  36
ATOM     36  C   UNL A   1      39.914  19.496  26.336  1.00  0.00     0.116 C 
BRANCH  36  37
ATOM     37  N   UNL A   1      41.196  18.977  25.860  1.00  0.00    -0.352 N 
ATOM     38  C   UNL A   1      42.370  19.661  25.631  1.00  0.00     0.251 C 
ATOM     39  H   UNL A   1      41.224  18.010  25.679  1.00  0.00     0.163 HD
ATOM     40  O   UNL A   1      43.242  19.201  24.903  1.00  0.00    -0.269 OA
BRANCH  38  41
ATOM     41  C   UNL A   1      42.567  20.955  26.300  1.00  0.00     0.039 A 
ATOM     42  C   UNL A   1      42.800  22.128  25.578  1.00  0.00     0.014 A 
ATOM     43  C   UNL A   1      42.489  20.972  27.689  1.00  0.00     0.014 A 
ATOM     44  C   UNL A   1      42.888  23.330  26.274  1.00  0.00     0.010 A 
ATOM     45  C   UNL A   1      42.384  22.164  28.347  1.00  0.00     0.010 A 
ATOM     46  C   UNL A   1      42.667  23.336  27.660  1.00  0.00    -0.014 A 
BRANCH  46  47
ATOM     47  C   UNL A   1      42.609  24.578  28.417  1.00  0.00     0.031 A 
ATOM     48  C   UNL A   1      41.347  25.335  28.207  1.00  0.00     0.074 A 
ATOM     49  C   UNL A   1      43.499  24.867  29.392  1.00  0.00     0.049 A 
ATOM     50  N   UNL A   1      41.190  26.451  27.578  1.00  0.00    -0.248 NA
ATOM     51  C   UNL A   1      40.077  24.685  28.582  1.00  0.00     0.031 C 
ATOM     52  C   UNL A   1      44.582  24.017  29.913  1.00  0.00     0.029 A 
ATOM     53  N   UNL A   1      43.566  25.954  30.209  1.00  0.00    -0.354 N 
ATOM     54  C   UNL A   1      39.836  26.764  27.695  1.00  0.00     0.074 A 
ATOM     55  C   UNL A   1      39.181  25.556  28.112  1.00  0.00     0.031 C 
ATOM     56  C   UNL A   1      45.030  24.510  31.088  1.00  0.00     0.029 A 
ATOM     57  C   UNL A   1      44.408  25.800  31.309  1.00  0.00     0.049 A 
ATOM     58  H   UNL A   1      43.060  26.782  30.037  1.00  0.00     0.167 HD
ATOM     59  C   UNL A   1      39.430  28.063  27.732  1.00  0.00     0.037 A 
ATOM     60  C   UNL A   1      44.565  26.677  32.332  1.00  0.00     0.037 A 
ATOM     61  C   UNL A   1      40.500  28.932  27.304  1.00  0.00     0.049 A 
ATOM     62  C   UNL A   1      44.064  27.983  31.852  1.00  0.00     0.074 A 
ATOM     63  C   UNL A   1      41.186  29.164  26.132  1.00  0.00     0.029 A 
ATOM     64  N   UNL A   1      41.269  29.432  28.324  1.00  0.00    -0.354 N 
ATOM     65  N   UNL A   1      44.630  28.675  30.902  1.00  0.00    -0.248 NA
ATOM     66  C   UNL A   1      42.684  28.339  32.147  1.00  0.00     0.031 C 
ATOM     67  C   UNL A   1      42.518  29.491  26.532  1.00  0.00     0.029 A 
ATOM     68  C   UNL A   1      42.573  29.516  27.928  1.00  0.00     0.049 A 
ATOM     69  H   UNL A   1      40.930  29.693  29.211  1.00  0.00     0.167 HD
ATOM     70  C   UNL A   1      43.575  29.234  30.201  1.00  0.00     0.074 A 
ATOM     71  C   UNL A   1      42.424  29.114  31.092  1.00  0.00     0.031 C 
ATOM     72  C   UNL A   1      43.682  29.456  28.857  1.00  0.00     0.037 A 
BRANCH  59  73
ATOM     73  C   UNL A   1      38.301  28.594  28.597  1.00  0.00     0.057 A 
ATOM     74  C   UNL A   1      37.447  29.580  28.061  1.00  0.00     0.134 A 
ATOM     75  C   UNL A   1      38.207  28.432  29.994  1.00  0.00     0.134 A 
ATOM     76  F   UNL A   1      37.440  29.844  26.745  1.00  0.00    -0.206 F 
ATOM     77  C   UNL A   1      36.635  30.395  28.861  1.00  0.00     0.040 A 
ATOM     78  C   UNL A   1      37.364  29.208  30.796  1.00  0.00     0.040 A 
ATOM     79  F   UNL A   1      38.988  27.594  30.681  1.00  0.00    -0.206 F 
ATOM     80  C   UNL A   1      36.599  30.217  30.237  1.00  0.00     0.006 A 
ENDBRANCH  59  73
BRANCH  60  81
ATOM     81  C   UNL A   1      44.822  26.422  33.768  1.00  0.00     0.057 A 
ATOM     82  C   UNL A   1      43.909  25.698  34.550  1.00  0.00     0.134 A 
ATOM     83  C   UNL A   1      46.101  26.604  34.321  1.00  0.00     0.134 A 
ATOM     84  F   UNL A   1      42.676  25.441  34.090  1.00  0.00    -0.206 F 
ATOM     85  C   UNL A   1      44.258  25.152  35.792  1.00  0.00     0.040 A 
ATOM     86  C   UNL A   1      46.462  26.065  35.562  1.00  0.00     0.040 A 
ATOM     87  F   UNL A   1      47.069  27.221  33.628  1.00  0.00    -0.206 F 
ATOM     88  C   UNL A   1      45.545  25.321  36.295  1.00  0.00     0.006 A 
ENDBRANCH  60  81
BRANCH  72  89
ATOM     89  C   UNL A   1      45.062  29.462  28.259  1.00  0.00     0.057 A 
ATOM     90  C   UNL A   1      45.689  28.351  27.676  1.00  0.00     0.134 A 
ATOM     91  C   UNL A   1      45.718  30.691  28.147  1.00  0.00     0.134 A 
ATOM     92  F   UNL A   1      45.105  27.146  27.667  1.00  0.00    -0.206 F 
ATOM     93  C   UNL A   1      46.924  28.462  27.028  1.00  0.00     0.040 A 
ATOM     94  C   UNL A   1      46.933  30.822  27.474  1.00  0.00     0.040 A 
ATOM     95  F   UNL A   1      45.155  31.804  28.645  1.00  0.00    -0.206 F 
ATOM     96  C   UNL A   1      47.545  29.703  26.917  1.00  0.00     0.006 A 
ENDBRANCH  72  89
ENDBRANCH  46  47
ENDBRANCH  38  41
ENDBRANCH  36  37
ENDBRANCH  35  36
ENDBRANCH  34  35
ENDBRANCH   1  34
TORSDOF 17
ENDMDL
