MODEL 1
REMARK VINA RESULT:     -10.0      0.000      0.000
REMARK SMILES O=C(Cc1cccnc1Cl)NCCCCCCNC(=O)c1ccc(-c2c3nc(c(-c4c(F)cccc4F)c4ccc([nH]4)c(-c4c(F)cccc4F)c4nc(c(-c5c(F)cccc5F)c5ccc2[nH]5)C=C4)C=C3)cc1
REMARK SMILES IDX 15 1 14 2 13 3 12 4 11 5 1 6 2 7 3 9 4 10 5 11 9 12 6 13
REMARK SMILES IDX 8 14 10 15 7 16 16 17 17 18 18 19 19 20 20 22 21 23 22 24
REMARK SMILES IDX 74 25 23 26 73 27 24 28 25 29 26 30 67 31 27 32 72 33 66 34
REMARK SMILES IDX 68 35 28 36 71 37 65 38 64 39 29 41 55 42 38 43 54 44 39 45
REMARK SMILES IDX 42 46 53 47 69 48 40 49 41 50 52 52 70 53 43 54 30 55 31 56
REMARK SMILES IDX 36 57 32 58 33 59 35 60 37 61 34 62 56 63 57 64 62 65 58 66
REMARK SMILES IDX 59 67 61 68 63 69 60 70 44 71 45 72 50 73 46 74 47 75 49 76
REMARK SMILES IDX 51 77 48 78
REMARK H PARENT 11 8 18 21 68 40 42 51
REMARK Flexibility Score: inf
ROOT
ATOM      1  C   UNL A   1      34.570  34.035  29.022  1.00  0.00     0.002 C 
ENDROOT
BRANCH   1   2
ATOM      2  C   UNL A   1      34.456  32.507  28.995  1.00  0.00     0.002 C 
BRANCH   2   3
ATOM      3  C   UNL A   1      35.325  31.799  27.945  1.00  0.00     0.021 C 
BRANCH   3   4
ATOM      4  C   UNL A   1      35.173  30.277  27.901  1.00  0.00     0.116 C 
BRANCH   4   5
ATOM      5  N   UNL A   1      33.785  29.900  27.745  1.00  0.00    -0.356 N 
ATOM      6  O   UNL A   1      34.125  27.911  26.651  1.00  0.00    -0.275 OA
ATOM      7  C   UNL A   1      33.364  28.757  27.109  1.00  0.00     0.224 C 
ATOM      8  H   UNL A   1      33.099  30.499  28.120  1.00  0.00     0.163 HD
BRANCH   7   9
ATOM      9  C   UNL A   1      31.854  28.649  26.970  1.00  0.00     0.138 C 
BRANCH   9  10
ATOM     10  C   UNL A   1      31.401  28.362  25.563  1.00  0.00    -0.001 A 
ATOM     11  C   UNL A   1      31.354  29.398  24.622  1.00  0.00     0.009 A 
ATOM     12  C   UNL A   1      31.037  27.094  25.111  1.00  0.00     0.132 A 
ATOM     13  C   UNL A   1      30.954  29.135  23.314  1.00  0.00     0.020 A 
ATOM     14  N   UNL A   1      30.658  26.806  23.847  1.00  0.00    -0.244 NA
ATOM     15  Cl  UNL A   1      31.014  25.705  26.128  1.00  0.00    -0.062 Cl
ATOM     16  C   UNL A   1      30.624  27.834  22.977  1.00  0.00     0.113 A 
ENDBRANCH   9  10
ENDBRANCH   7   9
ENDBRANCH   4   5
ENDBRANCH   3   4
ENDBRANCH   2   3
ENDBRANCH   1   2
BRANCH   1  17
ATOM     17  C   UNL A   1      33.235  34.781  29.004  1.00  0.00     0.021 C 
BRANCH  17  18
ATOM     18  C   UNL A   1      33.282  36.191  29.584  1.00  0.00     0.116 C 
BRANCH  18  19
ATOM     19  N   UNL A   1      32.393  36.361  30.722  1.00  0.00    -0.352 N 
ATOM     20  C   UNL A   1      32.499  35.844  31.988  1.00  0.00     0.251 C 
ATOM     21  H   UNL A   1      31.602  36.928  30.561  1.00  0.00     0.163 HD
ATOM     22  O   UNL A   1      31.573  35.973  32.788  1.00  0.00    -0.269 OA
BRANCH  20  23
ATOM     23  C   UNL A   1      33.717  35.107  32.389  1.00  0.00     0.039 A 
ATOM     24  C   UNL A   1      33.588  33.802  32.872  1.00  0.00     0.014 A 
ATOM     25  C   UNL A   1      34.980  35.701  32.308  1.00  0.00     0.014 A 
ATOM     26  C   UNL A   1      34.727  33.077  33.229  1.00  0.00     0.010 A 
ATOM     27  C   UNL A   1      36.120  34.953  32.592  1.00  0.00     0.010 A 
ATOM     28  C   UNL A   1      36.005  33.638  33.069  1.00  0.00    -0.014 A 
BRANCH  28  29
ATOM     29  C   UNL A   1      37.229  32.878  33.433  1.00  0.00     0.031 A 
ATOM     30  C   UNL A   1      37.946  33.181  34.722  1.00  0.00     0.074 A 
ATOM     31  C   UNL A   1      37.723  31.950  32.591  1.00  0.00     0.049 A 
ATOM     32  N   UNL A   1      39.064  32.685  35.186  1.00  0.00    -0.248 NA
ATOM     33  C   UNL A   1      37.334  34.196  35.597  1.00  0.00     0.031 C 
ATOM     34  C   UNL A   1      37.148  31.589  31.293  1.00  0.00     0.029 A 
ATOM     35  N   UNL A   1      38.829  31.144  32.698  1.00  0.00    -0.354 N 
ATOM     36  C   UNL A   1      39.290  33.327  36.398  1.00  0.00     0.074 A 
ATOM     37  C   UNL A   1      38.230  34.295  36.567  1.00  0.00     0.031 C 
ATOM     38  C   UNL A   1      37.898  30.626  30.733  1.00  0.00     0.029 A 
ATOM     39  C   UNL A   1      39.023  30.323  31.612  1.00  0.00     0.049 A 
ATOM     40  H   UNL A   1      39.428  31.153  33.480  1.00  0.00     0.167 HD
ATOM     41  C   UNL A   1      40.273  33.109  37.303  1.00  0.00     0.037 A 
ATOM     42  C   UNL A   1      40.000  29.435  31.354  1.00  0.00     0.037 A 
ATOM     43  C   UNL A   1      41.320  32.134  37.144  1.00  0.00     0.049 A 
ATOM     44  C   UNL A   1      41.085  29.218  32.375  1.00  0.00     0.074 A 
ATOM     45  C   UNL A   1      42.356  31.831  38.011  1.00  0.00     0.029 A 
ATOM     46  N   UNL A   1      41.456  31.296  36.049  1.00  0.00    -0.354 N 
ATOM     47  N   UNL A   1      41.262  29.805  33.533  1.00  0.00    -0.248 NA
ATOM     48  C   UNL A   1      42.100  28.202  32.057  1.00  0.00     0.031 C 
ATOM     49  C   UNL A   1      43.136  30.827  37.426  1.00  0.00     0.029 A 
ATOM     50  C   UNL A   1      42.558  30.474  36.218  1.00  0.00     0.049 A 
ATOM     51  H   UNL A   1      40.858  31.286  35.266  1.00  0.00     0.167 HD
ATOM     52  C   UNL A   1      42.379  29.201  34.100  1.00  0.00     0.074 A 
ATOM     53  C   UNL A   1      42.831  28.196  33.162  1.00  0.00     0.031 C 
ATOM     54  C   UNL A   1      42.976  29.457  35.289  1.00  0.00     0.037 A 
BRANCH  41  55
ATOM     55  C   UNL A   1      40.248  33.927  38.561  1.00  0.00     0.057 A 
ATOM     56  C   UNL A   1      39.517  33.519  39.686  1.00  0.00     0.134 A 
ATOM     57  C   UNL A   1      40.993  35.108  38.671  1.00  0.00     0.134 A 
ATOM     58  F   UNL A   1      38.771  32.405  39.642  1.00  0.00    -0.206 F 
ATOM     59  C   UNL A   1      39.512  34.265  40.865  1.00  0.00     0.040 A 
ATOM     60  C   UNL A   1      41.019  35.847  39.855  1.00  0.00     0.040 A 
ATOM     61  F   UNL A   1      41.721  35.553  37.635  1.00  0.00    -0.206 F 
ATOM     62  C   UNL A   1      40.271  35.429  40.954  1.00  0.00     0.006 A 
ENDBRANCH  41  55
BRANCH  42  63
ATOM     63  C   UNL A   1      40.001  28.666  30.082  1.00  0.00     0.057 A 
ATOM     64  C   UNL A   1      40.688  29.130  28.954  1.00  0.00     0.134 A 
ATOM     65  C   UNL A   1      39.279  27.475  29.950  1.00  0.00     0.134 A 
ATOM     66  F   UNL A   1      41.384  30.275  29.012  1.00  0.00    -0.206 F 
ATOM     67  C   UNL A   1      40.628  28.459  27.732  1.00  0.00     0.040 A 
ATOM     68  C   UNL A   1      39.232  26.777  28.742  1.00  0.00     0.040 A 
ATOM     69  F   UNL A   1      38.605  26.970  30.995  1.00  0.00    -0.206 F 
ATOM     70  C   UNL A   1      39.898  27.277  27.624  1.00  0.00     0.006 A 
ENDBRANCH  42  63
BRANCH  54  71
ATOM     71  C   UNL A   1      44.139  28.591  35.674  1.00  0.00     0.057 A 
ATOM     72  C   UNL A   1      45.456  28.907  35.318  1.00  0.00     0.134 A 
ATOM     73  C   UNL A   1      43.937  27.434  36.439  1.00  0.00     0.134 A 
ATOM     74  F   UNL A   1      45.717  29.995  34.577  1.00  0.00    -0.206 F 
ATOM     75  C   UNL A   1      46.526  28.090  35.683  1.00  0.00     0.040 A 
ATOM     76  C   UNL A   1      45.001  26.624  36.833  1.00  0.00     0.040 A 
ATOM     77  F   UNL A   1      42.701  27.078  36.822  1.00  0.00    -0.206 F 
ATOM     78  C   UNL A   1      46.300  26.946  36.448  1.00  0.00     0.006 A 
ENDBRANCH  54  71
ENDBRANCH  28  29
ENDBRANCH  20  23
ENDBRANCH  18  19
ENDBRANCH  17  18
ENDBRANCH   1  17
TORSDOF 14
ENDMDL
MODEL 2
REMARK VINA RESULT:      -9.9      6.710     11.863
REMARK SMILES O=C(Cc1cccnc1Cl)NCCCCCCNC(=O)c1ccc(-c2c3nc(c(-c4c(F)cccc4F)c4ccc([nH]4)c(-c4c(F)cccc4F)c4nc(c(-c5c(F)cccc5F)c5ccc2[nH]5)C=C4)C=C3)cc1
REMARK SMILES IDX 15 1 14 2 13 3 12 4 11 5 1 6 2 7 3 9 4 10 5 11 9 12 6 13
REMARK SMILES IDX 8 14 10 15 7 16 16 17 17 18 18 19 19 20 20 22 21 23 22 24
REMARK SMILES IDX 74 25 23 26 73 27 24 28 25 29 26 30 67 31 27 32 72 33 66 34
REMARK SMILES IDX 68 35 28 36 71 37 65 38 64 39 29 41 55 42 38 43 54 44 39 45
REMARK SMILES IDX 42 46 53 47 69 48 40 49 41 50 52 52 70 53 43 54 30 55 31 56
REMARK SMILES IDX 36 57 32 58 33 59 35 60 37 61 34 62 56 63 57 64 62 65 58 66
REMARK SMILES IDX 59 67 61 68 63 69 60 70 44 71 45 72 50 73 46 74 47 75 49 76
REMARK SMILES IDX 51 77 48 78
REMARK H PARENT 11 8 18 21 68 40 42 51
REMARK Flexibility Score: inf
ROOT
ATOM      1  C   UNL A   1      36.727  20.239  24.739  1.00  0.00     0.002 C 
ENDROOT
BRANCH   1   2
ATOM      2  C   UNL A   1      37.156  21.697  24.547  1.00  0.00     0.002 C 
BRANCH   2   3
ATOM      3  C   UNL A   1      36.169  22.579  23.768  1.00  0.00     0.021 C 
BRANCH   3   4
ATOM      4  C   UNL A   1      35.016  23.146  24.599  1.00  0.00     0.116 C 
BRANCH   4   5
ATOM      5  N   UNL A   1      33.834  22.321  24.475  1.00  0.00    -0.356 N 
ATOM      6  O   UNL A   1      33.800  21.503  26.620  1.00  0.00    -0.275 OA
ATOM      7  C   UNL A   1      33.329  21.541  25.488  1.00  0.00     0.224 C 
ATOM      8  H   UNL A   1      33.360  22.320  23.612  1.00  0.00     0.163 HD
BRANCH   7   9
ATOM      9  C   UNL A   1      32.151  20.676  25.071  1.00  0.00     0.138 C 
BRANCH   9  10
ATOM     10  C   UNL A   1      32.558  19.338  24.512  1.00  0.00    -0.001 A 
ATOM     11  C   UNL A   1      32.972  18.319  25.378  1.00  0.00     0.009 A 
ATOM     12  C   UNL A   1      32.529  19.026  23.154  1.00  0.00     0.132 A 
ATOM     13  C   UNL A   1      33.332  17.073  24.870  1.00  0.00     0.020 A 
ATOM     14  N   UNL A   1      32.859  17.825  22.632  1.00  0.00    -0.244 NA
ATOM     15  Cl  UNL A   1      32.067  20.157  21.940  1.00  0.00    -0.062 Cl
ATOM     16  C   UNL A   1      33.254  16.875  23.503  1.00  0.00     0.113 A 
ENDBRANCH   9  10
ENDBRANCH   7   9
ENDBRANCH   4   5
ENDBRANCH   3   4
ENDBRANCH   2   3
ENDBRANCH   1   2
BRANCH   1  17
ATOM     17  C   UNL A   1      37.870  19.258  25.000  1.00  0.00     0.021 C 
BRANCH  17  18
ATOM     18  C   UNL A   1      39.067  19.850  25.737  1.00  0.00     0.116 C 
BRANCH  18  19
ATOM     19  N   UNL A   1      40.190  18.929  25.818  1.00  0.00    -0.352 N 
ATOM     20  C   UNL A   1      41.515  19.199  26.048  1.00  0.00     0.251 C 
ATOM     21  H   UNL A   1      39.967  17.978  25.691  1.00  0.00     0.163 HD
ATOM     22  O   UNL A   1      42.355  18.307  25.938  1.00  0.00    -0.269 OA
BRANCH  20  23
ATOM     23  C   UNL A   1      41.943  20.569  26.404  1.00  0.00     0.039 A 
ATOM     24  C   UNL A   1      42.237  21.472  25.378  1.00  0.00     0.014 A 
ATOM     25  C   UNL A   1      42.072  20.961  27.739  1.00  0.00     0.014 A 
ATOM     26  C   UNL A   1      42.614  22.780  25.691  1.00  0.00     0.010 A 
ATOM     27  C   UNL A   1      42.376  22.284  28.049  1.00  0.00     0.010 A 
ATOM     28  C   UNL A   1      42.664  23.204  27.029  1.00  0.00    -0.014 A 
BRANCH  28  29
ATOM     29  C   UNL A   1      43.054  24.594  27.381  1.00  0.00     0.031 A 
ATOM     30  C   UNL A   1      44.501  25.004  27.331  1.00  0.00     0.074 A 
ATOM     31  C   UNL A   1      42.118  25.476  27.786  1.00  0.00     0.049 A 
ATOM     32  N   UNL A   1      45.053  26.142  27.668  1.00  0.00    -0.248 NA
ATOM     33  C   UNL A   1      45.461  23.990  26.862  1.00  0.00     0.031 C 
ATOM     34  C   UNL A   1      40.687  25.194  27.917  1.00  0.00     0.029 A 
ATOM     35  N   UNL A   1      42.234  26.787  28.172  1.00  0.00    -0.354 N 
ATOM     36  C   UNL A   1      46.417  25.979  27.456  1.00  0.00     0.074 A 
ATOM     37  C   UNL A   1      46.618  24.614  27.024  1.00  0.00     0.031 C 
ATOM     38  C   UNL A   1      40.058  26.304  28.339  1.00  0.00     0.029 A 
ATOM     39  C   UNL A   1      41.041  27.363  28.540  1.00  0.00     0.049 A 
ATOM     40  H   UNL A   1      43.092  27.272  28.184  1.00  0.00     0.167 HD
ATOM     41  C   UNL A   1      47.410  26.892  27.578  1.00  0.00     0.037 A 
ATOM     42  C   UNL A   1      40.774  28.602  28.995  1.00  0.00     0.037 A 
ATOM     43  C   UNL A   1      47.210  28.256  27.992  1.00  0.00     0.049 A 
ATOM     44  C   UNL A   1      41.897  29.594  29.129  1.00  0.00     0.074 A 
ATOM     45  C   UNL A   1      48.151  29.261  28.136  1.00  0.00     0.029 A 
ATOM     46  N   UNL A   1      45.981  28.809  28.316  1.00  0.00    -0.354 N 
ATOM     47  N   UNL A   1      43.176  29.436  28.886  1.00  0.00    -0.248 NA
ATOM     48  C   UNL A   1      41.538  30.944  29.587  1.00  0.00     0.031 C 
ATOM     49  C   UNL A   1      47.494  30.415  28.575  1.00  0.00     0.029 A 
ATOM     50  C   UNL A   1      46.140  30.142  28.658  1.00  0.00     0.049 A 
ATOM     51  H   UNL A   1      45.123  28.326  28.304  1.00  0.00     0.167 HD
ATOM     52  C   UNL A   1      43.764  30.674  29.119  1.00  0.00     0.074 A 
ATOM     53  C   UNL A   1      42.701  31.574  29.512  1.00  0.00     0.031 C 
ATOM     54  C   UNL A   1      45.067  31.032  29.017  1.00  0.00     0.037 A 
BRANCH  41  55
ATOM     55  C   UNL A   1      48.803  26.449  27.237  1.00  0.00     0.057 A 
ATOM     56  C   UNL A   1      49.311  26.566  25.936  1.00  0.00     0.134 A 
ATOM     57  C   UNL A   1      49.661  25.942  28.221  1.00  0.00     0.134 A 
ATOM     58  F   UNL A   1      48.535  27.031  24.944  1.00  0.00    -0.206 F 
ATOM     59  C   UNL A   1      50.613  26.178  25.621  1.00  0.00     0.040 A 
ATOM     60  C   UNL A   1      50.976  25.577  27.924  1.00  0.00     0.040 A 
ATOM     61  F   UNL A   1      49.242  25.809  29.488  1.00  0.00    -0.206 F 
ATOM     62  C   UNL A   1      51.453  25.689  26.619  1.00  0.00     0.006 A 
ENDBRANCH  41  55
BRANCH  42  63
ATOM     63  C   UNL A   1      39.383  28.990  29.347  1.00  0.00     0.057 A 
ATOM     64  C   UNL A   1      38.889  28.820  30.646  1.00  0.00     0.134 A 
ATOM     65  C   UNL A   1      38.501  29.496  28.386  1.00  0.00     0.134 A 
ATOM     66  F   UNL A   1      39.680  28.321  31.609  1.00  0.00    -0.206 F 
ATOM     67  C   UNL A   1      37.561  29.103  30.969  1.00  0.00     0.040 A 
ATOM     68  C   UNL A   1      37.178  29.811  28.700  1.00  0.00     0.040 A 
ATOM     69  F   UNL A   1      38.914  29.692  27.124  1.00  0.00    -0.206 F 
ATOM     70  C   UNL A   1      36.701  29.602  29.993  1.00  0.00     0.006 A 
ENDBRANCH  42  63
BRANCH  54  71
ATOM     71  C   UNL A   1      45.405  32.473  29.267  1.00  0.00     0.057 A 
ATOM     72  C   UNL A   1      45.358  33.437  28.253  1.00  0.00     0.134 A 
ATOM     73  C   UNL A   1      45.757  32.903  30.553  1.00  0.00     0.134 A 
ATOM     74  F   UNL A   1      45.039  33.088  26.997  1.00  0.00    -0.206 F 
ATOM     75  C   UNL A   1      45.678  34.773  28.502  1.00  0.00     0.040 A 
ATOM     76  C   UNL A   1      46.051  34.240  30.820  1.00  0.00     0.040 A 
ATOM     77  F   UNL A   1      45.812  32.032  31.573  1.00  0.00    -0.206 F 
ATOM     78  C   UNL A   1      46.020  35.178  29.791  1.00  0.00     0.006 A 
ENDBRANCH  54  71
ENDBRANCH  28  29
ENDBRANCH  20  23
ENDBRANCH  18  19
ENDBRANCH  17  18
ENDBRANCH   1  17
TORSDOF 14
ENDMDL
MODEL 3
REMARK VINA RESULT:      -9.9      2.128      3.419
REMARK SMILES O=C(Cc1cccnc1Cl)NCCCCCCNC(=O)c1ccc(-c2c3nc(c(-c4c(F)cccc4F)c4ccc([nH]4)c(-c4c(F)cccc4F)c4nc(c(-c5c(F)cccc5F)c5ccc2[nH]5)C=C4)C=C3)cc1
REMARK SMILES IDX 15 1 14 2 13 3 12 4 11 5 1 6 2 7 3 9 4 10 5 11 9 12 6 13
REMARK SMILES IDX 8 14 10 15 7 16 16 17 17 18 18 19 19 20 20 22 21 23 22 24
REMARK SMILES IDX 74 25 23 26 73 27 24 28 25 29 26 30 67 31 27 32 72 33 66 34
REMARK SMILES IDX 68 35 28 36 71 37 65 38 64 39 29 41 55 42 38 43 54 44 39 45
REMARK SMILES IDX 42 46 53 47 69 48 40 49 41 50 52 52 70 53 43 54 30 55 31 56
REMARK SMILES IDX 36 57 32 58 33 59 35 60 37 61 34 62 56 63 57 64 62 65 58 66
REMARK SMILES IDX 59 67 61 68 63 69 60 70 44 71 45 72 50 73 46 74 47 75 49 76
REMARK SMILES IDX 51 77 48 78
REMARK H PARENT 11 8 18 21 68 40 42 51
REMARK Flexibility Score: inf
ROOT
ATOM      1  C   UNL A   1      31.362  30.817  25.981  1.00  0.00     0.002 C 
ENDROOT
BRANCH   1   2
ATOM      2  C   UNL A   1      32.236  29.858  26.794  1.00  0.00     0.002 C 
BRANCH   2   3
ATOM      3  C   UNL A   1      31.563  28.541  27.206  1.00  0.00     0.021 C 
BRANCH   3   4
ATOM      4  C   UNL A   1      31.837  27.356  26.277  1.00  0.00     0.116 C 
BRANCH   4   5
ATOM      5  N   UNL A   1      31.164  27.527  25.008  1.00  0.00    -0.356 N 
ATOM      6  O   UNL A   1      29.548  25.922  25.295  1.00  0.00    -0.275 OA
ATOM      7  C   UNL A   1      30.085  26.779  24.601  1.00  0.00     0.224 C 
ATOM      8  H   UNL A   1      31.499  28.225  24.398  1.00  0.00     0.163 HD
BRANCH   7   9
ATOM      9  C   UNL A   1      29.635  27.070  23.178  1.00  0.00     0.138 C 
BRANCH   9  10
ATOM     10  C   UNL A   1      29.025  28.437  23.010  1.00  0.00    -0.001 A 
ATOM     11  C   UNL A   1      29.806  29.491  22.521  1.00  0.00     0.009 A 
ATOM     12  C   UNL A   1      27.692  28.729  23.293  1.00  0.00     0.132 A 
ATOM     13  C   UNL A   1      29.243  30.753  22.345  1.00  0.00     0.020 A 
ATOM     14  N   UNL A   1      27.115  29.937  23.121  1.00  0.00    -0.244 NA
ATOM     15  Cl  UNL A   1      26.588  27.565  23.920  1.00  0.00    -0.062 Cl
ATOM     16  C   UNL A   1      27.904  30.923  22.651  1.00  0.00     0.113 A 
ENDBRANCH   9  10
ENDBRANCH   7   9
ENDBRANCH   4   5
ENDBRANCH   3   4
ENDBRANCH   2   3
ENDBRANCH   1   2
BRANCH   1  17
ATOM     17  C   UNL A   1      31.301  32.247  26.518  1.00  0.00     0.021 C 
BRANCH  17  18
ATOM     18  C   UNL A   1      32.619  32.784  27.067  1.00  0.00     0.116 C 
BRANCH  18  19
ATOM     19  N   UNL A   1      32.486  34.104  27.662  1.00  0.00    -0.352 N 
ATOM     20  C   UNL A   1      33.200  34.666  28.689  1.00  0.00     0.251 C 
ATOM     21  H   UNL A   1      31.783  34.675  27.273  1.00  0.00     0.163 HD
ATOM     22  O   UNL A   1      32.854  35.747  29.164  1.00  0.00    -0.269 OA
BRANCH  20  23
ATOM     23  C   UNL A   1      34.376  33.963  29.247  1.00  0.00     0.039 A 
ATOM     24  C   UNL A   1      34.174  32.961  30.200  1.00  0.00     0.014 A 
ATOM     25  C   UNL A   1      35.674  34.298  28.849  1.00  0.00     0.014 A 
ATOM     26  C   UNL A   1      35.268  32.264  30.718  1.00  0.00     0.010 A 
ATOM     27  C   UNL A   1      36.756  33.554  29.310  1.00  0.00     0.010 A 
ATOM     28  C   UNL A   1      36.567  32.538  30.259  1.00  0.00    -0.014 A 
BRANCH  28  29
ATOM     29  C   UNL A   1      37.742  31.800  30.791  1.00  0.00     0.031 A 
ATOM     30  C   UNL A   1      38.265  32.113  32.168  1.00  0.00     0.074 A 
ATOM     31  C   UNL A   1      38.366  30.883  30.027  1.00  0.00     0.049 A 
ATOM     32  N   UNL A   1      39.316  31.636  32.784  1.00  0.00    -0.248 NA
ATOM     33  C   UNL A   1      37.518  33.114  32.948  1.00  0.00     0.031 C 
ATOM     34  C   UNL A   1      37.985  30.515  28.661  1.00  0.00     0.029 A 
ATOM     35  N   UNL A   1      39.461  30.098  30.288  1.00  0.00    -0.354 N 
ATOM     36  C   UNL A   1      39.358  32.279  34.016  1.00  0.00     0.074 A 
ATOM     37  C   UNL A   1      38.267  33.226  34.035  1.00  0.00     0.031 C 
ATOM     38  C   UNL A   1      38.824  29.568  28.211  1.00  0.00     0.029 A 
ATOM     39  C   UNL A   1      39.820  29.284  29.240  1.00  0.00     0.049 A 
ATOM     40  H   UNL A   1      39.944  30.116  31.146  1.00  0.00     0.167 HD
ATOM     41  C   UNL A   1      40.209  32.076  35.050  1.00  0.00     0.037 A 
ATOM     42  C   UNL A   1      40.840  28.414  29.121  1.00  0.00     0.037 A 
ATOM     43  C   UNL A   1      41.285  31.121  35.039  1.00  0.00     0.049 A 
ATOM     44  C   UNL A   1      41.775  28.214  30.283  1.00  0.00     0.074 A 
ATOM     45  C   UNL A   1      42.195  30.834  36.042  1.00  0.00     0.029 A 
ATOM     46  N   UNL A   1      41.589  30.288  33.973  1.00  0.00    -0.354 N 
ATOM     47  N   UNL A   1      41.777  28.801  31.455  1.00  0.00    -0.248 NA
ATOM     48  C   UNL A   1      42.844  27.218  30.111  1.00  0.00     0.031 C 
ATOM     49  C   UNL A   1      43.067  29.847  35.572  1.00  0.00     0.029 A 
ATOM     50  C   UNL A   1      42.671  29.487  34.295  1.00  0.00     0.049 A 
ATOM     51  H   UNL A   1      41.107  30.270  33.115  1.00  0.00     0.167 HD
ATOM     52  C   UNL A   1      42.814  28.216  32.173  1.00  0.00     0.074 A 
ATOM     53  C   UNL A   1      43.412  27.222  31.308  1.00  0.00     0.031 C 
ATOM     54  C   UNL A   1      43.234  28.480  33.434  1.00  0.00     0.037 A 
BRANCH  41  55
ATOM     55  C   UNL A   1      39.992  32.890  36.292  1.00  0.00     0.057 A 
ATOM     56  C   UNL A   1      40.732  34.055  36.542  1.00  0.00     0.134 A 
ATOM     57  C   UNL A   1      39.009  32.539  37.225  1.00  0.00     0.134 A 
ATOM     58  F   UNL A   1      41.699  34.439  35.695  1.00  0.00    -0.206 F 
ATOM     59  C   UNL A   1      40.517  34.827  37.684  1.00  0.00     0.040 A 
ATOM     60  C   UNL A   1      38.765  33.320  38.356  1.00  0.00     0.040 A 
ATOM     61  F   UNL A   1      38.260  31.441  37.045  1.00  0.00    -0.206 F 
ATOM     62  C   UNL A   1      39.524  34.464  38.591  1.00  0.00     0.006 A 
ENDBRANCH  41  55
BRANCH  42  63
ATOM     63  C   UNL A   1      41.033  27.648  27.861  1.00  0.00     0.057 A 
ATOM     64  C   UNL A   1      40.501  26.363  27.705  1.00  0.00     0.134 A 
ATOM     65  C   UNL A   1      41.792  28.163  26.804  1.00  0.00     0.134 A 
ATOM     66  F   UNL A   1      39.780  25.806  28.690  1.00  0.00    -0.206 F 
ATOM     67  C   UNL A   1      40.746  25.603  26.560  1.00  0.00     0.040 A 
ATOM     68  C   UNL A   1      42.022  27.427  25.641  1.00  0.00     0.040 A 
ATOM     69  F   UNL A   1      42.323  29.393  26.887  1.00  0.00    -0.206 F 
ATOM     70  C   UNL A   1      41.508  26.136  25.523  1.00  0.00     0.006 A 
ENDBRANCH  42  63
BRANCH  54  71
ATOM     71  C   UNL A   1      44.348  27.634  33.978  1.00  0.00     0.057 A 
ATOM     72  C   UNL A   1      45.692  28.013  33.875  1.00  0.00     0.134 A 
ATOM     73  C   UNL A   1      44.064  26.433  34.641  1.00  0.00     0.134 A 
ATOM     74  F   UNL A   1      46.033  29.146  33.242  1.00  0.00    -0.206 F 
ATOM     75  C   UNL A   1      46.716  27.213  34.385  1.00  0.00     0.040 A 
ATOM     76  C   UNL A   1      45.076  25.639  35.180  1.00  0.00     0.040 A 
ATOM     77  F   UNL A   1      42.796  26.016  34.784  1.00  0.00    -0.206 F 
ATOM     78  C   UNL A   1      46.408  26.025  35.045  1.00  0.00     0.006 A 
ENDBRANCH  54  71
ENDBRANCH  28  29
ENDBRANCH  20  23
ENDBRANCH  18  19
ENDBRANCH  17  18
ENDBRANCH   1  17
TORSDOF 14
ENDMDL
