MODEL 1
REMARK VINA RESULT:     -11.6      0.000      0.000
REMARK SMILES Cc1ccc(NC(=O)C[C@H]([NH2+]Cc2cccnc2)C(=O)NCCCCCCNC(=O)c2ccc(-c3c4nc(c(-c5c(F)cccc5F)c5ccc([nH]5)c(-c5c(F)cccc5F)c5nc(c(-c6c(F)cccc6F)c6ccc3[nH]6)C=C5)C=C4)cc2)cc1Cl
REMARK SMILES IDX 24 1 23 2 22 3 21 4 19 5 20 6 10 8 9 9 7 10 6 11 8 13 5 14
REMARK SMILES IDX 1 15 2 16 3 17 86 18 4 19 85 20 87 21 11 22 12 25 13 26
REMARK SMILES IDX 14 27 18 28 15 29 17 30 16 31 25 32 26 33 27 34 28 35 29 36
REMARK SMILES IDX 30 38 31 39 32 40 84 41 33 42 83 43 34 44 35 45 36 46 77 47
REMARK SMILES IDX 37 48 82 49 76 50 78 51 38 52 81 53 75 54 74 55 39 57 65 58
REMARK SMILES IDX 48 59 64 60 49 61 52 62 63 63 79 64 50 65 51 66 62 68 80 69
REMARK SMILES IDX 53 70 40 71 41 72 46 73 42 74 43 75 45 76 47 77 44 78 66 79
REMARK SMILES IDX 67 80 72 81 68 82 69 83 71 84 73 85 70 86 54 87 55 88 60 89
REMARK SMILES IDX 56 90 57 91 59 92 61 93 58 94
REMARK H PARENT 21 7 6 12 11 23 11 24 28 37 78 56 52 67
REMARK Flexibility Score: inf
ROOT
ATOM      1  C   UNL A   1      36.606  21.690  24.302  1.00  0.00     0.002 C 
ENDROOT
BRANCH   1   2
ATOM      2  C   UNL A   1      36.490  23.024  23.565  1.00  0.00     0.021 C 
BRANCH   2   3
ATOM      3  C   UNL A   1      35.450  24.017  24.110  1.00  0.00     0.116 C 
BRANCH   3   4
ATOM      4  N   UNL A   1      35.005  23.672  25.465  1.00  0.00    -0.351 N 
ATOM      5  C   UNL A   1      33.930  23.082  26.050  1.00  0.00     0.278 C 
ATOM      6  O   UNL A   1      33.997  22.987  27.287  1.00  0.00    -0.268 OA
ATOM      7  H   UNL A   1      35.671  23.944  26.137  1.00  0.00     0.163 HD
BRANCH   5   8
ATOM      8  C   UNL A   1      32.611  22.602  25.356  1.00  0.00     0.282 C 
BRANCH   8   9
ATOM      9  C   UNL A   1      31.413  22.407  26.256  1.00  0.00     0.175 C 
BRANCH   9  10
ATOM     10  C   UNL A   1      30.389  23.416  26.753  1.00  0.00     0.230 C 
ATOM     11  N   UNL A   1      30.089  24.681  26.409  1.00  0.00    -0.326 N 
ATOM     12  H   UNL A   1      29.347  25.007  26.968  1.00  0.00     0.169 HD
ATOM     13  O   UNL A   1      29.638  22.986  27.654  1.00  0.00    -0.274 OA
BRANCH  11  14
ATOM     14  C   UNL A   1      30.483  25.693  25.520  1.00  0.00     0.042 A 
ATOM     15  C   UNL A   1      31.321  28.930  22.746  1.00  0.00     0.046 C 
ATOM     16  C   UNL A   1      31.052  27.785  23.675  1.00  0.00    -0.032 A 
ATOM     17  C   UNL A   1      29.799  27.162  23.691  1.00  0.00     0.007 A 
ATOM     18  C   UNL A   1      32.016  27.333  24.574  1.00  0.00     0.046 A 
ATOM     19  C   UNL A   1      29.522  26.132  24.602  1.00  0.00     0.026 A 
ATOM     20  C   UNL A   1      31.729  26.284  25.451  1.00  0.00     0.047 A 
ATOM     21  Cl  UNL A   1      33.596  28.031  24.649  1.00  0.00    -0.084 Cl
ENDBRANCH  11  14
ENDBRANCH   9  10
ENDBRANCH   8   9
BRANCH   8  22
ATOM     22  N   UNL A   1      32.943  21.584  24.345  1.00  0.00    -0.332 N 
ATOM     23  H   UNL A   1      33.881  21.243  24.558  1.00  0.00     0.347 HD
ATOM     24  H   UNL A   1      32.831  22.069  23.456  1.00  0.00     0.347 HD
BRANCH  22  25
ATOM     25  C   UNL A   1      32.079  20.417  24.224  1.00  0.00     0.299 C 
BRANCH  25  26
ATOM     26  C   UNL A   1      32.908  19.196  23.899  1.00  0.00     0.024 A 
ATOM     27  C   UNL A   1      34.102  18.904  24.567  1.00  0.00     0.013 A 
ATOM     28  C   UNL A   1      32.472  18.265  22.957  1.00  0.00     0.120 A 
ATOM     29  C   UNL A   1      34.775  17.713  24.302  1.00  0.00     0.021 A 
ATOM     30  N   UNL A   1      33.108  17.103  22.671  1.00  0.00    -0.264 NA
ATOM     31  C   UNL A   1      34.240  16.850  23.361  1.00  0.00     0.111 A 
ENDBRANCH  25  26
ENDBRANCH  22  25
ENDBRANCH   8  22
ENDBRANCH   5   8
ENDBRANCH   3   4
ENDBRANCH   2   3
ENDBRANCH   1   2
BRANCH   1  32
ATOM     32  C   UNL A   1      37.933  21.438  25.024  1.00  0.00     0.002 C 
BRANCH  32  33
ATOM     33  C   UNL A   1      38.520  20.023  24.927  1.00  0.00     0.021 C 
BRANCH  33  34
ATOM     34  C   UNL A   1      39.237  19.485  26.168  1.00  0.00     0.116 C 
BRANCH  34  35
ATOM     35  N   UNL A   1      40.557  18.942  25.872  1.00  0.00    -0.352 N 
ATOM     36  C   UNL A   1      41.800  19.508  25.881  1.00  0.00     0.251 C 
ATOM     37  H   UNL A   1      40.551  17.990  25.619  1.00  0.00     0.163 HD
ATOM     38  O   UNL A   1      42.749  18.859  25.425  1.00  0.00    -0.269 OA
BRANCH  36  39
ATOM     39  C   UNL A   1      42.059  20.870  26.403  1.00  0.00     0.039 A 
ATOM     40  C   UNL A   1      41.941  21.083  27.784  1.00  0.00     0.014 A 
ATOM     41  C   UNL A   1      42.320  21.959  25.565  1.00  0.00     0.014 A 
ATOM     42  C   UNL A   1      42.133  22.360  28.322  1.00  0.00     0.010 A 
ATOM     43  C   UNL A   1      42.568  23.224  26.110  1.00  0.00     0.010 A 
ATOM     44  C   UNL A   1      42.476  23.439  27.493  1.00  0.00    -0.014 A 
BRANCH  44  45
ATOM     45  C   UNL A   1      42.756  24.780  28.075  1.00  0.00     0.031 A 
ATOM     46  C   UNL A   1      44.147  25.169  28.500  1.00  0.00     0.074 A 
ATOM     47  C   UNL A   1      41.741  25.647  28.256  1.00  0.00     0.049 A 
ATOM     48  N   UNL A   1      44.568  26.293  29.027  1.00  0.00    -0.248 NA
ATOM     49  C   UNL A   1      45.200  24.157  28.329  1.00  0.00     0.031 C 
ATOM     50  C   UNL A   1      40.338  25.385  27.931  1.00  0.00     0.029 A 
ATOM     51  N   UNL A   1      41.730  26.926  28.756  1.00  0.00    -0.354 N 
ATOM     52  C   UNL A   1      45.925  26.119  29.263  1.00  0.00     0.074 A 
ATOM     53  C   UNL A   1      46.250  24.767  28.860  1.00  0.00     0.031 C 
ATOM     54  C   UNL A   1      39.609  26.476  28.213  1.00  0.00     0.029 A 
ATOM     55  C   UNL A   1      40.485  27.504  28.765  1.00  0.00     0.049 A 
ATOM     56  H   UNL A   1      42.541  27.385  29.079  1.00  0.00     0.167 HD
ATOM     57  C   UNL A   1      46.823  27.008  29.754  1.00  0.00     0.037 A 
ATOM     58  C   UNL A   1      40.090  28.727  29.168  1.00  0.00     0.037 A 
ATOM     59  C   UNL A   1      46.509  28.363  30.132  1.00  0.00     0.049 A 
ATOM     60  C   UNL A   1      41.107  29.697  29.697  1.00  0.00     0.074 A 
ATOM     61  C   UNL A   1      47.367  29.358  30.571  1.00  0.00     0.029 A 
ATOM     62  N   UNL A   1      45.237  28.913  30.119  1.00  0.00    -0.354 N 
ATOM     63  N   UNL A   1      42.400  29.543  29.844  1.00  0.00    -0.248 NA
ATOM     64  C   UNL A   1      40.609  31.019  30.108  1.00  0.00     0.031 C 
ATOM     65  C   UNL A   1      46.608  30.497  30.862  1.00  0.00     0.029 A 
ATOM     66  C   UNL A   1      45.283  30.225  30.564  1.00  0.00     0.049 A 
ATOM     67  H   UNL A   1      44.421  28.442  29.836  1.00  0.00     0.167 HD
ATOM     68  C   UNL A   1      42.873  30.750  30.341  1.00  0.00     0.074 A 
ATOM     69  C   UNL A   1      41.731  31.633  30.453  1.00  0.00     0.031 C 
ATOM     70  C   UNL A   1      44.141  31.096  30.674  1.00  0.00     0.037 A 
BRANCH  57  71
ATOM     71  C   UNL A   1      48.242  26.542  29.914  1.00  0.00     0.057 A 
ATOM     72  C   UNL A   1      49.202  26.738  28.912  1.00  0.00     0.134 A 
ATOM     73  C   UNL A   1      48.665  25.928  31.100  1.00  0.00     0.134 A 
ATOM     74  F   UNL A   1      48.861  27.313  27.748  1.00  0.00    -0.206 F 
ATOM     75  C   UNL A   1      50.523  26.316  29.073  1.00  0.00     0.040 A 
ATOM     76  C   UNL A   1      49.988  25.524  31.282  1.00  0.00     0.040 A 
ATOM     77  F   UNL A   1      47.800  25.717  32.104  1.00  0.00    -0.206 F 
ATOM     78  C   UNL A   1      50.920  25.713  30.264  1.00  0.00     0.006 A 
ENDBRANCH  57  71
BRANCH  58  79
ATOM     79  C   UNL A   1      38.664  29.121  29.053  1.00  0.00     0.057 A 
ATOM     80  C   UNL A   1      38.145  29.595  27.843  1.00  0.00     0.134 A 
ATOM     81  C   UNL A   1      37.792  29.040  30.144  1.00  0.00     0.134 A 
ATOM     82  F   UNL A   1      38.938  29.713  26.768  1.00  0.00    -0.206 F 
ATOM     83  C   UNL A   1      36.812  29.992  27.725  1.00  0.00     0.040 A 
ATOM     84  C   UNL A   1      36.451  29.413  30.035  1.00  0.00     0.040 A 
ATOM     85  F   UNL A   1      38.229  28.588  31.329  1.00  0.00    -0.206 F 
ATOM     86  C   UNL A   1      35.960  29.897  28.824  1.00  0.00     0.006 A 
ENDBRANCH  58  79
BRANCH  70  87
ATOM     87  C   UNL A   1      44.356  32.496  31.169  1.00  0.00     0.057 A 
ATOM     88  C   UNL A   1      44.307  32.813  32.533  1.00  0.00     0.134 A 
ATOM     89  C   UNL A   1      44.622  33.537  30.272  1.00  0.00     0.134 A 
ATOM     90  F   UNL A   1      44.043  31.864  33.443  1.00  0.00    -0.206 F 
ATOM     91  C   UNL A   1      44.485  34.123  32.984  1.00  0.00     0.040 A 
ATOM     92  C   UNL A   1      44.826  34.846  30.713  1.00  0.00     0.040 A 
ATOM     93  F   UNL A   1      44.689  33.301  28.954  1.00  0.00    -0.206 F 
ATOM     94  C   UNL A   1      44.750  35.143  32.072  1.00  0.00     0.006 A 
ENDBRANCH  70  87
ENDBRANCH  44  45
ENDBRANCH  36  39
ENDBRANCH  34  35
ENDBRANCH  33  34
ENDBRANCH  32  33
ENDBRANCH   1  32
TORSDOF 19
ENDMDL
MODEL 2
REMARK VINA RESULT:     -11.5      0.364      6.011
REMARK SMILES Cc1ccc(NC(=O)C[C@H]([NH2+]Cc2cccnc2)C(=O)NCCCCCCNC(=O)c2ccc(-c3c4nc(c(-c5c(F)cccc5F)c5ccc([nH]5)c(-c5c(F)cccc5F)c5nc(c(-c6c(F)cccc6F)c6ccc3[nH]6)C=C5)C=C4)cc2)cc1Cl
REMARK SMILES IDX 24 1 23 2 22 3 21 4 19 5 20 6 10 8 9 9 7 10 6 11 8 13 5 14
REMARK SMILES IDX 1 15 2 16 3 17 86 18 4 19 85 20 87 21 11 22 12 25 13 26
REMARK SMILES IDX 14 27 18 28 15 29 17 30 16 31 25 32 26 33 27 34 28 35 29 36
REMARK SMILES IDX 30 38 31 39 32 40 84 41 33 42 83 43 34 44 35 45 36 46 77 47
REMARK SMILES IDX 37 48 82 49 76 50 78 51 38 52 81 53 75 54 74 55 39 57 65 58
REMARK SMILES IDX 48 59 64 60 49 61 52 62 63 63 79 64 50 65 51 66 62 68 80 69
REMARK SMILES IDX 53 70 40 71 41 72 46 73 42 74 43 75 45 76 47 77 44 78 66 79
REMARK SMILES IDX 67 80 72 81 68 82 69 83 71 84 73 85 70 86 54 87 55 88 60 89
REMARK SMILES IDX 56 90 57 91 59 92 61 93 58 94
REMARK H PARENT 21 7 6 12 11 23 11 24 28 37 78 56 52 67
REMARK Flexibility Score: inf
ROOT
ATOM      1  C   UNL A   1      36.477  21.782  24.244  1.00  0.00     0.002 C 
ENDROOT
BRANCH   1   2
ATOM      2  C   UNL A   1      36.396  23.086  23.451  1.00  0.00     0.021 C 
BRANCH   2   3
ATOM      3  C   UNL A   1      35.229  24.025  23.798  1.00  0.00     0.116 C 
BRANCH   3   4
ATOM      4  N   UNL A   1      34.775  23.864  25.183  1.00  0.00    -0.351 N 
ATOM      5  C   UNL A   1      33.726  23.302  25.839  1.00  0.00     0.278 C 
ATOM      6  O   UNL A   1      33.771  23.403  27.076  1.00  0.00    -0.268 OA
ATOM      7  H   UNL A   1      35.406  24.280  25.814  1.00  0.00     0.163 HD
BRANCH   5   8
ATOM      8  C   UNL A   1      32.458  22.634  25.210  1.00  0.00     0.282 C 
BRANCH   8   9
ATOM      9  C   UNL A   1      31.268  22.461  26.127  1.00  0.00     0.175 C 
BRANCH   9  10
ATOM     10  C   UNL A   1      30.310  23.497  26.693  1.00  0.00     0.230 C 
ATOM     11  N   UNL A   1      30.023  24.770  26.369  1.00  0.00    -0.326 N 
ATOM     12  H   UNL A   1      29.331  25.116  26.978  1.00  0.00     0.169 HD
ATOM     13  O   UNL A   1      29.613  23.088  27.645  1.00  0.00    -0.274 OA
BRANCH  11  14
ATOM     14  C   UNL A   1      30.380  25.771  25.453  1.00  0.00     0.042 A 
ATOM     15  C   UNL A   1      31.107  28.971  22.605  1.00  0.00     0.046 C 
ATOM     16  C   UNL A   1      30.876  27.839  23.559  1.00  0.00    -0.032 A 
ATOM     17  C   UNL A   1      29.629  27.207  23.624  1.00  0.00     0.007 A 
ATOM     18  C   UNL A   1      31.870  27.407  24.433  1.00  0.00     0.046 A 
ATOM     19  C   UNL A   1      29.388  26.190  24.559  1.00  0.00     0.026 A 
ATOM     20  C   UNL A   1      31.619  26.370  25.335  1.00  0.00     0.047 A 
ATOM     21  Cl  UNL A   1      33.448  28.116  24.448  1.00  0.00    -0.084 Cl
ENDBRANCH  11  14
ENDBRANCH   9  10
ENDBRANCH   8   9
BRANCH   8  22
ATOM     22  N   UNL A   1      32.879  21.525  24.337  1.00  0.00    -0.332 N 
ATOM     23  H   UNL A   1      33.812  21.244  24.639  1.00  0.00     0.347 HD
ATOM     24  H   UNL A   1      32.808  21.908  23.396  1.00  0.00     0.347 HD
BRANCH  22  25
ATOM     25  C   UNL A   1      32.059  20.323  24.296  1.00  0.00     0.299 C 
BRANCH  25  26
ATOM     26  C   UNL A   1      32.912  19.133  23.922  1.00  0.00     0.024 A 
ATOM     27  C   UNL A   1      34.113  18.840  24.576  1.00  0.00     0.013 A 
ATOM     28  C   UNL A   1      32.493  18.230  22.946  1.00  0.00     0.120 A 
ATOM     29  C   UNL A   1      34.810  17.674  24.264  1.00  0.00     0.021 A 
ATOM     30  N   UNL A   1      33.152  17.093  22.614  1.00  0.00    -0.264 NA
ATOM     31  C   UNL A   1      34.290  16.837  23.291  1.00  0.00     0.111 A 
ENDBRANCH  25  26
ENDBRANCH  22  25
ENDBRANCH   8  22
ENDBRANCH   5   8
ENDBRANCH   3   4
ENDBRANCH   2   3
ENDBRANCH   1   2
BRANCH   1  32
ATOM     32  C   UNL A   1      37.773  21.554  25.028  1.00  0.00     0.002 C 
BRANCH  32  33
ATOM     33  C   UNL A   1      38.412  20.163  24.925  1.00  0.00     0.021 C 
BRANCH  33  34
ATOM     34  C   UNL A   1      39.118  19.631  26.175  1.00  0.00     0.116 C 
BRANCH  34  35
ATOM     35  N   UNL A   1      40.416  19.035  25.886  1.00  0.00    -0.352 N 
ATOM     36  C   UNL A   1      41.682  19.550  25.903  1.00  0.00     0.251 C 
ATOM     37  H   UNL A   1      40.373  18.085  25.630  1.00  0.00     0.163 HD
ATOM     38  O   UNL A   1      42.606  18.862  25.450  1.00  0.00    -0.269 OA
BRANCH  36  39
ATOM     39  C   UNL A   1      41.993  20.898  26.429  1.00  0.00     0.039 A 
ATOM     40  C   UNL A   1      41.930  21.100  27.815  1.00  0.00     0.014 A 
ATOM     41  C   UNL A   1      42.253  21.990  25.593  1.00  0.00     0.014 A 
ATOM     42  C   UNL A   1      42.173  22.365  28.359  1.00  0.00     0.010 A 
ATOM     43  C   UNL A   1      42.553  23.242  26.142  1.00  0.00     0.010 A 
ATOM     44  C   UNL A   1      42.514  23.444  27.529  1.00  0.00    -0.014 A 
BRANCH  44  45
ATOM     45  C   UNL A   1      42.849  24.771  28.115  1.00  0.00     0.031 A 
ATOM     46  C   UNL A   1      41.784  25.807  28.355  1.00  0.00     0.074 A 
ATOM     47  C   UNL A   1      44.133  25.061  28.404  1.00  0.00     0.049 A 
ATOM     48  N   UNL A   1      41.900  27.014  28.853  1.00  0.00    -0.248 NA
ATOM     49  C   UNL A   1      40.412  25.449  27.965  1.00  0.00     0.031 C 
ATOM     50  C   UNL A   1      45.271  24.168  28.182  1.00  0.00     0.029 A 
ATOM     51  N   UNL A   1      44.698  26.188  28.948  1.00  0.00    -0.354 N 
ATOM     52  C   UNL A   1      40.625  27.563  28.825  1.00  0.00     0.074 A 
ATOM     53  C   UNL A   1      39.756  26.573  28.221  1.00  0.00     0.031 C 
ATOM     54  C   UNL A   1      46.392  24.769  28.610  1.00  0.00     0.029 A 
ATOM     55  C   UNL A   1      46.059  26.098  29.111  1.00  0.00     0.049 A 
ATOM     56  H   UNL A   1      44.177  26.986  29.198  1.00  0.00     0.167 HD
ATOM     57  C   UNL A   1      40.209  28.772  29.274  1.00  0.00     0.037 A 
ATOM     58  C   UNL A   1      46.941  26.984  29.611  1.00  0.00     0.037 A 
ATOM     59  C   UNL A   1      41.065  29.750  29.899  1.00  0.00     0.049 A 
ATOM     60  C   UNL A   1      46.454  28.313  30.114  1.00  0.00     0.074 A 
ATOM     61  C   UNL A   1      40.720  30.973  30.451  1.00  0.00     0.029 A 
ATOM     62  N   UNL A   1      42.436  29.618  30.052  1.00  0.00    -0.354 N 
ATOM     63  N   UNL A   1      45.232  28.787  30.148  1.00  0.00    -0.248 NA
ATOM     64  C   UNL A   1      47.469  29.227  30.657  1.00  0.00     0.031 C 
ATOM     65  C   UNL A   1      41.888  31.597  30.902  1.00  0.00     0.029 A 
ATOM     66  C   UNL A   1      42.955  30.746  30.669  1.00  0.00     0.049 A 
ATOM     67  H   UNL A   1      42.964  28.838  29.766  1.00  0.00     0.167 HD
ATOM     68  C   UNL A   1      45.329  30.041  30.735  1.00  0.00     0.074 A 
ATOM     69  C   UNL A   1      46.725  30.247  31.058  1.00  0.00     0.031 C 
ATOM     70  C   UNL A   1      44.347  30.942  30.985  1.00  0.00     0.037 A 
BRANCH  57  71
ATOM     71  C   UNL A   1      38.756  29.112  29.106  1.00  0.00     0.057 A 
ATOM     72  C   UNL A   1      37.854  29.050  30.176  1.00  0.00     0.134 A 
ATOM     73  C   UNL A   1      38.261  29.547  27.870  1.00  0.00     0.134 A 
ATOM     74  F   UNL A   1      38.261  28.634  31.385  1.00  0.00    -0.206 F 
ATOM     75  C   UNL A   1      36.507  29.382  30.016  1.00  0.00     0.040 A 
ATOM     76  C   UNL A   1      36.922  29.905  27.704  1.00  0.00     0.040 A 
ATOM     77  F   UNL A   1      39.072  29.639  26.804  1.00  0.00    -0.206 F 
ATOM     78  C   UNL A   1      36.040  29.817  28.778  1.00  0.00     0.006 A 
ENDBRANCH  57  71
BRANCH  58  79
ATOM     79  C   UNL A   1      48.380  26.629  29.697  1.00  0.00     0.057 A 
ATOM     80  C   UNL A   1      49.271  26.991  28.681  1.00  0.00     0.134 A 
ATOM     81  C   UNL A   1      48.895  25.918  30.786  1.00  0.00     0.134 A 
ATOM     82  F   UNL A   1      48.831  27.656  27.602  1.00  0.00    -0.206 F 
ATOM     83  C   UNL A   1      50.622  26.644  28.735  1.00  0.00     0.040 A 
ATOM     84  C   UNL A   1      50.248  25.584  30.865  1.00  0.00     0.040 A 
ATOM     85  F   UNL A   1      48.091  25.548  31.794  1.00  0.00    -0.206 F 
ATOM     86  C   UNL A   1      51.114  25.941  29.833  1.00  0.00     0.006 A 
ENDBRANCH  58  79
BRANCH  70  87
ATOM     87  C   UNL A   1      44.751  32.220  31.660  1.00  0.00     0.057 A 
ATOM     88  C   UNL A   1      45.173  33.339  30.930  1.00  0.00     0.134 A 
ATOM     89  C   UNL A   1      44.711  32.334  33.055  1.00  0.00     0.134 A 
ATOM     90  F   UNL A   1      45.248  33.290  29.592  1.00  0.00    -0.206 F 
ATOM     91  C   UNL A   1      45.571  34.517  31.567  1.00  0.00     0.040 A 
ATOM     92  C   UNL A   1      45.082  33.514  33.701  1.00  0.00     0.040 A 
ATOM     93  F   UNL A   1      44.310  31.303  33.811  1.00  0.00    -0.206 F 
ATOM     94  C   UNL A   1      45.522  34.607  32.957  1.00  0.00     0.006 A 
ENDBRANCH  70  87
ENDBRANCH  44  45
ENDBRANCH  36  39
ENDBRANCH  34  35
ENDBRANCH  33  34
ENDBRANCH  32  33
ENDBRANCH   1  32
TORSDOF 19
ENDMDL
MODEL 3
REMARK VINA RESULT:     -11.3      4.069      7.834
REMARK SMILES Cc1ccc(NC(=O)C[C@H]([NH2+]Cc2cccnc2)C(=O)NCCCCCCNC(=O)c2ccc(-c3c4nc(c(-c5c(F)cccc5F)c5ccc([nH]5)c(-c5c(F)cccc5F)c5nc(c(-c6c(F)cccc6F)c6ccc3[nH]6)C=C5)C=C4)cc2)cc1Cl
REMARK SMILES IDX 24 1 23 2 22 3 21 4 19 5 20 6 10 8 9 9 7 10 6 11 8 13 5 14
REMARK SMILES IDX 1 15 2 16 3 17 86 18 4 19 85 20 87 21 11 22 12 25 13 26
REMARK SMILES IDX 14 27 18 28 15 29 17 30 16 31 25 32 26 33 27 34 28 35 29 36
REMARK SMILES IDX 30 38 31 39 32 40 84 41 33 42 83 43 34 44 35 45 36 46 77 47
REMARK SMILES IDX 37 48 82 49 76 50 78 51 38 52 81 53 75 54 74 55 39 57 65 58
REMARK SMILES IDX 48 59 64 60 49 61 52 62 63 63 79 64 50 65 51 66 62 68 80 69
REMARK SMILES IDX 53 70 40 71 41 72 46 73 42 74 43 75 45 76 47 77 44 78 66 79
REMARK SMILES IDX 67 80 72 81 68 82 69 83 71 84 73 85 70 86 54 87 55 88 60 89
REMARK SMILES IDX 56 90 57 91 59 92 61 93 58 94
REMARK H PARENT 21 7 6 12 11 23 11 24 28 37 78 56 52 67
REMARK Flexibility Score: inf
ROOT
ATOM      1  C   UNL A   1      36.779  23.002  25.801  1.00  0.00     0.002 C 
ENDROOT
BRANCH   1   2
ATOM      2  C   UNL A   1      35.955  23.800  24.790  1.00  0.00     0.021 C 
BRANCH   2   3
ATOM      3  C   UNL A   1      34.572  24.277  25.263  1.00  0.00     0.116 C 
BRANCH   3   4
ATOM      4  N   UNL A   1      33.540  24.106  24.234  1.00  0.00    -0.351 N 
ATOM      5  C   UNL A   1      32.420  23.359  24.047  1.00  0.00     0.278 C 
ATOM      6  O   UNL A   1      31.826  23.569  22.976  1.00  0.00    -0.268 OA
ATOM      7  H   UNL A   1      33.706  24.695  23.463  1.00  0.00     0.163 HD
BRANCH   5   8
ATOM      8  C   UNL A   1      31.863  22.229  24.977  1.00  0.00     0.282 C 
BRANCH   8   9
ATOM      9  C   UNL A   1      31.447  22.651  26.368  1.00  0.00     0.175 C 
BRANCH   9  10
ATOM     10  C   UNL A   1      30.276  23.508  26.820  1.00  0.00     0.230 C 
ATOM     11  N   UNL A   1      29.852  24.744  26.501  1.00  0.00    -0.326 N 
ATOM     12  H   UNL A   1      29.037  24.954  27.012  1.00  0.00     0.169 HD
ATOM     13  O   UNL A   1      29.519  22.952  27.644  1.00  0.00    -0.274 OA
BRANCH  11  14
ATOM     14  C   UNL A   1      30.183  25.834  25.683  1.00  0.00     0.042 A 
ATOM     15  C   UNL A   1      30.855  29.172  22.983  1.00  0.00     0.046 C 
ATOM     16  C   UNL A   1      30.661  28.002  23.899  1.00  0.00    -0.032 A 
ATOM     17  C   UNL A   1      29.784  26.967  23.555  1.00  0.00     0.007 A 
ATOM     18  C   UNL A   1      31.307  27.924  25.131  1.00  0.00     0.046 A 
ATOM     19  C   UNL A   1      29.550  25.901  24.436  1.00  0.00     0.026 A 
ATOM     20  C   UNL A   1      31.085  26.838  25.980  1.00  0.00     0.047 A 
ATOM     21  Cl  UNL A   1      32.408  29.146  25.665  1.00  0.00    -0.084 Cl
ENDBRANCH  11  14
ENDBRANCH   9  10
ENDBRANCH   8   9
BRANCH   8  22
ATOM     22  N   UNL A   1      32.668  21.011  24.789  1.00  0.00    -0.332 N 
ATOM     23  H   UNL A   1      32.582  20.460  25.644  1.00  0.00     0.347 HD
ATOM     24  H   UNL A   1      33.601  21.359  24.571  1.00  0.00     0.347 HD
BRANCH  22  25
ATOM     25  C   UNL A   1      32.347  20.130  23.675  1.00  0.00     0.299 C 
BRANCH  25  26
ATOM     26  C   UNL A   1      32.702  18.704  24.029  1.00  0.00     0.024 A 
ATOM     27  C   UNL A   1      33.279  17.827  23.104  1.00  0.00     0.013 A 
ATOM     28  C   UNL A   1      32.529  18.224  25.326  1.00  0.00     0.120 A 
ATOM     29  C   UNL A   1      33.682  16.556  23.509  1.00  0.00     0.021 A 
ATOM     30  N   UNL A   1      32.902  16.991  25.748  1.00  0.00    -0.264 NA
ATOM     31  C   UNL A   1      33.482  16.190  24.829  1.00  0.00     0.111 A 
ENDBRANCH  25  26
ENDBRANCH  22  25
ENDBRANCH   8  22
ENDBRANCH   5   8
ENDBRANCH   3   4
ENDBRANCH   2   3
ENDBRANCH   1   2
BRANCH   1  32
ATOM     32  C   UNL A   1      38.189  23.532  26.082  1.00  0.00     0.002 C 
BRANCH  32  33
ATOM     33  C   UNL A   1      39.239  22.508  26.533  1.00  0.00     0.021 C 
BRANCH  33  34
ATOM     34  C   UNL A   1      40.571  23.063  27.046  1.00  0.00     0.116 C 
BRANCH  34  35
ATOM     35  N   UNL A   1      41.252  23.903  26.068  1.00  0.00    -0.352 N 
ATOM     36  C   UNL A   1      41.515  25.243  26.041  1.00  0.00     0.251 C 
ATOM     37  H   UNL A   1      41.583  23.413  25.281  1.00  0.00     0.163 HD
ATOM     38  O   UNL A   1      41.972  25.736  25.001  1.00  0.00    -0.269 OA
BRANCH  36  39
ATOM     39  C   UNL A   1      41.267  26.134  27.198  1.00  0.00     0.039 A 
ATOM     40  C   UNL A   1      42.148  27.203  27.411  1.00  0.00     0.014 A 
ATOM     41  C   UNL A   1      40.251  25.891  28.129  1.00  0.00     0.014 A 
ATOM     42  C   UNL A   1      41.983  28.048  28.514  1.00  0.00     0.010 A 
ATOM     43  C   UNL A   1      40.052  26.770  29.199  1.00  0.00     0.010 A 
ATOM     44  C   UNL A   1      40.916  27.856  29.405  1.00  0.00    -0.014 A 
BRANCH  44  45
ATOM     45  C   UNL A   1      40.695  28.802  30.534  1.00  0.00     0.031 A 
ATOM     46  C   UNL A   1      39.603  29.835  30.481  1.00  0.00     0.074 A 
ATOM     47  C   UNL A   1      41.509  28.751  31.607  1.00  0.00     0.049 A 
ATOM     48  N   UNL A   1      39.273  30.738  31.372  1.00  0.00    -0.248 NA
ATOM     49  C   UNL A   1      38.786  29.875  29.258  1.00  0.00     0.031 C 
ATOM     50  C   UNL A   1      42.634  27.830  31.771  1.00  0.00     0.029 A 
ATOM     51  N   UNL A   1      41.516  29.491  32.763  1.00  0.00    -0.354 N 
ATOM     52  C   UNL A   1      38.225  31.459  30.816  1.00  0.00     0.074 A 
ATOM     53  C   UNL A   1      38.000  30.917  29.492  1.00  0.00     0.031 C 
ATOM     54  C   UNL A   1      43.204  28.039  32.967  1.00  0.00     0.029 A 
ATOM     55  C   UNL A   1      42.505  29.127  33.644  1.00  0.00     0.049 A 
ATOM     56  H   UNL A   1      40.872  30.214  32.945  1.00  0.00     0.167 HD
ATOM     57  C   UNL A   1      37.503  32.469  31.362  1.00  0.00     0.037 A 
ATOM     58  C   UNL A   1      42.814  29.610  34.862  1.00  0.00     0.037 A 
ATOM     59  C   UNL A   1      37.707  32.995  32.688  1.00  0.00     0.049 A 
ATOM     60  C   UNL A   1      41.992  30.721  35.449  1.00  0.00     0.074 A 
ATOM     61  C   UNL A   1      36.979  33.968  33.352  1.00  0.00     0.029 A 
ATOM     62  N   UNL A   1      38.715  32.594  33.552  1.00  0.00    -0.354 N 
ATOM     63  N   UNL A   1      40.955  31.342  34.940  1.00  0.00    -0.248 NA
ATOM     64  C   UNL A   1      42.377  31.193  36.788  1.00  0.00     0.031 C 
ATOM     65  C   UNL A   1      37.570  34.184  34.602  1.00  0.00     0.029 A 
ATOM     66  C   UNL A   1      38.641  33.315  34.733  1.00  0.00     0.049 A 
ATOM     67  H   UNL A   1      39.383  31.900  33.355  1.00  0.00     0.167 HD
ATOM     68  C   UNL A   1      40.552  32.259  35.901  1.00  0.00     0.074 A 
ATOM     69  C   UNL A   1      41.443  32.101  37.032  1.00  0.00     0.031 C 
ATOM     70  C   UNL A   1      39.534  33.153  35.852  1.00  0.00     0.037 A 
BRANCH  57  71
ATOM     71  C   UNL A   1      36.420  33.079  30.520  1.00  0.00     0.057 A 
ATOM     72  C   UNL A   1      35.064  32.811  30.752  1.00  0.00     0.134 A 
ATOM     73  C   UNL A   1      36.732  33.979  29.492  1.00  0.00     0.134 A 
ATOM     74  F   UNL A   1      34.697  31.953  31.716  1.00  0.00    -0.206 F 
ATOM     75  C   UNL A   1      34.060  33.393  29.976  1.00  0.00     0.040 A 
ATOM     76  C   UNL A   1      35.736  34.585  28.725  1.00  0.00     0.040 A 
ATOM     77  F   UNL A   1      38.009  34.287  29.221  1.00  0.00    -0.206 F 
ATOM     78  C   UNL A   1      34.396  34.289  28.963  1.00  0.00     0.006 A 
ENDBRANCH  57  71
BRANCH  58  79
ATOM     79  C   UNL A   1      43.938  29.019  35.631  1.00  0.00     0.057 A 
ATOM     80  C   UNL A   1      43.721  27.966  36.526  1.00  0.00     0.134 A 
ATOM     81  C   UNL A   1      45.246  29.495  35.497  1.00  0.00     0.134 A 
ATOM     82  F   UNL A   1      42.483  27.481  36.712  1.00  0.00    -0.206 F 
ATOM     83  C   UNL A   1      44.763  27.416  37.275  1.00  0.00     0.040 A 
ATOM     84  C   UNL A   1      46.302  28.940  36.222  1.00  0.00     0.040 A 
ATOM     85  F   UNL A   1      45.519  30.499  34.651  1.00  0.00    -0.206 F 
ATOM     86  C   UNL A   1      46.059  27.902  37.119  1.00  0.00     0.006 A 
ENDBRANCH  58  79
BRANCH  70  87
ATOM     87  C   UNL A   1      39.319  34.008  37.066  1.00  0.00     0.057 A 
ATOM     88  C   UNL A   1      38.606  33.546  38.179  1.00  0.00     0.134 A 
ATOM     89  C   UNL A   1      39.839  35.307  37.124  1.00  0.00     0.134 A 
ATOM     90  F   UNL A   1      38.070  32.316  38.181  1.00  0.00    -0.206 F 
ATOM     91  C   UNL A   1      38.390  34.356  39.296  1.00  0.00     0.040 A 
ATOM     92  C   UNL A   1      39.651  36.118  38.244  1.00  0.00     0.040 A 
ATOM     93  F   UNL A   1      40.538  35.809  36.095  1.00  0.00    -0.206 F 
ATOM     94  C   UNL A   1      38.918  35.646  39.331  1.00  0.00     0.006 A 
ENDBRANCH  70  87
ENDBRANCH  44  45
ENDBRANCH  36  39
ENDBRANCH  34  35
ENDBRANCH  33  34
ENDBRANCH  32  33
ENDBRANCH   1  32
TORSDOF 19
ENDMDL
