MODEL 1
REMARK VINA RESULT:     -11.4      0.000      0.000
REMARK SMILES COc1ccc(-c2ccc(S(=O)(=O)NC(C)(C)C)cc2)c(C(=O)NCCCCCCNC(=O)c2ccc(-c3c4nc(c(-c5c(F)cccc5F)c5ccc([nH]5)c(-c5c(F)cccc5F)c5nc(c(-c6c(F)cccc6F)c6ccc3[nH]6)C=C5)C=C4)cc2)c1
REMARK SMILES IDX 26 1 25 2 24 3 22 4 23 5 21 7 3 8 4 9 88 10 5 11 6 12 2 13
REMARK SMILES IDX 1 14 7 15 8 16 20 17 9 18 19 19 10 20 11 21 12 22 13 23
REMARK SMILES IDX 14 24 15 26 16 27 17 28 18 29 27 30 28 31 29 32 30 33 31 34
REMARK SMILES IDX 32 35 33 37 34 38 35 39 87 40 36 41 86 42 37 43 38 44 39 45
REMARK SMILES IDX 80 46 40 47 85 48 79 49 81 50 41 51 84 52 78 53 77 54 42 56
REMARK SMILES IDX 68 57 51 58 67 59 52 60 55 61 66 62 82 63 53 64 54 65 65 67
REMARK SMILES IDX 83 68 56 69 43 70 44 71 49 72 45 73 46 74 48 75 50 76 47 77
REMARK SMILES IDX 69 78 70 79 75 80 71 81 72 82 74 83 76 84 73 85 57 86 58 87
REMARK SMILES IDX 63 88 59 89 60 90 62 91 64 92 61 93
REMARK H PARENT 24 6 14 25 31 36 81 55 55 66
REMARK Flexibility Score: inf
ROOT
ATOM      1  C   UNL A   1      37.122  22.909  25.229  1.00  0.00     0.021 C 
ENDROOT
BRANCH   1   2
ATOM      2  C   UNL A   1      36.274  21.727  25.688  1.00  0.00     0.116 C 
BRANCH   2   3
ATOM      3  N   UNL A   1      35.223  22.042  26.639  1.00  0.00    -0.352 N 
ATOM      4  C   UNL A   1      33.977  21.470  26.816  1.00  0.00     0.252 C 
ATOM      5  O   UNL A   1      33.345  21.761  27.827  1.00  0.00    -0.269 OA
ATOM      6  H   UNL A   1      35.430  22.781  27.256  1.00  0.00     0.163 HD
BRANCH   4   7
ATOM      7  C   UNL A   1      33.403  20.544  25.795  1.00  0.00     0.051 A 
ATOM      8  C   UNL A   1      32.758  18.256  25.240  1.00  0.00     0.119 A 
ATOM      9  C   UNL A   1      32.520  18.653  23.930  1.00  0.00     0.047 A 
ATOM     10  C   UNL A   1      33.171  19.206  26.170  1.00  0.00     0.060 A 
ATOM     11  C   UNL A   1      32.640  19.996  23.570  1.00  0.00     0.013 A 
ATOM     12  C   UNL A   1      33.046  20.981  24.498  1.00  0.00    -0.005 A 
BRANCH   8  13
ATOM     13  O   UNL A   1      32.562  16.926  25.484  1.00  0.00    -0.497 OA
ATOM     14  C   UNL A   1      33.171  16.009  24.583  1.00  0.00     0.278 C 
ENDBRANCH   8  13
BRANCH  12  15
ATOM     15  C   UNL A   1      32.969  22.395  24.072  1.00  0.00    -0.018 A 
ATOM     16  C   UNL A   1      33.994  22.919  23.256  1.00  0.00     0.010 A 
ATOM     17  C   UNL A   1      31.914  23.249  24.429  1.00  0.00     0.010 A 
ATOM     18  C   UNL A   1      33.978  24.245  22.823  1.00  0.00     0.022 A 
ATOM     19  C   UNL A   1      31.866  24.568  23.958  1.00  0.00     0.022 A 
ATOM     20  C   UNL A   1      32.911  25.067  23.178  1.00  0.00     0.082 A 
BRANCH  20  21
ATOM     21  S   UNL A   1      32.941  26.750  22.633  1.00  0.00     0.241 S 
ATOM     22  O   UNL A   1      33.605  27.538  23.647  1.00  0.00    -0.207 OA
ATOM     23  O   UNL A   1      33.419  26.731  21.267  1.00  0.00    -0.207 OA
BRANCH  21  24
ATOM     24  N   UNL A   1      31.342  27.235  22.526  1.00  0.00    -0.206 NA
ATOM     25  H   UNL A   1      30.814  26.370  22.421  1.00  0.00     0.141 HD
BRANCH  24  26
ATOM     26  C   UNL A   1      30.582  28.027  23.517  1.00  0.00     0.025 C 
ATOM     27  C   UNL A   1      31.335  29.278  23.973  1.00  0.00     0.028 C 
ATOM     28  C   UNL A   1      29.293  28.473  22.797  1.00  0.00     0.028 C 
ATOM     29  C   UNL A   1      30.188  27.177  24.725  1.00  0.00     0.028 C 
ENDBRANCH  24  26
ENDBRANCH  21  24
ENDBRANCH  20  21
ENDBRANCH  12  15
ENDBRANCH   4   7
ENDBRANCH   2   3
ENDBRANCH   1   2
BRANCH   1  30
ATOM     30  C   UNL A   1      38.269  23.360  26.134  1.00  0.00     0.002 C 
BRANCH  30  31
ATOM     31  C   UNL A   1      39.328  22.321  26.509  1.00  0.00     0.002 C 
BRANCH  31  32
ATOM     32  C   UNL A   1      39.415  21.065  25.641  1.00  0.00     0.021 C 
BRANCH  32  33
ATOM     33  C   UNL A   1      39.759  19.760  26.354  1.00  0.00     0.116 C 
BRANCH  33  34
ATOM     34  N   UNL A   1      40.974  19.136  25.865  1.00  0.00    -0.352 N 
ATOM     35  C   UNL A   1      42.263  19.610  25.829  1.00  0.00     0.251 C 
ATOM     36  H   UNL A   1      40.855  18.229  25.500  1.00  0.00     0.163 HD
ATOM     37  O   UNL A   1      43.135  18.940  25.282  1.00  0.00    -0.269 OA
BRANCH  35  38
ATOM     38  C   UNL A   1      42.616  20.929  26.408  1.00  0.00     0.039 A 
ATOM     39  C   UNL A   1      43.005  21.950  25.534  1.00  0.00     0.014 A 
ATOM     40  C   UNL A   1      42.608  21.167  27.787  1.00  0.00     0.014 A 
ATOM     41  C   UNL A   1      43.326  23.215  26.033  1.00  0.00     0.010 A 
ATOM     42  C   UNL A   1      42.863  22.449  28.278  1.00  0.00     0.010 A 
ATOM     43  C   UNL A   1      43.229  23.486  27.407  1.00  0.00    -0.014 A 
BRANCH  43  44
ATOM     44  C   UNL A   1      43.492  24.854  27.923  1.00  0.00     0.031 A 
ATOM     45  C   UNL A   1      44.897  25.345  28.135  1.00  0.00     0.074 A 
ATOM     46  C   UNL A   1      42.452  25.657  28.225  1.00  0.00     0.049 A 
ATOM     47  N   UNL A   1      45.309  26.526  28.522  1.00  0.00    -0.248 NA
ATOM     48  C   UNL A   1      45.980  24.378  27.904  1.00  0.00     0.031 C 
ATOM     49  C   UNL A   1      41.041  25.282  28.124  1.00  0.00     0.029 A 
ATOM     50  N   UNL A   1      42.422  26.955  28.667  1.00  0.00    -0.354 N 
ATOM     51  C   UNL A   1      46.694  26.444  28.586  1.00  0.00     0.074 A 
ATOM     52  C   UNL A   1      47.048  25.080  28.252  1.00  0.00     0.031 C 
ATOM     53  C   UNL A   1      40.283  26.341  28.451  1.00  0.00     0.029 A 
ATOM     54  C   UNL A   1      41.152  27.459  28.802  1.00  0.00     0.049 A 
ATOM     55  H   UNL A   1      43.233  27.476  28.867  1.00  0.00     0.167 HD
ATOM     56  C   UNL A   1      47.592  27.417  28.873  1.00  0.00     0.037 A 
ATOM     57  C   UNL A   1      40.732  28.689  29.152  1.00  0.00     0.037 A 
ATOM     58  C   UNL A   1      47.242  28.778  29.189  1.00  0.00     0.049 A 
ATOM     59  C   UNL A   1      41.745  29.760  29.442  1.00  0.00     0.074 A 
ATOM     60  C   UNL A   1      48.081  29.853  29.433  1.00  0.00     0.029 A 
ATOM     61  N   UNL A   1      45.945  29.252  29.311  1.00  0.00    -0.354 N 
ATOM     62  N   UNL A   1      43.053  29.689  29.418  1.00  0.00    -0.248 NA
ATOM     63  C   UNL A   1      41.219  31.087  29.796  1.00  0.00     0.031 C 
ATOM     64  C   UNL A   1      47.291  30.967  29.739  1.00  0.00     0.029 A 
ATOM     65  C   UNL A   1      45.958  30.597  29.645  1.00  0.00     0.049 A 
ATOM     66  H   UNL A   1      45.131  28.712  29.179  1.00  0.00     0.167 HD
ATOM     67  C   UNL A   1      43.509  30.964  29.728  1.00  0.00     0.074 A 
ATOM     68  C   UNL A   1      42.335  31.791  29.921  1.00  0.00     0.031 C 
ATOM     69  C   UNL A   1      44.784  31.408  29.840  1.00  0.00     0.037 A 
BRANCH  56  70
ATOM     70  C   UNL A   1      49.044  27.038  28.856  1.00  0.00     0.057 A 
ATOM     71  C   UNL A   1      49.799  27.061  27.674  1.00  0.00     0.134 A 
ATOM     72  C   UNL A   1      49.701  26.658  30.032  1.00  0.00     0.134 A 
ATOM     73  F   UNL A   1      49.227  27.404  26.509  1.00  0.00    -0.206 F 
ATOM     74  C   UNL A   1      51.143  26.687  27.657  1.00  0.00     0.040 A 
ATOM     75  C   UNL A   1      51.053  26.307  30.033  1.00  0.00     0.040 A 
ATOM     76  F   UNL A   1      49.042  26.621  31.200  1.00  0.00    -0.206 F 
ATOM     77  C   UNL A   1      51.776  26.313  28.842  1.00  0.00     0.006 A 
ENDBRANCH  56  70
BRANCH  57  78
ATOM     78  C   UNL A   1      39.280  28.989  29.180  1.00  0.00     0.057 A 
ATOM     79  C   UNL A   1      38.606  29.376  28.015  1.00  0.00     0.134 A 
ATOM     80  C   UNL A   1      38.530  28.879  30.355  1.00  0.00     0.134 A 
ATOM     81  F   UNL A   1      39.277  29.514  26.862  1.00  0.00    -0.206 F 
ATOM     82  C   UNL A   1      37.239  29.652  28.020  1.00  0.00     0.040 A 
ATOM     83  C   UNL A   1      37.158  29.132  30.371  1.00  0.00     0.040 A 
ATOM     84  F   UNL A   1      39.119  28.505  31.500  1.00  0.00    -0.206 F 
ATOM     85  C   UNL A   1      36.510  29.524  29.201  1.00  0.00     0.006 A 
ENDBRANCH  57  78
BRANCH  69  86
ATOM     86  C   UNL A   1      44.972  32.861  30.165  1.00  0.00     0.057 A 
ATOM     87  C   UNL A   1      45.094  33.313  31.486  1.00  0.00     0.134 A 
ATOM     88  C   UNL A   1      45.045  33.818  29.144  1.00  0.00     0.134 A 
ATOM     89  F   UNL A   1      45.018  32.449  32.509  1.00  0.00    -0.206 F 
ATOM     90  C   UNL A   1      45.252  34.667  31.781  1.00  0.00     0.040 A 
ATOM     91  C   UNL A   1      45.227  35.172  29.426  1.00  0.00     0.040 A 
ATOM     92  F   UNL A   1      44.943  33.451  27.859  1.00  0.00    -0.206 F 
ATOM     93  C   UNL A   1      45.323  35.601  30.749  1.00  0.00     0.006 A 
ENDBRANCH  69  86
ENDBRANCH  43  44
ENDBRANCH  35  38
ENDBRANCH  33  34
ENDBRANCH  32  33
ENDBRANCH  31  32
ENDBRANCH  30  31
ENDBRANCH   1  30
TORSDOF 18
ENDMDL
MODEL 2
REMARK VINA RESULT:     -11.2      4.018      7.387
REMARK SMILES COc1ccc(-c2ccc(S(=O)(=O)NC(C)(C)C)cc2)c(C(=O)NCCCCCCNC(=O)c2ccc(-c3c4nc(c(-c5c(F)cccc5F)c5ccc([nH]5)c(-c5c(F)cccc5F)c5nc(c(-c6c(F)cccc6F)c6ccc3[nH]6)C=C5)C=C4)cc2)c1
REMARK SMILES IDX 26 1 25 2 24 3 22 4 23 5 21 7 3 8 4 9 88 10 5 11 6 12 2 13
REMARK SMILES IDX 1 14 7 15 8 16 20 17 9 18 19 19 10 20 11 21 12 22 13 23
REMARK SMILES IDX 14 24 15 26 16 27 17 28 18 29 27 30 28 31 29 32 30 33 31 34
REMARK SMILES IDX 32 35 33 37 34 38 35 39 87 40 36 41 86 42 37 43 38 44 39 45
REMARK SMILES IDX 80 46 40 47 85 48 79 49 81 50 41 51 84 52 78 53 77 54 42 56
REMARK SMILES IDX 68 57 51 58 67 59 52 60 55 61 66 62 82 63 53 64 54 65 65 67
REMARK SMILES IDX 83 68 56 69 43 70 44 71 49 72 45 73 46 74 48 75 50 76 47 77
REMARK SMILES IDX 69 78 70 79 75 80 71 81 72 82 74 83 76 84 73 85 57 86 58 87
REMARK SMILES IDX 63 88 59 89 60 90 62 91 64 92 61 93
REMARK H PARENT 24 6 14 25 31 36 81 55 55 66
REMARK Flexibility Score: inf
ROOT
ATOM      1  C   UNL A   1      37.072  22.886  24.803  1.00  0.00     0.021 C 
ENDROOT
BRANCH   1   2
ATOM      2  C   UNL A   1      36.450  21.569  25.258  1.00  0.00     0.116 C 
BRANCH   2   3
ATOM      3  N   UNL A   1      35.497  21.670  26.348  1.00  0.00    -0.352 N 
ATOM      4  C   UNL A   1      34.161  21.319  26.403  1.00  0.00     0.252 C 
ATOM      5  O   UNL A   1      33.613  21.297  27.501  1.00  0.00    -0.269 OA
ATOM      6  H   UNL A   1      35.859  22.049  27.182  1.00  0.00     0.163 HD
BRANCH   4   7
ATOM      7  C   UNL A   1      33.396  21.002  25.161  1.00  0.00     0.051 A 
ATOM      8  C   UNL A   1      32.574  19.271  23.649  1.00  0.00     0.119 A 
ATOM      9  C   UNL A   1      32.155  20.257  22.765  1.00  0.00     0.047 A 
ATOM     10  C   UNL A   1      33.166  19.647  24.852  1.00  0.00     0.060 A 
ATOM     11  C   UNL A   1      32.278  21.604  23.106  1.00  0.00     0.013 A 
ATOM     12  C   UNL A   1      32.864  22.012  24.325  1.00  0.00    -0.005 A 
BRANCH   8  13
ATOM     13  O   UNL A   1      32.360  17.989  23.227  1.00  0.00    -0.497 OA
ATOM     14  C   UNL A   1      33.368  17.033  23.531  1.00  0.00     0.278 C 
ENDBRANCH   8  13
BRANCH  12  15
ATOM     15  C   UNL A   1      32.785  23.447  24.676  1.00  0.00    -0.018 A 
ATOM     16  C   UNL A   1      33.730  24.337  24.123  1.00  0.00     0.010 A 
ATOM     17  C   UNL A   1      31.803  23.977  25.526  1.00  0.00     0.010 A 
ATOM     18  C   UNL A   1      33.707  25.701  24.418  1.00  0.00     0.022 A 
ATOM     19  C   UNL A   1      31.744  25.353  25.788  1.00  0.00     0.022 A 
ATOM     20  C   UNL A   1      32.712  26.204  25.252  1.00  0.00     0.082 A 
BRANCH  20  21
ATOM     21  S   UNL A   1      32.734  27.934  25.623  1.00  0.00     0.241 S 
ATOM     22  O   UNL A   1      32.917  28.084  27.049  1.00  0.00    -0.207 OA
ATOM     23  O   UNL A   1      33.649  28.544  24.682  1.00  0.00    -0.207 OA
BRANCH  21  24
ATOM     24  N   UNL A   1      31.224  28.521  25.202  1.00  0.00    -0.206 NA
ATOM     25  H   UNL A   1      31.171  29.442  25.636  1.00  0.00     0.141 HD
BRANCH  24  26
ATOM     26  C   UNL A   1      30.690  28.714  23.836  1.00  0.00     0.025 C 
ATOM     27  C   UNL A   1      31.764  28.557  22.758  1.00  0.00     0.028 C 
ATOM     28  C   UNL A   1      29.639  27.603  23.637  1.00  0.00     0.028 C 
ATOM     29  C   UNL A   1      29.993  30.067  23.696  1.00  0.00     0.028 C 
ENDBRANCH  24  26
ENDBRANCH  21  24
ENDBRANCH  20  21
ENDBRANCH  12  15
ENDBRANCH   4   7
ENDBRANCH   2   3
ENDBRANCH   1   2
BRANCH   1  30
ATOM     30  C   UNL A   1      38.089  23.553  25.730  1.00  0.00     0.002 C 
BRANCH  30  31
ATOM     31  C   UNL A   1      38.980  22.644  26.578  1.00  0.00     0.002 C 
BRANCH  31  32
ATOM     32  C   UNL A   1      40.020  21.799  25.843  1.00  0.00     0.021 C 
BRANCH  32  33
ATOM     33  C   UNL A   1      41.455  21.875  26.357  1.00  0.00     0.116 C 
BRANCH  33  34
ATOM     34  N   UNL A   1      42.356  22.574  25.459  1.00  0.00    -0.352 N 
ATOM     35  C   UNL A   1      42.850  23.855  25.518  1.00  0.00     0.251 C 
ATOM     36  H   UNL A   1      42.659  22.048  24.685  1.00  0.00     0.163 HD
ATOM     37  O   UNL A   1      43.537  24.278  24.592  1.00  0.00    -0.269 OA
BRANCH  35  38
ATOM     38  C   UNL A   1      42.545  24.747  26.663  1.00  0.00     0.039 A 
ATOM     39  C   UNL A   1      43.140  26.013  26.689  1.00  0.00     0.014 A 
ATOM     40  C   UNL A   1      41.721  24.351  27.722  1.00  0.00     0.014 A 
ATOM     41  C   UNL A   1      42.866  26.896  27.736  1.00  0.00     0.010 A 
ATOM     42  C   UNL A   1      41.394  25.258  28.732  1.00  0.00     0.010 A 
ATOM     43  C   UNL A   1      41.966  26.539  28.752  1.00  0.00    -0.014 A 
BRANCH  43  44
ATOM     44  C   UNL A   1      41.614  27.511  29.819  1.00  0.00     0.031 A 
ATOM     45  C   UNL A   1      40.448  28.447  29.660  1.00  0.00     0.074 A 
ATOM     46  C   UNL A   1      42.367  27.568  30.935  1.00  0.00     0.049 A 
ATOM     47  N   UNL A   1      39.966  29.318  30.511  1.00  0.00    -0.248 NA
ATOM     48  C   UNL A   1      39.745  28.419  28.369  1.00  0.00     0.031 C 
ATOM     49  C   UNL A   1      43.560  26.760  31.188  1.00  0.00     0.029 A 
ATOM     50  N   UNL A   1      42.234  28.331  32.068  1.00  0.00    -0.354 N 
ATOM     51  C   UNL A   1      38.910  29.943  29.860  1.00  0.00     0.074 A 
ATOM     52  C   UNL A   1      38.858  29.390  28.523  1.00  0.00     0.031 C 
ATOM     53  C   UNL A   1      44.025  27.037  32.417  1.00  0.00     0.029 A 
ATOM     54  C   UNL A   1      43.175  28.055  33.028  1.00  0.00     0.049 A 
ATOM     55  H   UNL A   1      41.530  29.011  32.181  1.00  0.00     0.167 HD
ATOM     56  C   UNL A   1      38.047  30.873  30.336  1.00  0.00     0.037 A 
ATOM     57  C   UNL A   1      43.328  28.551  34.270  1.00  0.00     0.037 A 
ATOM     58  C   UNL A   1      38.088  31.410  31.672  1.00  0.00     0.049 A 
ATOM     59  C   UNL A   1      42.346  29.563  34.787  1.00  0.00     0.074 A 
ATOM     60  C   UNL A   1      37.220  32.309  32.269  1.00  0.00     0.029 A 
ATOM     61  N   UNL A   1      39.053  31.101  32.618  1.00  0.00    -0.354 N 
ATOM     62  N   UNL A   1      41.303  30.084  34.188  1.00  0.00    -0.248 NA
ATOM     63  C   UNL A   1      42.557  30.046  36.159  1.00  0.00     0.031 C 
ATOM     64  C   UNL A   1      37.683  32.573  33.564  1.00  0.00     0.029 A 
ATOM     65  C   UNL A   1      38.815  31.806  33.788  1.00  0.00     0.049 A 
ATOM     66  H   UNL A   1      39.799  30.473  32.480  1.00  0.00     0.167 HD
ATOM     67  C   UNL A   1      40.718  30.936  35.116  1.00  0.00     0.074 A 
ATOM     68  C   UNL A   1      41.516  30.850  36.322  1.00  0.00     0.031 C 
ATOM     69  C   UNL A   1      39.619  31.716  34.980  1.00  0.00     0.037 A 
BRANCH  56  70
ATOM     70  C   UNL A   1      36.984  31.366  29.399  1.00  0.00     0.057 A 
ATOM     71  C   UNL A   1      35.889  30.567  29.039  1.00  0.00     0.134 A 
ATOM     72  C   UNL A   1      37.044  32.656  28.859  1.00  0.00     0.134 A 
ATOM     73  F   UNL A   1      35.778  29.315  29.511  1.00  0.00    -0.206 F 
ATOM     74  C   UNL A   1      34.914  31.020  28.150  1.00  0.00     0.040 A 
ATOM     75  C   UNL A   1      36.060  33.131  27.990  1.00  0.00     0.040 A 
ATOM     76  F   UNL A   1      38.060  33.477  29.166  1.00  0.00    -0.206 F 
ATOM     77  C   UNL A   1      34.995  32.309  27.627  1.00  0.00     0.006 A 
ENDBRANCH  56  70
BRANCH  57  78
ATOM     78  C   UNL A   1      44.420  28.042  35.135  1.00  0.00     0.057 A 
ATOM     79  C   UNL A   1      45.675  28.662  35.142  1.00  0.00     0.134 A 
ATOM     80  C   UNL A   1      44.235  26.946  35.984  1.00  0.00     0.134 A 
ATOM     81  F   UNL A   1      45.916  29.708  34.337  1.00  0.00    -0.206 F 
ATOM     82  C   UNL A   1      46.712  28.204  35.956  1.00  0.00     0.040 A 
ATOM     83  C   UNL A   1      45.256  26.489  36.818  1.00  0.00     0.040 A 
ATOM     84  F   UNL A   1      43.052  26.317  36.026  1.00  0.00    -0.206 F 
ATOM     85  C   UNL A   1      46.500  27.117  36.802  1.00  0.00     0.006 A 
ENDBRANCH  57  78
BRANCH  69  86
ATOM     86  C   UNL A   1      39.204  32.522  36.177  1.00  0.00     0.057 A 
ATOM     87  C   UNL A   1      38.312  32.018  37.133  1.00  0.00     0.134 A 
ATOM     88  C   UNL A   1      39.712  33.811  36.381  1.00  0.00     0.134 A 
ATOM     89  F   UNL A   1      37.779  30.796  36.987  1.00  0.00    -0.206 F 
ATOM     90  C   UNL A   1      37.918  32.780  38.234  1.00  0.00     0.040 A 
ATOM     91  C   UNL A   1      39.343  34.573  37.491  1.00  0.00     0.040 A 
ATOM     92  F   UNL A   1      40.575  34.349  35.507  1.00  0.00    -0.206 F 
ATOM     93  C   UNL A   1      38.438  34.060  38.417  1.00  0.00     0.006 A 
ENDBRANCH  69  86
ENDBRANCH  43  44
ENDBRANCH  35  38
ENDBRANCH  33  34
ENDBRANCH  32  33
ENDBRANCH  31  32
ENDBRANCH  30  31
ENDBRANCH   1  30
TORSDOF 18
ENDMDL
MODEL 3
REMARK VINA RESULT:     -11.2      4.462      6.044
REMARK SMILES COc1ccc(-c2ccc(S(=O)(=O)NC(C)(C)C)cc2)c(C(=O)NCCCCCCNC(=O)c2ccc(-c3c4nc(c(-c5c(F)cccc5F)c5ccc([nH]5)c(-c5c(F)cccc5F)c5nc(c(-c6c(F)cccc6F)c6ccc3[nH]6)C=C5)C=C4)cc2)c1
REMARK SMILES IDX 26 1 25 2 24 3 22 4 23 5 21 7 3 8 4 9 88 10 5 11 6 12 2 13
REMARK SMILES IDX 1 14 7 15 8 16 20 17 9 18 19 19 10 20 11 21 12 22 13 23
REMARK SMILES IDX 14 24 15 26 16 27 17 28 18 29 27 30 28 31 29 32 30 33 31 34
REMARK SMILES IDX 32 35 33 37 34 38 35 39 87 40 36 41 86 42 37 43 38 44 39 45
REMARK SMILES IDX 80 46 40 47 85 48 79 49 81 50 41 51 84 52 78 53 77 54 42 56
REMARK SMILES IDX 68 57 51 58 67 59 52 60 55 61 66 62 82 63 53 64 54 65 65 67
REMARK SMILES IDX 83 68 56 69 43 70 44 71 49 72 45 73 46 74 48 75 50 76 47 77
REMARK SMILES IDX 69 78 70 79 75 80 71 81 72 82 74 83 76 84 73 85 57 86 58 87
REMARK SMILES IDX 63 88 59 89 60 90 62 91 64 92 61 93
REMARK H PARENT 24 6 14 25 31 36 81 55 55 66
REMARK Flexibility Score: inf
ROOT
ATOM      1  C   UNL A   1      36.001  22.356  24.572  1.00  0.00     0.021 C 
ENDROOT
BRANCH   1   2
ATOM      2  C   UNL A   1      35.430  21.800  25.874  1.00  0.00     0.116 C 
BRANCH   2   3
ATOM      3  N   UNL A   1      34.232  22.459  26.363  1.00  0.00    -0.352 N 
ATOM      4  C   UNL A   1      32.917  22.343  25.953  1.00  0.00     0.252 C 
ATOM      5  O   UNL A   1      32.045  22.837  26.661  1.00  0.00    -0.269 OA
ATOM      6  H   UNL A   1      34.380  23.087  27.107  1.00  0.00     0.163 HD
BRANCH   4   7
ATOM      7  C   UNL A   1      32.568  21.660  24.672  1.00  0.00     0.051 A 
ATOM      8  C   UNL A   1      32.349  19.544  23.474  1.00  0.00     0.119 A 
ATOM      9  C   UNL A   1      32.126  20.247  22.297  1.00  0.00     0.047 A 
ATOM     10  C   UNL A   1      32.541  20.252  24.658  1.00  0.00     0.060 A 
ATOM     11  C   UNL A   1      32.042  21.639  22.315  1.00  0.00     0.013 A 
ATOM     12  C   UNL A   1      32.220  22.380  23.505  1.00  0.00    -0.005 A 
BRANCH   8  13
ATOM     13  O   UNL A   1      32.365  18.185  23.340  1.00  0.00    -0.497 OA
ATOM     14  C   UNL A   1      33.386  17.480  24.035  1.00  0.00     0.278 C 
ENDBRANCH   8  13
BRANCH  12  15
ATOM     15  C   UNL A   1      31.934  23.830  23.458  1.00  0.00    -0.018 A 
ATOM     16  C   UNL A   1      32.991  24.727  23.194  1.00  0.00     0.010 A 
ATOM     17  C   UNL A   1      30.652  24.366  23.652  1.00  0.00     0.010 A 
ATOM     18  C   UNL A   1      32.783  26.105  23.138  1.00  0.00     0.022 A 
ATOM     19  C   UNL A   1      30.426  25.746  23.550  1.00  0.00     0.022 A 
ATOM     20  C   UNL A   1      31.497  26.610  23.318  1.00  0.00     0.082 A 
BRANCH  20  21
ATOM     21  S   UNL A   1      31.280  28.366  23.269  1.00  0.00     0.241 S 
ATOM     22  O   UNL A   1      30.961  28.816  24.605  1.00  0.00    -0.207 OA
ATOM     23  O   UNL A   1      32.416  28.900  22.549  1.00  0.00    -0.207 OA
BRANCH  21  24
ATOM     24  N   UNL A   1      29.965  28.645  22.271  1.00  0.00    -0.206 NA
ATOM     25  H   UNL A   1      29.556  27.724  22.114  1.00  0.00     0.141 HD
BRANCH  24  26
ATOM     26  C   UNL A   1      28.812  29.531  22.541  1.00  0.00     0.025 C 
ATOM     27  C   UNL A   1      28.239  30.155  21.266  1.00  0.00     0.028 C 
ATOM     28  C   UNL A   1      27.728  28.631  23.168  1.00  0.00     0.028 C 
ATOM     29  C   UNL A   1      29.173  30.623  23.548  1.00  0.00     0.028 C 
ENDBRANCH  24  26
ENDBRANCH  21  24
ENDBRANCH  20  21
ENDBRANCH  12  15
ENDBRANCH   4   7
ENDBRANCH   2   3
ENDBRANCH   1   2
BRANCH   1  30
ATOM     30  C   UNL A   1      37.047  23.467  24.669  1.00  0.00     0.002 C 
BRANCH  30  31
ATOM     31  C   UNL A   1      37.767  23.650  26.006  1.00  0.00     0.002 C 
BRANCH  31  32
ATOM     32  C   UNL A   1      38.922  22.697  26.316  1.00  0.00     0.021 C 
BRANCH  32  33
ATOM     33  C   UNL A   1      40.177  23.315  26.926  1.00  0.00     0.116 C 
BRANCH  33  34
ATOM     34  N   UNL A   1      41.043  23.951  25.951  1.00  0.00    -0.352 N 
ATOM     35  C   UNL A   1      41.541  25.231  25.907  1.00  0.00     0.251 C 
ATOM     36  H   UNL A   1      41.317  23.373  25.202  1.00  0.00     0.163 HD
ATOM     37  O   UNL A   1      42.192  25.590  24.929  1.00  0.00    -0.269 OA
BRANCH  35  38
ATOM     38  C   UNL A   1      41.280  26.197  27.001  1.00  0.00     0.039 A 
ATOM     39  C   UNL A   1      40.301  25.875  27.947  1.00  0.00     0.014 A 
ATOM     40  C   UNL A   1      41.949  27.423  27.091  1.00  0.00     0.014 A 
ATOM     41  C   UNL A   1      40.036  26.745  29.007  1.00  0.00     0.010 A 
ATOM     42  C   UNL A   1      41.732  28.261  28.187  1.00  0.00     0.010 A 
ATOM     43  C   UNL A   1      40.771  27.933  29.155  1.00  0.00    -0.014 A 
BRANCH  43  44
ATOM     44  C   UNL A   1      40.542  28.815  30.329  1.00  0.00     0.031 A 
ATOM     45  C   UNL A   1      41.394  28.699  31.562  1.00  0.00     0.074 A 
ATOM     46  C   UNL A   1      39.540  29.715  30.293  1.00  0.00     0.049 A 
ATOM     47  N   UNL A   1      41.371  29.424  32.653  1.00  0.00    -0.248 NA
ATOM     48  C   UNL A   1      42.387  27.615  31.583  1.00  0.00     0.031 C 
ATOM     49  C   UNL A   1      38.601  29.887  29.183  1.00  0.00     0.029 A 
ATOM     50  N   UNL A   1      39.152  30.660  31.208  1.00  0.00    -0.354 N 
ATOM     51  C   UNL A   1      42.339  28.883  33.490  1.00  0.00     0.074 A 
ATOM     52  C   UNL A   1      42.892  27.735  32.803  1.00  0.00     0.031 C 
ATOM     53  C   UNL A   1      37.774  30.907  29.464  1.00  0.00     0.029 A 
ATOM     54  C   UNL A   1      38.111  31.445  30.778  1.00  0.00     0.049 A 
ATOM     55  H   UNL A   1      39.579  30.766  32.089  1.00  0.00     0.167 HD
ATOM     56  C   UNL A   1      42.748  29.314  34.707  1.00  0.00     0.037 A 
ATOM     57  C   UNL A   1      37.506  32.494  31.366  1.00  0.00     0.037 A 
ATOM     58  C   UNL A   1      42.210  30.466  35.384  1.00  0.00     0.049 A 
ATOM     59  C   UNL A   1      37.991  32.971  32.705  1.00  0.00     0.074 A 
ATOM     60  C   UNL A   1      42.601  31.021  36.592  1.00  0.00     0.029 A 
ATOM     61  N   UNL A   1      41.160  31.240  34.913  1.00  0.00    -0.354 N 
ATOM     62  N   UNL A   1      38.963  32.499  33.448  1.00  0.00    -0.248 NA
ATOM     63  C   UNL A   1      37.302  34.135  33.280  1.00  0.00     0.031 C 
ATOM     64  C   UNL A   1      41.762  32.107  36.869  1.00  0.00     0.029 A 
ATOM     65  C   UNL A   1      40.876  32.255  35.814  1.00  0.00     0.049 A 
ATOM     66  H   UNL A   1      40.685  31.091  34.063  1.00  0.00     0.167 HD
ATOM     67  C   UNL A   1      39.019  33.322  34.565  1.00  0.00     0.074 A 
ATOM     68  C   UNL A   1      37.993  34.330  34.394  1.00  0.00     0.031 C 
ATOM     69  C   UNL A   1      39.848  33.249  35.635  1.00  0.00     0.037 A 
BRANCH  56  70
ATOM     70  C   UNL A   1      43.834  28.530  35.384  1.00  0.00     0.057 A 
ATOM     71  C   UNL A   1      43.545  27.478  36.265  1.00  0.00     0.134 A 
ATOM     72  C   UNL A   1      45.182  28.817  35.145  1.00  0.00     0.134 A 
ATOM     73  F   UNL A   1      42.273  27.158  36.547  1.00  0.00    -0.206 F 
ATOM     74  C   UNL A   1      44.557  26.765  36.909  1.00  0.00     0.040 A 
ATOM     75  C   UNL A   1      46.205  28.094  35.762  1.00  0.00     0.040 A 
ATOM     76  F   UNL A   1      45.531  29.807  34.308  1.00  0.00    -0.206 F 
ATOM     77  C   UNL A   1      45.893  27.070  36.654  1.00  0.00     0.006 A 
ENDBRANCH  56  70
BRANCH  57  78
ATOM     78  C   UNL A   1      36.416  33.207  30.655  1.00  0.00     0.057 A 
ATOM     79  C   UNL A   1      35.082  33.049  31.049  1.00  0.00     0.134 A 
ATOM     80  C   UNL A   1      36.678  34.071  29.587  1.00  0.00     0.134 A 
ATOM     81  F   UNL A   1      34.769  32.220  32.056  1.00  0.00    -0.206 F 
ATOM     82  C   UNL A   1      34.045  33.719  30.399  1.00  0.00     0.040 A 
ATOM     83  C   UNL A   1      35.654  34.763  28.941  1.00  0.00     0.040 A 
ATOM     84  F   UNL A   1      37.937  34.268  29.171  1.00  0.00    -0.206 F 
ATOM     85  C   UNL A   1      34.332  34.584  29.345  1.00  0.00     0.006 A 
ENDBRANCH  57  78
BRANCH  69  86
ATOM     86  C   UNL A   1      39.692  34.304  36.691  1.00  0.00     0.057 A 
ATOM     87  C   UNL A   1      38.914  34.092  37.837  1.00  0.00     0.134 A 
ATOM     88  C   UNL A   1      40.336  35.541  36.566  1.00  0.00     0.134 A 
ATOM     89  F   UNL A   1      38.259  32.934  38.009  1.00  0.00    -0.206 F 
ATOM     90  C   UNL A   1      38.760  35.084  38.806  1.00  0.00     0.040 A 
ATOM     91  C   UNL A   1      40.208  36.532  37.540  1.00  0.00     0.040 A 
ATOM     92  F   UNL A   1      41.101  35.805  35.496  1.00  0.00    -0.206 F 
ATOM     93  C   UNL A   1      39.412  36.307  38.661  1.00  0.00     0.006 A 
ENDBRANCH  69  86
ENDBRANCH  43  44
ENDBRANCH  35  38
ENDBRANCH  33  34
ENDBRANCH  32  33
ENDBRANCH  31  32
ENDBRANCH  30  31
ENDBRANCH   1  30
TORSDOF 18
ENDMDL
