MODEL 1
REMARK VINA RESULT:     -11.6      0.000      0.000
REMARK SMILES CCc1cc(/C=C/C(=O)NCCCCCCNC(=O)c2ccc(-c3c4nc(c(-c5c(F)cccc5F)c5ccc([nH]5)c(-c5c(F)cccc5F)c5nc(c(-c6c(F)cccc6F)c6ccc3[nH]6)C=C5)C=C4)cc2)cc(C(=O)c2ccccc2)c1
REMARK SMILES IDX 13 1 12 2 11 3 10 4 8 5 9 6 7 8 6 9 5 10 3 11 4 12 84 13
REMARK SMILES IDX 75 14 74 15 2 16 1 17 76 18 77 19 78 20 79 21 83 22 80 23
REMARK SMILES IDX 82 24 81 25 14 26 15 27 16 28 17 29 18 30 19 32 20 33 21 34
REMARK SMILES IDX 73 35 22 36 72 37 23 38 24 39 25 40 66 41 26 42 71 43 65 44
REMARK SMILES IDX 67 45 27 46 70 47 64 48 63 49 28 51 54 52 37 53 53 54 38 55
REMARK SMILES IDX 41 56 52 57 68 58 39 59 40 60 51 62 69 63 42 64 29 65 30 66
REMARK SMILES IDX 35 67 31 68 32 69 34 70 36 71 33 72 55 73 56 74 61 75 57 76
REMARK SMILES IDX 58 77 60 78 62 79 59 80 43 81 44 82 49 83 45 84 46 85 48 86
REMARK SMILES IDX 50 87 47 88
REMARK H PARENT 10 7 17 31 67 50 41 61
REMARK Flexibility Score: inf
ROOT
ATOM      1  C   UNL A   1      32.062  28.434  23.711  1.00  0.00     0.002 C 
ENDROOT
BRANCH   1   2
ATOM      2  C   UNL A   1      30.733  27.869  23.190  1.00  0.00     0.021 C 
BRANCH   2   3
ATOM      3  C   UNL A   1      30.829  26.416  22.721  1.00  0.00     0.116 C 
BRANCH   3   4
ATOM      4  N   UNL A   1      31.571  26.334  21.478  1.00  0.00    -0.353 N 
ATOM      5  C   UNL A   1      32.626  25.563  21.110  1.00  0.00     0.243 C 
ATOM      6  O   UNL A   1      33.046  25.632  19.957  1.00  0.00    -0.270 OA
ATOM      7  H   UNL A   1      31.254  26.946  20.777  1.00  0.00     0.163 HD
BRANCH   5   8
ATOM      8  C   UNL A   1      33.237  24.578  22.033  1.00  0.00     0.072 C 
ATOM      9  C   UNL A   1      34.049  24.867  23.061  1.00  0.00     0.014 C 
BRANCH   9  10
ATOM     10  C   UNL A   1      34.678  23.856  23.921  1.00  0.00    -0.024 A 
ATOM     11  C   UNL A   1      36.475  23.138  25.411  1.00  0.00    -0.047 A 
ATOM     12  C   UNL A   1      35.928  24.071  24.518  1.00  0.00     0.011 A 
ATOM     13  C   UNL A   1      35.764  21.961  25.681  1.00  0.00     0.016 A 
ATOM     14  C   UNL A   1      34.494  21.756  25.133  1.00  0.00     0.023 A 
ATOM     15  C   UNL A   1      33.962  22.694  24.239  1.00  0.00     0.020 A 
BRANCH  11  16
ATOM     16  C   UNL A   1      37.788  23.417  26.101  1.00  0.00     0.032 C 
ATOM     17  C   UNL A   1      38.742  22.229  26.023  1.00  0.00     0.009 C 
ENDBRANCH  11  16
BRANCH  14  18
ATOM     18  C   UNL A   1      33.677  20.562  25.490  1.00  0.00     0.193 C 
ATOM     19  O   UNL A   1      33.055  20.536  26.547  1.00  0.00    -0.289 OA
BRANCH  18  20
ATOM     20  C   UNL A   1      33.602  19.396  24.573  1.00  0.00     0.022 A 
ATOM     21  C   UNL A   1      34.624  18.443  24.616  1.00  0.00     0.012 A 
ATOM     22  C   UNL A   1      32.529  19.239  23.686  1.00  0.00     0.012 A 
ATOM     23  C   UNL A   1      34.543  17.306  23.811  1.00  0.00     0.001 A 
ATOM     24  C   UNL A   1      32.454  18.099  22.884  1.00  0.00     0.001 A 
ATOM     25  C   UNL A   1      33.455  17.130  22.954  1.00  0.00     0.000 A 
ENDBRANCH  18  20
ENDBRANCH  14  18
ENDBRANCH   9  10
ENDBRANCH   5   8
ENDBRANCH   3   4
ENDBRANCH   2   3
ENDBRANCH   1   2
BRANCH   1  26
ATOM     26  C   UNL A   1      32.262  28.320  25.227  1.00  0.00     0.002 C 
BRANCH  26  27
ATOM     27  C   UNL A   1      33.723  28.259  25.683  1.00  0.00     0.021 C 
BRANCH  27  28
ATOM     28  C   UNL A   1      33.917  28.431  27.186  1.00  0.00     0.116 C 
BRANCH  28  29
ATOM     29  N   UNL A   1      33.827  29.828  27.583  1.00  0.00    -0.352 N 
ATOM     30  C   UNL A   1      34.733  30.597  28.269  1.00  0.00     0.251 C 
ATOM     31  H   UNL A   1      32.998  30.288  27.320  1.00  0.00     0.163 HD
ATOM     32  O   UNL A   1      34.401  31.685  28.725  1.00  0.00    -0.269 OA
BRANCH  30  33
ATOM     33  C   UNL A   1      36.113  30.106  28.465  1.00  0.00     0.039 A 
ATOM     34  C   UNL A   1      37.027  30.214  27.414  1.00  0.00     0.014 A 
ATOM     35  C   UNL A   1      36.495  29.519  29.675  1.00  0.00     0.014 A 
ATOM     36  C   UNL A   1      38.341  29.777  27.594  1.00  0.00     0.010 A 
ATOM     37  C   UNL A   1      37.821  29.148  29.876  1.00  0.00     0.010 A 
ATOM     38  C   UNL A   1      38.754  29.266  28.835  1.00  0.00    -0.014 A 
BRANCH  38  39
ATOM     39  C   UNL A   1      40.157  28.839  29.060  1.00  0.00     0.031 A 
ATOM     40  C   UNL A   1      41.141  29.784  29.691  1.00  0.00     0.074 A 
ATOM     41  C   UNL A   1      40.558  27.625  28.638  1.00  0.00     0.049 A 
ATOM     42  N   UNL A   1      42.421  29.620  29.908  1.00  0.00    -0.248 NA
ATOM     43  C   UNL A   1      40.624  31.096  30.108  1.00  0.00     0.031 C 
ATOM     44  C   UNL A   1      39.707  26.638  27.969  1.00  0.00     0.029 A 
ATOM     45  N   UNL A   1      41.788  27.019  28.698  1.00  0.00    -0.354 N 
ATOM     46  C   UNL A   1      42.864  30.811  30.472  1.00  0.00     0.074 A 
ATOM     47  C   UNL A   1      41.728  31.706  30.516  1.00  0.00     0.031 C 
ATOM     48  C   UNL A   1      40.436  25.542  27.699  1.00  0.00     0.029 A 
ATOM     49  C   UNL A   1      41.809  25.763  28.141  1.00  0.00     0.049 A 
ATOM     50  H   UNL A   1      42.579  27.444  29.101  1.00  0.00     0.167 HD
ATOM     51  C   UNL A   1      44.099  31.121  30.933  1.00  0.00     0.037 A 
ATOM     52  C   UNL A   1      42.825  24.892  27.997  1.00  0.00     0.037 A 
ATOM     53  C   UNL A   1      45.220  30.219  30.909  1.00  0.00     0.049 A 
ATOM     54  C   UNL A   1      44.187  25.262  28.513  1.00  0.00     0.074 A 
ATOM     55  C   UNL A   1      46.497  30.416  31.406  1.00  0.00     0.029 A 
ATOM     56  N   UNL A   1      45.198  28.948  30.353  1.00  0.00    -0.354 N 
ATOM     57  N   UNL A   1      44.576  26.364  29.107  1.00  0.00    -0.248 NA
ATOM     58  C   UNL A   1      45.253  24.264  28.342  1.00  0.00     0.031 C 
ATOM     59  C   UNL A   1      47.260  29.280  31.113  1.00  0.00     0.029 A 
ATOM     60  C   UNL A   1      46.445  28.358  30.477  1.00  0.00     0.049 A 
ATOM     61  H   UNL A   1      44.413  28.528  29.933  1.00  0.00     0.167 HD
ATOM     62  C   UNL A   1      45.919  26.182  29.406  1.00  0.00     0.074 A 
ATOM     63  C   UNL A   1      46.276  24.858  28.940  1.00  0.00     0.031 C 
ATOM     64  C   UNL A   1      46.780  27.035  30.012  1.00  0.00     0.037 A 
BRANCH  51  65
ATOM     65  C   UNL A   1      44.299  32.494  31.506  1.00  0.00     0.057 A 
ATOM     66  C   UNL A   1      44.096  32.764  32.865  1.00  0.00     0.134 A 
ATOM     67  C   UNL A   1      44.728  33.553  30.695  1.00  0.00     0.134 A 
ATOM     68  F   UNL A   1      43.674  31.799  33.695  1.00  0.00    -0.206 F 
ATOM     69  C   UNL A   1      44.285  34.043  33.394  1.00  0.00     0.040 A 
ATOM     70  C   UNL A   1      44.948  34.829  31.216  1.00  0.00     0.040 A 
ATOM     71  F   UNL A   1      44.948  33.363  29.385  1.00  0.00    -0.206 F 
ATOM     72  C   UNL A   1      44.719  35.079  32.568  1.00  0.00     0.006 A 
ENDBRANCH  51  65
BRANCH  52  73
ATOM     73  C   UNL A   1      42.587  23.574  27.358  1.00  0.00     0.057 A 
ATOM     74  C   UNL A   1      42.155  22.475  28.110  1.00  0.00     0.134 A 
ATOM     75  C   UNL A   1      42.786  23.378  25.986  1.00  0.00     0.134 A 
ATOM     76  F   UNL A   1      41.965  22.595  29.432  1.00  0.00    -0.206 F 
ATOM     77  C   UNL A   1      41.948  21.224  27.526  1.00  0.00     0.040 A 
ATOM     78  C   UNL A   1      42.558  22.140  25.384  1.00  0.00     0.040 A 
ATOM     79  F   UNL A   1      43.190  24.393  25.209  1.00  0.00    -0.206 F 
ATOM     80  C   UNL A   1      42.146  21.056  26.156  1.00  0.00     0.006 A 
ENDBRANCH  52  73
BRANCH  64  81
ATOM     81  C   UNL A   1      48.182  26.548  30.240  1.00  0.00     0.057 A 
ATOM     82  C   UNL A   1      49.209  26.795  29.320  1.00  0.00     0.134 A 
ATOM     83  C   UNL A   1      48.514  25.856  31.412  1.00  0.00     0.134 A 
ATOM     84  F   UNL A   1      48.954  27.440  28.173  1.00  0.00    -0.206 F 
ATOM     85  C   UNL A   1      50.512  26.352  29.548  1.00  0.00     0.040 A 
ATOM     86  C   UNL A   1      49.819  25.432  31.663  1.00  0.00     0.040 A 
ATOM     87  F   UNL A   1      47.578  25.595  32.337  1.00  0.00    -0.206 F 
ATOM     88  C   UNL A   1      50.821  25.674  30.727  1.00  0.00     0.006 A 
ENDBRANCH  64  81
ENDBRANCH  38  39
ENDBRANCH  30  33
ENDBRANCH  28  29
ENDBRANCH  27  28
ENDBRANCH  26  27
ENDBRANCH   1  26
TORSDOF 17
ENDMDL
MODEL 2
REMARK VINA RESULT:     -11.4      1.961      2.534
REMARK SMILES CCc1cc(/C=C/C(=O)NCCCCCCNC(=O)c2ccc(-c3c4nc(c(-c5c(F)cccc5F)c5ccc([nH]5)c(-c5c(F)cccc5F)c5nc(c(-c6c(F)cccc6F)c6ccc3[nH]6)C=C5)C=C4)cc2)cc(C(=O)c2ccccc2)c1
REMARK SMILES IDX 13 1 12 2 11 3 10 4 8 5 9 6 7 8 6 9 5 10 3 11 4 12 84 13
REMARK SMILES IDX 75 14 74 15 2 16 1 17 76 18 77 19 78 20 79 21 83 22 80 23
REMARK SMILES IDX 82 24 81 25 14 26 15 27 16 28 17 29 18 30 19 32 20 33 21 34
REMARK SMILES IDX 73 35 22 36 72 37 23 38 24 39 25 40 66 41 26 42 71 43 65 44
REMARK SMILES IDX 67 45 27 46 70 47 64 48 63 49 28 51 54 52 37 53 53 54 38 55
REMARK SMILES IDX 41 56 52 57 68 58 39 59 40 60 51 62 69 63 42 64 29 65 30 66
REMARK SMILES IDX 35 67 31 68 32 69 34 70 36 71 33 72 55 73 56 74 61 75 57 76
REMARK SMILES IDX 58 77 60 78 62 79 59 80 43 81 44 82 49 83 45 84 46 85 48 86
REMARK SMILES IDX 50 87 47 88
REMARK H PARENT 10 7 17 31 67 50 41 61
REMARK Flexibility Score: inf
ROOT
ATOM      1  C   UNL A   1      31.272  28.986  24.841  1.00  0.00     0.002 C 
ENDROOT
BRANCH   1   2
ATOM      2  C   UNL A   1      30.241  28.120  24.103  1.00  0.00     0.021 C 
BRANCH   2   3
ATOM      3  C   UNL A   1      30.863  26.954  23.333  1.00  0.00     0.116 C 
BRANCH   3   4
ATOM      4  N   UNL A   1      31.995  27.410  22.551  1.00  0.00    -0.353 N 
ATOM      5  C   UNL A   1      33.260  26.933  22.437  1.00  0.00     0.243 C 
ATOM      6  O   UNL A   1      34.034  27.466  21.644  1.00  0.00    -0.270 OA
ATOM      7  H   UNL A   1      31.814  28.208  22.005  1.00  0.00     0.163 HD
BRANCH   5   8
ATOM      8  C   UNL A   1      33.716  25.734  23.180  1.00  0.00     0.072 C 
ATOM      9  C   UNL A   1      33.957  24.527  22.647  1.00  0.00     0.014 C 
BRANCH   9  10
ATOM     10  C   UNL A   1      34.356  23.348  23.427  1.00  0.00    -0.024 A 
ATOM     11  C   UNL A   1      35.986  22.135  24.782  1.00  0.00    -0.047 A 
ATOM     12  C   UNL A   1      35.646  23.219  23.960  1.00  0.00     0.011 A 
ATOM     13  C   UNL A   1      35.021  21.155  25.044  1.00  0.00     0.016 A 
ATOM     14  C   UNL A   1      33.715  21.295  24.561  1.00  0.00     0.023 A 
ATOM     15  C   UNL A   1      33.391  22.380  23.738  1.00  0.00     0.020 A 
BRANCH  11  16
ATOM     16  C   UNL A   1      37.358  22.048  25.407  1.00  0.00     0.032 C 
ATOM     17  C   UNL A   1      37.849  23.404  25.903  1.00  0.00     0.009 C 
ENDBRANCH  11  16
BRANCH  14  18
ATOM     18  C   UNL A   1      32.647  20.319  24.914  1.00  0.00     0.193 C 
ATOM     19  O   UNL A   1      31.580  20.714  25.374  1.00  0.00    -0.289 OA
BRANCH  18  20
ATOM     20  C   UNL A   1      32.856  18.862  24.713  1.00  0.00     0.022 A 
ATOM     21  C   UNL A   1      33.167  18.401  23.431  1.00  0.00     0.012 A 
ATOM     22  C   UNL A   1      32.755  17.961  25.781  1.00  0.00     0.012 A 
ATOM     23  C   UNL A   1      33.431  17.046  23.228  1.00  0.00     0.001 A 
ATOM     24  C   UNL A   1      33.022  16.607  25.572  1.00  0.00     0.001 A 
ATOM     25  C   UNL A   1      33.368  16.153  24.299  1.00  0.00     0.000 A 
ENDBRANCH  18  20
ENDBRANCH  14  18
ENDBRANCH   9  10
ENDBRANCH   5   8
ENDBRANCH   3   4
ENDBRANCH   2   3
ENDBRANCH   1   2
BRANCH   1  26
ATOM     26  C   UNL A   1      31.606  28.519  26.263  1.00  0.00     0.002 C 
BRANCH  26  27
ATOM     27  C   UNL A   1      33.006  27.922  26.436  1.00  0.00     0.021 C 
BRANCH  27  28
ATOM     28  C   UNL A   1      34.143  28.883  26.102  1.00  0.00     0.116 C 
BRANCH  28  29
ATOM     29  N   UNL A   1      33.870  30.227  26.592  1.00  0.00    -0.352 N 
ATOM     30  C   UNL A   1      34.476  30.920  27.609  1.00  0.00     0.251 C 
ATOM     31  H   UNL A   1      33.148  30.706  26.127  1.00  0.00     0.163 HD
ATOM     32  O   UNL A   1      33.968  31.947  28.045  1.00  0.00    -0.269 OA
BRANCH  30  33
ATOM     33  C   UNL A   1      35.742  30.422  28.185  1.00  0.00     0.039 A 
ATOM     34  C   UNL A   1      35.700  29.639  29.341  1.00  0.00     0.014 A 
ATOM     35  C   UNL A   1      36.969  30.748  27.598  1.00  0.00     0.014 A 
ATOM     36  C   UNL A   1      36.887  29.142  29.882  1.00  0.00     0.010 A 
ATOM     37  C   UNL A   1      38.144  30.195  28.098  1.00  0.00     0.010 A 
ATOM     38  C   UNL A   1      38.115  29.393  29.249  1.00  0.00    -0.014 A 
BRANCH  38  39
ATOM     39  C   UNL A   1      39.381  28.835  29.783  1.00  0.00     0.031 A 
ATOM     40  C   UNL A   1      40.031  29.455  30.987  1.00  0.00     0.074 A 
ATOM     41  C   UNL A   1      39.978  27.811  29.142  1.00  0.00     0.049 A 
ATOM     42  N   UNL A   1      41.169  29.154  31.560  1.00  0.00    -0.248 NA
ATOM     43  C   UNL A   1      39.322  30.580  31.617  1.00  0.00     0.031 C 
ATOM     44  C   UNL A   1      39.469  27.157  27.936  1.00  0.00     0.029 A 
ATOM     45  N   UNL A   1      41.149  27.150  29.411  1.00  0.00    -0.354 N 
ATOM     46  C   UNL A   1      41.318  30.059  32.604  1.00  0.00     0.074 A 
ATOM     47  C   UNL A   1      40.181  30.953  32.555  1.00  0.00     0.031 C 
ATOM     48  C   UNL A   1      40.313  26.174  27.581  1.00  0.00     0.029 A 
ATOM     49  C   UNL A   1      41.437  26.154  28.510  1.00  0.00     0.049 A 
ATOM     50  H   UNL A   1      41.728  27.368  30.177  1.00  0.00     0.167 HD
ATOM     51  C   UNL A   1      42.301  30.125  33.533  1.00  0.00     0.037 A 
ATOM     52  C   UNL A   1      42.494  25.324  28.438  1.00  0.00     0.037 A 
ATOM     53  C   UNL A   1      43.417  29.219  33.593  1.00  0.00     0.049 A 
ATOM     54  C   UNL A   1      43.575  25.420  29.479  1.00  0.00     0.074 A 
ATOM     55  C   UNL A   1      44.435  29.164  34.530  1.00  0.00     0.029 A 
ATOM     56  N   UNL A   1      43.666  28.211  32.672  1.00  0.00    -0.354 N 
ATOM     57  N   UNL A   1      43.668  26.235  30.501  1.00  0.00    -0.248 NA
ATOM     58  C   UNL A   1      44.695  24.476  29.359  1.00  0.00     0.031 C 
ATOM     59  C   UNL A   1      45.322  28.150  34.153  1.00  0.00     0.029 A 
ATOM     60  C   UNL A   1      44.831  27.542  33.008  1.00  0.00     0.049 A 
ATOM     61  H   UNL A   1      43.098  28.003  31.896  1.00  0.00     0.167 HD
ATOM     62  C   UNL A   1      44.838  25.886  31.161  1.00  0.00     0.074 A 
ATOM     63  C   UNL A   1      45.415  24.775  30.431  1.00  0.00     0.031 C 
ATOM     64  C   UNL A   1      45.387  26.435  32.273  1.00  0.00     0.037 A 
BRANCH  51  65
ATOM     65  C   UNL A   1      42.207  31.213  34.564  1.00  0.00     0.057 A 
ATOM     66  C   UNL A   1      41.509  31.035  35.765  1.00  0.00     0.134 A 
ATOM     67  C   UNL A   1      42.847  32.444  34.366  1.00  0.00     0.134 A 
ATOM     68  F   UNL A   1      40.864  29.885  36.013  1.00  0.00    -0.206 F 
ATOM     69  C   UNL A   1      41.427  32.050  36.721  1.00  0.00     0.040 A 
ATOM     70  C   UNL A   1      42.796  33.455  35.326  1.00  0.00     0.040 A 
ATOM     71  F   UNL A   1      43.539  32.679  33.240  1.00  0.00    -0.206 F 
ATOM     72  C   UNL A   1      42.078  33.262  36.505  1.00  0.00     0.006 A 
ENDBRANCH  51  65
BRANCH  52  73
ATOM     73  C   UNL A   1      42.571  24.312  27.355  1.00  0.00     0.057 A 
ATOM     74  C   UNL A   1      43.183  24.610  26.132  1.00  0.00     0.134 A 
ATOM     75  C   UNL A   1      42.035  23.029  27.512  1.00  0.00     0.134 A 
ATOM     76  F   UNL A   1      43.698  25.830  25.915  1.00  0.00    -0.206 F 
ATOM     77  C   UNL A   1      43.243  23.676  25.096  1.00  0.00     0.040 A 
ATOM     78  C   UNL A   1      42.111  22.076  26.495  1.00  0.00     0.040 A 
ATOM     79  F   UNL A   1      41.444  22.678  28.663  1.00  0.00    -0.206 F 
ATOM     80  C   UNL A   1      42.709  22.402  25.279  1.00  0.00     0.006 A 
ENDBRANCH  52  73
BRANCH  64  81
ATOM     81  C   UNL A   1      46.656  25.819  32.787  1.00  0.00     0.057 A 
ATOM     82  C   UNL A   1      47.916  26.263  32.368  1.00  0.00     0.134 A 
ATOM     83  C   UNL A   1      46.614  24.795  33.742  1.00  0.00     0.134 A 
ATOM     84  F   UNL A   1      48.024  27.231  31.446  1.00  0.00    -0.206 F 
ATOM     85  C   UNL A   1      49.090  25.695  32.864  1.00  0.00     0.040 A 
ATOM     86  C   UNL A   1      47.781  24.238  34.265  1.00  0.00     0.040 A 
ATOM     87  F   UNL A   1      45.439  24.330  34.192  1.00  0.00    -0.206 F 
ATOM     88  C   UNL A   1      49.024  24.684  33.821  1.00  0.00     0.006 A 
ENDBRANCH  64  81
ENDBRANCH  38  39
ENDBRANCH  30  33
ENDBRANCH  28  29
ENDBRANCH  27  28
ENDBRANCH  26  27
ENDBRANCH   1  26
TORSDOF 17
ENDMDL
MODEL 3
REMARK VINA RESULT:     -11.4      2.997      8.611
REMARK SMILES CCc1cc(/C=C/C(=O)NCCCCCCNC(=O)c2ccc(-c3c4nc(c(-c5c(F)cccc5F)c5ccc([nH]5)c(-c5c(F)cccc5F)c5nc(c(-c6c(F)cccc6F)c6ccc3[nH]6)C=C5)C=C4)cc2)cc(C(=O)c2ccccc2)c1
REMARK SMILES IDX 13 1 12 2 11 3 10 4 8 5 9 6 7 8 6 9 5 10 3 11 4 12 84 13
REMARK SMILES IDX 75 14 74 15 2 16 1 17 76 18 77 19 78 20 79 21 83 22 80 23
REMARK SMILES IDX 82 24 81 25 14 26 15 27 16 28 17 29 18 30 19 32 20 33 21 34
REMARK SMILES IDX 73 35 22 36 72 37 23 38 24 39 25 40 66 41 26 42 71 43 65 44
REMARK SMILES IDX 67 45 27 46 70 47 64 48 63 49 28 51 54 52 37 53 53 54 38 55
REMARK SMILES IDX 41 56 52 57 68 58 39 59 40 60 51 62 69 63 42 64 29 65 30 66
REMARK SMILES IDX 35 67 31 68 32 69 34 70 36 71 33 72 55 73 56 74 61 75 57 76
REMARK SMILES IDX 58 77 60 78 62 79 59 80 43 81 44 82 49 83 45 84 46 85 48 86
REMARK SMILES IDX 50 87 47 88
REMARK H PARENT 10 7 17 31 67 50 41 61
REMARK Flexibility Score: inf
ROOT
ATOM      1  C   UNL A   1      33.994  22.890  23.758  1.00  0.00     0.002 C 
ENDROOT
BRANCH   1   2
ATOM      2  C   UNL A   1      33.014  22.123  24.656  1.00  0.00     0.021 C 
BRANCH   2   3
ATOM      3  C   UNL A   1      33.220  22.385  26.149  1.00  0.00     0.116 C 
BRANCH   3   4
ATOM      4  N   UNL A   1      31.952  22.344  26.851  1.00  0.00    -0.353 N 
ATOM      5  C   UNL A   1      30.924  23.228  26.903  1.00  0.00     0.243 C 
ATOM      6  O   UNL A   1      29.908  22.931  27.529  1.00  0.00    -0.270 OA
ATOM      7  H   UNL A   1      31.813  21.529  27.385  1.00  0.00     0.163 HD
BRANCH   5   8
ATOM      8  C   UNL A   1      30.954  24.509  26.159  1.00  0.00     0.072 C 
ATOM      9  C   UNL A   1      29.957  25.001  25.408  1.00  0.00     0.014 C 
BRANCH   9  10
ATOM     10  C   UNL A   1      30.045  26.251  24.642  1.00  0.00    -0.024 A 
ATOM     11  C   UNL A   1      29.005  28.038  23.343  1.00  0.00    -0.047 A 
ATOM     12  C   UNL A   1      28.930  26.798  23.992  1.00  0.00     0.011 A 
ATOM     13  C   UNL A   1      30.228  28.721  23.325  1.00  0.00     0.016 A 
ATOM     14  C   UNL A   1      31.336  28.213  24.011  1.00  0.00     0.023 A 
ATOM     15  C   UNL A   1      31.248  26.970  24.651  1.00  0.00     0.020 A 
BRANCH  11  16
ATOM     16  C   UNL A   1      27.777  28.647  22.710  1.00  0.00     0.032 C 
ATOM     17  C   UNL A   1      28.082  29.976  22.027  1.00  0.00     0.009 C 
ENDBRANCH  11  16
BRANCH  14  18
ATOM     18  C   UNL A   1      32.614  28.972  24.093  1.00  0.00     0.193 C 
ATOM     19  O   UNL A   1      33.225  29.261  23.068  1.00  0.00    -0.289 OA
BRANCH  18  20
ATOM     20  C   UNL A   1      33.163  29.393  25.407  1.00  0.00     0.022 A 
ATOM     21  C   UNL A   1      34.303  28.748  25.895  1.00  0.00     0.012 A 
ATOM     22  C   UNL A   1      32.563  30.420  26.148  1.00  0.00     0.012 A 
ATOM     23  C   UNL A   1      34.874  29.167  27.097  1.00  0.00     0.001 A 
ATOM     24  C   UNL A   1      33.140  30.837  27.348  1.00  0.00     0.001 A 
ATOM     25  C   UNL A   1      34.299  30.217  27.817  1.00  0.00     0.000 A 
ENDBRANCH  18  20
ENDBRANCH  14  18
ENDBRANCH   9  10
ENDBRANCH   5   8
ENDBRANCH   3   4
ENDBRANCH   2   3
ENDBRANCH   1   2
BRANCH   1  26
ATOM     26  C   UNL A   1      35.470  22.520  23.949  1.00  0.00     0.002 C 
BRANCH  26  27
ATOM     27  C   UNL A   1      36.354  23.647  24.493  1.00  0.00     0.021 C 
BRANCH  27  28
ATOM     28  C   UNL A   1      36.785  23.460  25.944  1.00  0.00     0.116 C 
BRANCH  28  29
ATOM     29  N   UNL A   1      37.846  22.472  26.066  1.00  0.00    -0.352 N 
ATOM     30  C   UNL A   1      39.181  22.658  26.323  1.00  0.00     0.251 C 
ATOM     31  H   UNL A   1      37.566  21.536  25.947  1.00  0.00     0.163 HD
ATOM     32  O   UNL A   1      39.976  21.739  26.157  1.00  0.00    -0.269 OA
BRANCH  30  33
ATOM     33  C   UNL A   1      39.662  23.973  26.793  1.00  0.00     0.039 A 
ATOM     34  C   UNL A   1      40.145  24.893  25.858  1.00  0.00     0.014 A 
ATOM     35  C   UNL A   1      39.659  24.288  28.155  1.00  0.00     0.014 A 
ATOM     36  C   UNL A   1      40.580  26.148  26.286  1.00  0.00     0.010 A 
ATOM     37  C   UNL A   1      40.028  25.562  28.572  1.00  0.00     0.010 A 
ATOM     38  C   UNL A   1      40.499  26.502  27.643  1.00  0.00    -0.014 A 
BRANCH  38  39
ATOM     39  C   UNL A   1      40.913  27.847  28.111  1.00  0.00     0.031 A 
ATOM     40  C   UNL A   1      42.370  28.214  28.160  1.00  0.00     0.074 A 
ATOM     41  C   UNL A   1      39.981  28.714  28.551  1.00  0.00     0.049 A 
ATOM     42  N   UNL A   1      42.932  29.311  28.600  1.00  0.00    -0.248 NA
ATOM     43  C   UNL A   1      43.323  27.204  27.676  1.00  0.00     0.031 C 
ATOM     44  C   UNL A   1      38.540  28.455  28.597  1.00  0.00     0.029 A 
ATOM     45  N   UNL A   1      40.107  29.983  29.056  1.00  0.00    -0.354 N 
ATOM     46  C   UNL A   1      44.301  29.118  28.460  1.00  0.00     0.074 A 
ATOM     47  C   UNL A   1      44.487  27.779  27.943  1.00  0.00     0.031 C 
ATOM     48  C   UNL A   1      37.915  29.540  29.083  1.00  0.00     0.029 A 
ATOM     49  C   UNL A   1      38.911  30.553  29.416  1.00  0.00     0.049 A 
ATOM     50  H   UNL A   1      40.973  30.441  29.150  1.00  0.00     0.167 HD
ATOM     51  C   UNL A   1      45.308  29.984  28.716  1.00  0.00     0.037 A 
ATOM     52  C   UNL A   1      38.648  31.755  29.961  1.00  0.00     0.037 A 
ATOM     53  C   UNL A   1      45.117  31.323  29.208  1.00  0.00     0.049 A 
ATOM     54  C   UNL A   1      39.785  32.698  30.241  1.00  0.00     0.074 A 
ATOM     55  C   UNL A   1      46.068  32.301  29.443  1.00  0.00     0.029 A 
ATOM     56  N   UNL A   1      43.888  31.872  29.545  1.00  0.00    -0.354 N 
ATOM     57  N   UNL A   1      41.069  32.529  30.038  1.00  0.00    -0.248 NA
ATOM     58  C   UNL A   1      39.436  34.003  30.821  1.00  0.00     0.031 C 
ATOM     59  C   UNL A   1      45.419  33.426  29.962  1.00  0.00     0.029 A 
ATOM     60  C   UNL A   1      44.059  33.167  30.005  1.00  0.00     0.049 A 
ATOM     61  H   UNL A   1      43.022  31.409  29.468  1.00  0.00     0.167 HD
ATOM     62  C   UNL A   1      41.677  33.711  30.438  1.00  0.00     0.074 A 
ATOM     63  C   UNL A   1      40.620  34.596  30.882  1.00  0.00     0.031 C 
ATOM     64  C   UNL A   1      42.993  34.035  30.437  1.00  0.00     0.037 A 
BRANCH  51  65
ATOM     65  C   UNL A   1      46.710  29.510  28.465  1.00  0.00     0.057 A 
ATOM     66  C   UNL A   1      47.341  29.692  27.227  1.00  0.00     0.134 A 
ATOM     67  C   UNL A   1      47.450  28.889  29.481  1.00  0.00     0.134 A 
ATOM     68  F   UNL A   1      46.687  30.268  26.208  1.00  0.00    -0.206 F 
ATOM     69  C   UNL A   1      48.647  29.250  26.999  1.00  0.00     0.040 A 
ATOM     70  C   UNL A   1      48.764  28.469  29.274  1.00  0.00     0.040 A 
ATOM     71  F   UNL A   1      46.909  28.689  30.692  1.00  0.00    -0.206 F 
ATOM     72  C   UNL A   1      49.364  28.642  28.027  1.00  0.00     0.006 A 
ENDBRANCH  51  65
BRANCH  52  73
ATOM     73  C   UNL A   1      37.247  32.147  30.256  1.00  0.00     0.057 A 
ATOM     74  C   UNL A   1      36.641  31.799  31.469  1.00  0.00     0.134 A 
ATOM     75  C   UNL A   1      36.480  32.872  29.337  1.00  0.00     0.134 A 
ATOM     76  F   UNL A   1      37.319  31.087  32.382  1.00  0.00    -0.206 F 
ATOM     77  C   UNL A   1      35.317  32.140  31.751  1.00  0.00     0.040 A 
ATOM     78  C   UNL A   1      35.164  33.243  29.616  1.00  0.00     0.040 A 
ATOM     79  F   UNL A   1      37.006  33.244  28.161  1.00  0.00    -0.206 F 
ATOM     80  C   UNL A   1      34.576  32.870  30.822  1.00  0.00     0.006 A 
ENDBRANCH  52  73
BRANCH  64  81
ATOM     81  C   UNL A   1      43.359  35.417  30.897  1.00  0.00     0.057 A 
ATOM     82  C   UNL A   1      43.612  35.705  32.243  1.00  0.00     0.134 A 
ATOM     83  C   UNL A   1      43.496  36.461  29.973  1.00  0.00     0.134 A 
ATOM     84  F   UNL A   1      43.485  34.753  33.179  1.00  0.00    -0.206 F 
ATOM     85  C   UNL A   1      43.967  36.989  32.659  1.00  0.00     0.040 A 
ATOM     86  C   UNL A   1      43.877  37.742  30.373  1.00  0.00     0.040 A 
ATOM     87  F   UNL A   1      43.277  36.249  28.667  1.00  0.00    -0.206 F 
ATOM     88  C   UNL A   1      44.108  38.011  31.720  1.00  0.00     0.006 A 
ENDBRANCH  64  81
ENDBRANCH  38  39
ENDBRANCH  30  33
ENDBRANCH  28  29
ENDBRANCH  27  28
ENDBRANCH  26  27
ENDBRANCH   1  26
TORSDOF 17
ENDMDL
