MODEL 1
REMARK VINA RESULT:     -12.0      0.000      0.000
REMARK SMILES Nc1c(C(=O)OCC2c3ccccc3-c3ccccc32)ccc(F)c1C(=O)NCCCCCCNC(=O)c1ccc(-c2c3nc(c(-c4c(F)cccc4F)c4ccc([nH]4)c(-c4c(F)cccc4F)c4nc(c(-c5c(F)cccc5F)c5ccc2[nH]5)C=C4)C=C3)cc1
REMARK SMILES IDX 30 1 29 2 28 3 26 4 27 5 25 7 2 8 3 9 21 10 23 11 22 12
REMARK SMILES IDX 24 13 1 14 4 17 5 18 6 19 7 20 8 21 9 22 20 23 10 24 14 25
REMARK SMILES IDX 15 26 19 27 11 28 13 29 16 30 18 31 12 32 17 33 31 34 32 35
REMARK SMILES IDX 33 36 34 37 35 38 36 39 37 41 38 42 39 43 91 44 40 45 90 46
REMARK SMILES IDX 41 47 42 48 43 49 84 50 44 51 89 52 83 53 85 54 45 55 88 56
REMARK SMILES IDX 82 57 81 58 46 60 72 61 55 62 71 63 56 64 59 65 70 66 86 67
REMARK SMILES IDX 57 68 58 69 69 71 87 72 60 73 47 74 48 75 53 76 49 77 50 78
REMARK SMILES IDX 52 79 54 80 51 81 73 82 74 83 79 84 75 85 76 86 78 87 80 88
REMARK SMILES IDX 77 89 61 90 62 91 67 92 63 93 64 94 66 95 68 96 65 97
REMARK H PARENT 28 6 1 15 1 16 35 40 85 59 59 70
REMARK Flexibility Score: inf
ROOT
ATOM      1  C   UNL A   1      33.942  28.504  26.447  1.00  0.00     0.021 C 
ENDROOT
BRANCH   1   2
ATOM      2  C   UNL A   1      33.614  28.712  24.961  1.00  0.00     0.116 C 
BRANCH   2   3
ATOM      3  N   UNL A   1      32.248  29.175  24.827  1.00  0.00    -0.352 N 
ATOM      4  C   UNL A   1      31.091  28.535  24.453  1.00  0.00     0.256 C 
ATOM      5  O   UNL A   1      30.116  29.252  24.224  1.00  0.00    -0.269 OA
ATOM      6  H   UNL A   1      32.125  30.128  25.045  1.00  0.00     0.163 HD
BRANCH   4   7
ATOM      7  C   UNL A   1      30.938  27.053  24.379  1.00  0.00     0.099 A 
ATOM      8  C   UNL A   1      30.790  26.176  25.476  1.00  0.00     0.062 A 
ATOM      9  C   UNL A   1      30.582  24.798  25.220  1.00  0.00     0.084 A 
ATOM     10  C   UNL A   1      30.658  24.277  23.923  1.00  0.00     0.021 A 
ATOM     11  C   UNL A   1      30.976  26.507  23.082  1.00  0.00     0.138 A 
ATOM     12  C   UNL A   1      30.871  25.136  22.854  1.00  0.00     0.041 A 
ATOM     13  F   UNL A   1      31.110  27.290  22.001  1.00  0.00    -0.206 F 
BRANCH   8  14
ATOM     14  N   UNL A   1      31.064  26.572  26.793  1.00  0.00    -0.397 N 
ATOM     15  H   UNL A   1      31.073  25.903  27.516  1.00  0.00     0.156 HD
ATOM     16  H   UNL A   1      31.247  27.517  26.995  1.00  0.00     0.156 HD
ENDBRANCH   8  14
BRANCH   9  17
ATOM     17  C   UNL A   1      30.268  23.853  26.317  1.00  0.00     0.340 C 
ATOM     18  O   UNL A   1      29.530  24.114  27.252  1.00  0.00    -0.246 OA
BRANCH  17  19
ATOM     19  O   UNL A   1      31.011  22.721  26.142  1.00  0.00    -0.461 OA
BRANCH  19  20
ATOM     20  C   UNL A   1      32.058  22.494  27.104  1.00  0.00     0.246 C 
BRANCH  20  21
ATOM     21  C   UNL A   1      33.364  21.981  26.459  1.00  0.00     0.088 C 
ATOM     22  C   UNL A   1      33.155  20.723  25.626  1.00  0.00    -0.029 A 
ATOM     23  C   UNL A   1      33.813  22.976  25.391  1.00  0.00    -0.029 A 
ATOM     24  C   UNL A   1      32.903  19.432  26.068  1.00  0.00     0.005 A 
ATOM     25  C   UNL A   1      33.213  21.035  24.254  1.00  0.00    -0.014 A 
ATOM     26  C   UNL A   1      33.651  22.406  24.107  1.00  0.00    -0.014 A 
ATOM     27  C   UNL A   1      34.276  24.272  25.556  1.00  0.00     0.005 A 
ATOM     28  C   UNL A   1      32.585  18.464  25.118  1.00  0.00     0.000 A 
ATOM     29  C   UNL A   1      32.889  20.075  23.311  1.00  0.00     0.009 A 
ATOM     30  C   UNL A   1      33.945  23.143  22.972  1.00  0.00     0.009 A 
ATOM     31  C   UNL A   1      34.574  25.012  24.409  1.00  0.00     0.000 A 
ATOM     32  C   UNL A   1      32.552  18.789  23.754  1.00  0.00     0.001 A 
ATOM     33  C   UNL A   1      34.406  24.454  23.130  1.00  0.00     0.001 A 
ENDBRANCH  20  21
ENDBRANCH  19  20
ENDBRANCH  17  19
ENDBRANCH   9  17
ENDBRANCH   4   7
ENDBRANCH   2   3
ENDBRANCH   1   2
BRANCH   1  34
ATOM     34  C   UNL A   1      34.880  29.556  27.038  1.00  0.00     0.002 C 
BRANCH  34  35
ATOM     35  C   UNL A   1      34.174  30.648  27.844  1.00  0.00     0.002 C 
BRANCH  35  36
ATOM     36  C   UNL A   1      33.636  31.816  27.012  1.00  0.00     0.021 C 
BRANCH  36  37
ATOM     37  C   UNL A   1      32.303  32.376  27.501  1.00  0.00     0.116 C 
BRANCH  37  38
ATOM     38  N   UNL A   1      32.349  33.825  27.625  1.00  0.00    -0.352 N 
ATOM     39  C   UNL A   1      33.097  34.602  28.473  1.00  0.00     0.251 C 
ATOM     40  H   UNL A   1      31.757  34.319  27.013  1.00  0.00     0.163 HD
ATOM     41  O   UNL A   1      32.810  35.781  28.650  1.00  0.00    -0.269 OA
BRANCH  39  42
ATOM     42  C   UNL A   1      34.252  34.009  29.177  1.00  0.00     0.039 A 
ATOM     43  C   UNL A   1      34.031  33.238  30.319  1.00  0.00     0.014 A 
ATOM     44  C   UNL A   1      35.554  34.237  28.720  1.00  0.00     0.014 A 
ATOM     45  C   UNL A   1      35.116  32.649  30.972  1.00  0.00     0.010 A 
ATOM     46  C   UNL A   1      36.624  33.586  29.324  1.00  0.00     0.010 A 
ATOM     47  C   UNL A   1      36.416  32.793  30.462  1.00  0.00    -0.014 A 
BRANCH  47  48
ATOM     48  C   UNL A   1      37.574  32.122  31.107  1.00  0.00     0.031 A 
ATOM     49  C   UNL A   1      38.309  31.025  30.386  1.00  0.00     0.074 A 
ATOM     50  C   UNL A   1      37.924  32.463  32.363  1.00  0.00     0.049 A 
ATOM     51  N   UNL A   1      39.299  30.279  30.808  1.00  0.00    -0.248 NA
ATOM     52  C   UNL A   1      37.856  30.704  29.023  1.00  0.00     0.031 C 
ATOM     53  C   UNL A   1      37.261  33.481  33.180  1.00  0.00     0.029 A 
ATOM     54  N   UNL A   1      38.920  31.983  33.175  1.00  0.00    -0.354 N 
ATOM     55  C   UNL A   1      39.579  29.399  29.770  1.00  0.00     0.074 A 
ATOM     56  C   UNL A   1      38.618  29.662  28.721  1.00  0.00     0.031 C 
ATOM     57  C   UNL A   1      37.883  33.567  34.366  1.00  0.00     0.029 A 
ATOM     58  C   UNL A   1      38.958  32.581  34.411  1.00  0.00     0.049 A 
ATOM     59  H   UNL A   1      39.547  31.276  32.899  1.00  0.00     0.167 HD
ATOM     60  C   UNL A   1      40.562  28.471  29.689  1.00  0.00     0.037 A 
ATOM     61  C   UNL A   1      39.763  32.353  35.467  1.00  0.00     0.037 A 
ATOM     62  C   UNL A   1      41.528  28.228  30.727  1.00  0.00     0.049 A 
ATOM     63  C   UNL A   1      40.833  31.300  35.357  1.00  0.00     0.074 A 
ATOM     64  C   UNL A   1      42.597  27.349  30.719  1.00  0.00     0.029 A 
ATOM     65  N   UNL A   1      41.540  28.861  31.961  1.00  0.00    -0.354 N 
ATOM     66  N   UNL A   1      41.129  30.524  34.343  1.00  0.00    -0.248 NA
ATOM     67  C   UNL A   1      41.685  31.097  36.536  1.00  0.00     0.031 C 
ATOM     68  C   UNL A   1      43.221  27.408  31.968  1.00  0.00     0.029 A 
ATOM     69  C   UNL A   1      42.582  28.371  32.732  1.00  0.00     0.049 A 
ATOM     70  H   UNL A   1      40.903  29.556  32.247  1.00  0.00     0.167 HD
ATOM     71  C   UNL A   1      42.222  29.768  34.748  1.00  0.00     0.074 A 
ATOM     72  C   UNL A   1      42.545  30.190  36.095  1.00  0.00     0.031 C 
ATOM     73  C   UNL A   1      42.898  28.811  34.067  1.00  0.00     0.037 A 
BRANCH  60  74
ATOM     74  C   UNL A   1      40.646  27.649  28.436  1.00  0.00     0.057 A 
ATOM     75  C   UNL A   1      41.430  28.042  27.343  1.00  0.00     0.134 A 
ATOM     76  C   UNL A   1      39.981  26.420  28.341  1.00  0.00     0.134 A 
ATOM     77  F   UNL A   1      42.084  29.214  27.361  1.00  0.00    -0.206 F 
ATOM     78  C   UNL A   1      41.532  27.254  26.195  1.00  0.00     0.040 A 
ATOM     79  C   UNL A   1      40.100  25.608  27.212  1.00  0.00     0.040 A 
ATOM     80  F   UNL A   1      39.218  25.978  29.354  1.00  0.00    -0.206 F 
ATOM     81  C   UNL A   1      40.874  26.028  26.132  1.00  0.00     0.006 A 
ENDBRANCH  60  74
BRANCH  61  82
ATOM     82  C   UNL A   1      39.599  33.136  36.720  1.00  0.00     0.057 A 
ATOM     83  C   UNL A   1      40.356  34.289  36.958  1.00  0.00     0.134 A 
ATOM     84  C   UNL A   1      38.707  32.735  37.722  1.00  0.00     0.134 A 
ATOM     85  F   UNL A   1      41.240  34.715  36.044  1.00  0.00    -0.206 F 
ATOM     86  C   UNL A   1      40.257  34.996  38.158  1.00  0.00     0.040 A 
ATOM     87  C   UNL A   1      38.574  33.449  38.913  1.00  0.00     0.040 A 
ATOM     88  F   UNL A   1      37.943  31.644  37.554  1.00  0.00    -0.206 F 
ATOM     89  C   UNL A   1      39.360  34.577  39.139  1.00  0.00     0.006 A 
ENDBRANCH  61  82
BRANCH  73  90
ATOM     90  C   UNL A   1      44.082  28.187  34.747  1.00  0.00     0.057 A 
ATOM     91  C   UNL A   1      45.351  28.781  34.727  1.00  0.00     0.134 A 
ATOM     92  C   UNL A   1      43.940  26.994  35.466  1.00  0.00     0.134 A 
ATOM     93  F   UNL A   1      45.559  29.919  34.046  1.00  0.00    -0.206 F 
ATOM     94  C   UNL A   1      46.440  28.196  35.374  1.00  0.00     0.040 A 
ATOM     95  C   UNL A   1      45.013  26.415  36.145  1.00  0.00     0.040 A 
ATOM     96  F   UNL A   1      42.750  26.376  35.535  1.00  0.00    -0.206 F 
ATOM     97  C   UNL A   1      46.271  27.014  36.093  1.00  0.00     0.006 A 
ENDBRANCH  73  90
ENDBRANCH  47  48
ENDBRANCH  39  42
ENDBRANCH  37  38
ENDBRANCH  36  37
ENDBRANCH  35  36
ENDBRANCH  34  35
ENDBRANCH   1  34
TORSDOF 18
ENDMDL
MODEL 2
REMARK VINA RESULT:     -12.0      0.468      5.903
REMARK SMILES Nc1c(C(=O)OCC2c3ccccc3-c3ccccc32)ccc(F)c1C(=O)NCCCCCCNC(=O)c1ccc(-c2c3nc(c(-c4c(F)cccc4F)c4ccc([nH]4)c(-c4c(F)cccc4F)c4nc(c(-c5c(F)cccc5F)c5ccc2[nH]5)C=C4)C=C3)cc1
REMARK SMILES IDX 30 1 29 2 28 3 26 4 27 5 25 7 2 8 3 9 21 10 23 11 22 12
REMARK SMILES IDX 24 13 1 14 4 17 5 18 6 19 7 20 8 21 9 22 20 23 10 24 14 25
REMARK SMILES IDX 15 26 19 27 11 28 13 29 16 30 18 31 12 32 17 33 31 34 32 35
REMARK SMILES IDX 33 36 34 37 35 38 36 39 37 41 38 42 39 43 91 44 40 45 90 46
REMARK SMILES IDX 41 47 42 48 43 49 84 50 44 51 89 52 83 53 85 54 45 55 88 56
REMARK SMILES IDX 82 57 81 58 46 60 72 61 55 62 71 63 56 64 59 65 70 66 86 67
REMARK SMILES IDX 57 68 58 69 69 71 87 72 60 73 47 74 48 75 53 76 49 77 50 78
REMARK SMILES IDX 52 79 54 80 51 81 73 82 74 83 79 84 75 85 76 86 78 87 80 88
REMARK SMILES IDX 77 89 61 90 62 91 67 92 63 93 64 94 66 95 68 96 65 97
REMARK H PARENT 28 6 1 15 1 16 35 40 85 59 59 70
REMARK Flexibility Score: inf
ROOT
ATOM      1  C   UNL A   1      33.937  28.397  26.424  1.00  0.00     0.021 C 
ENDROOT
BRANCH   1   2
ATOM      2  C   UNL A   1      33.648  28.580  24.927  1.00  0.00     0.116 C 
BRANCH   2   3
ATOM      3  N   UNL A   1      32.291  29.057  24.752  1.00  0.00    -0.352 N 
ATOM      4  C   UNL A   1      31.134  28.422  24.367  1.00  0.00     0.256 C 
ATOM      5  O   UNL A   1      30.174  29.146  24.099  1.00  0.00    -0.269 OA
ATOM      6  H   UNL A   1      32.176  30.016  24.944  1.00  0.00     0.163 HD
BRANCH   4   7
ATOM      7  C   UNL A   1      30.963  26.941  24.325  1.00  0.00     0.099 A 
ATOM      8  C   UNL A   1      30.809  26.090  25.441  1.00  0.00     0.062 A 
ATOM      9  C   UNL A   1      30.583  24.710  25.214  1.00  0.00     0.084 A 
ATOM     10  C   UNL A   1      30.648  24.160  23.929  1.00  0.00     0.021 A 
ATOM     11  C   UNL A   1      30.989  26.368  23.040  1.00  0.00     0.138 A 
ATOM     12  C   UNL A   1      30.866  24.994  22.842  1.00  0.00     0.041 A 
ATOM     13  F   UNL A   1      31.129  27.126  21.942  1.00  0.00    -0.206 F 
BRANCH   8  14
ATOM     14  N   UNL A   1      31.093  26.510  26.748  1.00  0.00    -0.397 N 
ATOM     15  H   UNL A   1      31.096  25.857  27.485  1.00  0.00     0.156 HD
ATOM     16  H   UNL A   1      31.289  27.457  26.930  1.00  0.00     0.156 HD
ENDBRANCH   8  14
BRANCH   9  17
ATOM     17  C   UNL A   1      30.263  23.791  26.333  1.00  0.00     0.340 C 
ATOM     18  O   UNL A   1      29.510  24.072  27.251  1.00  0.00    -0.246 OA
BRANCH  17  19
ATOM     19  O   UNL A   1      31.015  22.661  26.198  1.00  0.00    -0.461 OA
BRANCH  19  20
ATOM     20  C   UNL A   1      32.100  22.504  27.132  1.00  0.00     0.246 C 
BRANCH  20  21
ATOM     21  C   UNL A   1      33.396  21.992  26.467  1.00  0.00     0.088 C 
ATOM     22  C   UNL A   1      33.172  20.739  25.629  1.00  0.00    -0.029 A 
ATOM     23  C   UNL A   1      33.833  22.991  25.400  1.00  0.00    -0.029 A 
ATOM     24  C   UNL A   1      32.922  19.446  26.068  1.00  0.00     0.005 A 
ATOM     25  C   UNL A   1      33.213  21.059  24.258  1.00  0.00    -0.014 A 
ATOM     26  C   UNL A   1      33.653  22.430  24.114  1.00  0.00    -0.014 A 
ATOM     27  C   UNL A   1      34.302  24.285  25.565  1.00  0.00     0.005 A 
ATOM     28  C   UNL A   1      32.588  18.485  25.116  1.00  0.00     0.000 A 
ATOM     29  C   UNL A   1      32.874  20.105  23.315  1.00  0.00     0.009 A 
ATOM     30  C   UNL A   1      33.934  23.172  22.980  1.00  0.00     0.009 A 
ATOM     31  C   UNL A   1      34.587  25.031  24.419  1.00  0.00     0.000 A 
ATOM     32  C   UNL A   1      32.538  18.818  23.754  1.00  0.00     0.001 A 
ATOM     33  C   UNL A   1      34.401  24.481  23.139  1.00  0.00     0.001 A 
ENDBRANCH  20  21
ENDBRANCH  19  20
ENDBRANCH  17  19
ENDBRANCH   9  17
ENDBRANCH   4   7
ENDBRANCH   2   3
ENDBRANCH   1   2
BRANCH   1  34
ATOM     34  C   UNL A   1      34.808  29.495  27.035  1.00  0.00     0.002 C 
BRANCH  34  35
ATOM     35  C   UNL A   1      34.030  30.553  27.820  1.00  0.00     0.002 C 
BRANCH  35  36
ATOM     36  C   UNL A   1      33.559  31.751  26.992  1.00  0.00     0.021 C 
BRANCH  36  37
ATOM     37  C   UNL A   1      32.278  32.406  27.501  1.00  0.00     0.116 C 
BRANCH  37  38
ATOM     38  N   UNL A   1      32.433  33.846  27.633  1.00  0.00    -0.352 N 
ATOM     39  C   UNL A   1      33.275  34.559  28.449  1.00  0.00     0.251 C 
ATOM     40  H   UNL A   1      31.849  34.387  27.054  1.00  0.00     0.163 HD
ATOM     41  O   UNL A   1      33.081  35.754  28.647  1.00  0.00    -0.269 OA
BRANCH  39  42
ATOM     42  C   UNL A   1      34.418  33.880  29.090  1.00  0.00     0.039 A 
ATOM     43  C   UNL A   1      34.213  33.179  30.280  1.00  0.00     0.014 A 
ATOM     44  C   UNL A   1      35.695  33.957  28.527  1.00  0.00     0.014 A 
ATOM     45  C   UNL A   1      35.282  32.508  30.877  1.00  0.00     0.010 A 
ATOM     46  C   UNL A   1      36.740  33.224  29.079  1.00  0.00     0.010 A 
ATOM     47  C   UNL A   1      36.546  32.499  30.265  1.00  0.00    -0.014 A 
BRANCH  47  48
ATOM     48  C   UNL A   1      37.679  31.739  30.851  1.00  0.00     0.031 A 
ATOM     49  C   UNL A   1      38.169  32.063  32.236  1.00  0.00     0.074 A 
ATOM     50  C   UNL A   1      38.301  30.798  30.114  1.00  0.00     0.049 A 
ATOM     51  N   UNL A   1      39.182  31.557  32.893  1.00  0.00    -0.248 NA
ATOM     52  C   UNL A   1      37.445  33.113  32.971  1.00  0.00     0.031 C 
ATOM     53  C   UNL A   1      37.944  30.423  28.744  1.00  0.00     0.029 A 
ATOM     54  N   UNL A   1      39.369  29.990  30.411  1.00  0.00    -0.354 N 
ATOM     55  C   UNL A   1      39.222  32.231  34.107  1.00  0.00     0.074 A 
ATOM     56  C   UNL A   1      38.169  33.221  34.075  1.00  0.00     0.031 C 
ATOM     57  C   UNL A   1      38.762  29.444  28.329  1.00  0.00     0.029 A 
ATOM     58  C   UNL A   1      39.727  29.151  29.383  1.00  0.00     0.049 A 
ATOM     59  H   UNL A   1      39.836  30.010  31.278  1.00  0.00     0.167 HD
ATOM     60  C   UNL A   1      40.045  32.026  35.163  1.00  0.00     0.037 A 
ATOM     61  C   UNL A   1      40.729  28.255  29.297  1.00  0.00     0.037 A 
ATOM     62  C   UNL A   1      41.077  31.024  35.197  1.00  0.00     0.049 A 
ATOM     63  C   UNL A   1      41.643  28.063  30.477  1.00  0.00     0.074 A 
ATOM     64  C   UNL A   1      41.928  30.699  36.240  1.00  0.00     0.029 A 
ATOM     65  N   UNL A   1      41.403  30.186  34.140  1.00  0.00    -0.354 N 
ATOM     66  N   UNL A   1      41.623  28.660  31.645  1.00  0.00    -0.248 NA
ATOM     67  C   UNL A   1      42.714  27.069  30.330  1.00  0.00     0.031 C 
ATOM     68  C   UNL A   1      42.806  29.707  35.795  1.00  0.00     0.029 A 
ATOM     69  C   UNL A   1      42.461  29.366  34.498  1.00  0.00     0.049 A 
ATOM     70  H   UNL A   1      40.950  30.177  33.266  1.00  0.00     0.167 HD
ATOM     71  C   UNL A   1      42.653  28.089  32.382  1.00  0.00     0.074 A 
ATOM     72  C   UNL A   1      43.267  27.088  31.535  1.00  0.00     0.031 C 
ATOM     73  C   UNL A   1      43.054  28.366  33.647  1.00  0.00     0.037 A 
BRANCH  60  74
ATOM     74  C   UNL A   1      39.865  32.899  36.370  1.00  0.00     0.057 A 
ATOM     75  C   UNL A   1      38.952  32.583  37.385  1.00  0.00     0.134 A 
ATOM     76  C   UNL A   1      40.655  34.042  36.550  1.00  0.00     0.134 A 
ATOM     77  F   UNL A   1      38.155  31.509  37.272  1.00  0.00    -0.206 F 
ATOM     78  C   UNL A   1      38.816  33.381  38.522  1.00  0.00     0.040 A 
ATOM     79  C   UNL A   1      40.551  34.831  37.697  1.00  0.00     0.040 A 
ATOM     80  F   UNL A   1      41.556  34.401  35.621  1.00  0.00    -0.206 F 
ATOM     81  C   UNL A   1      39.625  34.503  38.685  1.00  0.00     0.006 A 
ENDBRANCH  60  74
BRANCH  61  82
ATOM     82  C   UNL A   1      40.923  27.462  28.055  1.00  0.00     0.057 A 
ATOM     83  C   UNL A   1      40.321  26.208  27.894  1.00  0.00     0.134 A 
ATOM     84  C   UNL A   1      41.737  27.921  27.013  1.00  0.00     0.134 A 
ATOM     85  F   UNL A   1      39.543  25.705  28.864  1.00  0.00    -0.206 F 
ATOM     86  C   UNL A   1      40.547  25.426  26.760  1.00  0.00     0.040 A 
ATOM     87  C   UNL A   1      41.948  27.165  25.859  1.00  0.00     0.040 A 
ATOM     88  F   UNL A   1      42.336  29.119  27.097  1.00  0.00    -0.206 F 
ATOM     89  C   UNL A   1      41.360  25.907  25.736  1.00  0.00     0.006 A 
ENDBRANCH  61  82
BRANCH  73  90
ATOM     90  C   UNL A   1      44.179  27.547  34.209  1.00  0.00     0.057 A 
ATOM     91  C   UNL A   1      45.507  27.994  34.191  1.00  0.00     0.134 A 
ATOM     92  C   UNL A   1      43.923  26.310  34.813  1.00  0.00     0.134 A 
ATOM     93  F   UNL A   1      45.823  29.164  33.616  1.00  0.00    -0.206 F 
ATOM     94  C   UNL A   1      46.541  27.226  34.728  1.00  0.00     0.040 A 
ATOM     95  C   UNL A   1      44.943  25.548  35.384  1.00  0.00     0.040 A 
ATOM     96  F   UNL A   1      42.672  25.826  34.875  1.00  0.00    -0.206 F 
ATOM     97  C   UNL A   1      46.259  26.004  35.335  1.00  0.00     0.006 A 
ENDBRANCH  73  90
ENDBRANCH  47  48
ENDBRANCH  39  42
ENDBRANCH  37  38
ENDBRANCH  36  37
ENDBRANCH  35  36
ENDBRANCH  34  35
ENDBRANCH   1  34
TORSDOF 18
ENDMDL
MODEL 3
REMARK VINA RESULT:     -11.9      5.885     10.210
REMARK SMILES Nc1c(C(=O)OCC2c3ccccc3-c3ccccc32)ccc(F)c1C(=O)NCCCCCCNC(=O)c1ccc(-c2c3nc(c(-c4c(F)cccc4F)c4ccc([nH]4)c(-c4c(F)cccc4F)c4nc(c(-c5c(F)cccc5F)c5ccc2[nH]5)C=C4)C=C3)cc1
REMARK SMILES IDX 30 1 29 2 28 3 26 4 27 5 25 7 2 8 3 9 21 10 23 11 22 12
REMARK SMILES IDX 24 13 1 14 4 17 5 18 6 19 7 20 8 21 9 22 20 23 10 24 14 25
REMARK SMILES IDX 15 26 19 27 11 28 13 29 16 30 18 31 12 32 17 33 31 34 32 35
REMARK SMILES IDX 33 36 34 37 35 38 36 39 37 41 38 42 39 43 91 44 40 45 90 46
REMARK SMILES IDX 41 47 42 48 43 49 84 50 44 51 89 52 83 53 85 54 45 55 88 56
REMARK SMILES IDX 82 57 81 58 46 60 72 61 55 62 71 63 56 64 59 65 70 66 86 67
REMARK SMILES IDX 57 68 58 69 69 71 87 72 60 73 47 74 48 75 53 76 49 77 50 78
REMARK SMILES IDX 52 79 54 80 51 81 73 82 74 83 79 84 75 85 76 86 78 87 80 88
REMARK SMILES IDX 77 89 61 90 62 91 67 92 63 93 64 94 66 95 68 96 65 97
REMARK H PARENT 28 6 1 15 1 16 35 40 85 59 59 70
REMARK Flexibility Score: inf
ROOT
ATOM      1  C   UNL A   1      40.106  22.858  27.169  1.00  0.00     0.021 C 
ENDROOT
BRANCH   1   2
ATOM      2  C   UNL A   1      38.723  22.939  26.506  1.00  0.00     0.116 C 
BRANCH   2   3
ATOM      3  N   UNL A   1      38.468  21.718  25.768  1.00  0.00    -0.352 N 
ATOM      4  C   UNL A   1      37.329  21.212  25.190  1.00  0.00     0.256 C 
ATOM      5  O   UNL A   1      37.377  20.039  24.816  1.00  0.00    -0.269 OA
ATOM      6  H   UNL A   1      39.260  21.142  25.661  1.00  0.00     0.163 HD
BRANCH   4   7
ATOM      7  C   UNL A   1      36.093  22.007  24.934  1.00  0.00     0.099 A 
ATOM      8  C   UNL A   1      35.001  22.154  25.816  1.00  0.00     0.062 A 
ATOM      9  C   UNL A   1      33.936  23.009  25.440  1.00  0.00     0.084 A 
ATOM     10  C   UNL A   1      33.881  23.594  24.170  1.00  0.00     0.021 A 
ATOM     11  C   UNL A   1      36.030  22.634  23.675  1.00  0.00     0.138 A 
ATOM     12  C   UNL A   1      34.928  23.391  23.281  1.00  0.00     0.041 A 
ATOM     13  F   UNL A   1      37.038  22.534  22.796  1.00  0.00    -0.206 F 
BRANCH   8  14
ATOM     14  N   UNL A   1      34.822  21.323  26.932  1.00  0.00    -0.397 N 
ATOM     15  H   UNL A   1      35.410  21.418  27.716  1.00  0.00     0.156 HD
ATOM     16  H   UNL A   1      34.110  20.644  26.930  1.00  0.00     0.156 HD
ENDBRANCH   8  14
BRANCH   9  17
ATOM     17  C   UNL A   1      32.837  23.325  26.383  1.00  0.00     0.340 C 
ATOM     18  O   UNL A   1      32.223  22.486  27.022  1.00  0.00    -0.246 OA
BRANCH  17  19
ATOM     19  O   UNL A   1      32.586  24.665  26.326  1.00  0.00    -0.461 OA
BRANCH  19  20
ATOM     20  C   UNL A   1      31.210  25.047  26.142  1.00  0.00     0.246 C 
BRANCH  20  21
ATOM     21  C   UNL A   1      31.055  26.420  25.453  1.00  0.00     0.088 C 
ATOM     22  C   UNL A   1      31.953  27.489  26.064  1.00  0.00    -0.029 A 
ATOM     23  C   UNL A   1      31.616  26.331  24.037  1.00  0.00    -0.029 A 
ATOM     24  C   UNL A   1      31.821  28.123  27.291  1.00  0.00     0.005 A 
ATOM     25  C   UNL A   1      33.034  27.763  25.204  1.00  0.00    -0.014 A 
ATOM     26  C   UNL A   1      32.811  27.082  23.946  1.00  0.00    -0.014 A 
ATOM     27  C   UNL A   1      31.128  25.614  22.956  1.00  0.00     0.005 A 
ATOM     28  C   UNL A   1      32.855  28.956  27.713  1.00  0.00     0.000 A 
ATOM     29  C   UNL A   1      34.064  28.584  25.627  1.00  0.00     0.009 A 
ATOM     30  C   UNL A   1      33.533  27.110  22.765  1.00  0.00     0.009 A 
ATOM     31  C   UNL A   1      31.857  25.646  21.765  1.00  0.00     0.000 A 
ATOM     32  C   UNL A   1      33.980  29.163  26.899  1.00  0.00     0.001 A 
ATOM     33  C   UNL A   1      33.050  26.383  21.672  1.00  0.00     0.001 A 
ENDBRANCH  20  21
ENDBRANCH  19  20
ENDBRANCH  17  19
ENDBRANCH   9  17
ENDBRANCH   4   7
ENDBRANCH   2   3
ENDBRANCH   1   2
BRANCH   1  34
ATOM     34  C   UNL A   1      41.078  21.900  26.480  1.00  0.00     0.002 C 
BRANCH  34  35
ATOM     35  C   UNL A   1      41.898  21.036  27.441  1.00  0.00     0.002 C 
BRANCH  35  36
ATOM     36  C   UNL A   1      42.300  19.666  26.890  1.00  0.00     0.021 C 
BRANCH  36  37
ATOM     37  C   UNL A   1      42.328  19.582  25.367  1.00  0.00     0.116 C 
BRANCH  37  38
ATOM     38  N   UNL A   1      43.576  19.006  24.889  1.00  0.00    -0.352 N 
ATOM     39  C   UNL A   1      44.742  19.634  24.530  1.00  0.00     0.251 C 
ATOM     40  H   UNL A   1      43.584  18.025  24.810  1.00  0.00     0.163 HD
ATOM     41  O   UNL A   1      45.594  19.036  23.881  1.00  0.00    -0.269 OA
BRANCH  39  42
ATOM     42  C   UNL A   1      44.967  21.038  24.928  1.00  0.00     0.039 A 
ATOM     43  C   UNL A   1      44.659  22.059  24.028  1.00  0.00     0.014 A 
ATOM     44  C   UNL A   1      45.505  21.341  26.182  1.00  0.00     0.014 A 
ATOM     45  C   UNL A   1      44.840  23.390  24.408  1.00  0.00     0.010 A 
ATOM     46  C   UNL A   1      45.610  22.667  26.588  1.00  0.00     0.010 A 
ATOM     47  C   UNL A   1      45.287  23.705  25.702  1.00  0.00    -0.014 A 
BRANCH  47  48
ATOM     48  C   UNL A   1      45.425  25.116  26.145  1.00  0.00     0.031 A 
ATOM     49  C   UNL A   1      46.767  25.794  26.098  1.00  0.00     0.074 A 
ATOM     50  C   UNL A   1      44.354  25.764  26.642  1.00  0.00     0.049 A 
ATOM     51  N   UNL A   1      47.100  26.994  26.500  1.00  0.00    -0.248 NA
ATOM     52  C   UNL A   1      47.889  25.013  25.553  1.00  0.00     0.031 C 
ATOM     53  C   UNL A   1      43.010  25.199  26.778  1.00  0.00     0.029 A 
ATOM     54  N   UNL A   1      44.228  27.039  27.134  1.00  0.00    -0.354 N 
ATOM     55  C   UNL A   1      48.465  27.107  26.267  1.00  0.00     0.074 A 
ATOM     56  C   UNL A   1      48.911  25.835  25.743  1.00  0.00     0.031 C 
ATOM     57  C   UNL A   1      42.191  26.129  27.293  1.00  0.00     0.029 A 
ATOM     58  C   UNL A   1      42.959  27.340  27.566  1.00  0.00     0.049 A 
ATOM     59  H   UNL A   1      44.977  27.677  27.175  1.00  0.00     0.167 HD
ATOM     60  C   UNL A   1      49.269  28.181  26.452  1.00  0.00     0.037 A 
ATOM     61  C   UNL A   1      42.472  28.462  28.129  1.00  0.00     0.037 A 
ATOM     62  C   UNL A   1      48.815  29.451  26.954  1.00  0.00     0.049 A 
ATOM     63  C   UNL A   1      43.394  29.633  28.342  1.00  0.00     0.074 A 
ATOM     64  C   UNL A   1      49.540  30.618  27.123  1.00  0.00     0.029 A 
ATOM     65  N   UNL A   1      47.520  29.720  27.371  1.00  0.00    -0.354 N 
ATOM     66  N   UNL A   1      44.667  29.747  28.052  1.00  0.00    -0.248 NA
ATOM     67  C   UNL A   1      42.808  30.833  28.955  1.00  0.00     0.031 C 
ATOM     68  C   UNL A   1      48.699  31.575  27.698  1.00  0.00     0.029 A 
ATOM     69  C   UNL A   1      47.433  31.026  27.825  1.00  0.00     0.049 A 
ATOM     70  H   UNL A   1      46.774  29.078  27.348  1.00  0.00     0.167 HD
ATOM     71  C   UNL A   1      45.025  31.040  28.412  1.00  0.00     0.074 A 
ATOM     72  C   UNL A   1      43.831  31.676  28.928  1.00  0.00     0.031 C 
ATOM     73  C   UNL A   1      46.234  31.648  28.324  1.00  0.00     0.037 A 
BRANCH  60  74
ATOM     74  C   UNL A   1      50.723  28.033  26.107  1.00  0.00     0.057 A 
ATOM     75  C   UNL A   1      51.193  28.182  24.795  1.00  0.00     0.134 A 
ATOM     76  C   UNL A   1      51.674  27.797  27.108  1.00  0.00     0.134 A 
ATOM     77  F   UNL A   1      50.335  28.398  23.786  1.00  0.00    -0.206 F 
ATOM     78  C   UNL A   1      52.551  28.079  24.489  1.00  0.00     0.040 A 
ATOM     79  C   UNL A   1      53.037  27.723  26.819  1.00  0.00     0.040 A 
ATOM     80  F   UNL A   1      51.295  27.652  28.388  1.00  0.00    -0.206 F 
ATOM     81  C   UNL A   1      53.479  27.860  25.505  1.00  0.00     0.006 A 
ENDBRANCH  60  74
BRANCH  61  82
ATOM     82  C   UNL A   1      41.042  28.543  28.528  1.00  0.00     0.057 A 
ATOM     83  C   UNL A   1      40.628  28.180  29.815  1.00  0.00     0.134 A 
ATOM     84  C   UNL A   1      40.054  28.954  27.626  1.00  0.00     0.134 A 
ATOM     85  F   UNL A   1      41.525  27.762  30.719  1.00  0.00    -0.206 F 
ATOM     86  C   UNL A   1      39.280  28.190  30.181  1.00  0.00     0.040 A 
ATOM     87  C   UNL A   1      38.706  28.999  27.987  1.00  0.00     0.040 A 
ATOM     88  F   UNL A   1      40.384  29.326  26.380  1.00  0.00    -0.206 F 
ATOM     89  C   UNL A   1      38.315  28.605  29.265  1.00  0.00     0.006 A 
ENDBRANCH  61  82
BRANCH  73  90
ATOM     90  C   UNL A   1      46.316  33.085  28.750  1.00  0.00     0.057 A 
ATOM     91  C   UNL A   1      46.063  34.141  27.864  1.00  0.00     0.134 A 
ATOM     92  C   UNL A   1      46.613  33.415  30.079  1.00  0.00     0.134 A 
ATOM     93  F   UNL A   1      45.785  33.895  26.575  1.00  0.00    -0.206 F 
ATOM     94  C   UNL A   1      46.131  35.472  28.278  1.00  0.00     0.040 A 
ATOM     95  C   UNL A   1      46.652  34.741  30.513  1.00  0.00     0.040 A 
ATOM     96  F   UNL A   1      46.855  32.453  30.983  1.00  0.00    -0.206 F 
ATOM     97  C   UNL A   1      46.418  35.774  29.608  1.00  0.00     0.006 A 
ENDBRANCH  73  90
ENDBRANCH  47  48
ENDBRANCH  39  42
ENDBRANCH  37  38
ENDBRANCH  36  37
ENDBRANCH  35  36
ENDBRANCH  34  35
ENDBRANCH   1  34
TORSDOF 18
ENDMDL
