MODEL 1
REMARK VINA RESULT:     -12.1      0.000      0.000
REMARK SMILES O=C(NCCCCCCNC(=O)c1cnc2c(C(F)(F)F)cccc2c1Nc1cccc(O)c1)c1ccc(-c2c3nc(c(-c4c(F)cccc4F)c4ccc([nH]4)c(-c4c(F)cccc4F)c4nc(c(-c5c(F)cccc5F)c5ccc2[nH]5)C=C4)C=C3)cc1
REMARK SMILES IDX 7 1 6 2 5 3 4 4 3 5 1 6 2 7 35 9 36 10 88 11 37 12 87 13
REMARK SMILES IDX 38 14 39 15 40 16 81 17 41 18 86 19 80 20 82 21 42 22 85 23
REMARK SMILES IDX 79 24 78 25 43 27 69 28 52 29 68 30 53 31 56 32 67 33 83 34
REMARK SMILES IDX 54 35 55 36 66 38 84 39 57 40 44 41 45 42 50 43 46 44 47 45
REMARK SMILES IDX 49 46 51 47 48 48 70 49 71 50 76 51 72 52 73 53 75 54 77 55
REMARK SMILES IDX 74 56 58 57 59 58 64 59 60 60 61 61 63 62 65 63 62 64 8 65
REMARK SMILES IDX 9 66 10 67 11 68 12 70 13 71 14 72 26 73 15 74 25 75 16 76
REMARK SMILES IDX 24 77 17 78 23 79 22 80 27 81 28 83 29 84 34 85 30 86 32 87
REMARK SMILES IDX 31 88 33 89 18 91 19 92 20 93 21 94
REMARK H PARENT 3 8 82 26 56 37 10 69 27 82 33 90
REMARK Flexibility Score: inf
ROOT
ATOM      1  C   UNL A   1      33.277  29.683  27.037  1.00  0.00     0.002 C 
ENDROOT
BRANCH   1   2
ATOM      2  C   UNL A   1      31.815  30.013  26.723  1.00  0.00     0.002 C 
BRANCH   2   3
ATOM      3  C   UNL A   1      31.457  31.497  26.764  1.00  0.00     0.021 C 
BRANCH   3   4
ATOM      4  C   UNL A   1      32.640  32.443  26.628  1.00  0.00     0.116 C 
BRANCH   4   5
ATOM      5  N   UNL A   1      32.390  33.742  27.232  1.00  0.00    -0.352 N 
ATOM      6  O   UNL A   1      32.568  35.367  28.792  1.00  0.00    -0.269 OA
ATOM      7  C   UNL A   1      33.013  34.331  28.306  1.00  0.00     0.251 C 
ATOM      8  H   UNL A   1      31.675  34.273  26.814  1.00  0.00     0.163 HD
BRANCH   7   9
ATOM      9  C   UNL A   1      34.215  33.697  28.888  1.00  0.00     0.039 A 
ATOM     10  C   UNL A   1      34.092  32.582  29.718  1.00  0.00     0.014 A 
ATOM     11  C   UNL A   1      35.477  34.226  28.602  1.00  0.00     0.014 A 
ATOM     12  C   UNL A   1      35.208  32.088  30.379  1.00  0.00     0.010 A 
ATOM     13  C   UNL A   1      36.613  33.661  29.188  1.00  0.00     0.010 A 
ATOM     14  C   UNL A   1      36.486  32.602  30.101  1.00  0.00    -0.014 A 
BRANCH  14  15
ATOM     15  C   UNL A   1      37.673  31.950  30.709  1.00  0.00     0.031 A 
ATOM     16  C   UNL A   1      38.159  32.321  32.081  1.00  0.00     0.074 A 
ATOM     17  C   UNL A   1      38.301  30.988  30.003  1.00  0.00     0.049 A 
ATOM     18  N   UNL A   1      39.172  31.833  32.752  1.00  0.00    -0.248 NA
ATOM     19  C   UNL A   1      37.422  33.377  32.790  1.00  0.00     0.031 C 
ATOM     20  C   UNL A   1      37.925  30.555  28.653  1.00  0.00     0.029 A 
ATOM     21  N   UNL A   1      39.370  30.193  30.319  1.00  0.00    -0.354 N 
ATOM     22  C   UNL A   1      39.205  32.528  33.954  1.00  0.00     0.074 A 
ATOM     23  C   UNL A   1      38.127  33.494  33.909  1.00  0.00     0.031 C 
ATOM     24  C   UNL A   1      38.718  29.542  28.279  1.00  0.00     0.029 A 
ATOM     25  C   UNL A   1      39.704  29.306  29.325  1.00  0.00     0.049 A 
ATOM     26  H   UNL A   1      39.852  30.251  31.176  1.00  0.00     0.167 HD
ATOM     27  C   UNL A   1      40.053  32.367  34.999  1.00  0.00     0.037 A 
ATOM     28  C   UNL A   1      40.709  28.415  29.250  1.00  0.00     0.037 A 
ATOM     29  C   UNL A   1      41.123  31.401  35.034  1.00  0.00     0.049 A 
ATOM     30  C   UNL A   1      41.659  28.292  30.405  1.00  0.00     0.074 A 
ATOM     31  C   UNL A   1      42.014  31.139  36.061  1.00  0.00     0.029 A 
ATOM     32  N   UNL A   1      41.452  30.544  33.993  1.00  0.00    -0.354 N 
ATOM     33  N   UNL A   1      41.651  28.927  31.550  1.00  0.00    -0.248 NA
ATOM     34  C   UNL A   1      42.758  27.331  30.254  1.00  0.00     0.031 C 
ATOM     35  C   UNL A   1      42.918  30.166  35.621  1.00  0.00     0.029 A 
ATOM     36  C   UNL A   1      42.552  29.775  34.343  1.00  0.00     0.049 A 
ATOM     37  H   UNL A   1      40.976  30.489  33.135  1.00  0.00     0.167 HD
ATOM     38  C   UNL A   1      42.729  28.428  32.268  1.00  0.00     0.074 A 
ATOM     39  C   UNL A   1      43.353  27.421  31.435  1.00  0.00     0.031 C 
ATOM     40  C   UNL A   1      43.164  28.774  33.504  1.00  0.00     0.037 A 
BRANCH  27  41
ATOM     41  C   UNL A   1      39.878  33.270  36.188  1.00  0.00     0.057 A 
ATOM     42  C   UNL A   1      40.555  34.490  36.303  1.00  0.00     0.134 A 
ATOM     43  C   UNL A   1      38.974  32.938  37.208  1.00  0.00     0.134 A 
ATOM     44  F   UNL A   1      41.441  34.868  35.368  1.00  0.00    -0.206 F 
ATOM     45  C   UNL A   1      40.357  35.337  37.396  1.00  0.00     0.040 A 
ATOM     46  C   UNL A   1      38.747  33.789  38.291  1.00  0.00     0.040 A 
ATOM     47  F   UNL A   1      38.283  31.789  37.159  1.00  0.00    -0.206 F 
ATOM     48  C   UNL A   1      39.445  34.991  38.390  1.00  0.00     0.006 A 
ENDBRANCH  27  41
BRANCH  28  49
ATOM     49  C   UNL A   1      40.875  27.588  28.028  1.00  0.00     0.057 A 
ATOM     50  C   UNL A   1      41.640  28.037  26.946  1.00  0.00     0.134 A 
ATOM     51  C   UNL A   1      40.275  26.328  27.914  1.00  0.00     0.134 A 
ATOM     52  F   UNL A   1      42.229  29.242  26.989  1.00  0.00    -0.206 F 
ATOM     53  C   UNL A   1      41.784  27.275  25.786  1.00  0.00     0.040 A 
ATOM     54  C   UNL A   1      40.437  25.540  26.774  1.00  0.00     0.040 A 
ATOM     55  F   UNL A   1      39.539  25.834  28.921  1.00  0.00    -0.206 F 
ATOM     56  C   UNL A   1      41.186  26.018  25.702  1.00  0.00     0.006 A 
ENDBRANCH  28  49
BRANCH  40  57
ATOM     57  C   UNL A   1      44.352  28.031  34.041  1.00  0.00     0.057 A 
ATOM     58  C   UNL A   1      44.216  26.851  34.783  1.00  0.00     0.134 A 
ATOM     59  C   UNL A   1      45.651  28.494  33.798  1.00  0.00     0.134 A 
ATOM     60  F   UNL A   1      42.998  26.362  35.066  1.00  0.00    -0.206 F 
ATOM     61  C   UNL A   1      45.327  26.174  35.288  1.00  0.00     0.040 A 
ATOM     62  C   UNL A   1      46.771  27.809  34.270  1.00  0.00     0.040 A 
ATOM     63  F   UNL A   1      45.855  29.615  33.088  1.00  0.00    -0.206 F 
ATOM     64  C   UNL A   1      46.610  26.649  35.025  1.00  0.00     0.006 A 
ENDBRANCH  40  57
ENDBRANCH  14  15
ENDBRANCH   7   9
ENDBRANCH   4   5
ENDBRANCH   3   4
ENDBRANCH   2   3
ENDBRANCH   1   2
BRANCH   1  65
ATOM     65  C   UNL A   1      34.046  28.959  25.928  1.00  0.00     0.021 C 
BRANCH  65  66
ATOM     66  C   UNL A   1      33.653  27.503  25.699  1.00  0.00     0.116 C 
BRANCH  66  67
ATOM     67  N   UNL A   1      34.005  27.011  24.377  1.00  0.00    -0.352 N 
ATOM     68  C   UNL A   1      33.269  27.047  23.214  1.00  0.00     0.254 C 
ATOM     69  H   UNL A   1      34.894  26.595  24.303  1.00  0.00     0.163 HD
ATOM     70  O   UNL A   1      33.770  26.716  22.146  1.00  0.00    -0.269 OA
BRANCH  68  71
ATOM     71  C   UNL A   1      31.903  27.585  23.261  1.00  0.00     0.082 A 
ATOM     72  C   UNL A   1      31.822  28.950  23.051  1.00  0.00     0.127 A 
ATOM     73  C   UNL A   1      30.716  26.849  23.408  1.00  0.00     0.062 A 
ATOM     74  N   UNL A   1      30.677  29.654  23.079  1.00  0.00    -0.255 NA
ATOM     75  C   UNL A   1      29.480  27.585  23.419  1.00  0.00     0.025 A 
ATOM     76  C   UNL A   1      29.528  28.998  23.263  1.00  0.00     0.085 A 
ATOM     77  C   UNL A   1      28.205  26.987  23.584  1.00  0.00     0.012 A 
ATOM     78  C   UNL A   1      28.354  29.745  23.295  1.00  0.00     0.082 A 
ATOM     79  C   UNL A   1      27.033  27.739  23.576  1.00  0.00     0.001 A 
ATOM     80  C   UNL A   1      27.107  29.116  23.438  1.00  0.00     0.015 A 
BRANCH  73  81
ATOM     81  N   UNL A   1      30.664  25.434  23.584  1.00  0.00    -0.354 N 
ATOM     82  H   UNL A   1      30.411  24.929  22.778  1.00  0.00     0.167 HD
BRANCH  81  83
ATOM     83  C   UNL A   1      30.914  24.640  24.720  1.00  0.00     0.042 A 
ATOM     84  C   UNL A   1      31.223  25.202  25.962  1.00  0.00     0.026 A 
ATOM     85  C   UNL A   1      30.967  23.247  24.582  1.00  0.00     0.072 A 
ATOM     86  C   UNL A   1      31.631  24.398  27.032  1.00  0.00     0.006 A 
ATOM     87  C   UNL A   1      31.381  22.452  25.647  1.00  0.00     0.117 A 
ATOM     88  C   UNL A   1      31.725  23.016  26.870  1.00  0.00     0.046 A 
BRANCH  87  89
ATOM     89  O   UNL A   1      31.462  21.106  25.437  1.00  0.00    -0.508 OA
ATOM     90  H   UNL A   1      32.039  20.768  24.782  1.00  0.00     0.293 HD
ENDBRANCH  87  89
ENDBRANCH  81  83
ENDBRANCH  73  81
BRANCH  78  91
ATOM     91  C   UNL A   1      28.440  31.247  23.205  1.00  0.00     0.418 C 
ATOM     92  F   UNL A   1      29.196  31.804  24.195  1.00  0.00    -0.166 F 
ATOM     93  F   UNL A   1      28.942  31.707  22.025  1.00  0.00    -0.166 F 
ATOM     94  F   UNL A   1      27.216  31.849  23.322  1.00  0.00    -0.166 F 
ENDBRANCH  78  91
ENDBRANCH  68  71
ENDBRANCH  66  67
ENDBRANCH  65  66
ENDBRANCH   1  65
TORSDOF 17
ENDMDL
MODEL 2
REMARK VINA RESULT:     -12.1      4.839      9.347
REMARK SMILES O=C(NCCCCCCNC(=O)c1cnc2c(C(F)(F)F)cccc2c1Nc1cccc(O)c1)c1ccc(-c2c3nc(c(-c4c(F)cccc4F)c4ccc([nH]4)c(-c4c(F)cccc4F)c4nc(c(-c5c(F)cccc5F)c5ccc2[nH]5)C=C4)C=C3)cc1
REMARK SMILES IDX 7 1 6 2 5 3 4 4 3 5 1 6 2 7 35 9 36 10 88 11 37 12 87 13
REMARK SMILES IDX 38 14 39 15 40 16 81 17 41 18 86 19 80 20 82 21 42 22 85 23
REMARK SMILES IDX 79 24 78 25 43 27 69 28 52 29 68 30 53 31 56 32 67 33 83 34
REMARK SMILES IDX 54 35 55 36 66 38 84 39 57 40 44 41 45 42 50 43 46 44 47 45
REMARK SMILES IDX 49 46 51 47 48 48 70 49 71 50 76 51 72 52 73 53 75 54 77 55
REMARK SMILES IDX 74 56 58 57 59 58 64 59 60 60 61 61 63 62 65 63 62 64 8 65
REMARK SMILES IDX 9 66 10 67 11 68 12 70 13 71 14 72 26 73 15 74 25 75 16 76
REMARK SMILES IDX 24 77 17 78 23 79 22 80 27 81 28 83 29 84 34 85 30 86 32 87
REMARK SMILES IDX 31 88 33 89 18 91 19 92 20 93 21 94
REMARK H PARENT 3 8 82 26 56 37 10 69 27 82 33 90
REMARK Flexibility Score: inf
ROOT
ATOM      1  C   UNL A   1      37.288  22.425  25.032  1.00  0.00     0.002 C 
ENDROOT
BRANCH   1   2
ATOM      2  C   UNL A   1      36.843  21.003  24.677  1.00  0.00     0.002 C 
BRANCH   2   3
ATOM      3  C   UNL A   1      37.937  19.939  24.745  1.00  0.00     0.021 C 
BRANCH   3   4
ATOM      4  C   UNL A   1      38.839  20.029  25.966  1.00  0.00     0.116 C 
BRANCH   4   5
ATOM      5  N   UNL A   1      40.041  19.222  25.834  1.00  0.00    -0.352 N 
ATOM      6  O   UNL A   1      42.260  18.825  25.690  1.00  0.00    -0.269 OA
ATOM      7  C   UNL A   1      41.354  19.592  26.002  1.00  0.00     0.251 C 
ATOM      8  H   UNL A   1      39.894  18.280  25.591  1.00  0.00     0.163 HD
BRANCH   7   9
ATOM      9  C   UNL A   1      41.669  20.930  26.541  1.00  0.00     0.039 A 
ATOM     10  C   UNL A   1      41.982  21.983  25.679  1.00  0.00     0.014 A 
ATOM     11  C   UNL A   1      41.656  21.135  27.924  1.00  0.00     0.014 A 
ATOM     12  C   UNL A   1      42.424  23.192  26.198  1.00  0.00     0.010 A 
ATOM     13  C   UNL A   1      42.001  22.386  28.443  1.00  0.00     0.010 A 
ATOM     14  C   UNL A   1      42.412  23.418  27.585  1.00  0.00    -0.014 A 
BRANCH  14  15
ATOM     15  C   UNL A   1      42.744  24.772  28.097  1.00  0.00     0.031 A 
ATOM     16  C   UNL A   1      41.683  25.811  28.323  1.00  0.00     0.074 A 
ATOM     17  C   UNL A   1      44.033  25.045  28.380  1.00  0.00     0.049 A 
ATOM     18  N   UNL A   1      41.813  27.032  28.778  1.00  0.00    -0.248 NA
ATOM     19  C   UNL A   1      40.299  25.438  27.993  1.00  0.00     0.031 C 
ATOM     20  C   UNL A   1      45.152  24.118  28.187  1.00  0.00     0.029 A 
ATOM     21  N   UNL A   1      44.621  26.167  28.902  1.00  0.00    -0.354 N 
ATOM     22  C   UNL A   1      40.537  27.579  28.776  1.00  0.00     0.074 A 
ATOM     23  C   UNL A   1      39.648  26.566  28.247  1.00  0.00     0.031 C 
ATOM     24  C   UNL A   1      46.280  24.689  28.628  1.00  0.00     0.029 A 
ATOM     25  C   UNL A   1      45.979  26.047  29.063  1.00  0.00     0.049 A 
ATOM     26  H   UNL A   1      44.118  26.980  29.138  1.00  0.00     0.167 HD
ATOM     27  C   UNL A   1      40.146  28.810  29.185  1.00  0.00     0.037 A 
ATOM     28  C   UNL A   1      46.891  26.938  29.492  1.00  0.00     0.037 A 
ATOM     29  C   UNL A   1      41.040  29.812  29.712  1.00  0.00     0.049 A 
ATOM     30  C   UNL A   1      46.434  28.309  29.896  1.00  0.00     0.074 A 
ATOM     31  C   UNL A   1      40.735  31.076  30.186  1.00  0.00     0.029 A 
ATOM     32  N   UNL A   1      42.416  29.665  29.828  1.00  0.00    -0.354 N 
ATOM     33  N   UNL A   1      45.218  28.796  29.927  1.00  0.00    -0.248 NA
ATOM     34  C   UNL A   1      47.475  29.253  30.320  1.00  0.00     0.031 C 
ATOM     35  C   UNL A   1      41.929  31.716  30.532  1.00  0.00     0.029 A 
ATOM     36  C   UNL A   1      42.975  30.828  30.335  1.00  0.00     0.049 A 
ATOM     37  H   UNL A   1      42.919  28.856  29.586  1.00  0.00     0.167 HD
ATOM     38  C   UNL A   1      45.344  30.096  30.396  1.00  0.00     0.074 A 
ATOM     39  C   UNL A   1      46.752  30.311  30.657  1.00  0.00     0.031 C 
ATOM     40  C   UNL A   1      44.380  31.029  30.590  1.00  0.00     0.037 A 
BRANCH  27  41
ATOM     41  C   UNL A   1      38.689  29.159  29.063  1.00  0.00     0.057 A 
ATOM     42  C   UNL A   1      37.817  29.109  30.158  1.00  0.00     0.134 A 
ATOM     43  C   UNL A   1      38.163  29.607  27.843  1.00  0.00     0.134 A 
ATOM     44  F   UNL A   1      38.251  28.683  31.354  1.00  0.00    -0.206 F 
ATOM     45  C   UNL A   1      36.473  29.470  30.040  1.00  0.00     0.040 A 
ATOM     46  C   UNL A   1      36.827  29.996  27.720  1.00  0.00     0.040 A 
ATOM     47  F   UNL A   1      38.942  29.689  26.754  1.00  0.00    -0.206 F 
ATOM     48  C   UNL A   1      35.977  29.923  28.820  1.00  0.00     0.006 A 
ENDBRANCH  27  41
BRANCH  28  49
ATOM     49  C   UNL A   1      48.327  26.564  29.539  1.00  0.00     0.057 A 
ATOM     50  C   UNL A   1      48.871  25.913  30.652  1.00  0.00     0.134 A 
ATOM     51  C   UNL A   1      49.189  26.846  28.471  1.00  0.00     0.134 A 
ATOM     52  F   UNL A   1      48.100  25.628  31.712  1.00  0.00    -0.206 F 
ATOM     53  C   UNL A   1      50.225  25.576  30.712  1.00  0.00     0.040 A 
ATOM     54  C   UNL A   1      50.537  26.485  28.504  1.00  0.00     0.040 A 
ATOM     55  F   UNL A   1      48.728  27.457  27.371  1.00  0.00    -0.206 F 
ATOM     56  C   UNL A   1      51.060  25.857  29.631  1.00  0.00     0.006 A 
ENDBRANCH  28  49
BRANCH  40  57
ATOM     57  C   UNL A   1      44.816  32.355  31.144  1.00  0.00     0.057 A 
ATOM     58  C   UNL A   1      45.171  33.425  30.314  1.00  0.00     0.134 A 
ATOM     59  C   UNL A   1      44.865  32.566  32.527  1.00  0.00     0.134 A 
ATOM     60  F   UNL A   1      45.162  33.283  28.979  1.00  0.00    -0.206 F 
ATOM     61  C   UNL A   1      45.586  34.650  30.839  1.00  0.00     0.040 A 
ATOM     62  C   UNL A   1      45.248  33.795  33.065  1.00  0.00     0.040 A 
ATOM     63  F   UNL A   1      44.532  31.585  33.380  1.00  0.00    -0.206 F 
ATOM     64  C   UNL A   1      45.618  34.839  32.219  1.00  0.00     0.006 A 
ENDBRANCH  40  57
ENDBRANCH  14  15
ENDBRANCH   7   9
ENDBRANCH   4   5
ENDBRANCH   3   4
ENDBRANCH   2   3
ENDBRANCH   1   2
BRANCH   1  65
ATOM     65  C   UNL A   1      36.484  23.115  26.137  1.00  0.00     0.021 C 
BRANCH  65  66
ATOM     66  C   UNL A   1      35.301  23.953  25.663  1.00  0.00     0.116 C 
BRANCH  66  67
ATOM     67  N   UNL A   1      34.178  23.944  26.586  1.00  0.00    -0.352 N 
ATOM     68  C   UNL A   1      33.126  23.060  26.661  1.00  0.00     0.254 C 
ATOM     69  H   UNL A   1      34.171  24.670  27.251  1.00  0.00     0.163 HD
ATOM     70  O   UNL A   1      32.332  23.110  27.595  1.00  0.00    -0.269 OA
BRANCH  68  71
ATOM     71  C   UNL A   1      33.027  21.992  25.657  1.00  0.00     0.082 A 
ATOM     72  C   UNL A   1      33.551  20.778  26.065  1.00  0.00     0.127 A 
ATOM     73  C   UNL A   1      32.396  22.074  24.406  1.00  0.00     0.062 A 
ATOM     74  N   UNL A   1      33.593  19.676  25.297  1.00  0.00    -0.255 NA
ATOM     75  C   UNL A   1      32.414  20.896  23.580  1.00  0.00     0.025 A 
ATOM     76  C   UNL A   1      33.045  19.724  24.080  1.00  0.00     0.085 A 
ATOM     77  C   UNL A   1      31.842  20.831  22.284  1.00  0.00     0.012 A 
ATOM     78  C   UNL A   1      33.103  18.573  23.298  1.00  0.00     0.082 A 
ATOM     79  C   UNL A   1      31.872  19.663  21.525  1.00  0.00     0.001 A 
ATOM     80  C   UNL A   1      32.506  18.538  22.028  1.00  0.00     0.015 A 
BRANCH  73  81
ATOM     81  N   UNL A   1      31.779  23.253  23.892  1.00  0.00    -0.354 N 
ATOM     82  H   UNL A   1      30.796  23.256  23.938  1.00  0.00     0.167 HD
BRANCH  81  83
ATOM     83  C   UNL A   1      32.343  24.414  23.328  1.00  0.00     0.042 A 
ATOM     84  C   UNL A   1      32.596  25.558  24.091  1.00  0.00     0.026 A 
ATOM     85  C   UNL A   1      32.553  24.471  21.945  1.00  0.00     0.072 A 
ATOM     86  C   UNL A   1      32.998  26.752  23.482  1.00  0.00     0.006 A 
ATOM     87  C   UNL A   1      32.945  25.663  21.343  1.00  0.00     0.117 A 
ATOM     88  C   UNL A   1      33.159  26.809  22.098  1.00  0.00     0.046 A 
BRANCH  87  89
ATOM     89  O   UNL A   1      33.083  25.670  19.984  1.00  0.00    -0.508 OA
ATOM     90  H   UNL A   1      32.363  25.422  19.439  1.00  0.00     0.293 HD
ENDBRANCH  87  89
ENDBRANCH  81  83
ENDBRANCH  73  81
BRANCH  78  91
ATOM     91  C   UNL A   1      33.844  17.370  23.822  1.00  0.00     0.418 C 
ATOM     92  F   UNL A   1      35.093  17.667  24.285  1.00  0.00    -0.166 F 
ATOM     93  F   UNL A   1      33.201  16.712  24.826  1.00  0.00    -0.166 F 
ATOM     94  F   UNL A   1      34.049  16.421  22.856  1.00  0.00    -0.166 F 
ENDBRANCH  78  91
ENDBRANCH  68  71
ENDBRANCH  66  67
ENDBRANCH  65  66
ENDBRANCH   1  65
TORSDOF 17
ENDMDL
MODEL 3
REMARK VINA RESULT:     -12.1      5.008      9.878
REMARK SMILES O=C(NCCCCCCNC(=O)c1cnc2c(C(F)(F)F)cccc2c1Nc1cccc(O)c1)c1ccc(-c2c3nc(c(-c4c(F)cccc4F)c4ccc([nH]4)c(-c4c(F)cccc4F)c4nc(c(-c5c(F)cccc5F)c5ccc2[nH]5)C=C4)C=C3)cc1
REMARK SMILES IDX 7 1 6 2 5 3 4 4 3 5 1 6 2 7 35 9 36 10 88 11 37 12 87 13
REMARK SMILES IDX 38 14 39 15 40 16 81 17 41 18 86 19 80 20 82 21 42 22 85 23
REMARK SMILES IDX 79 24 78 25 43 27 69 28 52 29 68 30 53 31 56 32 67 33 83 34
REMARK SMILES IDX 54 35 55 36 66 38 84 39 57 40 44 41 45 42 50 43 46 44 47 45
REMARK SMILES IDX 49 46 51 47 48 48 70 49 71 50 76 51 72 52 73 53 75 54 77 55
REMARK SMILES IDX 74 56 58 57 59 58 64 59 60 60 61 61 63 62 65 63 62 64 8 65
REMARK SMILES IDX 9 66 10 67 11 68 12 70 13 71 14 72 26 73 15 74 25 75 16 76
REMARK SMILES IDX 24 77 17 78 23 79 22 80 27 81 28 83 29 84 34 85 30 86 32 87
REMARK SMILES IDX 31 88 33 89 18 91 19 92 20 93 21 94
REMARK H PARENT 3 8 82 26 56 37 10 69 27 82 33 90
REMARK Flexibility Score: inf
ROOT
ATOM      1  C   UNL A   1      37.416  22.496  25.069  1.00  0.00     0.002 C 
ENDROOT
BRANCH   1   2
ATOM      2  C   UNL A   1      36.946  21.190  24.422  1.00  0.00     0.002 C 
BRANCH   2   3
ATOM      3  C   UNL A   1      37.807  19.965  24.723  1.00  0.00     0.021 C 
BRANCH   3   4
ATOM      4  C   UNL A   1      38.718  20.107  25.933  1.00  0.00     0.116 C 
BRANCH   4   5
ATOM      5  N   UNL A   1      39.877  19.231  25.866  1.00  0.00    -0.352 N 
ATOM      6  O   UNL A   1      42.074  18.710  25.801  1.00  0.00    -0.269 OA
ATOM      7  C   UNL A   1      41.203  19.536  26.058  1.00  0.00     0.251 C 
ATOM      8  H   UNL A   1      39.686  18.290  25.654  1.00  0.00     0.163 HD
BRANCH   7   9
ATOM      9  C   UNL A   1      41.577  20.876  26.556  1.00  0.00     0.039 A 
ATOM     10  C   UNL A   1      41.810  21.922  25.662  1.00  0.00     0.014 A 
ATOM     11  C   UNL A   1      41.699  21.088  27.933  1.00  0.00     0.014 A 
ATOM     12  C   UNL A   1      42.307  23.132  26.128  1.00  0.00     0.010 A 
ATOM     13  C   UNL A   1      42.101  22.339  28.408  1.00  0.00     0.010 A 
ATOM     14  C   UNL A   1      42.431  23.365  27.508  1.00  0.00    -0.014 A 
BRANCH  14  15
ATOM     15  C   UNL A   1      42.819  24.719  27.978  1.00  0.00     0.031 A 
ATOM     16  C   UNL A   1      44.258  25.113  28.143  1.00  0.00     0.074 A 
ATOM     17  C   UNL A   1      41.837  25.607  28.234  1.00  0.00     0.049 A 
ATOM     18  N   UNL A   1      44.756  26.261  28.531  1.00  0.00    -0.248 NA
ATOM     19  C   UNL A   1      45.272  24.091  27.842  1.00  0.00     0.031 C 
ATOM     20  C   UNL A   1      40.402  25.331  28.122  1.00  0.00     0.029 A 
ATOM     21  N   UNL A   1      41.891  26.919  28.625  1.00  0.00    -0.354 N 
ATOM     22  C   UNL A   1      46.135  26.098  28.536  1.00  0.00     0.074 A 
ATOM     23  C   UNL A   1      46.397  24.730  28.139  1.00  0.00     0.031 C 
ATOM     24  C   UNL A   1      39.716  26.450  28.389  1.00  0.00     0.029 A 
ATOM     25  C   UNL A   1      40.654  27.499  28.764  1.00  0.00     0.049 A 
ATOM     26  H   UNL A   1      42.735  27.400  28.789  1.00  0.00     0.167 HD
ATOM     27  C   UNL A   1      47.091  27.010  28.836  1.00  0.00     0.037 A 
ATOM     28  C   UNL A   1      40.308  28.732  29.174  1.00  0.00     0.037 A 
ATOM     29  C   UNL A   1      46.820  28.371  29.228  1.00  0.00     0.049 A 
ATOM     30  C   UNL A   1      41.388  29.706  29.543  1.00  0.00     0.074 A 
ATOM     31  C   UNL A   1      47.722  29.380  29.519  1.00  0.00     0.029 A 
ATOM     32  N   UNL A   1      45.552  28.911  29.392  1.00  0.00    -0.354 N 
ATOM     33  N   UNL A   1      42.688  29.549  29.501  1.00  0.00    -0.248 NA
ATOM     34  C   UNL A   1      40.953  31.024  30.018  1.00  0.00     0.031 C 
ATOM     35  C   UNL A   1      47.002  30.512  29.916  1.00  0.00     0.029 A 
ATOM     36  C   UNL A   1      45.650  30.230  29.811  1.00  0.00     0.049 A 
ATOM     37  H   UNL A   1      44.709  28.430  29.235  1.00  0.00     0.167 HD
ATOM     38  C   UNL A   1      43.229  30.756  29.923  1.00  0.00     0.074 A 
ATOM     39  C   UNL A   1      42.114  31.640  30.192  1.00  0.00     0.031 C 
ATOM     40  C   UNL A   1      44.531  31.100  30.076  1.00  0.00     0.037 A 
BRANCH  27  41
ATOM     41  C   UNL A   1      48.526  26.566  28.774  1.00  0.00     0.057 A 
ATOM     42  C   UNL A   1      49.175  25.989  29.874  1.00  0.00     0.134 A 
ATOM     43  C   UNL A   1      49.254  26.666  27.580  1.00  0.00     0.134 A 
ATOM     44  F   UNL A   1      48.542  25.869  31.051  1.00  0.00    -0.206 F 
ATOM     45  C   UNL A   1      50.498  25.548  29.794  1.00  0.00     0.040 A 
ATOM     46  C   UNL A   1      50.567  26.203  27.481  1.00  0.00     0.040 A 
ATOM     47  F   UNL A   1      48.693  27.199  26.483  1.00  0.00    -0.206 F 
ATOM     48  C   UNL A   1      51.195  25.647  28.593  1.00  0.00     0.006 A 
ENDBRANCH  27  41
BRANCH  28  49
ATOM     49  C   UNL A   1      38.874  29.103  29.274  1.00  0.00     0.057 A 
ATOM     50  C   UNL A   1      38.169  29.580  28.164  1.00  0.00     0.134 A 
ATOM     51  C   UNL A   1      38.174  28.988  30.482  1.00  0.00     0.134 A 
ATOM     52  F   UNL A   1      38.787  29.727  26.982  1.00  0.00    -0.206 F 
ATOM     53  C   UNL A   1      36.826  29.951  28.255  1.00  0.00     0.040 A 
ATOM     54  C   UNL A   1      36.823  29.323  30.579  1.00  0.00     0.040 A 
ATOM     55  F   UNL A   1      38.789  28.526  31.580  1.00  0.00    -0.206 F 
ATOM     56  C   UNL A   1      36.148  29.815  29.465  1.00  0.00     0.006 A 
ENDBRANCH  28  49
BRANCH  40  57
ATOM     57  C   UNL A   1      44.817  32.504  30.522  1.00  0.00     0.057 A 
ATOM     58  C   UNL A   1      45.013  32.828  31.871  1.00  0.00     0.134 A 
ATOM     59  C   UNL A   1      44.913  33.542  29.588  1.00  0.00     0.134 A 
ATOM     60  F   UNL A   1      44.918  31.883  32.819  1.00  0.00    -0.206 F 
ATOM     61  C   UNL A   1      45.267  34.140  32.276  1.00  0.00     0.040 A 
ATOM     62  C   UNL A   1      45.197  34.852  29.977  1.00  0.00     0.040 A 
ATOM     63  F   UNL A   1      44.742  33.300  28.279  1.00  0.00    -0.206 F 
ATOM     64  C   UNL A   1      45.367  35.154  31.326  1.00  0.00     0.006 A 
ENDBRANCH  40  57
ENDBRANCH  14  15
ENDBRANCH   7   9
ENDBRANCH   4   5
ENDBRANCH   3   4
ENDBRANCH   2   3
ENDBRANCH   1   2
BRANCH   1  65
ATOM     65  C   UNL A   1      36.489  23.074  26.142  1.00  0.00     0.021 C 
BRANCH  65  66
ATOM     66  C   UNL A   1      35.309  23.890  25.621  1.00  0.00     0.116 C 
BRANCH  66  67
ATOM     67  N   UNL A   1      34.171  23.903  26.525  1.00  0.00    -0.352 N 
ATOM     68  C   UNL A   1      33.128  23.011  26.618  1.00  0.00     0.254 C 
ATOM     69  H   UNL A   1      34.144  24.655  27.161  1.00  0.00     0.163 HD
ATOM     70  O   UNL A   1      32.318  23.087  27.535  1.00  0.00    -0.269 OA
BRANCH  68  71
ATOM     71  C   UNL A   1      33.059  21.904  25.654  1.00  0.00     0.082 A 
ATOM     72  C   UNL A   1      33.626  20.724  26.102  1.00  0.00     0.127 A 
ATOM     73  C   UNL A   1      32.416  21.918  24.406  1.00  0.00     0.062 A 
ATOM     74  N   UNL A   1      33.700  19.596  25.375  1.00  0.00    -0.255 NA
ATOM     75  C   UNL A   1      32.467  20.711  23.624  1.00  0.00     0.025 A 
ATOM     76  C   UNL A   1      33.142  19.580  24.162  1.00  0.00     0.085 A 
ATOM     77  C   UNL A   1      31.889  20.578  22.337  1.00  0.00     0.012 A 
ATOM     78  C   UNL A   1      33.234  18.404  23.423  1.00  0.00     0.082 A 
ATOM     79  C   UNL A   1      31.954  19.384  21.621  1.00  0.00     0.001 A 
ATOM     80  C   UNL A   1      32.629  18.301  22.160  1.00  0.00     0.015 A 
BRANCH  73  81
ATOM     81  N   UNL A   1      31.755  23.055  23.854  1.00  0.00    -0.354 N 
ATOM     82  H   UNL A   1      30.772  23.012  23.881  1.00  0.00     0.167 HD
BRANCH  81  83
ATOM     83  C   UNL A   1      32.275  24.230  23.277  1.00  0.00     0.042 A 
ATOM     84  C   UNL A   1      32.427  25.410  24.012  1.00  0.00     0.026 A 
ATOM     85  C   UNL A   1      32.544  24.256  21.903  1.00  0.00     0.072 A 
ATOM     86  C   UNL A   1      32.786  26.606  23.381  1.00  0.00     0.006 A 
ATOM     87  C   UNL A   1      32.893  25.450  21.279  1.00  0.00     0.117 A 
ATOM     88  C   UNL A   1      33.006  26.630  22.004  1.00  0.00     0.046 A 
BRANCH  87  89
ATOM     89  O   UNL A   1      33.092  25.423  19.929  1.00  0.00    -0.508 OA
ATOM     90  H   UNL A   1      32.967  24.626  19.453  1.00  0.00     0.293 HD
ENDBRANCH  87  89
ENDBRANCH  81  83
ENDBRANCH  73  81
BRANCH  78  91
ATOM     91  C   UNL A   1      34.020  17.247  23.984  1.00  0.00     0.418 C 
ATOM     92  F   UNL A   1      35.297  17.580  24.328  1.00  0.00    -0.166 F 
ATOM     93  F   UNL A   1      33.456  16.670  25.082  1.00  0.00    -0.166 F 
ATOM     94  F   UNL A   1      34.158  16.224  23.085  1.00  0.00    -0.166 F 
ENDBRANCH  78  91
ENDBRANCH  68  71
ENDBRANCH  66  67
ENDBRANCH  65  66
ENDBRANCH   1  65
TORSDOF 17
ENDMDL
