MODEL 1
REMARK VINA RESULT:     -10.9      0.000      0.000
REMARK SMILES C=CC[N@@H+](CC(=O)NCCCCCCNC(=O)c1ccc(-c2c3nc(c(-c4c(F)cccc4F)c4ccc([nH]4)c(-c4c(F)cccc4F)c4nc(c(-c5c(F)cccc5F)c5ccc2[nH]5)C=C4)C=C3)cc1)Cc1ccc(C(F)(F)F)cc1
REMARK SMILES IDX 10 1 9 2 8 3 6 4 7 5 5 7 4 8 3 10 2 11 1 12 72 13 73 14
REMARK SMILES IDX 74 15 82 16 75 17 81 18 76 19 77 20 78 21 79 22 80 23 11 24
REMARK SMILES IDX 12 25 13 26 14 27 15 28 16 29 17 31 18 32 19 33 71 34 20 35
REMARK SMILES IDX 70 36 21 37 22 38 23 39 64 40 24 41 69 42 63 43 65 44 25 45
REMARK SMILES IDX 68 46 62 47 61 48 26 50 52 51 35 52 51 53 36 54 39 55 50 56
REMARK SMILES IDX 66 57 37 58 38 59 49 61 67 62 40 63 27 64 28 65 33 66 29 67
REMARK SMILES IDX 30 68 32 69 34 70 31 71 53 72 54 73 59 74 55 75 56 76 58 77
REMARK SMILES IDX 60 78 57 79 41 80 42 81 47 82 43 83 44 84 46 85 48 86 45 87
REMARK H PARENT 8 6 4 9 15 30 65 49 39 60
REMARK Flexibility Score: inf
ROOT
ATOM      1  C   UNL A   1      32.168  27.972  26.167  1.00  0.00     0.021 C 
ENDROOT
BRANCH   1   2
ATOM      2  C   UNL A   1      31.021  26.985  25.942  1.00  0.00     0.116 C 
BRANCH   2   3
ATOM      3  N   UNL A   1      31.134  25.814  26.787  1.00  0.00    -0.351 N 
ATOM      4  C   UNL A   1      31.301  24.496  26.481  1.00  0.00     0.275 C 
ATOM      5  O   UNL A   1      31.568  23.739  27.423  1.00  0.00    -0.269 OA
ATOM      6  H   UNL A   1      31.079  26.003  27.752  1.00  0.00     0.163 HD
BRANCH   4   7
ATOM      7  C   UNL A   1      31.269  23.961  25.042  1.00  0.00     0.364 C 
BRANCH   7   8
ATOM      8  N   UNL A   1      32.560  23.662  24.388  1.00  0.00    -0.320 N 
ATOM      9  H   UNL A   1      33.031  23.052  25.056  1.00  0.00     0.349 HD
BRANCH   8  10
ATOM     10  C   UNL A   1      33.479  24.779  24.338  1.00  0.00     0.291 C 
BRANCH  10  11
ATOM     11  C   UNL A   1      34.617  24.742  25.315  1.00  0.00     0.025 C 
ATOM     12  C   UNL A   1      34.875  23.694  26.111  1.00  0.00     0.010 C 
ENDBRANCH  10  11
ENDBRANCH   8  10
BRANCH   8  13
ATOM     13  C   UNL A   1      32.553  22.694  23.286  1.00  0.00     0.299 C 
BRANCH  13  14
ATOM     14  C   UNL A   1      32.806  21.239  23.614  1.00  0.00     0.006 A 
ATOM     15  C   UNL A   1      33.693  20.849  24.622  1.00  0.00     0.010 A 
ATOM     16  C   UNL A   1      32.153  20.237  22.881  1.00  0.00     0.010 A 
ATOM     17  C   UNL A   1      34.024  19.503  24.801  1.00  0.00     0.013 A 
ATOM     18  C   UNL A   1      32.468  18.889  23.068  1.00  0.00     0.013 A 
ATOM     19  C   UNL A   1      33.433  18.510  24.008  1.00  0.00     0.056 A 
BRANCH  19  20
ATOM     20  C   UNL A   1      33.884  17.076  24.110  1.00  0.00     0.416 C 
ATOM     21  F   UNL A   1      32.908  16.266  24.609  1.00  0.00    -0.166 F 
ATOM     22  F   UNL A   1      34.228  16.538  22.906  1.00  0.00    -0.166 F 
ATOM     23  F   UNL A   1      34.966  16.901  24.918  1.00  0.00    -0.166 F 
ENDBRANCH  19  20
ENDBRANCH  13  14
ENDBRANCH   8  13
ENDBRANCH   7   8
ENDBRANCH   4   7
ENDBRANCH   2   3
ENDBRANCH   1   2
BRANCH   1  24
ATOM     24  C   UNL A   1      31.779  29.309  26.802  1.00  0.00     0.002 C 
BRANCH  24  25
ATOM     25  C   UNL A   1      31.442  30.425  25.814  1.00  0.00     0.002 C 
BRANCH  25  26
ATOM     26  C   UNL A   1      31.308  31.827  26.417  1.00  0.00     0.021 C 
BRANCH  26  27
ATOM     27  C   UNL A   1      32.609  32.459  26.911  1.00  0.00     0.116 C 
BRANCH  27  28
ATOM     28  N   UNL A   1      32.422  33.822  27.375  1.00  0.00    -0.352 N 
ATOM     29  C   UNL A   1      33.046  34.476  28.406  1.00  0.00     0.251 C 
ATOM     30  H   UNL A   1      31.754  34.350  26.881  1.00  0.00     0.163 HD
ATOM     31  O   UNL A   1      32.637  35.574  28.782  1.00  0.00    -0.269 OA
BRANCH  29  32
ATOM     32  C   UNL A   1      34.206  33.857  29.079  1.00  0.00     0.039 A 
ATOM     33  C   UNL A   1      35.494  34.275  28.729  1.00  0.00     0.014 A 
ATOM     34  C   UNL A   1      34.028  32.850  30.032  1.00  0.00     0.014 A 
ATOM     35  C   UNL A   1      36.601  33.709  29.364  1.00  0.00     0.010 A 
ATOM     36  C   UNL A   1      35.129  32.333  30.709  1.00  0.00     0.010 A 
ATOM     37  C   UNL A   1      36.427  32.745  30.371  1.00  0.00    -0.014 A 
BRANCH  37  38
ATOM     38  C   UNL A   1      37.595  32.122  31.043  1.00  0.00     0.031 A 
ATOM     39  C   UNL A   1      38.349  31.014  30.357  1.00  0.00     0.074 A 
ATOM     40  C   UNL A   1      37.954  32.519  32.278  1.00  0.00     0.049 A 
ATOM     41  N   UNL A   1      39.358  30.305  30.794  1.00  0.00    -0.248 NA
ATOM     42  C   UNL A   1      37.887  30.635  29.012  1.00  0.00     0.031 C 
ATOM     43  C   UNL A   1      37.282  33.554  33.065  1.00  0.00     0.029 A 
ATOM     44  N   UNL A   1      38.974  32.092  33.092  1.00  0.00    -0.354 N 
ATOM     45  C   UNL A   1      39.640  29.390  29.788  1.00  0.00     0.074 A 
ATOM     46  C   UNL A   1      38.663  29.596  28.742  1.00  0.00     0.031 C 
ATOM     47  C   UNL A   1      37.922  33.697  34.238  1.00  0.00     0.029 A 
ATOM     48  C   UNL A   1      39.029  32.748  34.297  1.00  0.00     0.049 A 
ATOM     49  H   UNL A   1      39.607  31.382  32.835  1.00  0.00     0.167 HD
ATOM     50  C   UNL A   1      40.639  28.476  29.727  1.00  0.00     0.037 A 
ATOM     51  C   UNL A   1      39.880  32.603  35.330  1.00  0.00     0.037 A 
ATOM     52  C   UNL A   1      41.631  28.294  30.752  1.00  0.00     0.049 A 
ATOM     53  C   UNL A   1      40.993  31.594  35.230  1.00  0.00     0.074 A 
ATOM     54  C   UNL A   1      42.708  27.424  30.768  1.00  0.00     0.029 A 
ATOM     55  N   UNL A   1      41.673  29.005  31.941  1.00  0.00    -0.354 N 
ATOM     56  N   UNL A   1      41.275  30.770  34.251  1.00  0.00    -0.248 NA
ATOM     57  C   UNL A   1      41.910  31.505  36.375  1.00  0.00     0.031 C 
ATOM     58  C   UNL A   1      43.387  27.590  31.979  1.00  0.00     0.029 A 
ATOM     59  C   UNL A   1      42.756  28.590  32.700  1.00  0.00     0.049 A 
ATOM     60  H   UNL A   1      41.030  29.701  32.207  1.00  0.00     0.167 HD
ATOM     61  C   UNL A   1      42.423  30.092  34.645  1.00  0.00     0.074 A 
ATOM     62  C   UNL A   1      42.786  30.607  35.948  1.00  0.00     0.031 C 
ATOM     63  C   UNL A   1      43.114  29.130  33.986  1.00  0.00     0.037 A 
BRANCH  50  64
ATOM     64  C   UNL A   1      40.709  27.613  28.502  1.00  0.00     0.057 A 
ATOM     65  C   UNL A   1      41.473  27.980  27.386  1.00  0.00     0.134 A 
ATOM     66  C   UNL A   1      40.030  26.390  28.446  1.00  0.00     0.134 A 
ATOM     67  F   UNL A   1      42.137  29.146  27.370  1.00  0.00    -0.206 F 
ATOM     68  C   UNL A   1      41.536  27.175  26.247  1.00  0.00     0.040 A 
ATOM     69  C   UNL A   1      40.106  25.563  27.322  1.00  0.00     0.040 A 
ATOM     70  F   UNL A   1      39.284  25.976  29.481  1.00  0.00    -0.206 F 
ATOM     71  C   UNL A   1      40.857  25.959  26.216  1.00  0.00     0.006 A 
ENDBRANCH  50  64
BRANCH  51  72
ATOM     72  C   UNL A   1      39.745  33.457  36.536  1.00  0.00     0.057 A 
ATOM     73  C   UNL A   1      38.896  33.088  37.587  1.00  0.00     0.134 A 
ATOM     74  C   UNL A   1      40.440  34.665  36.661  1.00  0.00     0.134 A 
ATOM     75  F   UNL A   1      38.190  31.950  37.515  1.00  0.00    -0.206 F 
ATOM     76  C   UNL A   1      38.727  33.901  38.709  1.00  0.00     0.040 A 
ATOM     77  C   UNL A   1      40.297  35.476  37.788  1.00  0.00     0.040 A 
ATOM     78  F   UNL A   1      41.274  35.070  35.692  1.00  0.00    -0.206 F 
ATOM     79  C   UNL A   1      39.432  35.099  38.813  1.00  0.00     0.006 A 
ENDBRANCH  51  72
BRANCH  63  80
ATOM     80  C   UNL A   1      44.360  28.613  34.639  1.00  0.00     0.057 A 
ATOM     81  C   UNL A   1      45.610  29.207  34.429  1.00  0.00     0.134 A 
ATOM     82  C   UNL A   1      44.299  27.523  35.517  1.00  0.00     0.134 A 
ATOM     83  F   UNL A   1      45.735  30.246  33.589  1.00  0.00    -0.206 F 
ATOM     84  C   UNL A   1      46.761  28.722  35.052  1.00  0.00     0.040 A 
ATOM     85  C   UNL A   1      45.439  27.044  36.165  1.00  0.00     0.040 A 
ATOM     86  F   UNL A   1      43.131  26.914  35.768  1.00  0.00    -0.206 F 
ATOM     87  C   UNL A   1      46.675  27.641  35.927  1.00  0.00     0.006 A 
ENDBRANCH  63  80
ENDBRANCH  37  38
ENDBRANCH  29  32
ENDBRANCH  27  28
ENDBRANCH  26  27
ENDBRANCH  25  26
ENDBRANCH  24  25
ENDBRANCH   1  24
TORSDOF 19
ENDMDL
MODEL 2
REMARK VINA RESULT:     -10.7      4.424      8.667
REMARK SMILES C=CC[N@@H+](CC(=O)NCCCCCCNC(=O)c1ccc(-c2c3nc(c(-c4c(F)cccc4F)c4ccc([nH]4)c(-c4c(F)cccc4F)c4nc(c(-c5c(F)cccc5F)c5ccc2[nH]5)C=C4)C=C3)cc1)Cc1ccc(C(F)(F)F)cc1
REMARK SMILES IDX 10 1 9 2 8 3 6 4 7 5 5 7 4 8 3 10 2 11 1 12 72 13 73 14
REMARK SMILES IDX 74 15 82 16 75 17 81 18 76 19 77 20 78 21 79 22 80 23 11 24
REMARK SMILES IDX 12 25 13 26 14 27 15 28 16 29 17 31 18 32 19 33 71 34 20 35
REMARK SMILES IDX 70 36 21 37 22 38 23 39 64 40 24 41 69 42 63 43 65 44 25 45
REMARK SMILES IDX 68 46 62 47 61 48 26 50 52 51 35 52 51 53 36 54 39 55 50 56
REMARK SMILES IDX 66 57 37 58 38 59 49 61 67 62 40 63 27 64 28 65 33 66 29 67
REMARK SMILES IDX 30 68 32 69 34 70 31 71 53 72 54 73 59 74 55 75 56 76 58 77
REMARK SMILES IDX 60 78 57 79 41 80 42 81 47 82 43 83 44 84 46 85 48 86 45 87
REMARK H PARENT 8 6 4 9 15 30 65 49 39 60
REMARK Flexibility Score: inf
ROOT
ATOM      1  C   UNL A   1      36.764  23.001  24.520  1.00  0.00     0.021 C 
ENDROOT
BRANCH   1   2
ATOM      2  C   UNL A   1      35.584  22.554  23.654  1.00  0.00     0.116 C 
BRANCH   2   3
ATOM      3  N   UNL A   1      35.055  23.636  22.851  1.00  0.00    -0.351 N 
ATOM      4  C   UNL A   1      33.988  24.463  23.045  1.00  0.00     0.275 C 
ATOM      5  O   UNL A   1      33.894  25.434  22.283  1.00  0.00    -0.269 OA
ATOM      6  H   UNL A   1      35.552  23.805  22.018  1.00  0.00     0.163 HD
BRANCH   4   7
ATOM      7  C   UNL A   1      32.993  24.286  24.201  1.00  0.00     0.364 C 
BRANCH   7   8
ATOM      8  N   UNL A   1      31.819  23.418  23.974  1.00  0.00    -0.320 N 
ATOM      9  H   UNL A   1      32.080  22.874  23.151  1.00  0.00     0.349 HD
BRANCH   8  10
ATOM     10  C   UNL A   1      30.646  24.111  23.486  1.00  0.00     0.291 C 
BRANCH  10  11
ATOM     11  C   UNL A   1      30.548  25.568  23.831  1.00  0.00     0.025 C 
ATOM     12  C   UNL A   1      29.409  26.163  24.214  1.00  0.00     0.010 C 
ENDBRANCH  10  11
ENDBRANCH   8  10
BRANCH   8  13
ATOM     13  C   UNL A   1      31.647  22.264  24.863  1.00  0.00     0.299 C 
BRANCH  13  14
ATOM     14  C   UNL A   1      32.363  20.979  24.509  1.00  0.00     0.006 A 
ATOM     15  C   UNL A   1      32.172  20.337  23.283  1.00  0.00     0.010 A 
ATOM     16  C   UNL A   1      33.234  20.390  25.438  1.00  0.00     0.010 A 
ATOM     17  C   UNL A   1      32.724  19.076  23.042  1.00  0.00     0.013 A 
ATOM     18  C   UNL A   1      33.802  19.137  25.196  1.00  0.00     0.013 A 
ATOM     19  C   UNL A   1      33.525  18.451  24.008  1.00  0.00     0.056 A 
BRANCH  19  20
ATOM     20  C   UNL A   1      34.012  17.040  23.806  1.00  0.00     0.416 C 
ATOM     21  F   UNL A   1      35.140  16.779  24.526  1.00  0.00    -0.166 F 
ATOM     22  F   UNL A   1      33.104  16.101  24.193  1.00  0.00    -0.166 F 
ATOM     23  F   UNL A   1      34.320  16.749  22.511  1.00  0.00    -0.166 F 
ENDBRANCH  19  20
ENDBRANCH  13  14
ENDBRANCH   8  13
ENDBRANCH   7   8
ENDBRANCH   4   7
ENDBRANCH   2   3
ENDBRANCH   1   2
BRANCH   1  24
ATOM     24  C   UNL A   1      37.691  21.884  25.006  1.00  0.00     0.002 C 
BRANCH  24  25
ATOM     25  C   UNL A   1      37.249  20.467  24.643  1.00  0.00     0.002 C 
BRANCH  25  26
ATOM     26  C   UNL A   1      38.220  19.348  25.034  1.00  0.00     0.021 C 
BRANCH  26  27
ATOM     27  C   UNL A   1      39.278  19.726  26.069  1.00  0.00     0.116 C 
BRANCH  27  28
ATOM     28  N   UNL A   1      40.524  19.004  25.878  1.00  0.00    -0.352 N 
ATOM     29  C   UNL A   1      41.811  19.466  25.966  1.00  0.00     0.251 C 
ATOM     30  H   UNL A   1      40.430  18.050  25.653  1.00  0.00     0.163 HD
ATOM     31  O   UNL A   1      42.750  18.763  25.592  1.00  0.00    -0.269 OA
BRANCH  29  32
ATOM     32  C   UNL A   1      42.076  20.818  26.498  1.00  0.00     0.039 A 
ATOM     33  C   UNL A   1      42.401  21.844  25.605  1.00  0.00     0.014 A 
ATOM     34  C   UNL A   1      42.032  21.068  27.872  1.00  0.00     0.014 A 
ATOM     35  C   UNL A   1      42.644  23.132  26.090  1.00  0.00     0.010 A 
ATOM     36  C   UNL A   1      42.211  22.365  28.348  1.00  0.00     0.010 A 
ATOM     37  C   UNL A   1      42.535  23.406  27.464  1.00  0.00    -0.014 A 
BRANCH  37  38
ATOM     38  C   UNL A   1      42.806  24.766  27.995  1.00  0.00     0.031 A 
ATOM     39  C   UNL A   1      44.215  25.163  28.347  1.00  0.00     0.074 A 
ATOM     40  C   UNL A   1      41.791  25.625  28.201  1.00  0.00     0.049 A 
ATOM     41  N   UNL A   1      44.654  26.278  28.872  1.00  0.00    -0.248 NA
ATOM     42  C   UNL A   1      45.265  24.163  28.099  1.00  0.00     0.031 C 
ATOM     43  C   UNL A   1      40.378  25.347  27.939  1.00  0.00     0.029 A 
ATOM     44  N   UNL A   1      41.792  26.909  28.685  1.00  0.00    -0.354 N 
ATOM     45  C   UNL A   1      46.023  26.107  29.032  1.00  0.00     0.074 A 
ATOM     46  C   UNL A   1      46.335  24.763  28.598  1.00  0.00     0.031 C 
ATOM     47  C   UNL A   1      39.652  26.436  28.244  1.00  0.00     0.029 A 
ATOM     48  C   UNL A   1      40.544  27.477  28.747  1.00  0.00     0.049 A 
ATOM     49  H   UNL A   1      42.613  27.380  28.962  1.00  0.00     0.167 HD
ATOM     50  C   UNL A   1      46.944  26.997  29.475  1.00  0.00     0.037 A 
ATOM     51  C   UNL A   1      40.163  28.701  29.158  1.00  0.00     0.037 A 
ATOM     52  C   UNL A   1      46.639  28.344  29.873  1.00  0.00     0.049 A 
ATOM     53  C   UNL A   1      41.206  29.677  29.628  1.00  0.00     0.074 A 
ATOM     54  C   UNL A   1      47.505  29.337  30.298  1.00  0.00     0.029 A 
ATOM     55  N   UNL A   1      45.366  28.892  29.886  1.00  0.00    -0.354 N 
ATOM     56  N   UNL A   1      42.503  29.517  29.727  1.00  0.00    -0.248 NA
ATOM     57  C   UNL A   1      40.733  31.009  30.033  1.00  0.00     0.031 C 
ATOM     58  C   UNL A   1      46.753  30.478  30.594  1.00  0.00     0.029 A 
ATOM     59  C   UNL A   1      45.423  30.208  30.315  1.00  0.00     0.049 A 
ATOM     60  H   UNL A   1      44.543  28.417  29.628  1.00  0.00     0.167 HD
ATOM     61  C   UNL A   1      43.004  30.736  30.168  1.00  0.00     0.074 A 
ATOM     62  C   UNL A   1      41.872  31.626  30.311  1.00  0.00     0.031 C 
ATOM     63  C   UNL A   1      44.287  31.086  30.430  1.00  0.00     0.037 A 
BRANCH  50  64
ATOM     64  C   UNL A   1      48.371  26.537  29.538  1.00  0.00     0.057 A 
ATOM     65  C   UNL A   1      49.245  26.701  28.456  1.00  0.00     0.134 A 
ATOM     66  C   UNL A   1      48.885  25.950  30.701  1.00  0.00     0.134 A 
ATOM     67  F   UNL A   1      48.812  27.245  27.308  1.00  0.00    -0.206 F 
ATOM     68  C   UNL A   1      50.573  26.273  28.517  1.00  0.00     0.040 A 
ATOM     69  C   UNL A   1      50.218  25.541  30.783  1.00  0.00     0.040 A 
ATOM     70  F   UNL A   1      48.103  25.767  31.775  1.00  0.00    -0.206 F 
ATOM     71  C   UNL A   1      51.064  25.697  29.686  1.00  0.00     0.006 A 
ENDBRANCH  50  64
BRANCH  51  72
ATOM     72  C   UNL A   1      38.732  29.093  29.110  1.00  0.00     0.057 A 
ATOM     73  C   UNL A   1      38.163  29.596  27.933  1.00  0.00     0.134 A 
ATOM     74  C   UNL A   1      37.906  28.994  30.236  1.00  0.00     0.134 A 
ATOM     75  F   UNL A   1      38.910  29.731  26.828  1.00  0.00    -0.206 F 
ATOM     76  C   UNL A   1      36.831  30.008  27.884  1.00  0.00     0.040 A 
ATOM     77  C   UNL A   1      36.565  29.381  30.193  1.00  0.00     0.040 A 
ATOM     78  F   UNL A   1      38.389  28.513  31.391  1.00  0.00    -0.206 F 
ATOM     79  C   UNL A   1      36.026  29.898  29.016  1.00  0.00     0.006 A 
ENDBRANCH  51  72
BRANCH  63  80
ATOM     80  C   UNL A   1      44.540  32.504  30.845  1.00  0.00     0.057 A 
ATOM     81  C   UNL A   1      44.563  32.890  32.190  1.00  0.00     0.134 A 
ATOM     82  C   UNL A   1      44.795  33.489  29.882  1.00  0.00     0.134 A 
ATOM     83  F   UNL A   1      44.313  31.996  33.158  1.00  0.00    -0.206 F 
ATOM     84  C   UNL A   1      44.810  34.213  32.563  1.00  0.00     0.040 A 
ATOM     85  C   UNL A   1      45.068  34.809  30.243  1.00  0.00     0.040 A 
ATOM     86  F   UNL A   1      44.795  33.182  28.576  1.00  0.00    -0.206 F 
ATOM     87  C   UNL A   1      45.069  35.174  31.588  1.00  0.00     0.006 A 
ENDBRANCH  63  80
ENDBRANCH  37  38
ENDBRANCH  29  32
ENDBRANCH  27  28
ENDBRANCH  26  27
ENDBRANCH  25  26
ENDBRANCH  24  25
ENDBRANCH   1  24
TORSDOF 19
ENDMDL
MODEL 3
REMARK VINA RESULT:     -10.7      3.479      7.461
REMARK SMILES C=CC[N@@H+](CC(=O)NCCCCCCNC(=O)c1ccc(-c2c3nc(c(-c4c(F)cccc4F)c4ccc([nH]4)c(-c4c(F)cccc4F)c4nc(c(-c5c(F)cccc5F)c5ccc2[nH]5)C=C4)C=C3)cc1)Cc1ccc(C(F)(F)F)cc1
REMARK SMILES IDX 10 1 9 2 8 3 6 4 7 5 5 7 4 8 3 10 2 11 1 12 72 13 73 14
REMARK SMILES IDX 74 15 82 16 75 17 81 18 76 19 77 20 78 21 79 22 80 23 11 24
REMARK SMILES IDX 12 25 13 26 14 27 15 28 16 29 17 31 18 32 19 33 71 34 20 35
REMARK SMILES IDX 70 36 21 37 22 38 23 39 64 40 24 41 69 42 63 43 65 44 25 45
REMARK SMILES IDX 68 46 62 47 61 48 26 50 52 51 35 52 51 53 36 54 39 55 50 56
REMARK SMILES IDX 66 57 37 58 38 59 49 61 67 62 40 63 27 64 28 65 33 66 29 67
REMARK SMILES IDX 30 68 32 69 34 70 31 71 53 72 54 73 59 74 55 75 56 76 58 77
REMARK SMILES IDX 60 78 57 79 41 80 42 81 47 82 43 83 44 84 46 85 48 86 45 87
REMARK H PARENT 8 6 4 9 15 30 65 49 39 60
REMARK Flexibility Score: inf
ROOT
ATOM      1  C   UNL A   1      30.272  26.248  26.160  1.00  0.00     0.021 C 
ENDROOT
BRANCH   1   2
ATOM      2  C   UNL A   1      30.744  25.331  25.029  1.00  0.00     0.116 C 
BRANCH   2   3
ATOM      3  N   UNL A   1      30.328  23.959  25.228  1.00  0.00    -0.351 N 
ATOM      4  C   UNL A   1      30.900  22.936  25.925  1.00  0.00     0.275 C 
ATOM      5  O   UNL A   1      30.211  21.921  26.085  1.00  0.00    -0.269 OA
ATOM      6  H   UNL A   1      29.482  23.722  24.782  1.00  0.00     0.163 HD
BRANCH   4   7
ATOM      7  C   UNL A   1      32.287  23.041  26.576  1.00  0.00     0.364 C 
BRANCH   7   8
ATOM      8  N   UNL A   1      33.467  23.065  25.687  1.00  0.00    -0.320 N 
ATOM      9  H   UNL A   1      34.118  22.422  26.137  1.00  0.00     0.349 HD
BRANCH   8  10
ATOM     10  C   UNL A   1      34.224  24.298  25.728  1.00  0.00     0.291 C 
BRANCH  10  11
ATOM     11  C   UNL A   1      35.654  24.210  25.284  1.00  0.00     0.025 C 
ATOM     12  C   UNL A   1      36.608  23.578  25.982  1.00  0.00     0.010 C 
ENDBRANCH  10  11
ENDBRANCH   8  10
BRANCH   8  13
ATOM     13  C   UNL A   1      33.379  22.324  24.424  1.00  0.00     0.299 C 
BRANCH  13  14
ATOM     14  C   UNL A   1      33.547  20.821  24.467  1.00  0.00     0.006 A 
ATOM     15  C   UNL A   1      34.764  20.219  24.800  1.00  0.00     0.010 A 
ATOM     16  C   UNL A   1      32.462  19.991  24.145  1.00  0.00     0.010 A 
ATOM     17  C   UNL A   1      34.934  18.837  24.683  1.00  0.00     0.013 A 
ATOM     18  C   UNL A   1      32.622  18.607  24.043  1.00  0.00     0.013 A 
ATOM     19  C   UNL A   1      33.871  18.018  24.279  1.00  0.00     0.056 A 
BRANCH  19  20
ATOM     20  C   UNL A   1      34.086  16.549  24.026  1.00  0.00     0.416 C 
ATOM     21  F   UNL A   1      32.958  15.818  24.256  1.00  0.00    -0.166 F 
ATOM     22  F   UNL A   1      34.443  16.275  22.739  1.00  0.00    -0.166 F 
ATOM     23  F   UNL A   1      35.055  15.997  24.807  1.00  0.00    -0.166 F 
ENDBRANCH  19  20
ENDBRANCH  13  14
ENDBRANCH   8  13
ENDBRANCH   7   8
ENDBRANCH   4   7
ENDBRANCH   2   3
ENDBRANCH   1   2
BRANCH   1  24
ATOM     24  C   UNL A   1      31.326  27.205  26.721  1.00  0.00     0.002 C 
BRANCH  24  25
ATOM     25  C   UNL A   1      31.786  28.301  25.761  1.00  0.00     0.002 C 
BRANCH  25  26
ATOM     26  C   UNL A   1      33.249  28.219  25.312  1.00  0.00     0.021 C 
BRANCH  26  27
ATOM     27  C   UNL A   1      34.287  28.546  26.383  1.00  0.00     0.116 C 
BRANCH  27  28
ATOM     28  N   UNL A   1      33.998  29.789  27.076  1.00  0.00    -0.352 N 
ATOM     29  C   UNL A   1      34.762  30.464  27.992  1.00  0.00     0.251 C 
ATOM     30  H   UNL A   1      33.132  30.203  26.859  1.00  0.00     0.163 HD
ATOM     31  O   UNL A   1      34.287  31.409  28.622  1.00  0.00    -0.269 OA
BRANCH  29  32
ATOM     32  C   UNL A   1      36.159  30.050  28.238  1.00  0.00     0.039 A 
ATOM     33  C   UNL A   1      36.487  29.473  29.469  1.00  0.00     0.014 A 
ATOM     34  C   UNL A   1      37.147  30.256  27.271  1.00  0.00     0.014 A 
ATOM     35  C   UNL A   1      37.800  29.065  29.714  1.00  0.00     0.010 A 
ATOM     36  C   UNL A   1      38.441  29.791  27.492  1.00  0.00     0.010 A 
ATOM     37  C   UNL A   1      38.784  29.206  28.721  1.00  0.00    -0.014 A 
BRANCH  37  38
ATOM     38  C   UNL A   1      40.188  28.793  28.973  1.00  0.00     0.031 A 
ATOM     39  C   UNL A   1      41.129  29.733  29.679  1.00  0.00     0.074 A 
ATOM     40  C   UNL A   1      40.629  27.599  28.536  1.00  0.00     0.049 A 
ATOM     41  N   UNL A   1      42.401  29.586  29.946  1.00  0.00    -0.248 NA
ATOM     42  C   UNL A   1      40.569  31.022  30.117  1.00  0.00     0.031 C 
ATOM     43  C   UNL A   1      39.829  26.615  27.806  1.00  0.00     0.029 A 
ATOM     44  N   UNL A   1      41.866  27.012  28.639  1.00  0.00    -0.354 N 
ATOM     45  C   UNL A   1      42.795  30.764  30.567  1.00  0.00     0.074 A 
ATOM     46  C   UNL A   1      41.643  31.638  30.589  1.00  0.00     0.031 C 
ATOM     47  C   UNL A   1      40.588  25.537  27.547  1.00  0.00     0.029 A 
ATOM     48  C   UNL A   1      41.933  25.765  28.068  1.00  0.00     0.049 A 
ATOM     49  H   UNL A   1      42.632  27.444  29.082  1.00  0.00     0.167 HD
ATOM     50  C   UNL A   1      44.002  31.082  31.096  1.00  0.00     0.037 A 
ATOM     51  C   UNL A   1      42.962  24.902  27.979  1.00  0.00     0.037 A 
ATOM     52  C   UNL A   1      45.138  30.201  31.105  1.00  0.00     0.049 A 
ATOM     53  C   UNL A   1      44.287  25.271  28.591  1.00  0.00     0.074 A 
ATOM     54  C   UNL A   1      46.392  30.413  31.651  1.00  0.00     0.029 A 
ATOM     55  N   UNL A   1      45.154  28.932  30.548  1.00  0.00    -0.354 N 
ATOM     56  N   UNL A   1      44.630  26.369  29.218  1.00  0.00    -0.248 NA
ATOM     57  C   UNL A   1      45.363  24.274  28.492  1.00  0.00     0.031 C 
ATOM     58  C   UNL A   1      47.175  29.282  31.402  1.00  0.00     0.029 A 
ATOM     59  C   UNL A   1      46.397  28.350  30.734  1.00  0.00     0.049 A 
ATOM     60  H   UNL A   1      44.394  28.506  30.089  1.00  0.00     0.167 HD
ATOM     61  C   UNL A   1      45.947  26.181  29.620  1.00  0.00     0.074 A 
ATOM     62  C   UNL A   1      46.337  24.861  29.172  1.00  0.00     0.031 C 
ATOM     63  C   UNL A   1      46.760  27.026  30.301  1.00  0.00     0.037 A 
BRANCH  50  64
ATOM     64  C   UNL A   1      44.144  32.441  31.718  1.00  0.00     0.057 A 
ATOM     65  C   UNL A   1      44.561  33.551  30.973  1.00  0.00     0.134 A 
ATOM     66  C   UNL A   1      43.836  32.647  33.068  1.00  0.00     0.134 A 
ATOM     67  F   UNL A   1      44.886  33.418  29.678  1.00  0.00    -0.206 F 
ATOM     68  C   UNL A   1      44.693  34.814  31.554  1.00  0.00     0.040 A 
ATOM     69  C   UNL A   1      43.938  33.910  33.655  1.00  0.00     0.040 A 
ATOM     70  F   UNL A   1      43.426  31.627  33.837  1.00  0.00    -0.206 F 
ATOM     71  C   UNL A   1      44.374  34.996  32.898  1.00  0.00     0.006 A 
ENDBRANCH  50  64
BRANCH  51  72
ATOM     72  C   UNL A   1      42.779  23.585  27.320  1.00  0.00     0.057 A 
ATOM     73  C   UNL A   1      43.049  23.419  25.956  1.00  0.00     0.134 A 
ATOM     74  C   UNL A   1      42.314  22.470  28.026  1.00  0.00     0.134 A 
ATOM     75  F   UNL A   1      43.480  24.457  25.224  1.00  0.00    -0.206 F 
ATOM     76  C   UNL A   1      42.842  22.198  25.313  1.00  0.00     0.040 A 
ATOM     77  C   UNL A   1      42.124  21.236  27.400  1.00  0.00     0.040 A 
ATOM     78  F   UNL A   1      42.044  22.561  29.337  1.00  0.00    -0.206 F 
ATOM     79  C   UNL A   1      42.381  21.100  26.037  1.00  0.00     0.006 A 
ENDBRANCH  51  72
BRANCH  63  80
ATOM     80  C   UNL A   1      48.130  26.527  30.648  1.00  0.00     0.057 A 
ATOM     81  C   UNL A   1      48.385  25.818  31.827  1.00  0.00     0.134 A 
ATOM     82  C   UNL A   1      49.202  26.733  29.770  1.00  0.00     0.134 A 
ATOM     83  F   UNL A   1      47.402  25.601  32.715  1.00  0.00    -0.206 F 
ATOM     84  C   UNL A   1      49.664  25.350  32.133  1.00  0.00     0.040 A 
ATOM     85  C   UNL A   1      50.479  26.248  30.052  1.00  0.00     0.040 A 
ATOM     86  F   UNL A   1      49.022  27.398  28.618  1.00  0.00    -0.206 F 
ATOM     87  C   UNL A   1      50.713  25.560  31.241  1.00  0.00     0.006 A 
ENDBRANCH  63  80
ENDBRANCH  37  38
ENDBRANCH  29  32
ENDBRANCH  27  28
ENDBRANCH  26  27
ENDBRANCH  25  26
ENDBRANCH  24  25
ENDBRANCH   1  24
TORSDOF 19
ENDMDL
