MODEL 1
REMARK VINA RESULT:     -11.4      0.000      0.000
REMARK SMILES [NH3+][C@]1(C(=O)NCCCCCCNC(=O)c2ccc(-c3c4nc(c(-c5c(F)cccc5F)c5ccc([nH]5)c(-c5c(F)cccc5F)c5nc(c(-c6c(F)cccc6F)c6ccc3[nH]6)C=C5)C=C4)cc2)CC[N@H+](Cc2ccccc2O)C1
REMARK SMILES IDX 8 1 7 2 6 3 5 4 3 5 4 6 2 8 69 9 80 10 70 11 71 12 1 14
REMARK SMILES IDX 72 18 73 19 74 20 78 21 75 22 77 23 76 24 79 25 9 27 10 28
REMARK SMILES IDX 11 29 12 30 13 31 14 33 15 34 16 35 68 36 17 37 67 38 18 39
REMARK SMILES IDX 19 40 20 41 61 42 21 43 66 44 60 45 62 46 22 47 65 48 59 49
REMARK SMILES IDX 58 50 23 52 49 53 32 54 48 55 33 56 36 57 47 58 63 59 34 60
REMARK SMILES IDX 35 61 46 63 64 64 37 65 24 66 25 67 30 68 26 69 27 70 29 71
REMARK SMILES IDX 31 72 28 73 50 74 51 75 56 76 52 77 53 78 55 79 57 80 54 81
REMARK SMILES IDX 38 82 39 83 44 84 40 85 41 86 43 87 45 88 42 89
REMARK H PARENT 5 7 71 13 1 15 1 16 1 17 79 26 12 32 62 51 36 62
REMARK Flexibility Score: inf
ROOT
ATOM      1  C   UNL A   1      34.435  32.286  28.895  1.00  0.00     0.002 C 
ENDROOT
BRANCH   1   2
ATOM      2  C   UNL A   1      33.716  31.725  27.662  1.00  0.00     0.021 C 
BRANCH   2   3
ATOM      3  C   UNL A   1      34.102  30.287  27.319  1.00  0.00     0.116 C 
BRANCH   3   4
ATOM      4  N   UNL A   1      33.078  29.367  27.756  1.00  0.00    -0.350 N 
ATOM      5  C   UNL A   1      32.104  28.718  27.073  1.00  0.00     0.287 C 
ATOM      6  O   UNL A   1      31.303  28.077  27.769  1.00  0.00    -0.268 OA
ATOM      7  H   UNL A   1      33.091  29.177  28.722  1.00  0.00     0.163 HD
BRANCH   5   8
ATOM      8  C   UNL A   1      31.998  28.668  25.511  1.00  0.00     0.228 C 
ATOM      9  C   UNL A   1      33.247  28.282  24.717  1.00  0.00     0.146 C 
ATOM     10  C   UNL A   1      30.933  27.630  25.097  1.00  0.00     0.342 C 
ATOM     11  C   UNL A   1      32.876  27.052  23.895  1.00  0.00     0.270 C 
ATOM     12  N   UNL A   1      31.425  26.909  23.913  1.00  0.00    -0.325 N 
ATOM     13  H   UNL A   1      31.191  25.920  23.995  1.00  0.00     0.348 HD
BRANCH   8  14
ATOM     14  N   UNL A   1      31.611  30.045  25.086  1.00  0.00    -0.340 N 
ATOM     15  H   UNL A   1      30.696  30.276  25.473  1.00  0.00     0.345 HD
ATOM     16  H   UNL A   1      31.570  30.088  24.067  1.00  0.00     0.345 HD
ATOM     17  H   UNL A   1      32.302  30.713  25.426  1.00  0.00     0.345 HD
ENDBRANCH   8  14
BRANCH  12  18
ATOM     18  C   UNL A   1      30.732  27.212  22.654  1.00  0.00     0.303 C 
BRANCH  18  19
ATOM     19  C   UNL A   1      29.694  28.314  22.644  1.00  0.00     0.048 A 
ATOM     20  C   UNL A   1      28.383  28.000  23.053  1.00  0.00     0.013 A 
ATOM     21  C   UNL A   1      29.955  29.641  22.275  1.00  0.00     0.124 A 
ATOM     22  C   UNL A   1      27.394  28.982  23.150  1.00  0.00     0.001 A 
ATOM     23  C   UNL A   1      28.976  30.629  22.391  1.00  0.00     0.046 A 
ATOM     24  C   UNL A   1      27.697  30.301  22.835  1.00  0.00     0.004 A 
BRANCH  21  25
ATOM     25  O   UNL A   1      31.152  30.064  21.767  1.00  0.00    -0.507 OA
ATOM     26  H   UNL A   1      31.566  29.578  21.080  1.00  0.00     0.293 HD
ENDBRANCH  21  25
ENDBRANCH  18  19
ENDBRANCH  12  18
ENDBRANCH   5   8
ENDBRANCH   3   4
ENDBRANCH   2   3
ENDBRANCH   1   2
BRANCH   1  27
ATOM     27  C   UNL A   1      34.585  33.810  28.927  1.00  0.00     0.002 C 
BRANCH  27  28
ATOM     28  C   UNL A   1      33.269  34.592  28.973  1.00  0.00     0.021 C 
BRANCH  28  29
ATOM     29  C   UNL A   1      33.384  36.005  29.536  1.00  0.00     0.116 C 
BRANCH  29  30
ATOM     30  N   UNL A   1      32.520  36.206  30.683  1.00  0.00    -0.352 N 
ATOM     31  C   UNL A   1      32.610  35.672  31.944  1.00  0.00     0.251 C 
ATOM     32  H   UNL A   1      31.758  36.813  30.537  1.00  0.00     0.163 HD
ATOM     33  O   UNL A   1      31.679  35.797  32.732  1.00  0.00    -0.269 OA
BRANCH  31  34
ATOM     34  C   UNL A   1      33.828  34.940  32.355  1.00  0.00     0.039 A 
ATOM     35  C   UNL A   1      35.057  35.604  32.314  1.00  0.00     0.014 A 
ATOM     36  C   UNL A   1      33.769  33.593  32.726  1.00  0.00     0.014 A 
ATOM     37  C   UNL A   1      36.225  34.924  32.665  1.00  0.00     0.010 A 
ATOM     38  C   UNL A   1      34.926  32.936  33.138  1.00  0.00     0.010 A 
ATOM     39  C   UNL A   1      36.167  33.587  33.086  1.00  0.00    -0.014 A 
BRANCH  39  40
ATOM     40  C   UNL A   1      37.404  32.833  33.409  1.00  0.00     0.031 A 
ATOM     41  C   UNL A   1      38.138  33.120  34.690  1.00  0.00     0.074 A 
ATOM     42  C   UNL A   1      37.886  31.924  32.541  1.00  0.00     0.049 A 
ATOM     43  N   UNL A   1      39.262  32.615  35.133  1.00  0.00    -0.248 NA
ATOM     44  C   UNL A   1      37.543  34.130  35.581  1.00  0.00     0.031 C 
ATOM     45  C   UNL A   1      37.286  31.583  31.250  1.00  0.00     0.029 A 
ATOM     46  N   UNL A   1      38.998  31.125  32.614  1.00  0.00    -0.354 N 
ATOM     47  C   UNL A   1      39.516  33.259  36.337  1.00  0.00     0.074 A 
ATOM     48  C   UNL A   1      38.458  34.226  36.534  1.00  0.00     0.031 C 
ATOM     49  C   UNL A   1      38.026  30.629  30.663  1.00  0.00     0.029 A 
ATOM     50  C   UNL A   1      39.164  30.311  31.520  1.00  0.00     0.049 A 
ATOM     51  H   UNL A   1      39.619  31.134  33.379  1.00  0.00     0.167 HD
ATOM     52  C   UNL A   1      40.525  33.046  37.216  1.00  0.00     0.037 A 
ATOM     53  C   UNL A   1      40.126  29.411  31.244  1.00  0.00     0.037 A 
ATOM     54  C   UNL A   1      41.555  32.059  37.038  1.00  0.00     0.049 A 
ATOM     55  C   UNL A   1      41.225  29.178  32.244  1.00  0.00     0.074 A 
ATOM     56  C   UNL A   1      42.596  31.733  37.890  1.00  0.00     0.029 A 
ATOM     57  N   UNL A   1      41.667  31.229  35.933  1.00  0.00    -0.354 N 
ATOM     58  N   UNL A   1      41.425  29.758  33.403  1.00  0.00    -0.248 NA
ATOM     59  C   UNL A   1      42.225  28.157  31.904  1.00  0.00     0.031 C 
ATOM     60  C   UNL A   1      43.355  30.725  37.287  1.00  0.00     0.029 A 
ATOM     61  C   UNL A   1      42.764  30.396  36.077  1.00  0.00     0.049 A 
ATOM     62  H   UNL A   1      41.058  31.233  35.159  1.00  0.00     0.167 HD
ATOM     63  C   UNL A   1      42.550  29.149  33.944  1.00  0.00     0.074 A 
ATOM     64  C   UNL A   1      42.985  28.150  32.990  1.00  0.00     0.031 C 
ATOM     65  C   UNL A   1      43.167  29.394  35.125  1.00  0.00     0.037 A 
BRANCH  52  66
ATOM     66  C   UNL A   1      40.553  33.897  38.452  1.00  0.00     0.057 A 
ATOM     67  C   UNL A   1      39.827  33.554  39.600  1.00  0.00     0.134 A 
ATOM     68  C   UNL A   1      41.329  35.061  38.502  1.00  0.00     0.134 A 
ATOM     69  F   UNL A   1      39.052  32.458  39.612  1.00  0.00    -0.206 F 
ATOM     70  C   UNL A   1      39.849  34.352  40.745  1.00  0.00     0.040 A 
ATOM     71  C   UNL A   1      41.381  35.855  39.651  1.00  0.00     0.040 A 
ATOM     72  F   UNL A   1      42.053  35.445  37.441  1.00  0.00    -0.206 F 
ATOM     73  C   UNL A   1      40.633  35.505  40.774  1.00  0.00     0.006 A 
ENDBRANCH  52  66
BRANCH  53  74
ATOM     74  C   UNL A   1      40.073  28.630  29.984  1.00  0.00     0.057 A 
ATOM     75  C   UNL A   1      40.750  29.065  28.838  1.00  0.00     0.134 A 
ATOM     76  C   UNL A   1      39.341  27.441  29.889  1.00  0.00     0.134 A 
ATOM     77  F   UNL A   1      41.453  30.207  28.864  1.00  0.00    -0.206 F 
ATOM     78  C   UNL A   1      40.686  28.358  27.638  1.00  0.00     0.040 A 
ATOM     79  C   UNL A   1      39.286  26.711  28.699  1.00  0.00     0.040 A 
ATOM     80  F   UNL A   1      38.676  26.967  30.952  1.00  0.00    -0.206 F 
ATOM     81  C   UNL A   1      39.955  27.174  27.568  1.00  0.00     0.006 A 
ENDBRANCH  53  74
BRANCH  65  82
ATOM     82  C   UNL A   1      44.345  28.534  35.474  1.00  0.00     0.057 A 
ATOM     83  C   UNL A   1      44.204  27.335  36.182  1.00  0.00     0.134 A 
ATOM     84  C   UNL A   1      45.634  28.897  35.062  1.00  0.00     0.134 A 
ATOM     85  F   UNL A   1      42.998  26.939  36.615  1.00  0.00    -0.206 F 
ATOM     86  C   UNL A   1      45.307  26.535  36.485  1.00  0.00     0.040 A 
ATOM     87  C   UNL A   1      46.741  28.095  35.338  1.00  0.00     0.040 A 
ATOM     88  F   UNL A   1      45.836  30.031  34.373  1.00  0.00    -0.206 F 
ATOM     89  C   UNL A   1      46.580  26.912  36.057  1.00  0.00     0.006 A 
ENDBRANCH  65  82
ENDBRANCH  39  40
ENDBRANCH  31  34
ENDBRANCH  29  30
ENDBRANCH  28  29
ENDBRANCH  27  28
ENDBRANCH   1  27
TORSDOF 17
ENDMDL
MODEL 2
REMARK VINA RESULT:     -11.2      5.875     10.754
REMARK SMILES [NH3+][C@]1(C(=O)NCCCCCCNC(=O)c2ccc(-c3c4nc(c(-c5c(F)cccc5F)c5ccc([nH]5)c(-c5c(F)cccc5F)c5nc(c(-c6c(F)cccc6F)c6ccc3[nH]6)C=C5)C=C4)cc2)CC[N@H+](Cc2ccccc2O)C1
REMARK SMILES IDX 8 1 7 2 6 3 5 4 3 5 4 6 2 8 69 9 80 10 70 11 71 12 1 14
REMARK SMILES IDX 72 18 73 19 74 20 78 21 75 22 77 23 76 24 79 25 9 27 10 28
REMARK SMILES IDX 11 29 12 30 13 31 14 33 15 34 16 35 68 36 17 37 67 38 18 39
REMARK SMILES IDX 19 40 20 41 61 42 21 43 66 44 60 45 62 46 22 47 65 48 59 49
REMARK SMILES IDX 58 50 23 52 49 53 32 54 48 55 33 56 36 57 47 58 63 59 34 60
REMARK SMILES IDX 35 61 46 63 64 64 37 65 24 66 25 67 30 68 26 69 27 70 29 71
REMARK SMILES IDX 31 72 28 73 50 74 51 75 56 76 52 77 53 78 55 79 57 80 54 81
REMARK SMILES IDX 38 82 39 83 44 84 40 85 41 86 43 87 45 88 42 89
REMARK H PARENT 5 7 71 13 1 15 1 16 1 17 79 26 12 32 62 51 36 62
REMARK Flexibility Score: inf
ROOT
ATOM      1  C   UNL A   1      38.314  22.290  25.906  1.00  0.00     0.002 C 
ENDROOT
BRANCH   1   2
ATOM      2  C   UNL A   1      37.597  23.646  25.940  1.00  0.00     0.021 C 
BRANCH   2   3
ATOM      3  C   UNL A   1      36.073  23.540  25.976  1.00  0.00     0.116 C 
BRANCH   3   4
ATOM      4  N   UNL A   1      35.474  24.520  25.101  1.00  0.00    -0.350 N 
ATOM      5  C   UNL A   1      34.314  24.507  24.400  1.00  0.00     0.287 C 
ATOM      6  O   UNL A   1      34.140  25.472  23.641  1.00  0.00    -0.268 OA
ATOM      7  H   UNL A   1      36.002  25.345  24.995  1.00  0.00     0.163 HD
BRANCH   5   8
ATOM      8  C   UNL A   1      33.193  23.424  24.558  1.00  0.00     0.228 C 
ATOM      9  C   UNL A   1      32.013  23.464  23.586  1.00  0.00     0.146 C 
ATOM     10  C   UNL A   1      33.802  22.017  24.379  1.00  0.00     0.342 C 
ATOM     11  C   UNL A   1      31.984  22.111  22.882  1.00  0.00     0.270 C 
ATOM     12  N   UNL A   1      32.853  21.196  23.612  1.00  0.00    -0.325 N 
ATOM     13  H   UNL A   1      33.363  20.619  22.943  1.00  0.00     0.348 HD
BRANCH   8  14
ATOM     14  N   UNL A   1      32.642  23.608  25.932  1.00  0.00    -0.340 N 
ATOM     15  H   UNL A   1      31.740  23.136  26.002  1.00  0.00     0.345 HD
ATOM     16  H   UNL A   1      32.521  24.603  26.120  1.00  0.00     0.345 HD
ATOM     17  H   UNL A   1      33.287  23.210  26.614  1.00  0.00     0.345 HD
ENDBRANCH   8  14
BRANCH  12  18
ATOM     18  C   UNL A   1      32.177  20.135  24.371  1.00  0.00     0.303 C 
BRANCH  18  19
ATOM     19  C   UNL A   1      32.747  18.734  24.323  1.00  0.00     0.048 A 
ATOM     20  C   UNL A   1      33.104  18.199  23.069  1.00  0.00     0.013 A 
ATOM     21  C   UNL A   1      32.968  17.932  25.452  1.00  0.00     0.124 A 
ATOM     22  C   UNL A   1      33.713  16.947  22.955  1.00  0.00     0.001 A 
ATOM     23  C   UNL A   1      33.595  16.690  25.345  1.00  0.00     0.046 A 
ATOM     24  C   UNL A   1      33.975  16.200  24.098  1.00  0.00     0.004 A 
BRANCH  21  25
ATOM     25  O   UNL A   1      32.580  18.282  26.715  1.00  0.00    -0.507 OA
ATOM     26  H   UNL A   1      32.505  17.625  27.380  1.00  0.00     0.293 HD
ENDBRANCH  21  25
ENDBRANCH  18  19
ENDBRANCH  12  18
ENDBRANCH   5   8
ENDBRANCH   3   4
ENDBRANCH   2   3
ENDBRANCH   1   2
BRANCH   1  27
ATOM     27  C   UNL A   1      37.732  21.268  24.925  1.00  0.00     0.002 C 
BRANCH  27  28
ATOM     28  C   UNL A   1      38.487  19.938  24.846  1.00  0.00     0.021 C 
BRANCH  28  29
ATOM     29  C   UNL A   1      39.207  19.534  26.129  1.00  0.00     0.116 C 
BRANCH  29  30
ATOM     30  N   UNL A   1      40.502  18.938  25.862  1.00  0.00    -0.352 N 
ATOM     31  C   UNL A   1      41.747  19.513  25.894  1.00  0.00     0.251 C 
ATOM     32  H   UNL A   1      40.486  17.983  25.622  1.00  0.00     0.163 HD
ATOM     33  O   UNL A   1      42.715  18.907  25.447  1.00  0.00    -0.269 OA
BRANCH  31  34
ATOM     34  C   UNL A   1      41.926  20.866  26.464  1.00  0.00     0.039 A 
ATOM     35  C   UNL A   1      42.192  21.930  25.597  1.00  0.00     0.014 A 
ATOM     36  C   UNL A   1      41.888  21.079  27.845  1.00  0.00     0.014 A 
ATOM     37  C   UNL A   1      42.398  23.211  26.113  1.00  0.00     0.010 A 
ATOM     38  C   UNL A   1      42.029  22.367  28.354  1.00  0.00     0.010 A 
ATOM     39  C   UNL A   1      42.312  23.440  27.495  1.00  0.00    -0.014 A 
BRANCH  39  40
ATOM     40  C   UNL A   1      42.583  24.783  28.065  1.00  0.00     0.031 A 
ATOM     41  C   UNL A   1      43.979  25.142  28.493  1.00  0.00     0.074 A 
ATOM     42  C   UNL A   1      41.576  25.660  28.233  1.00  0.00     0.049 A 
ATOM     43  N   UNL A   1      44.416  26.237  29.063  1.00  0.00    -0.248 NA
ATOM     44  C   UNL A   1      45.020  24.124  28.276  1.00  0.00     0.031 C 
ATOM     45  C   UNL A   1      40.174  25.417  27.891  1.00  0.00     0.029 A 
ATOM     46  N   UNL A   1      41.580  26.935  28.740  1.00  0.00    -0.354 N 
ATOM     47  C   UNL A   1      45.771  26.030  29.290  1.00  0.00     0.074 A 
ATOM     48  C   UNL A   1      46.076  24.688  28.843  1.00  0.00     0.031 C 
ATOM     49  C   UNL A   1      39.456  26.515  28.180  1.00  0.00     0.029 A 
ATOM     50  C   UNL A   1      40.341  27.527  28.750  1.00  0.00     0.049 A 
ATOM     51  H   UNL A   1      42.394  27.382  29.067  1.00  0.00     0.167 HD
ATOM     52  C   UNL A   1      46.686  26.888  29.800  1.00  0.00     0.037 A 
ATOM     53  C   UNL A   1      39.965  28.749  29.171  1.00  0.00     0.037 A 
ATOM     54  C   UNL A   1      46.389  28.235  30.210  1.00  0.00     0.049 A 
ATOM     55  C   UNL A   1      41.003  29.692  29.716  1.00  0.00     0.074 A 
ATOM     56  C   UNL A   1      47.254  29.200  30.697  1.00  0.00     0.029 A 
ATOM     57  N   UNL A   1      45.128  28.809  30.170  1.00  0.00    -0.354 N 
ATOM     58  N   UNL A   1      42.289  29.501  29.877  1.00  0.00    -0.248 NA
ATOM     59  C   UNL A   1      40.537  31.025  30.124  1.00  0.00     0.031 C 
ATOM     60  C   UNL A   1      46.510  30.350  30.978  1.00  0.00     0.029 A 
ATOM     61  C   UNL A   1      45.190  30.114  30.630  1.00  0.00     0.049 A 
ATOM     62  H   UNL A   1      44.310  28.356  29.861  1.00  0.00     0.167 HD
ATOM     63  C   UNL A   1      42.793  30.698  30.372  1.00  0.00     0.074 A 
ATOM     64  C   UNL A   1      41.673  31.610  30.477  1.00  0.00     0.031 C 
ATOM     65  C   UNL A   1      44.067  31.012  30.707  1.00  0.00     0.037 A 
BRANCH  52  66
ATOM     66  C   UNL A   1      48.097  26.392  29.934  1.00  0.00     0.057 A 
ATOM     67  C   UNL A   1      48.546  25.755  31.098  1.00  0.00     0.134 A 
ATOM     68  C   UNL A   1      49.008  26.535  28.882  1.00  0.00     0.134 A 
ATOM     69  F   UNL A   1      47.725  25.600  32.149  1.00  0.00    -0.206 F 
ATOM     70  C   UNL A   1      49.861  25.302  31.222  1.00  0.00     0.040 A 
ATOM     71  C   UNL A   1      50.319  26.062  28.983  1.00  0.00     0.040 A 
ATOM     72  F   UNL A   1      48.642  27.130  27.737  1.00  0.00    -0.206 F 
ATOM     73  C   UNL A   1      50.750  25.451  30.159  1.00  0.00     0.006 A 
ENDBRANCH  52  66
BRANCH  53  74
ATOM     74  C   UNL A   1      38.547  29.170  29.057  1.00  0.00     0.057 A 
ATOM     75  C   UNL A   1      38.028  29.633  27.842  1.00  0.00     0.134 A 
ATOM     76  C   UNL A   1      37.680  29.128  30.155  1.00  0.00     0.134 A 
ATOM     77  F   UNL A   1      38.816  29.713  26.760  1.00  0.00    -0.206 F 
ATOM     78  C   UNL A   1      36.705  30.060  27.726  1.00  0.00     0.040 A 
ATOM     79  C   UNL A   1      36.347  29.531  30.048  1.00  0.00     0.040 A 
ATOM     80  F   UNL A   1      38.113  28.687  31.344  1.00  0.00    -0.206 F 
ATOM     81  C   UNL A   1      35.859  30.005  28.832  1.00  0.00     0.006 A 
ENDBRANCH  53  74
BRANCH  65  82
ATOM     82  C   UNL A   1      44.327  32.415  31.170  1.00  0.00     0.057 A 
ATOM     83  C   UNL A   1      44.292  32.767  32.525  1.00  0.00     0.134 A 
ATOM     84  C   UNL A   1      44.655  33.417  30.247  1.00  0.00     0.134 A 
ATOM     85  F   UNL A   1      43.971  31.855  33.456  1.00  0.00    -0.206 F 
ATOM     86  C   UNL A   1      44.553  34.072  32.944  1.00  0.00     0.040 A 
ATOM     87  C   UNL A   1      44.942  34.719  30.656  1.00  0.00     0.040 A 
ATOM     88  F   UNL A   1      44.714  33.142  28.935  1.00  0.00    -0.206 F 
ATOM     89  C   UNL A   1      44.886  35.051  32.008  1.00  0.00     0.006 A 
ENDBRANCH  65  82
ENDBRANCH  39  40
ENDBRANCH  31  34
ENDBRANCH  29  30
ENDBRANCH  28  29
ENDBRANCH  27  28
ENDBRANCH   1  27
TORSDOF 17
ENDMDL
MODEL 3
REMARK VINA RESULT:     -11.1      2.031      3.361
REMARK SMILES [NH3+][C@]1(C(=O)NCCCCCCNC(=O)c2ccc(-c3c4nc(c(-c5c(F)cccc5F)c5ccc([nH]5)c(-c5c(F)cccc5F)c5nc(c(-c6c(F)cccc6F)c6ccc3[nH]6)C=C5)C=C4)cc2)CC[N@H+](Cc2ccccc2O)C1
REMARK SMILES IDX 8 1 7 2 6 3 5 4 3 5 4 6 2 8 69 9 80 10 70 11 71 12 1 14
REMARK SMILES IDX 72 18 73 19 74 20 78 21 75 22 77 23 76 24 79 25 9 27 10 28
REMARK SMILES IDX 11 29 12 30 13 31 14 33 15 34 16 35 68 36 17 37 67 38 18 39
REMARK SMILES IDX 19 40 20 41 61 42 21 43 66 44 60 45 62 46 22 47 65 48 59 49
REMARK SMILES IDX 58 50 23 52 49 53 32 54 48 55 33 56 36 57 47 58 63 59 34 60
REMARK SMILES IDX 35 61 46 63 64 64 37 65 24 66 25 67 30 68 26 69 27 70 29 71
REMARK SMILES IDX 31 72 28 73 50 74 51 75 56 76 52 77 53 78 55 79 57 80 54 81
REMARK SMILES IDX 38 82 39 83 44 84 40 85 41 86 43 87 45 88 42 89
REMARK H PARENT 5 7 71 13 1 15 1 16 1 17 79 26 12 32 62 51 36 62
REMARK Flexibility Score: inf
ROOT
ATOM      1  C   UNL A   1      32.629  29.605  26.584  1.00  0.00     0.002 C 
ENDROOT
BRANCH   1   2
ATOM      2  C   UNL A   1      33.577  29.007  25.537  1.00  0.00     0.021 C 
BRANCH   2   3
ATOM      3  C   UNL A   1      33.403  27.503  25.330  1.00  0.00     0.116 C 
BRANCH   3   4
ATOM      4  N   UNL A   1      33.930  27.101  24.046  1.00  0.00    -0.350 N 
ATOM      5  C   UNL A   1      33.312  26.738  22.897  1.00  0.00     0.287 C 
ATOM      6  O   UNL A   1      34.060  26.335  21.994  1.00  0.00    -0.268 OA
ATOM      7  H   UNL A   1      34.914  27.091  23.999  1.00  0.00     0.163 HD
BRANCH   5   8
ATOM      8  C   UNL A   1      31.774  26.879  22.633  1.00  0.00     0.228 C 
ATOM      9  C   UNL A   1      30.819  26.036  23.481  1.00  0.00     0.146 C 
ATOM     10  C   UNL A   1      31.337  28.338  22.882  1.00  0.00     0.342 C 
ATOM     11  C   UNL A   1      29.887  27.015  24.187  1.00  0.00     0.270 C 
ATOM     12  N   UNL A   1      30.028  28.321  23.554  1.00  0.00    -0.325 N 
ATOM     13  H   UNL A   1      30.006  29.042  24.275  1.00  0.00     0.348 HD
BRANCH   8  14
ATOM     14  N   UNL A   1      31.568  26.484  21.209  1.00  0.00    -0.340 N 
ATOM     15  H   UNL A   1      31.251  27.293  20.675  1.00  0.00     0.345 HD
ATOM     16  H   UNL A   1      30.865  25.747  21.159  1.00  0.00     0.345 HD
ATOM     17  H   UNL A   1      32.446  26.142  20.821  1.00  0.00     0.345 HD
ENDBRANCH   8  14
BRANCH  12  18
ATOM     18  C   UNL A   1      28.891  28.767  22.738  1.00  0.00     0.303 C 
BRANCH  18  19
ATOM     19  C   UNL A   1      28.661  30.253  22.566  1.00  0.00     0.048 A 
ATOM     20  C   UNL A   1      28.990  31.109  23.636  1.00  0.00     0.013 A 
ATOM     21  C   UNL A   1      28.161  30.844  21.397  1.00  0.00     0.124 A 
ATOM     22  C   UNL A   1      28.885  32.497  23.519  1.00  0.00     0.001 A 
ATOM     23  C   UNL A   1      28.074  32.232  21.270  1.00  0.00     0.046 A 
ATOM     24  C   UNL A   1      28.442  33.058  22.327  1.00  0.00     0.004 A 
BRANCH  21  25
ATOM     25  O   UNL A   1      27.710  30.131  20.322  1.00  0.00    -0.507 OA
ATOM     26  H   UNL A   1      27.782  30.490  19.459  1.00  0.00     0.293 HD
ENDBRANCH  21  25
ENDBRANCH  18  19
ENDBRANCH  12  18
ENDBRANCH   5   8
ENDBRANCH   3   4
ENDBRANCH   2   3
ENDBRANCH   1   2
BRANCH   1  27
ATOM     27  C   UNL A   1      31.471  30.433  26.019  1.00  0.00     0.002 C 
BRANCH  27  28
ATOM     28  C   UNL A   1      31.380  31.868  26.544  1.00  0.00     0.021 C 
BRANCH  28  29
ATOM     29  C   UNL A   1      32.710  32.480  26.969  1.00  0.00     0.116 C 
BRANCH  29  30
ATOM     30  N   UNL A   1      32.546  33.812  27.520  1.00  0.00    -0.352 N 
ATOM     31  C   UNL A   1      33.196  34.402  28.574  1.00  0.00     0.251 C 
ATOM     32  H   UNL A   1      31.871  34.373  27.074  1.00  0.00     0.163 HD
ATOM     33  O   UNL A   1      32.790  35.468  29.027  1.00  0.00    -0.269 OA
BRANCH  31  34
ATOM     34  C   UNL A   1      34.384  33.755  29.172  1.00  0.00     0.039 A 
ATOM     35  C   UNL A   1      35.653  34.168  28.757  1.00  0.00     0.014 A 
ATOM     36  C   UNL A   1      34.251  32.712  30.092  1.00  0.00     0.014 A 
ATOM     37  C   UNL A   1      36.790  33.550  29.281  1.00  0.00     0.010 A 
ATOM     38  C   UNL A   1      35.386  32.140  30.662  1.00  0.00     0.010 A 
ATOM     39  C   UNL A   1      36.665  32.536  30.242  1.00  0.00    -0.014 A 
BRANCH  39  40
ATOM     40  C   UNL A   1      37.859  31.829  30.769  1.00  0.00     0.031 A 
ATOM     41  C   UNL A   1      38.411  32.202  32.117  1.00  0.00     0.074 A 
ATOM     42  C   UNL A   1      38.468  30.887  30.025  1.00  0.00     0.049 A 
ATOM     43  N   UNL A   1      39.473  31.748  32.733  1.00  0.00    -0.248 NA
ATOM     44  C   UNL A   1      37.686  33.243  32.864  1.00  0.00     0.031 C 
ATOM     45  C   UNL A   1      38.051  30.463  28.687  1.00  0.00     0.029 A 
ATOM     46  N   UNL A   1      39.573  30.119  30.289  1.00  0.00    -0.354 N 
ATOM     47  C   UNL A   1      39.554  32.461  33.922  1.00  0.00     0.074 A 
ATOM     48  C   UNL A   1      38.464  33.412  33.922  1.00  0.00     0.031 C 
ATOM     49  C   UNL A   1      38.878  29.496  28.257  1.00  0.00     0.029 A 
ATOM     50  C   UNL A   1      39.897  29.252  29.274  1.00  0.00     0.049 A 
ATOM     51  H   UNL A   1      40.086  30.183  31.127  1.00  0.00     0.167 HD
ATOM     52  C   UNL A   1      40.440  32.319  34.937  1.00  0.00     0.037 A 
ATOM     53  C   UNL A   1      40.901  28.361  29.180  1.00  0.00     0.037 A 
ATOM     54  C   UNL A   1      41.501  31.348  34.953  1.00  0.00     0.049 A 
ATOM     55  C   UNL A   1      41.861  28.208  30.328  1.00  0.00     0.074 A 
ATOM     56  C   UNL A   1      42.423  31.093  35.953  1.00  0.00     0.029 A 
ATOM     57  N   UNL A   1      41.773  30.463  33.921  1.00  0.00    -0.354 N 
ATOM     58  N   UNL A   1      41.895  28.854  31.468  1.00  0.00    -0.248 NA
ATOM     59  C   UNL A   1      42.913  27.193  30.180  1.00  0.00     0.031 C 
ATOM     60  C   UNL A   1      43.273  30.072  35.513  1.00  0.00     0.029 A 
ATOM     61  C   UNL A   1      42.854  29.665  34.256  1.00  0.00     0.049 A 
ATOM     62  H   UNL A   1      41.272  30.411  33.075  1.00  0.00     0.167 HD
ATOM     63  C   UNL A   1      42.947  28.301  32.187  1.00  0.00     0.074 A 
ATOM     64  C   UNL A   1      43.521  27.263  31.357  1.00  0.00     0.031 C 
ATOM     65  C   UNL A   1      43.396  28.623  33.424  1.00  0.00     0.037 A 
BRANCH  52  66
ATOM     66  C   UNL A   1      40.289  33.236  36.117  1.00  0.00     0.057 A 
ATOM     67  C   UNL A   1      41.025  34.422  36.226  1.00  0.00     0.134 A 
ATOM     68  C   UNL A   1      39.384  32.939  37.142  1.00  0.00     0.134 A 
ATOM     69  F   UNL A   1      41.921  34.757  35.284  1.00  0.00    -0.206 F 
ATOM     70  C   UNL A   1      40.888  35.268  37.328  1.00  0.00     0.040 A 
ATOM     71  C   UNL A   1      39.218  33.790  38.237  1.00  0.00     0.040 A 
ATOM     72  F   UNL A   1      38.643  31.822  37.097  1.00  0.00    -0.206 F 
ATOM     73  C   UNL A   1      39.977  34.955  38.336  1.00  0.00     0.006 A 
ENDBRANCH  52  66
BRANCH  53  74
ATOM     74  C   UNL A   1      41.029  27.513  27.969  1.00  0.00     0.057 A 
ATOM     75  C   UNL A   1      40.417  26.255  27.902  1.00  0.00     0.134 A 
ATOM     76  C   UNL A   1      41.770  27.930  26.857  1.00  0.00     0.134 A 
ATOM     77  F   UNL A   1      39.710  25.794  28.945  1.00  0.00    -0.206 F 
ATOM     78  C   UNL A   1      40.553  25.434  26.783  1.00  0.00     0.040 A 
ATOM     79  C   UNL A   1      41.895  27.127  25.721  1.00  0.00     0.040 A 
ATOM     80  F   UNL A   1      42.374  29.127  26.856  1.00  0.00    -0.206 F 
ATOM     81  C   UNL A   1      41.291  25.872  25.686  1.00  0.00     0.006 A 
ENDBRANCH  53  74
BRANCH  65  82
ATOM     82  C   UNL A   1      44.531  27.812  33.974  1.00  0.00     0.057 A 
ATOM     83  C   UNL A   1      45.865  28.218  33.843  1.00  0.00     0.134 A 
ATOM     84  C   UNL A   1      44.280  26.626  34.677  1.00  0.00     0.134 A 
ATOM     85  F   UNL A   1      46.171  29.338  33.170  1.00  0.00    -0.206 F 
ATOM     86  C   UNL A   1      46.911  27.463  34.375  1.00  0.00     0.040 A 
ATOM     87  C   UNL A   1      45.315  25.875  35.234  1.00  0.00     0.040 A 
ATOM     88  F   UNL A   1      43.023  26.186  34.844  1.00  0.00    -0.206 F 
ATOM     89  C   UNL A   1      46.636  26.290  35.078  1.00  0.00     0.006 A 
ENDBRANCH  65  82
ENDBRANCH  39  40
ENDBRANCH  31  34
ENDBRANCH  29  30
ENDBRANCH  28  29
ENDBRANCH  27  28
ENDBRANCH   1  27
TORSDOF 17
ENDMDL
