MODEL 1
REMARK VINA RESULT:     -11.3      0.000      0.000
REMARK SMILES O=C(Cc1ccccc1-c1ccn(C(F)F)c(=O)c1)NCCCCCCNC(=O)c1ccc(-c2c3nc(c(-c4c(F)cccc4F)c4ccc([nH]4)c(-c4c(F)cccc4F)c4nc(c(-c5c(F)cccc5F)c5ccc2[nH]5)C=C4)C=C3)cc1
REMARK SMILES IDX 23 1 22 2 21 3 20 4 1 5 2 6 3 8 4 9 5 10 9 11 6 12 8 13 7 14
REMARK SMILES IDX 10 15 11 16 19 17 12 18 17 19 13 20 18 21 14 22 15 23 16 24
REMARK SMILES IDX 24 25 25 26 26 27 27 28 28 29 29 31 30 32 31 33 83 34 32 35
REMARK SMILES IDX 82 36 33 37 34 38 35 39 76 40 36 41 81 42 75 43 77 44 37 45
REMARK SMILES IDX 80 46 74 47 73 48 38 50 64 51 47 52 63 53 48 54 51 55 62 56
REMARK SMILES IDX 78 57 49 58 50 59 61 61 79 62 52 63 39 64 40 65 45 66 41 67
REMARK SMILES IDX 42 68 44 69 46 70 43 71 65 72 66 73 71 74 67 75 68 76 70 77
REMARK SMILES IDX 72 78 69 79 53 80 54 81 59 82 55 83 56 84 58 85 60 86 57 87
REMARK H PARENT 20 7 27 30 77 49 51 60
REMARK Flexibility Score: inf
ROOT
ATOM      1  C   UNL A   1      34.391  32.690  28.872  1.00  0.00     0.002 C 
ENDROOT
BRANCH   1   2
ATOM      2  C   UNL A   1      35.087  31.842  27.797  1.00  0.00     0.021 C 
BRANCH   2   3
ATOM      3  C   UNL A   1      35.148  30.343  28.099  1.00  0.00     0.116 C 
BRANCH   3   4
ATOM      4  N   UNL A   1      33.855  29.721  27.921  1.00  0.00    -0.356 N 
ATOM      5  O   UNL A   1      34.173  28.964  25.779  1.00  0.00    -0.275 OA
ATOM      6  C   UNL A   1      33.445  29.104  26.758  1.00  0.00     0.224 C 
ATOM      7  H   UNL A   1      33.226  29.741  28.678  1.00  0.00     0.163 HD
BRANCH   6   8
ATOM      8  C   UNL A   1      31.981  28.678  26.758  1.00  0.00     0.136 C 
BRANCH   8   9
ATOM      9  C   UNL A   1      31.419  28.424  25.371  1.00  0.00    -0.031 A 
ATOM     10  C   UNL A   1      31.007  29.529  24.601  1.00  0.00     0.005 A 
ATOM     11  C   UNL A   1      31.277  27.126  24.831  1.00  0.00    -0.014 A 
ATOM     12  C   UNL A   1      30.416  29.356  23.350  1.00  0.00     0.000 A 
ATOM     13  C   UNL A   1      30.673  26.969  23.571  1.00  0.00     0.009 A 
ATOM     14  C   UNL A   1      30.239  28.075  22.841  1.00  0.00     0.001 A 
BRANCH  11  15
ATOM     15  C   UNL A   1      31.822  25.930  25.507  1.00  0.00    -0.011 A 
ATOM     16  C   UNL A   1      33.200  25.498  25.394  1.00  0.00     0.027 A 
ATOM     17  C   UNL A   1      30.954  25.169  26.198  1.00  0.00     0.080 A 
ATOM     18  C   UNL A   1      33.582  24.317  25.895  1.00  0.00     0.095 A 
ATOM     19  C   UNL A   1      31.379  23.880  26.809  1.00  0.00     0.255 A 
ATOM     20  N   UNL A   1      32.691  23.506  26.573  1.00  0.00    -0.258 N 
ATOM     21  O   UNL A   1      30.552  23.235  27.445  1.00  0.00    -0.269 OA
BRANCH  20  22
ATOM     22  C   UNL A   1      33.100  22.217  27.064  1.00  0.00     0.451 C 
ATOM     23  F   UNL A   1      34.280  21.836  26.517  1.00  0.00    -0.185 F 
ATOM     24  F   UNL A   1      33.251  22.236  28.413  1.00  0.00    -0.185 F 
ENDBRANCH  20  22
ENDBRANCH  11  15
ENDBRANCH   8   9
ENDBRANCH   6   8
ENDBRANCH   3   4
ENDBRANCH   2   3
ENDBRANCH   1   2
BRANCH   1  25
ATOM     25  C   UNL A   1      34.360  34.199  28.611  1.00  0.00     0.002 C 
BRANCH  25  26
ATOM     26  C   UNL A   1      33.054  34.902  28.982  1.00  0.00     0.021 C 
BRANCH  26  27
ATOM     27  C   UNL A   1      33.217  36.260  29.658  1.00  0.00     0.116 C 
BRANCH  27  28
ATOM     28  N   UNL A   1      32.427  36.383  30.873  1.00  0.00    -0.352 N 
ATOM     29  C   UNL A   1      32.612  35.787  32.095  1.00  0.00     0.251 C 
ATOM     30  H   UNL A   1      31.646  36.979  30.808  1.00  0.00     0.163 HD
ATOM     31  O   UNL A   1      31.750  35.898  32.968  1.00  0.00    -0.269 OA
BRANCH  29  32
ATOM     32  C   UNL A   1      33.828  34.989  32.364  1.00  0.00     0.039 A 
ATOM     33  C   UNL A   1      35.078  35.602  32.233  1.00  0.00     0.014 A 
ATOM     34  C   UNL A   1      33.746  33.642  32.727  1.00  0.00     0.014 A 
ATOM     35  C   UNL A   1      36.239  34.882  32.520  1.00  0.00     0.010 A 
ATOM     36  C   UNL A   1      34.899  32.945  33.081  1.00  0.00     0.010 A 
ATOM     37  C   UNL A   1      36.159  33.555  32.976  1.00  0.00    -0.014 A 
BRANCH  37  38
ATOM     38  C   UNL A   1      37.382  32.789  33.327  1.00  0.00     0.031 A 
ATOM     39  C   UNL A   1      38.123  33.088  34.602  1.00  0.00     0.074 A 
ATOM     40  C   UNL A   1      37.856  31.856  32.478  1.00  0.00     0.049 A 
ATOM     41  N   UNL A   1      39.239  32.572  35.053  1.00  0.00    -0.248 NA
ATOM     42  C   UNL A   1      37.547  34.123  35.475  1.00  0.00     0.031 C 
ATOM     43  C   UNL A   1      37.258  31.501  31.190  1.00  0.00     0.029 A 
ATOM     44  N   UNL A   1      38.957  31.042  32.567  1.00  0.00    -0.354 N 
ATOM     45  C   UNL A   1      39.499  33.219  36.254  1.00  0.00     0.074 A 
ATOM     46  C   UNL A   1      38.458  34.210  36.432  1.00  0.00     0.031 C 
ATOM     47  C   UNL A   1      37.988  30.530  30.618  1.00  0.00     0.029 A 
ATOM     48  C   UNL A   1      39.123  30.216  31.481  1.00  0.00     0.049 A 
ATOM     49  H   UNL A   1      39.572  31.048  33.336  1.00  0.00     0.167 HD
ATOM     50  C   UNL A   1      40.495  32.992  37.144  1.00  0.00     0.037 A 
ATOM     51  C   UNL A   1      40.083  29.312  31.210  1.00  0.00     0.037 A 
ATOM     52  C   UNL A   1      41.521  31.997  36.975  1.00  0.00     0.049 A 
ATOM     53  C   UNL A   1      41.182  29.083  32.212  1.00  0.00     0.074 A 
ATOM     54  C   UNL A   1      42.561  31.675  37.831  1.00  0.00     0.029 A 
ATOM     55  N   UNL A   1      41.635  31.160  35.876  1.00  0.00    -0.354 N 
ATOM     56  N   UNL A   1      41.384  29.668  33.367  1.00  0.00    -0.248 NA
ATOM     57  C   UNL A   1      42.181  28.058  31.875  1.00  0.00     0.031 C 
ATOM     58  C   UNL A   1      43.322  30.664  37.235  1.00  0.00     0.029 A 
ATOM     59  C   UNL A   1      42.730  30.326  36.029  1.00  0.00     0.049 A 
ATOM     60  H   UNL A   1      41.027  31.158  35.101  1.00  0.00     0.167 HD
ATOM     61  C   UNL A   1      42.508  29.060  33.910  1.00  0.00     0.074 A 
ATOM     62  C   UNL A   1      42.936  28.051  32.964  1.00  0.00     0.031 C 
ATOM     63  C   UNL A   1      43.132  29.313  35.086  1.00  0.00     0.037 A 
BRANCH  50  64
ATOM     64  C   UNL A   1      40.508  33.828  38.390  1.00  0.00     0.057 A 
ATOM     65  C   UNL A   1      39.780  33.459  39.530  1.00  0.00     0.134 A 
ATOM     66  C   UNL A   1      41.279  34.994  38.468  1.00  0.00     0.134 A 
ATOM     67  F   UNL A   1      39.012  32.359  39.518  1.00  0.00    -0.206 F 
ATOM     68  C   UNL A   1      39.798  34.232  40.691  1.00  0.00     0.040 A 
ATOM     69  C   UNL A   1      41.327  35.762  39.634  1.00  0.00     0.040 A 
ATOM     70  F   UNL A   1      42.005  35.403  37.416  1.00  0.00    -0.206 F 
ATOM     71  C   UNL A   1      40.580  35.384  40.748  1.00  0.00     0.006 A 
ENDBRANCH  50  64
BRANCH  51  72
ATOM     72  C   UNL A   1      40.044  28.535  29.945  1.00  0.00     0.057 A 
ATOM     73  C   UNL A   1      39.335  27.330  29.857  1.00  0.00     0.134 A 
ATOM     74  C   UNL A   1      40.736  28.960  28.804  1.00  0.00     0.134 A 
ATOM     75  F   UNL A   1      38.668  26.861  30.921  1.00  0.00    -0.206 F 
ATOM     76  C   UNL A   1      39.340  26.562  28.692  1.00  0.00     0.040 A 
ATOM     77  C   UNL A   1      40.727  28.216  27.624  1.00  0.00     0.040 A 
ATOM     78  F   UNL A   1      41.425  30.111  28.820  1.00  0.00    -0.206 F 
ATOM     79  C   UNL A   1      40.035  27.008  27.570  1.00  0.00     0.006 A 
ENDBRANCH  51  72
BRANCH  63  80
ATOM     80  C   UNL A   1      44.310  28.451  35.438  1.00  0.00     0.057 A 
ATOM     81  C   UNL A   1      44.169  27.257  36.155  1.00  0.00     0.134 A 
ATOM     82  C   UNL A   1      45.600  28.814  35.032  1.00  0.00     0.134 A 
ATOM     83  F   UNL A   1      42.961  26.861  36.585  1.00  0.00    -0.206 F 
ATOM     84  C   UNL A   1      45.272  26.467  36.480  1.00  0.00     0.040 A 
ATOM     85  C   UNL A   1      46.708  28.019  35.327  1.00  0.00     0.040 A 
ATOM     86  F   UNL A   1      45.804  29.941  34.333  1.00  0.00    -0.206 F 
ATOM     87  C   UNL A   1      46.547  26.846  36.060  1.00  0.00     0.006 A 
ENDBRANCH  63  80
ENDBRANCH  37  38
ENDBRANCH  29  32
ENDBRANCH  27  28
ENDBRANCH  26  27
ENDBRANCH  25  26
ENDBRANCH   1  25
TORSDOF 16
ENDMDL
MODEL 2
REMARK VINA RESULT:     -11.2      0.410      6.169
REMARK SMILES O=C(Cc1ccccc1-c1ccn(C(F)F)c(=O)c1)NCCCCCCNC(=O)c1ccc(-c2c3nc(c(-c4c(F)cccc4F)c4ccc([nH]4)c(-c4c(F)cccc4F)c4nc(c(-c5c(F)cccc5F)c5ccc2[nH]5)C=C4)C=C3)cc1
REMARK SMILES IDX 23 1 22 2 21 3 20 4 1 5 2 6 3 8 4 9 5 10 9 11 6 12 8 13 7 14
REMARK SMILES IDX 10 15 11 16 19 17 12 18 17 19 13 20 18 21 14 22 15 23 16 24
REMARK SMILES IDX 24 25 25 26 26 27 27 28 28 29 29 31 30 32 31 33 83 34 32 35
REMARK SMILES IDX 82 36 33 37 34 38 35 39 76 40 36 41 81 42 75 43 77 44 37 45
REMARK SMILES IDX 80 46 74 47 73 48 38 50 64 51 47 52 63 53 48 54 51 55 62 56
REMARK SMILES IDX 78 57 49 58 50 59 61 61 79 62 52 63 39 64 40 65 45 66 41 67
REMARK SMILES IDX 42 68 44 69 46 70 43 71 65 72 66 73 71 74 67 75 68 76 70 77
REMARK SMILES IDX 72 78 69 79 53 80 54 81 59 82 55 83 56 84 58 85 60 86 57 87
REMARK H PARENT 20 7 27 30 77 49 51 60
REMARK Flexibility Score: inf
ROOT
ATOM      1  C   UNL A   1      35.419  33.533  28.735  1.00  0.00     0.002 C 
ENDROOT
BRANCH   1   2
ATOM      2  C   UNL A   1      34.482  32.330  28.916  1.00  0.00     0.021 C 
BRANCH   2   3
ATOM      3  C   UNL A   1      34.698  31.189  27.921  1.00  0.00     0.116 C 
BRANCH   3   4
ATOM      4  N   UNL A   1      33.522  30.353  27.820  1.00  0.00    -0.356 N 
ATOM      5  O   UNL A   1      34.266  28.981  26.139  1.00  0.00    -0.275 OA
ATOM      6  C   UNL A   1      33.375  29.328  26.910  1.00  0.00     0.224 C 
ATOM      7  H   UNL A   1      32.777  30.529  28.439  1.00  0.00     0.163 HD
BRANCH   6   8
ATOM      8  C   UNL A   1      31.982  28.709  26.884  1.00  0.00     0.136 C 
BRANCH   8   9
ATOM      9  C   UNL A   1      31.452  28.455  25.484  1.00  0.00    -0.031 A 
ATOM     10  C   UNL A   1      31.055  29.562  24.707  1.00  0.00     0.005 A 
ATOM     11  C   UNL A   1      31.326  27.159  24.939  1.00  0.00    -0.014 A 
ATOM     12  C   UNL A   1      30.493  29.390  23.443  1.00  0.00     0.000 A 
ATOM     13  C   UNL A   1      30.750  27.002  23.665  1.00  0.00     0.009 A 
ATOM     14  C   UNL A   1      30.330  28.109  22.928  1.00  0.00     0.001 A 
BRANCH  11  15
ATOM     15  C   UNL A   1      31.858  25.962  25.625  1.00  0.00    -0.011 A 
ATOM     16  C   UNL A   1      33.253  25.573  25.601  1.00  0.00     0.027 A 
ATOM     17  C   UNL A   1      30.967  25.160  26.235  1.00  0.00     0.080 A 
ATOM     18  C   UNL A   1      33.635  24.392  26.101  1.00  0.00     0.095 A 
ATOM     19  C   UNL A   1      31.387  23.869  26.846  1.00  0.00     0.255 A 
ATOM     20  N   UNL A   1      32.724  23.539  26.695  1.00  0.00    -0.258 N 
ATOM     21  O   UNL A   1      30.538  23.185  27.407  1.00  0.00    -0.269 OA
BRANCH  20  22
ATOM     22  C   UNL A   1      33.137  22.251  27.185  1.00  0.00     0.451 C 
ATOM     23  F   UNL A   1      34.419  21.983  26.839  1.00  0.00    -0.185 F 
ATOM     24  F   UNL A   1      33.048  22.194  28.538  1.00  0.00    -0.185 F 
ENDBRANCH  20  22
ENDBRANCH  11  15
ENDBRANCH   8   9
ENDBRANCH   6   8
ENDBRANCH   3   4
ENDBRANCH   2   3
ENDBRANCH   1   2
BRANCH   1  25
ATOM     25  C   UNL A   1      34.755  34.827  28.253  1.00  0.00     0.002 C 
BRANCH  25  26
ATOM     26  C   UNL A   1      33.377  35.116  28.849  1.00  0.00     0.021 C 
BRANCH  26  27
ATOM     27  C   UNL A   1      33.274  36.414  29.644  1.00  0.00     0.116 C 
BRANCH  27  28
ATOM     28  N   UNL A   1      32.351  36.317  30.764  1.00  0.00    -0.352 N 
ATOM     29  C   UNL A   1      32.467  35.598  31.927  1.00  0.00     0.251 C 
ATOM     30  H   UNL A   1      31.523  36.842  30.674  1.00  0.00     0.163 HD
ATOM     31  O   UNL A   1      31.511  35.523  32.700  1.00  0.00    -0.269 OA
BRANCH  29  32
ATOM     32  C   UNL A   1      33.726  34.889  32.248  1.00  0.00     0.039 A 
ATOM     33  C   UNL A   1      34.921  35.613  32.261  1.00  0.00     0.014 A 
ATOM     34  C   UNL A   1      33.736  33.517  32.518  1.00  0.00     0.014 A 
ATOM     35  C   UNL A   1      36.117  34.974  32.600  1.00  0.00     0.010 A 
ATOM     36  C   UNL A   1      34.916  32.898  32.925  1.00  0.00     0.010 A 
ATOM     37  C   UNL A   1      36.120  33.617  32.964  1.00  0.00    -0.014 A 
BRANCH  37  38
ATOM     38  C   UNL A   1      37.376  32.934  33.370  1.00  0.00     0.031 A 
ATOM     39  C   UNL A   1      37.990  31.890  32.479  1.00  0.00     0.074 A 
ATOM     40  C   UNL A   1      37.938  33.217  34.560  1.00  0.00     0.049 A 
ATOM     41  N   UNL A   1      39.047  31.143  32.684  1.00  0.00    -0.248 NA
ATOM     42  C   UNL A   1      37.315  31.632  31.196  1.00  0.00     0.031 C 
ATOM     43  C   UNL A   1      37.418  34.177  35.537  1.00  0.00     0.029 A 
ATOM     44  N   UNL A   1      39.068  32.717  35.158  1.00  0.00    -0.354 N 
ATOM     45  C   UNL A   1      39.159  30.328  31.564  1.00  0.00     0.074 A 
ATOM     46  C   UNL A   1      38.029  30.628  30.710  1.00  0.00     0.031 C 
ATOM     47  C   UNL A   1      38.236  34.208  36.602  1.00  0.00     0.029 A 
ATOM     48  C   UNL A   1      39.319  33.250  36.400  1.00  0.00     0.049 A 
ATOM     49  H   UNL A   1      39.646  32.041  34.736  1.00  0.00     0.167 HD
ATOM     50  C   UNL A   1      40.129  29.434  31.258  1.00  0.00     0.037 A 
ATOM     51  C   UNL A   1      40.306  32.991  37.278  1.00  0.00     0.037 A 
ATOM     52  C   UNL A   1      41.260  29.146  32.099  1.00  0.00     0.049 A 
ATOM     53  C   UNL A   1      41.367  31.988  36.917  1.00  0.00     0.074 A 
ATOM     54  C   UNL A   1      42.309  28.272  31.867  1.00  0.00     0.029 A 
ATOM     55  N   UNL A   1      41.494  29.730  33.334  1.00  0.00    -0.354 N 
ATOM     56  N   UNL A   1      41.487  31.264  35.831  1.00  0.00    -0.248 NA
ATOM     57  C   UNL A   1      42.439  31.775  37.901  1.00  0.00     0.031 C 
ATOM     58  C   UNL A   1      43.161  28.304  32.976  1.00  0.00     0.029 A 
ATOM     59  C   UNL A   1      42.666  29.231  33.879  1.00  0.00     0.049 A 
ATOM     60  H   UNL A   1      40.913  30.400  33.762  1.00  0.00     0.167 HD
ATOM     61  C   UNL A   1      42.661  30.538  35.985  1.00  0.00     0.074 A 
ATOM     62  C   UNL A   1      43.224  30.920  37.263  1.00  0.00     0.031 C 
ATOM     63  C   UNL A   1      43.223  29.636  35.145  1.00  0.00     0.037 A 
BRANCH  50  64
ATOM     64  C   UNL A   1      40.012  28.713  29.947  1.00  0.00     0.057 A 
ATOM     65  C   UNL A   1      40.629  29.198  28.785  1.00  0.00     0.134 A 
ATOM     66  C   UNL A   1      39.306  27.508  29.846  1.00  0.00     0.134 A 
ATOM     67  F   UNL A   1      41.310  30.354  28.810  1.00  0.00    -0.206 F 
ATOM     68  C   UNL A   1      40.526  28.525  27.567  1.00  0.00     0.040 A 
ATOM     69  C   UNL A   1      39.219  26.810  28.639  1.00  0.00     0.040 A 
ATOM     70  F   UNL A   1      38.696  26.983  30.920  1.00  0.00    -0.206 F 
ATOM     71  C   UNL A   1      39.826  27.323  27.494  1.00  0.00     0.006 A 
ENDBRANCH  50  64
BRANCH  51  72
ATOM     72  C   UNL A   1      40.357  33.706  38.578  1.00  0.00     0.057 A 
ATOM     73  C   UNL A   1      39.553  33.308  39.654  1.00  0.00     0.134 A 
ATOM     74  C   UNL A   1      41.184  34.819  38.770  1.00  0.00     0.134 A 
ATOM     75  F   UNL A   1      38.725  32.261  39.527  1.00  0.00    -0.206 F 
ATOM     76  C   UNL A   1      39.548  34.008  40.861  1.00  0.00     0.040 A 
ATOM     77  C   UNL A   1      41.209  35.512  39.981  1.00  0.00     0.040 A 
ATOM     78  F   UNL A   1      41.986  35.244  37.782  1.00  0.00    -0.206 F 
ATOM     79  C   UNL A   1      40.381  35.112  41.027  1.00  0.00     0.006 A 
ENDBRANCH  51  72
BRANCH  63  80
ATOM     80  C   UNL A   1      44.539  29.040  35.557  1.00  0.00     0.057 A 
ATOM     81  C   UNL A   1      45.762  29.619  35.197  1.00  0.00     0.134 A 
ATOM     82  C   UNL A   1      44.577  27.884  36.346  1.00  0.00     0.134 A 
ATOM     83  F   UNL A   1      45.793  30.719  34.431  1.00  0.00    -0.206 F 
ATOM     84  C   UNL A   1      46.977  29.052  35.583  1.00  0.00     0.040 A 
ATOM     85  C   UNL A   1      45.785  27.324  36.762  1.00  0.00     0.040 A 
ATOM     86  F   UNL A   1      43.440  27.285  36.735  1.00  0.00    -0.206 F 
ATOM     87  C   UNL A   1      46.990  27.904  36.373  1.00  0.00     0.006 A 
ENDBRANCH  63  80
ENDBRANCH  37  38
ENDBRANCH  29  32
ENDBRANCH  27  28
ENDBRANCH  26  27
ENDBRANCH  25  26
ENDBRANCH   1  25
TORSDOF 16
ENDMDL
MODEL 3
REMARK VINA RESULT:     -11.1      6.843     12.143
REMARK SMILES O=C(Cc1ccccc1-c1ccn(C(F)F)c(=O)c1)NCCCCCCNC(=O)c1ccc(-c2c3nc(c(-c4c(F)cccc4F)c4ccc([nH]4)c(-c4c(F)cccc4F)c4nc(c(-c5c(F)cccc5F)c5ccc2[nH]5)C=C4)C=C3)cc1
REMARK SMILES IDX 23 1 22 2 21 3 20 4 1 5 2 6 3 8 4 9 5 10 9 11 6 12 8 13 7 14
REMARK SMILES IDX 10 15 11 16 19 17 12 18 17 19 13 20 18 21 14 22 15 23 16 24
REMARK SMILES IDX 24 25 25 26 26 27 27 28 28 29 29 31 30 32 31 33 83 34 32 35
REMARK SMILES IDX 82 36 33 37 34 38 35 39 76 40 36 41 81 42 75 43 77 44 37 45
REMARK SMILES IDX 80 46 74 47 73 48 38 50 64 51 47 52 63 53 48 54 51 55 62 56
REMARK SMILES IDX 78 57 49 58 50 59 61 61 79 62 52 63 39 64 40 65 45 66 41 67
REMARK SMILES IDX 42 68 44 69 46 70 43 71 65 72 66 73 71 74 67 75 68 76 70 77
REMARK SMILES IDX 72 78 69 79 53 80 54 81 59 82 55 83 56 84 58 85 60 86 57 87
REMARK H PARENT 20 7 27 30 77 49 51 60
REMARK Flexibility Score: inf
ROOT
ATOM      1  C   UNL A   1      41.827  21.981  26.383  1.00  0.00     0.002 C 
ENDROOT
BRANCH   1   2
ATOM      2  C   UNL A   1      40.388  22.517  26.428  1.00  0.00     0.021 C 
BRANCH   2   3
ATOM      3  C   UNL A   1      39.299  21.452  26.288  1.00  0.00     0.116 C 
BRANCH   3   4
ATOM      4  N   UNL A   1      38.395  21.767  25.203  1.00  0.00    -0.356 N 
ATOM      5  O   UNL A   1      37.235  23.446  26.249  1.00  0.00    -0.275 OA
ATOM      6  C   UNL A   1      37.403  22.720  25.273  1.00  0.00     0.224 C 
ATOM      7  H   UNL A   1      38.495  21.267  24.361  1.00  0.00     0.163 HD
BRANCH   6   8
ATOM      8  C   UNL A   1      36.473  22.746  24.065  1.00  0.00     0.136 C 
BRANCH   8   9
ATOM      9  C   UNL A   1      35.107  22.141  24.332  1.00  0.00    -0.031 A 
ATOM     10  C   UNL A   1      35.042  20.815  24.806  1.00  0.00     0.005 A 
ATOM     11  C   UNL A   1      33.903  22.844  24.107  1.00  0.00    -0.014 A 
ATOM     12  C   UNL A   1      33.816  20.179  25.001  1.00  0.00     0.000 A 
ATOM     13  C   UNL A   1      32.676  22.186  24.302  1.00  0.00     0.009 A 
ATOM     14  C   UNL A   1      32.634  20.861  24.737  1.00  0.00     0.001 A 
BRANCH  11  15
ATOM     15  C   UNL A   1      33.886  24.281  23.757  1.00  0.00    -0.011 A 
ATOM     16  C   UNL A   1      34.044  25.347  24.724  1.00  0.00     0.027 A 
ATOM     17  C   UNL A   1      33.630  24.595  22.475  1.00  0.00     0.080 A 
ATOM     18  C   UNL A   1      33.851  26.622  24.364  1.00  0.00     0.095 A 
ATOM     19  C   UNL A   1      33.468  26.011  22.048  1.00  0.00     0.255 A 
ATOM     20  N   UNL A   1      33.547  26.957  23.057  1.00  0.00    -0.258 N 
ATOM     21  O   UNL A   1      33.254  26.243  20.863  1.00  0.00    -0.269 OA
BRANCH  20  22
ATOM     22  C   UNL A   1      33.292  28.324  22.691  1.00  0.00     0.451 C 
ATOM     23  F   UNL A   1      32.404  28.901  23.537  1.00  0.00    -0.185 F 
ATOM     24  F   UNL A   1      34.434  29.056  22.722  1.00  0.00    -0.185 F 
ENDBRANCH  20  22
ENDBRANCH  11  15
ENDBRANCH   8   9
ENDBRANCH   6   8
ENDBRANCH   3   4
ENDBRANCH   2   3
ENDBRANCH   1   2
BRANCH   1  25
ATOM     25  C   UNL A   1      42.162  20.890  27.404  1.00  0.00     0.002 C 
BRANCH  25  26
ATOM     26  C   UNL A   1      42.643  19.564  26.812  1.00  0.00     0.021 C 
BRANCH  26  27
ATOM     27  C   UNL A   1      42.510  19.445  25.297  1.00  0.00     0.116 C 
BRANCH  27  28
ATOM     28  N   UNL A   1      43.715  18.933  24.665  1.00  0.00    -0.352 N 
ATOM     29  C   UNL A   1      44.876  19.592  24.342  1.00  0.00     0.251 C 
ATOM     30  H   UNL A   1      43.695  17.976  24.433  1.00  0.00     0.163 HD
ATOM     31  O   UNL A   1      45.738  19.022  23.674  1.00  0.00    -0.269 OA
BRANCH  29  32
ATOM     32  C   UNL A   1      45.087  20.992  24.772  1.00  0.00     0.039 A 
ATOM     33  C   UNL A   1      44.732  22.024  23.899  1.00  0.00     0.014 A 
ATOM     34  C   UNL A   1      45.645  21.291  26.019  1.00  0.00     0.014 A 
ATOM     35  C   UNL A   1      44.884  23.354  24.298  1.00  0.00     0.010 A 
ATOM     36  C   UNL A   1      45.729  22.615  26.442  1.00  0.00     0.010 A 
ATOM     37  C   UNL A   1      45.357  23.662  25.585  1.00  0.00    -0.014 A 
BRANCH  37  38
ATOM     38  C   UNL A   1      45.483  25.070  26.040  1.00  0.00     0.031 A 
ATOM     39  C   UNL A   1      46.818  25.762  25.997  1.00  0.00     0.074 A 
ATOM     40  C   UNL A   1      44.409  25.713  26.537  1.00  0.00     0.049 A 
ATOM     41  N   UNL A   1      47.142  26.964  26.405  1.00  0.00    -0.248 NA
ATOM     42  C   UNL A   1      47.946  24.993  25.446  1.00  0.00     0.031 C 
ATOM     43  C   UNL A   1      43.068  25.141  26.675  1.00  0.00     0.029 A 
ATOM     44  N   UNL A   1      44.277  26.988  27.028  1.00  0.00    -0.354 N 
ATOM     45  C   UNL A   1      48.504  27.092  26.164  1.00  0.00     0.074 A 
ATOM     46  C   UNL A   1      48.959  25.825  25.633  1.00  0.00     0.031 C 
ATOM     47  C   UNL A   1      42.246  26.067  27.197  1.00  0.00     0.029 A 
ATOM     48  C   UNL A   1      43.006  27.284  27.462  1.00  0.00     0.049 A 
ATOM     49  H   UNL A   1      45.022  27.630  27.067  1.00  0.00     0.167 HD
ATOM     50  C   UNL A   1      49.300  28.174  26.340  1.00  0.00     0.037 A 
ATOM     51  C   UNL A   1      42.513  28.408  28.015  1.00  0.00     0.037 A 
ATOM     52  C   UNL A   1      48.845  29.440  26.854  1.00  0.00     0.049 A 
ATOM     53  C   UNL A   1      43.420  29.593  28.207  1.00  0.00     0.074 A 
ATOM     54  C   UNL A   1      49.570  30.604  27.048  1.00  0.00     0.029 A 
ATOM     55  N   UNL A   1      47.545  29.708  27.252  1.00  0.00    -0.354 N 
ATOM     56  N   UNL A   1      44.694  29.715  27.925  1.00  0.00    -0.248 NA
ATOM     57  C   UNL A   1      42.813  30.804  28.782  1.00  0.00     0.031 C 
ATOM     58  C   UNL A   1      48.715  31.567  27.594  1.00  0.00     0.029 A 
ATOM     59  C   UNL A   1      47.448  31.017  27.697  1.00  0.00     0.049 A 
ATOM     60  H   UNL A   1      46.801  29.064  27.224  1.00  0.00     0.167 HD
ATOM     61  C   UNL A   1      45.034  31.021  28.255  1.00  0.00     0.074 A 
ATOM     62  C   UNL A   1      43.828  31.655  28.744  1.00  0.00     0.031 C 
ATOM     63  C   UNL A   1      46.235  31.640  28.163  1.00  0.00     0.037 A 
BRANCH  50  64
ATOM     64  C   UNL A   1      50.744  28.037  25.956  1.00  0.00     0.057 A 
ATOM     65  C   UNL A   1      51.165  28.165  24.624  1.00  0.00     0.134 A 
ATOM     66  C   UNL A   1      51.729  27.808  26.924  1.00  0.00     0.134 A 
ATOM     67  F   UNL A   1      50.271  28.372  23.647  1.00  0.00    -0.206 F 
ATOM     68  C   UNL A   1      52.508  28.043  24.268  1.00  0.00     0.040 A 
ATOM     69  C   UNL A   1      53.081  27.712  26.583  1.00  0.00     0.040 A 
ATOM     70  F   UNL A   1      51.397  27.681  28.218  1.00  0.00    -0.206 F 
ATOM     71  C   UNL A   1      53.472  27.824  25.250  1.00  0.00     0.006 A 
ENDBRANCH  50  64
BRANCH  51  72
ATOM     72  C   UNL A   1      41.084  28.481  28.412  1.00  0.00     0.057 A 
ATOM     73  C   UNL A   1      40.667  28.092  29.691  1.00  0.00     0.134 A 
ATOM     74  C   UNL A   1      40.098  28.911  27.516  1.00  0.00     0.134 A 
ATOM     75  F   UNL A   1      41.562  27.653  30.588  1.00  0.00    -0.206 F 
ATOM     76  C   UNL A   1      39.320  28.100  30.055  1.00  0.00     0.040 A 
ATOM     77  C   UNL A   1      38.750  28.950  27.876  1.00  0.00     0.040 A 
ATOM     78  F   UNL A   1      40.433  29.307  26.279  1.00  0.00    -0.206 F 
ATOM     79  C   UNL A   1      38.357  28.533  29.146  1.00  0.00     0.006 A 
ENDBRANCH  51  72
BRANCH  63  80
ATOM     80  C   UNL A   1      46.293  33.089  28.549  1.00  0.00     0.057 A 
ATOM     81  C   UNL A   1      46.066  34.115  27.623  1.00  0.00     0.134 A 
ATOM     82  C   UNL A   1      46.555  33.460  29.874  1.00  0.00     0.134 A 
ATOM     83  F   UNL A   1      45.823  33.826  26.336  1.00  0.00    -0.206 F 
ATOM     84  C   UNL A   1      46.127  35.459  27.994  1.00  0.00     0.040 A 
ATOM     85  C   UNL A   1      46.591  34.799  30.263  1.00  0.00     0.040 A 
ATOM     86  F   UNL A   1      46.771  32.527  30.814  1.00  0.00    -0.206 F 
ATOM     87  C   UNL A   1      46.385  35.803  29.320  1.00  0.00     0.006 A 
ENDBRANCH  63  80
ENDBRANCH  37  38
ENDBRANCH  29  32
ENDBRANCH  27  28
ENDBRANCH  26  27
ENDBRANCH  25  26
ENDBRANCH   1  25
TORSDOF 16
ENDMDL
