MODEL 1
REMARK VINA RESULT:     -12.6      0.000      0.000
REMARK SMILES O=C(NCCCCCCNC(=O)c1ccc(-c2c3nc(c(-c4c(F)cccc4F)c4ccc([nH]4)c(-c4c(F)cccc4F)c4nc(c(-c5c(F)cccc5F)c5ccc2[nH]5)C=C4)C=C3)cc1)C1=Cc2cc(S(F)(F)(F)(F)F)ccc2O[C@@H]1C(F)(F)F
REMARK SMILES IDX 7 1 6 2 5 3 4 4 3 5 1 6 2 7 67 9 68 10 82 11 69 12 81 13
REMARK SMILES IDX 70 14 80 15 71 16 79 17 78 18 83 19 84 20 85 21 86 22 72 23
REMARK SMILES IDX 73 24 74 25 75 26 76 27 77 28 8 29 9 30 10 31 11 32 12 34
REMARK SMILES IDX 13 35 14 36 66 37 15 38 65 39 16 40 17 41 18 42 59 43 19 44
REMARK SMILES IDX 64 45 58 46 60 47 20 48 63 49 57 50 56 51 21 53 47 54 30 55
REMARK SMILES IDX 46 56 31 57 34 58 45 59 61 60 32 61 33 62 44 64 62 65 35 66
REMARK SMILES IDX 22 67 23 68 28 69 24 70 25 71 27 72 29 73 26 74 48 75 49 76
REMARK SMILES IDX 54 77 50 78 51 79 53 80 55 81 52 82 36 83 37 84 42 85 38 86
REMARK SMILES IDX 39 87 41 88 43 89 40 90
REMARK H PARENT 3 8 10 33 60 52 34 63
REMARK Flexibility Score: inf
ROOT
ATOM      1  C   UNL A   1      31.785  30.812  26.170  1.00  0.00     0.002 C 
ENDROOT
BRANCH   1   2
ATOM      2  C   UNL A   1      32.691  30.186  27.218  1.00  0.00     0.002 C 
BRANCH   2   3
ATOM      3  C   UNL A   1      33.971  29.700  26.556  1.00  0.00     0.021 C 
BRANCH   3   4
ATOM      4  C   UNL A   1      34.015  28.181  26.595  1.00  0.00     0.116 C 
BRANCH   4   5
ATOM      5  N   UNL A   1      32.754  27.668  27.150  1.00  0.00    -0.352 N 
ATOM      6  O   UNL A   1      30.649  26.646  26.739  1.00  0.00    -0.270 OA
ATOM      7  C   UNL A   1      31.739  27.089  26.258  1.00  0.00     0.251 C 
ATOM      8  H   UNL A   1      32.589  27.714  28.119  1.00  0.00     0.163 HD
BRANCH   7   9
ATOM      9  C   UNL A   1      31.993  27.020  24.761  1.00  0.00     0.067 C 
ATOM     10  C   UNL A   1      32.791  26.044  24.251  1.00  0.00     0.025 C 
ATOM     11  C   UNL A   1      31.354  28.041  23.834  1.00  0.00     0.314 C 
ATOM     12  C   UNL A   1      33.429  25.022  25.178  1.00  0.00     0.019 A 
ATOM     13  O   UNL A   1      31.371  24.950  26.365  1.00  0.00    -0.475 OA
ATOM     14  C   UNL A   1      34.763  24.682  25.020  1.00  0.00     0.036 A 
ATOM     15  C   UNL A   1      32.685  24.465  26.126  1.00  0.00     0.128 A 
ATOM     16  C   UNL A   1      35.148  23.522  25.733  1.00  0.00     0.107 A 
ATOM     17  C   UNL A   1      33.173  23.425  26.878  1.00  0.00     0.048 A 
ATOM     18  C   UNL A   1      34.464  22.997  26.733  1.00  0.00     0.028 A 
BRANCH  11  19
ATOM     19  C   UNL A   1      30.465  27.328  22.829  1.00  0.00     0.429 C 
ATOM     20  F   UNL A   1      31.206  26.894  21.812  1.00  0.00    -0.167 F 
ATOM     21  F   UNL A   1      29.870  26.294  23.417  1.00  0.00    -0.167 F 
ATOM     22  F   UNL A   1      29.543  28.173  22.376  1.00  0.00    -0.167 F 
ENDBRANCH  11  19
BRANCH  16  23
ATOM     23  S   UNL A   1      36.684  22.701  25.241  1.00  0.00     0.310 S 
ATOM     24  F   UNL A   1      36.910  23.703  24.032  1.00  0.00    -0.094 F 
ATOM     25  F   UNL A   1      35.852  21.802  24.250  1.00  0.00    -0.094 F 
ATOM     26  F   UNL A   1      38.004  21.994  24.821  1.00  0.00    -0.094 F 
ATOM     27  F   UNL A   1      37.517  23.705  26.133  1.00  0.00    -0.094 F 
ATOM     28  F   UNL A   1      35.367  23.504  25.593  1.00  0.00    -0.094 F 
ENDBRANCH  16  23
ENDBRANCH   7   9
ENDBRANCH   4   5
ENDBRANCH   3   4
ENDBRANCH   2   3
ENDBRANCH   1   2
BRANCH   1  29
ATOM     29  C   UNL A   1      31.351  32.192  26.633  1.00  0.00     0.021 C 
BRANCH  29  30
ATOM     30  C   UNL A   1      32.564  32.968  27.120  1.00  0.00     0.116 C 
BRANCH  30  31
ATOM     31  N   UNL A   1      32.137  34.279  27.629  1.00  0.00    -0.352 N 
ATOM     32  C   UNL A   1      32.912  34.945  28.686  1.00  0.00     0.251 C 
ATOM     33  H   UNL A   1      31.332  34.711  27.261  1.00  0.00     0.163 HD
ATOM     34  O   UNL A   1      32.542  36.078  29.126  1.00  0.00    -0.269 OA
BRANCH  32  35
ATOM     35  C   UNL A   1      34.155  34.278  29.252  1.00  0.00     0.039 A 
ATOM     36  C   UNL A   1      35.396  34.594  28.727  1.00  0.00     0.014 A 
ATOM     37  C   UNL A   1      34.028  33.401  30.242  1.00  0.00     0.014 A 
ATOM     38  C   UNL A   1      36.428  33.710  29.122  1.00  0.00     0.010 A 
ATOM     39  C   UNL A   1      35.109  32.669  30.669  1.00  0.00     0.010 A 
ATOM     40  C   UNL A   1      36.355  32.887  30.153  1.00  0.00    -0.014 A 
BRANCH  40  41
ATOM     41  C   UNL A   1      37.591  32.219  30.733  1.00  0.00     0.031 A 
ATOM     42  C   UNL A   1      38.097  31.094  30.078  1.00  0.00     0.074 A 
ATOM     43  C   UNL A   1      38.147  32.763  31.878  1.00  0.00     0.049 A 
ATOM     44  N   UNL A   1      39.180  30.386  30.398  1.00  0.00    -0.248 NA
ATOM     45  C   UNL A   1      37.488  30.494  28.882  1.00  0.00     0.031 C 
ATOM     46  C   UNL A   1      37.648  33.903  32.539  1.00  0.00     0.029 A 
ATOM     47  N   UNL A   1      39.251  32.322  32.574  1.00  0.00    -0.354 N 
ATOM     48  C   UNL A   1      39.356  29.391  29.524  1.00  0.00     0.074 A 
ATOM     49  C   UNL A   1      38.266  29.443  28.540  1.00  0.00     0.031 C 
ATOM     50  C   UNL A   1      38.432  34.138  33.624  1.00  0.00     0.029 A 
ATOM     51  C   UNL A   1      39.434  33.150  33.659  1.00  0.00     0.049 A 
ATOM     52  H   UNL A   1      39.811  31.548  32.337  1.00  0.00     0.167 HD
ATOM     53  C   UNL A   1      40.381  28.446  29.510  1.00  0.00     0.037 A 
ATOM     54  C   UNL A   1      40.414  33.063  34.636  1.00  0.00     0.037 A 
ATOM     55  C   UNL A   1      41.386  28.386  30.462  1.00  0.00     0.049 A 
ATOM     56  C   UNL A   1      41.407  32.081  34.653  1.00  0.00     0.074 A 
ATOM     57  C   UNL A   1      42.432  27.443  30.458  1.00  0.00     0.029 A 
ATOM     58  N   UNL A   1      41.556  29.199  31.562  1.00  0.00    -0.354 N 
ATOM     59  N   UNL A   1      41.604  31.112  33.759  1.00  0.00    -0.248 NA
ATOM     60  C   UNL A   1      42.430  31.961  35.701  1.00  0.00     0.031 C 
ATOM     61  C   UNL A   1      43.216  27.679  31.543  1.00  0.00     0.029 A 
ATOM     62  C   UNL A   1      42.673  28.771  32.244  1.00  0.00     0.049 A 
ATOM     63  H   UNL A   1      40.978  29.955  31.815  1.00  0.00     0.167 HD
ATOM     64  C   UNL A   1      42.665  30.378  34.102  1.00  0.00     0.074 A 
ATOM     65  C   UNL A   1      43.207  30.909  35.361  1.00  0.00     0.031 C 
ATOM     66  C   UNL A   1      43.204  29.289  33.416  1.00  0.00     0.037 A 
BRANCH  53  67
ATOM     67  C   UNL A   1      40.398  27.423  28.385  1.00  0.00     0.057 A 
ATOM     68  C   UNL A   1      39.741  26.210  28.512  1.00  0.00     0.134 A 
ATOM     69  C   UNL A   1      41.020  27.756  27.260  1.00  0.00     0.134 A 
ATOM     70  F   UNL A   1      38.903  25.940  29.508  1.00  0.00    -0.206 F 
ATOM     71  C   UNL A   1      40.044  25.284  27.485  1.00  0.00     0.040 A 
ATOM     72  C   UNL A   1      41.160  26.843  26.243  1.00  0.00     0.040 A 
ATOM     73  F   UNL A   1      41.510  28.984  27.116  1.00  0.00    -0.206 F 
ATOM     74  C   UNL A   1      40.588  25.603  26.325  1.00  0.00     0.006 A 
ENDBRANCH  53  67
BRANCH  54  75
ATOM     75  C   UNL A   1      40.408  34.096  35.751  1.00  0.00     0.057 A 
ATOM     76  C   UNL A   1      39.671  33.818  36.890  1.00  0.00     0.134 A 
ATOM     77  C   UNL A   1      41.046  35.252  35.609  1.00  0.00     0.134 A 
ATOM     78  F   UNL A   1      39.230  32.599  37.190  1.00  0.00    -0.206 F 
ATOM     79  C   UNL A   1      39.428  34.948  37.707  1.00  0.00     0.040 A 
ATOM     80  C   UNL A   1      40.868  36.266  36.519  1.00  0.00     0.040 A 
ATOM     81  F   UNL A   1      41.865  35.430  34.576  1.00  0.00    -0.206 F 
ATOM     82  C   UNL A   1      40.104  36.080  37.638  1.00  0.00     0.006 A 
ENDBRANCH  54  75
BRANCH  66  83
ATOM     83  C   UNL A   1      44.450  28.631  33.986  1.00  0.00     0.057 A 
ATOM     84  C   UNL A   1      44.317  27.552  34.845  1.00  0.00     0.134 A 
ATOM     85  C   UNL A   1      45.645  29.103  33.651  1.00  0.00     0.134 A 
ATOM     86  F   UNL A   1      43.175  26.892  35.009  1.00  0.00    -0.206 F 
ATOM     87  C   UNL A   1      45.508  27.217  35.531  1.00  0.00     0.040 A 
ATOM     88  C   UNL A   1      46.780  28.632  34.267  1.00  0.00     0.040 A 
ATOM     89  F   UNL A   1      45.745  30.038  32.711  1.00  0.00    -0.206 F 
ATOM     90  C   UNL A   1      46.716  27.607  35.170  1.00  0.00     0.006 A 
ENDBRANCH  66  83
ENDBRANCH  40  41
ENDBRANCH  32  35
ENDBRANCH  30  31
ENDBRANCH  29  30
ENDBRANCH   1  29
TORSDOF 15
ENDMDL
MODEL 2
REMARK VINA RESULT:     -12.5      0.669      5.938
REMARK SMILES O=C(NCCCCCCNC(=O)c1ccc(-c2c3nc(c(-c4c(F)cccc4F)c4ccc([nH]4)c(-c4c(F)cccc4F)c4nc(c(-c5c(F)cccc5F)c5ccc2[nH]5)C=C4)C=C3)cc1)C1=Cc2cc(S(F)(F)(F)(F)F)ccc2O[C@@H]1C(F)(F)F
REMARK SMILES IDX 7 1 6 2 5 3 4 4 3 5 1 6 2 7 67 9 68 10 82 11 69 12 81 13
REMARK SMILES IDX 70 14 80 15 71 16 79 17 78 18 83 19 84 20 85 21 86 22 72 23
REMARK SMILES IDX 73 24 74 25 75 26 76 27 77 28 8 29 9 30 10 31 11 32 12 34
REMARK SMILES IDX 13 35 14 36 66 37 15 38 65 39 16 40 17 41 18 42 59 43 19 44
REMARK SMILES IDX 64 45 58 46 60 47 20 48 63 49 57 50 56 51 21 53 47 54 30 55
REMARK SMILES IDX 46 56 31 57 34 58 45 59 61 60 32 61 33 62 44 64 62 65 35 66
REMARK SMILES IDX 22 67 23 68 28 69 24 70 25 71 27 72 29 73 26 74 48 75 49 76
REMARK SMILES IDX 54 77 50 78 51 79 53 80 55 81 52 82 36 83 37 84 42 85 38 86
REMARK SMILES IDX 39 87 41 88 43 89 40 90
REMARK H PARENT 3 8 10 33 60 52 34 63
REMARK Flexibility Score: inf
ROOT
ATOM      1  C   UNL A   1      31.795  30.751  26.174  1.00  0.00     0.002 C 
ENDROOT
BRANCH   1   2
ATOM      2  C   UNL A   1      32.685  30.175  27.263  1.00  0.00     0.002 C 
BRANCH   2   3
ATOM      3  C   UNL A   1      33.980  29.671  26.646  1.00  0.00     0.021 C 
BRANCH   3   4
ATOM      4  C   UNL A   1      33.940  28.154  26.554  1.00  0.00     0.116 C 
BRANCH   4   5
ATOM      5  N   UNL A   1      32.725  27.655  27.214  1.00  0.00    -0.352 N 
ATOM      6  O   UNL A   1      30.590  26.639  26.981  1.00  0.00    -0.270 OA
ATOM      7  C   UNL A   1      31.641  27.070  26.411  1.00  0.00     0.251 C 
ATOM      8  H   UNL A   1      32.636  27.713  28.192  1.00  0.00     0.163 HD
BRANCH   7   9
ATOM      9  C   UNL A   1      31.777  26.981  24.900  1.00  0.00     0.067 C 
ATOM     10  C   UNL A   1      32.530  25.995  24.341  1.00  0.00     0.025 C 
ATOM     11  C   UNL A   1      31.069  27.992  24.013  1.00  0.00     0.314 C 
ATOM     12  C   UNL A   1      33.235  24.983  25.230  1.00  0.00     0.019 A 
ATOM     13  O   UNL A   1      31.277  24.934  26.575  1.00  0.00    -0.475 OA
ATOM     14  C   UNL A   1      34.552  24.637  24.971  1.00  0.00     0.036 A 
ATOM     15  C   UNL A   1      32.567  24.441  26.240  1.00  0.00     0.128 A 
ATOM     16  C   UNL A   1      34.989  23.485  25.667  1.00  0.00     0.107 A 
ATOM     17  C   UNL A   1      33.109  23.408  26.965  1.00  0.00     0.048 A 
ATOM     18  C   UNL A   1      34.384  22.974  26.725  1.00  0.00     0.028 A 
BRANCH  11  19
ATOM     19  C   UNL A   1      30.102  27.269  23.090  1.00  0.00     0.429 C 
ATOM     20  F   UNL A   1      29.522  26.270  23.751  1.00  0.00    -0.167 F 
ATOM     21  F   UNL A   1      29.172  28.120  22.666  1.00  0.00    -0.167 F 
ATOM     22  F   UNL A   1      30.767  26.782  22.045  1.00  0.00    -0.167 F 
ENDBRANCH  11  19
BRANCH  16  23
ATOM     23  S   UNL A   1      36.480  22.652  25.067  1.00  0.00     0.310 S 
ATOM     24  F   UNL A   1      36.708  23.736  23.933  1.00  0.00    -0.094 F 
ATOM     25  F   UNL A   1      35.589  21.861  24.036  1.00  0.00    -0.094 F 
ATOM     26  F   UNL A   1      37.760  21.934  24.554  1.00  0.00    -0.094 F 
ATOM     27  F   UNL A   1      37.373  23.554  26.008  1.00  0.00    -0.094 F 
ATOM     28  F   UNL A   1      35.204  23.470  25.519  1.00  0.00    -0.094 F 
ENDBRANCH  16  23
ENDBRANCH   7   9
ENDBRANCH   4   5
ENDBRANCH   3   4
ENDBRANCH   2   3
ENDBRANCH   1   2
BRANCH   1  29
ATOM     29  C   UNL A   1      31.391  32.168  26.546  1.00  0.00     0.021 C 
BRANCH  29  30
ATOM     30  C   UNL A   1      32.579  32.887  27.164  1.00  0.00     0.116 C 
BRANCH  30  31
ATOM     31  N   UNL A   1      32.145  34.190  27.690  1.00  0.00    -0.352 N 
ATOM     32  C   UNL A   1      32.970  34.892  28.685  1.00  0.00     0.251 C 
ATOM     33  H   UNL A   1      31.303  34.591  27.376  1.00  0.00     0.163 HD
ATOM     34  O   UNL A   1      32.594  36.017  29.140  1.00  0.00    -0.269 OA
BRANCH  32  35
ATOM     35  C   UNL A   1      34.269  34.271  29.169  1.00  0.00     0.039 A 
ATOM     36  C   UNL A   1      35.445  34.532  28.486  1.00  0.00     0.014 A 
ATOM     37  C   UNL A   1      34.256  33.486  30.241  1.00  0.00     0.014 A 
ATOM     38  C   UNL A   1      36.518  33.682  28.843  1.00  0.00     0.010 A 
ATOM     39  C   UNL A   1      35.380  32.789  30.611  1.00  0.00     0.010 A 
ATOM     40  C   UNL A   1      36.562  32.954  29.945  1.00  0.00    -0.014 A 
BRANCH  40  41
ATOM     41  C   UNL A   1      37.856  32.334  30.444  1.00  0.00     0.031 A 
ATOM     42  C   UNL A   1      38.545  32.990  31.468  1.00  0.00     0.074 A 
ATOM     43  C   UNL A   1      38.282  31.155  29.857  1.00  0.00     0.049 A 
ATOM     44  N   UNL A   1      39.670  32.602  32.069  1.00  0.00    -0.248 NA
ATOM     45  C   UNL A   1      38.112  34.260  32.069  1.00  0.00     0.031 C 
ATOM     46  C   UNL A   1      37.589  30.483  28.831  1.00  0.00     0.029 A 
ATOM     47  N   UNL A   1      39.418  30.430  30.143  1.00  0.00    -0.354 N 
ATOM     48  C   UNL A   1      40.013  33.479  33.014  1.00  0.00     0.074 A 
ATOM     49  C   UNL A   1      39.020  34.562  33.024  1.00  0.00     0.031 C 
ATOM     50  C   UNL A   1      38.302  29.377  28.494  1.00  0.00     0.029 A 
ATOM     51  C   UNL A   1      39.452  29.337  29.305  1.00  0.00     0.049 A 
ATOM     52  H   UNL A   1      40.088  30.654  30.828  1.00  0.00     0.167 HD
ATOM     53  C   UNL A   1      41.115  33.418  33.869  1.00  0.00     0.037 A 
ATOM     54  C   UNL A   1      40.425  28.352  29.237  1.00  0.00     0.037 A 
ATOM     55  C   UNL A   1      42.064  32.409  33.829  1.00  0.00     0.049 A 
ATOM     56  C   UNL A   1      41.557  28.322  30.053  1.00  0.00     0.074 A 
ATOM     57  C   UNL A   1      43.177  32.329  34.689  1.00  0.00     0.029 A 
ATOM     58  N   UNL A   1      42.112  31.330  32.975  1.00  0.00    -0.354 N 
ATOM     59  N   UNL A   1      41.879  29.178  31.024  1.00  0.00    -0.248 NA
ATOM     60  C   UNL A   1      42.610  27.301  29.967  1.00  0.00     0.031 C 
ATOM     61  C   UNL A   1      43.890  31.221  34.352  1.00  0.00     0.029 A 
ATOM     62  C   UNL A   1      43.236  30.593  33.277  1.00  0.00     0.049 A 
ATOM     63  H   UNL A   1      41.457  31.121  32.271  1.00  0.00     0.167 HD
ATOM     64  C   UNL A   1      43.028  28.813  31.597  1.00  0.00     0.074 A 
ATOM     65  C   UNL A   1      43.519  27.603  30.920  1.00  0.00     0.031 C 
ATOM     66  C   UNL A   1      43.685  29.435  32.659  1.00  0.00     0.037 A 
BRANCH  53  67
ATOM     67  C   UNL A   1      41.283  34.520  34.903  1.00  0.00     0.057 A 
ATOM     68  C   UNL A   1      41.951  35.694  34.595  1.00  0.00     0.134 A 
ATOM     69  C   UNL A   1      40.721  34.338  36.092  1.00  0.00     0.134 A 
ATOM     70  F   UNL A   1      42.304  36.023  33.356  1.00  0.00    -0.206 F 
ATOM     71  C   UNL A   1      42.223  36.510  35.718  1.00  0.00     0.040 A 
ATOM     72  C   UNL A   1      40.918  35.246  37.104  1.00  0.00     0.040 A 
ATOM     73  F   UNL A   1      39.960  33.269  36.306  1.00  0.00    -0.206 F 
ATOM     74  C   UNL A   1      41.620  36.401  36.888  1.00  0.00     0.006 A 
ENDBRANCH  53  67
BRANCH  54  75
ATOM     75  C   UNL A   1      40.248  27.241  28.215  1.00  0.00     0.057 A 
ATOM     76  C   UNL A   1      39.623  26.075  28.623  1.00  0.00     0.134 A 
ATOM     77  C   UNL A   1      40.730  27.369  26.984  1.00  0.00     0.134 A 
ATOM     78  F   UNL A   1      38.910  25.988  29.743  1.00  0.00    -0.206 F 
ATOM     79  C   UNL A   1      39.812  24.983  27.743  1.00  0.00     0.040 A 
ATOM     80  C   UNL A   1      40.758  26.294  26.129  1.00  0.00     0.040 A 
ATOM     81  F   UNL A   1      41.187  28.549  26.574  1.00  0.00    -0.206 F 
ATOM     82  C   UNL A   1      40.213  25.093  26.490  1.00  0.00     0.006 A 
ENDBRANCH  54  75
BRANCH  66  83
ATOM     83  C   UNL A   1      44.971  28.807  33.171  1.00  0.00     0.057 A 
ATOM     84  C   UNL A   1      44.908  27.829  34.149  1.00  0.00     0.134 A 
ATOM     85  C   UNL A   1      46.134  29.206  32.670  1.00  0.00     0.134 A 
ATOM     86  F   UNL A   1      43.777  27.221  34.497  1.00  0.00    -0.206 F 
ATOM     87  C   UNL A   1      46.157  27.535  34.747  1.00  0.00     0.040 A 
ATOM     88  C   UNL A   1      47.317  28.772  33.217  1.00  0.00     0.040 A 
ATOM     89  F   UNL A   1      46.154  30.034  31.629  1.00  0.00    -0.206 F 
ATOM     90  C   UNL A   1      47.328  27.850  34.227  1.00  0.00     0.006 A 
ENDBRANCH  66  83
ENDBRANCH  40  41
ENDBRANCH  32  35
ENDBRANCH  30  31
ENDBRANCH  29  30
ENDBRANCH   1  29
TORSDOF 15
ENDMDL
MODEL 3
REMARK VINA RESULT:     -12.5      4.307      8.603
REMARK SMILES O=C(NCCCCCCNC(=O)c1ccc(-c2c3nc(c(-c4c(F)cccc4F)c4ccc([nH]4)c(-c4c(F)cccc4F)c4nc(c(-c5c(F)cccc5F)c5ccc2[nH]5)C=C4)C=C3)cc1)C1=Cc2cc(S(F)(F)(F)(F)F)ccc2O[C@@H]1C(F)(F)F
REMARK SMILES IDX 7 1 6 2 5 3 4 4 3 5 1 6 2 7 67 9 68 10 82 11 69 12 81 13
REMARK SMILES IDX 70 14 80 15 71 16 79 17 78 18 83 19 84 20 85 21 86 22 72 23
REMARK SMILES IDX 73 24 74 25 75 26 76 27 77 28 8 29 9 30 10 31 11 32 12 34
REMARK SMILES IDX 13 35 14 36 66 37 15 38 65 39 16 40 17 41 18 42 59 43 19 44
REMARK SMILES IDX 64 45 58 46 60 47 20 48 63 49 57 50 56 51 21 53 47 54 30 55
REMARK SMILES IDX 46 56 31 57 34 58 45 59 61 60 32 61 33 62 44 64 62 65 35 66
REMARK SMILES IDX 22 67 23 68 28 69 24 70 25 71 27 72 29 73 26 74 48 75 49 76
REMARK SMILES IDX 54 77 50 78 51 79 53 80 55 81 52 82 36 83 37 84 42 85 38 86
REMARK SMILES IDX 39 87 41 88 43 89 40 90
REMARK H PARENT 3 8 10 33 60 52 34 63
REMARK Flexibility Score: inf
ROOT
ATOM      1  C   UNL A   1      36.708  20.655  24.993  1.00  0.00     0.002 C 
ENDROOT
BRANCH   1   2
ATOM      2  C   UNL A   1      36.936  22.155  24.903  1.00  0.00     0.002 C 
BRANCH   2   3
ATOM      3  C   UNL A   1      36.709  22.617  23.472  1.00  0.00     0.021 C 
BRANCH   3   4
ATOM      4  C   UNL A   1      35.382  23.354  23.383  1.00  0.00     0.116 C 
BRANCH   4   5
ATOM      5  N   UNL A   1      35.087  23.990  24.675  1.00  0.00    -0.352 N 
ATOM      6  O   UNL A   1      33.454  24.926  26.124  1.00  0.00    -0.270 OA
ATOM      7  C   UNL A   1      33.708  24.376  25.007  1.00  0.00     0.251 C 
ATOM      8  H   UNL A   1      35.814  24.158  25.318  1.00  0.00     0.163 HD
BRANCH   7   9
ATOM      9  C   UNL A   1      32.586  24.118  24.014  1.00  0.00     0.067 C 
ATOM     10  C   UNL A   1      32.125  22.852  23.824  1.00  0.00     0.025 C 
ATOM     11  C   UNL A   1      31.979  25.273  23.236  1.00  0.00     0.314 C 
ATOM     12  C   UNL A   1      32.731  21.697  24.604  1.00  0.00     0.019 A 
ATOM     13  O   UNL A   1      32.764  23.120  26.508  1.00  0.00    -0.475 OA
ATOM     14  C   UNL A   1      33.044  20.513  23.955  1.00  0.00     0.036 A 
ATOM     15  C   UNL A   1      32.944  21.845  25.906  1.00  0.00     0.128 A 
ATOM     16  C   UNL A   1      33.312  19.433  24.829  1.00  0.00     0.107 A 
ATOM     17  C   UNL A   1      33.337  20.779  26.677  1.00  0.00     0.048 A 
ATOM     18  C   UNL A   1      33.606  19.562  26.111  1.00  0.00     0.028 A 
BRANCH  11  19
ATOM     19  C   UNL A   1      30.496  25.372  23.549  1.00  0.00     0.429 C 
ATOM     20  F   UNL A   1      30.314  25.295  24.865  1.00  0.00    -0.167 F 
ATOM     21  F   UNL A   1      30.025  26.534  23.104  1.00  0.00    -0.167 F 
ATOM     22  F   UNL A   1      29.849  24.374  22.953  1.00  0.00    -0.167 F 
ENDBRANCH  11  19
BRANCH  16  23
ATOM     23  S   UNL A   1      33.248  17.759  24.145  1.00  0.00     0.310 S 
ATOM     24  F   UNL A   1      32.855  18.292  22.704  1.00  0.00    -0.094 F 
ATOM     25  F   UNL A   1      31.708  17.714  24.474  1.00  0.00    -0.094 F 
ATOM     26  F   UNL A   1      33.194  16.319  23.561  1.00  0.00    -0.094 F 
ATOM     27  F   UNL A   1      34.759  17.875  23.696  1.00  0.00    -0.094 F 
ATOM     28  F   UNL A   1      33.292  19.263  24.632  1.00  0.00    -0.094 F 
ENDBRANCH  16  23
ENDBRANCH   7   9
ENDBRANCH   4   5
ENDBRANCH   3   4
ENDBRANCH   2   3
ENDBRANCH   1   2
BRANCH   1  29
ATOM     29  C   UNL A   1      37.991  19.924  24.635  1.00  0.00     0.021 C 
BRANCH  29  30
ATOM     30  C   UNL A   1      38.996  20.083  25.764  1.00  0.00     0.116 C 
BRANCH  30  31
ATOM     31  N   UNL A   1      40.025  19.039  25.656  1.00  0.00    -0.352 N 
ATOM     32  C   UNL A   1      41.408  19.325  26.065  1.00  0.00     0.251 C 
ATOM     33  H   UNL A   1      39.788  18.149  25.309  1.00  0.00     0.163 HD
ATOM     34  O   UNL A   1      42.297  18.422  25.971  1.00  0.00    -0.269 OA
BRANCH  32  35
ATOM     35  C   UNL A   1      41.774  20.700  26.598  1.00  0.00     0.039 A 
ATOM     36  C   UNL A   1      41.706  20.942  27.960  1.00  0.00     0.014 A 
ATOM     37  C   UNL A   1      42.152  21.648  25.748  1.00  0.00     0.014 A 
ATOM     38  C   UNL A   1      41.781  22.312  28.304  1.00  0.00     0.010 A 
ATOM     39  C   UNL A   1      42.339  22.939  26.179  1.00  0.00     0.010 A 
ATOM     40  C   UNL A   1      42.230  23.262  27.503  1.00  0.00    -0.014 A 
BRANCH  40  41
ATOM     41  C   UNL A   1      42.607  24.638  28.025  1.00  0.00     0.031 A 
ATOM     42  C   UNL A   1      43.953  24.889  28.302  1.00  0.00     0.074 A 
ATOM     43  C   UNL A   1      41.596  25.568  28.198  1.00  0.00     0.049 A 
ATOM     44  N   UNL A   1      44.497  26.029  28.730  1.00  0.00    -0.248 NA
ATOM     45  C   UNL A   1      45.024  23.893  28.151  1.00  0.00     0.031 C 
ATOM     46  C   UNL A   1      40.237  25.326  27.913  1.00  0.00     0.029 A 
ATOM     47  N   UNL A   1      41.705  26.860  28.663  1.00  0.00    -0.354 N 
ATOM     48  C   UNL A   1      45.818  25.889  28.862  1.00  0.00     0.074 A 
ATOM     49  C   UNL A   1      46.175  24.511  28.497  1.00  0.00     0.031 C 
ATOM     50  C   UNL A   1      39.537  26.451  28.213  1.00  0.00     0.029 A 
ATOM     51  C   UNL A   1      40.445  27.415  28.689  1.00  0.00     0.049 A 
ATOM     52  H   UNL A   1      42.540  27.309  28.929  1.00  0.00     0.167 HD
ATOM     53  C   UNL A   1      46.737  26.856  29.270  1.00  0.00     0.037 A 
ATOM     54  C   UNL A   1      40.088  28.689  29.104  1.00  0.00     0.037 A 
ATOM     55  C   UNL A   1      46.385  28.143  29.643  1.00  0.00     0.049 A 
ATOM     56  C   UNL A   1      41.002  29.638  29.568  1.00  0.00     0.074 A 
ATOM     57  C   UNL A   1      47.301  29.133  30.050  1.00  0.00     0.029 A 
ATOM     58  N   UNL A   1      45.122  28.691  29.694  1.00  0.00    -0.354 N 
ATOM     59  N   UNL A   1      42.325  29.510  29.662  1.00  0.00    -0.248 NA
ATOM     60  C   UNL A   1      40.631  30.979  30.040  1.00  0.00     0.031 C 
ATOM     61  C   UNL A   1      46.599  30.258  30.350  1.00  0.00     0.029 A 
ATOM     62  C   UNL A   1      45.234  29.990  30.137  1.00  0.00     0.049 A 
ATOM     63  H   UNL A   1      44.284  28.233  29.455  1.00  0.00     0.167 HD
ATOM     64  C   UNL A   1      42.865  30.637  30.131  1.00  0.00     0.074 A 
ATOM     65  C   UNL A   1      41.781  31.596  30.388  1.00  0.00     0.031 C 
ATOM     66  C   UNL A   1      44.216  30.907  30.352  1.00  0.00     0.037 A 
BRANCH  53  67
ATOM     67  C   UNL A   1      48.209  26.476  29.307  1.00  0.00     0.057 A 
ATOM     68  C   UNL A   1      48.772  25.907  30.437  1.00  0.00     0.134 A 
ATOM     69  C   UNL A   1      48.920  26.661  28.201  1.00  0.00     0.134 A 
ATOM     70  F   UNL A   1      48.052  25.474  31.467  1.00  0.00    -0.206 F 
ATOM     71  C   UNL A   1      50.185  25.830  30.396  1.00  0.00     0.040 A 
ATOM     72  C   UNL A   1      50.275  26.435  28.195  1.00  0.00     0.040 A 
ATOM     73  F   UNL A   1      48.315  27.068  27.088  1.00  0.00    -0.206 F 
ATOM     74  C   UNL A   1      50.909  25.929  29.297  1.00  0.00     0.006 A 
ENDBRANCH  53  67
BRANCH  54  75
ATOM     75  C   UNL A   1      38.619  29.074  29.051  1.00  0.00     0.057 A 
ATOM     76  C   UNL A   1      38.150  29.693  27.904  1.00  0.00     0.134 A 
ATOM     77  C   UNL A   1      37.826  28.871  30.097  1.00  0.00     0.134 A 
ATOM     78  F   UNL A   1      38.818  29.692  26.754  1.00  0.00    -0.206 F 
ATOM     79  C   UNL A   1      36.895  30.327  28.066  1.00  0.00     0.040 A 
ATOM     80  C   UNL A   1      36.561  29.405  30.130  1.00  0.00     0.040 A 
ATOM     81  F   UNL A   1      38.260  28.142  31.121  1.00  0.00    -0.206 F 
ATOM     82  C   UNL A   1      36.055  30.081  29.055  1.00  0.00     0.006 A 
ENDBRANCH  54  75
BRANCH  66  83
ATOM     83  C   UNL A   1      44.595  32.289  30.858  1.00  0.00     0.057 A 
ATOM     84  C   UNL A   1      44.830  33.306  29.947  1.00  0.00     0.134 A 
ATOM     85  C   UNL A   1      44.695  32.498  32.165  1.00  0.00     0.134 A 
ATOM     86  F   UNL A   1      44.502  33.219  28.661  1.00  0.00    -0.206 F 
ATOM     87  C   UNL A   1      45.452  34.446  30.509  1.00  0.00     0.040 A 
ATOM     88  C   UNL A   1      45.184  33.687  32.648  1.00  0.00     0.040 A 
ATOM     89  F   UNL A   1      44.318  31.547  33.015  1.00  0.00    -0.206 F 
ATOM     90  C   UNL A   1      45.493  34.716  31.801  1.00  0.00     0.006 A 
ENDBRANCH  66  83
ENDBRANCH  40  41
ENDBRANCH  32  35
ENDBRANCH  30  31
ENDBRANCH  29  30
ENDBRANCH   1  29
TORSDOF 15
ENDMDL
