MODEL 1
REMARK VINA RESULT:     -11.5      0.000      0.000
REMARK SMILES CC(C)[C@@H](NC(=O)/C(=C\c1ccccc1F)NC(=O)c1ccccc1)C(=O)NCCCCCCNC(=O)c1ccc(-c2c3nc(c(-c4c(F)cccc4F)c4ccc([nH]4)c(-c4c(F)cccc4F)c4nc(c(-c5c(F)cccc5F)c5ccc2[nH]5)C=C4)C=C3)cc1
REMARK SMILES IDX 30 1 29 2 28 3 26 4 27 5 4 7 2 8 1 9 3 10 5 11 6 12 7 14
REMARK SMILES IDX 8 15 9 16 17 17 18 18 19 20 20 21 21 22 25 23 22 24 24 25
REMARK SMILES IDX 23 26 10 27 11 28 15 29 12 30 14 31 16 32 13 33 31 34 32 35
REMARK SMILES IDX 33 36 34 37 35 38 36 39 37 41 38 42 39 43 91 44 40 45 90 46
REMARK SMILES IDX 41 47 42 48 43 49 84 50 44 51 89 52 83 53 85 54 45 55 88 56
REMARK SMILES IDX 82 57 81 58 46 60 72 61 55 62 71 63 56 64 59 65 70 66 86 67
REMARK SMILES IDX 57 68 58 69 69 71 87 72 60 73 47 74 48 75 53 76 49 77 50 78
REMARK SMILES IDX 52 79 54 80 51 81 73 82 74 83 79 84 75 85 76 86 78 87 80 88
REMARK SMILES IDX 77 89 61 90 62 91 67 92 63 93 64 94 66 95 68 96 65 97
REMARK H PARENT 28 6 5 13 17 19 35 40 85 59 59 70
REMARK Flexibility Score: inf
ROOT
ATOM      1  C   UNL A   1      36.687  23.143  24.171  1.00  0.00     0.021 C 
ENDROOT
BRANCH   1   2
ATOM      2  C   UNL A   1      35.334  23.839  24.179  1.00  0.00     0.116 C 
BRANCH   2   3
ATOM      3  N   UNL A   1      34.621  23.402  23.007  1.00  0.00    -0.354 N 
ATOM      4  C   UNL A   1      33.296  23.595  22.781  1.00  0.00     0.242 C 
ATOM      5  O   UNL A   1      32.637  22.625  22.406  1.00  0.00    -0.273 OA
ATOM      6  H   UNL A   1      35.133  22.926  22.315  1.00  0.00     0.163 HD
BRANCH   4   7
ATOM      7  C   UNL A   1      32.634  24.917  23.166  1.00  0.00     0.174 C 
BRANCH   7   8
ATOM      8  C   UNL A   1      32.993  26.012  22.100  1.00  0.00     0.015 C 
ATOM      9  C   UNL A   1      32.072  25.945  20.878  1.00  0.00     0.010 C 
ATOM     10  C   UNL A   1      32.934  27.454  22.646  1.00  0.00     0.010 C 
ENDBRANCH   7   8
BRANCH   7  11
ATOM     11  N   UNL A   1      31.172  24.795  23.398  1.00  0.00    -0.339 N 
ATOM     12  C   UNL A   1      30.419  25.586  24.246  1.00  0.00     0.268 C 
ATOM     13  H   UNL A   1      30.696  24.088  22.905  1.00  0.00     0.164 HD
ATOM     14  O   UNL A   1      29.510  26.262  23.762  1.00  0.00    -0.268 OA
BRANCH  12  15
ATOM     15  C   UNL A   1      30.501  25.417  25.751  1.00  0.00     0.107 C 
ATOM     16  C   UNL A   1      31.185  26.250  26.569  1.00  0.00     0.043 C 
BRANCH  15  17
ATOM     17  N   UNL A   1      29.784  24.416  26.400  1.00  0.00    -0.317 N 
ATOM     18  C   UNL A   1      30.050  23.145  26.841  1.00  0.00     0.255 C 
ATOM     19  H   UNL A   1      28.855  24.687  26.587  1.00  0.00     0.170 HD
ATOM     20  O   UNL A   1      29.155  22.499  27.387  1.00  0.00    -0.269 OA
BRANCH  18  21
ATOM     21  C   UNL A   1      31.358  22.513  26.687  1.00  0.00     0.040 A 
ATOM     22  C   UNL A   1      32.375  22.839  27.588  1.00  0.00     0.014 A 
ATOM     23  C   UNL A   1      31.602  21.675  25.598  1.00  0.00     0.014 A 
ATOM     24  C   UNL A   1      33.630  22.253  27.438  1.00  0.00     0.001 A 
ATOM     25  C   UNL A   1      32.856  21.085  25.459  1.00  0.00     0.001 A 
ATOM     26  C   UNL A   1      33.864  21.366  26.384  1.00  0.00     0.000 A 
ENDBRANCH  18  21
ENDBRANCH  15  17
BRANCH  16  27
ATOM     27  C   UNL A   1      32.088  27.367  26.269  1.00  0.00     0.012 A 
ATOM     28  C   UNL A   1      31.510  28.644  26.156  1.00  0.00     0.011 A 
ATOM     29  C   UNL A   1      33.470  27.249  26.144  1.00  0.00     0.130 A 
ATOM     30  C   UNL A   1      32.316  29.783  26.077  1.00  0.00     0.001 A 
ATOM     31  C   UNL A   1      34.278  28.380  26.051  1.00  0.00     0.040 A 
ATOM     32  F   UNL A   1      34.052  26.044  26.141  1.00  0.00    -0.206 F 
ATOM     33  C   UNL A   1      33.703  29.651  26.056  1.00  0.00     0.003 A 
ENDBRANCH  16  27
ENDBRANCH  12  15
ENDBRANCH   7  11
ENDBRANCH   4   7
ENDBRANCH   2   3
ENDBRANCH   1   2
BRANCH   1  34
ATOM     34  C   UNL A   1      36.996  22.469  25.514  1.00  0.00     0.002 C 
BRANCH  34  35
ATOM     35  C   UNL A   1      38.482  22.180  25.744  1.00  0.00     0.002 C 
BRANCH  35  36
ATOM     36  C   UNL A   1      38.920  20.772  25.338  1.00  0.00     0.021 C 
BRANCH  36  37
ATOM     37  C   UNL A   1      39.581  19.980  26.457  1.00  0.00     0.116 C 
BRANCH  37  38
ATOM     38  N   UNL A   1      40.711  19.201  25.989  1.00  0.00    -0.352 N 
ATOM     39  C   UNL A   1      42.023  19.590  25.898  1.00  0.00     0.251 C 
ATOM     40  H   UNL A   1      40.511  18.280  25.703  1.00  0.00     0.163 HD
ATOM     41  O   UNL A   1      42.854  18.880  25.352  1.00  0.00    -0.269 OA
BRANCH  39  42
ATOM     42  C   UNL A   1      42.405  20.907  26.445  1.00  0.00     0.039 A 
ATOM     43  C   UNL A   1      42.708  21.938  25.554  1.00  0.00     0.014 A 
ATOM     44  C   UNL A   1      42.418  21.130  27.825  1.00  0.00     0.014 A 
ATOM     45  C   UNL A   1      42.983  23.212  26.050  1.00  0.00     0.010 A 
ATOM     46  C   UNL A   1      42.619  22.417  28.312  1.00  0.00     0.010 A 
ATOM     47  C   UNL A   1      42.913  23.467  27.430  1.00  0.00    -0.014 A 
BRANCH  47  48
ATOM     48  C   UNL A   1      43.158  24.828  27.965  1.00  0.00     0.031 A 
ATOM     49  C   UNL A   1      44.555  25.258  28.315  1.00  0.00     0.074 A 
ATOM     50  C   UNL A   1      42.120  25.661  28.172  1.00  0.00     0.049 A 
ATOM     51  N   UNL A   1      44.964  26.388  28.834  1.00  0.00    -0.248 NA
ATOM     52  C   UNL A   1      45.631  24.283  28.074  1.00  0.00     0.031 C 
ATOM     53  C   UNL A   1      40.716  25.343  27.905  1.00  0.00     0.029 A 
ATOM     54  N   UNL A   1      42.085  26.945  28.654  1.00  0.00    -0.354 N 
ATOM     55  C   UNL A   1      46.339  26.256  28.985  1.00  0.00     0.074 A 
ATOM     56  C   UNL A   1      46.687  24.919  28.560  1.00  0.00     0.031 C 
ATOM     57  C   UNL A   1      39.962  26.414  28.195  1.00  0.00     0.029 A 
ATOM     58  C   UNL A   1      40.820  27.479  28.705  1.00  0.00     0.049 A 
ATOM     59  H   UNL A   1      42.889  27.437  28.937  1.00  0.00     0.167 HD
ATOM     60  C   UNL A   1      47.232  27.178  29.413  1.00  0.00     0.037 A 
ATOM     61  C   UNL A   1      40.400  28.691  29.118  1.00  0.00     0.037 A 
ATOM     62  C   UNL A   1      46.882  28.517  29.808  1.00  0.00     0.049 A 
ATOM     63  C   UNL A   1      41.410  29.692  29.605  1.00  0.00     0.074 A 
ATOM     64  C   UNL A   1      47.723  29.541  30.207  1.00  0.00     0.029 A 
ATOM     65  N   UNL A   1      45.591  29.018  29.851  1.00  0.00    -0.354 N 
ATOM     66  N   UNL A   1      42.711  29.571  29.696  1.00  0.00    -0.248 NA
ATOM     67  C   UNL A   1      40.895  30.996  30.047  1.00  0.00     0.031 C 
ATOM     68  C   UNL A   1      46.937  30.646  30.538  1.00  0.00     0.029 A 
ATOM     69  C   UNL A   1      45.610  30.330  30.293  1.00  0.00     0.049 A 
ATOM     70  H   UNL A   1      44.780  28.515  29.604  1.00  0.00     0.167 HD
ATOM     71  C   UNL A   1      43.174  30.788  30.180  1.00  0.00     0.074 A 
ATOM     72  C   UNL A   1      42.014  31.638  30.354  1.00  0.00     0.031 C 
ATOM     73  C   UNL A   1      44.446  31.165  30.456  1.00  0.00     0.037 A 
BRANCH  60  74
ATOM     74  C   UNL A   1      48.677  26.780  29.463  1.00  0.00     0.057 A 
ATOM     75  C   UNL A   1      49.231  26.236  30.628  1.00  0.00     0.134 A 
ATOM     76  C   UNL A   1      49.539  26.999  28.380  1.00  0.00     0.134 A 
ATOM     77  F   UNL A   1      48.463  26.006  31.704  1.00  0.00    -0.206 F 
ATOM     78  C   UNL A   1      50.591  25.936  30.719  1.00  0.00     0.040 A 
ATOM     79  C   UNL A   1      50.895  26.677  28.448  1.00  0.00     0.040 A 
ATOM     80  F   UNL A   1      49.070  27.506  27.229  1.00  0.00    -0.206 F 
ATOM     81  C   UNL A   1      51.427  26.154  29.625  1.00  0.00     0.006 A 
ENDBRANCH  60  74
BRANCH  61  82
ATOM     82  C   UNL A   1      38.956  29.028  29.051  1.00  0.00     0.057 A 
ATOM     83  C   UNL A   1      38.370  29.523  27.880  1.00  0.00     0.134 A 
ATOM     84  C   UNL A   1      38.132  28.889  30.175  1.00  0.00     0.134 A 
ATOM     85  F   UNL A   1      39.108  29.686  26.771  1.00  0.00    -0.206 F 
ATOM     86  C   UNL A   1      37.024  29.886  27.832  1.00  0.00     0.040 A 
ATOM     87  C   UNL A   1      36.778  29.225  30.134  1.00  0.00     0.040 A 
ATOM     88  F   UNL A   1      38.631  28.404  31.321  1.00  0.00    -0.206 F 
ATOM     89  C   UNL A   1      36.222  29.734  28.962  1.00  0.00     0.006 A 
ENDBRANCH  61  82
BRANCH  73  90
ATOM     90  C   UNL A   1      44.668  32.563  30.955  1.00  0.00     0.057 A 
ATOM     91  C   UNL A   1      44.928  33.607  30.058  1.00  0.00     0.134 A 
ATOM     92  C   UNL A   1      44.713  32.857  32.323  1.00  0.00     0.134 A 
ATOM     93  F   UNL A   1      44.911  33.388  28.735  1.00  0.00    -0.206 F 
ATOM     94  C   UNL A   1      45.244  34.890  30.505  1.00  0.00     0.040 A 
ATOM     95  C   UNL A   1      45.002  34.143  32.781  1.00  0.00     0.040 A 
ATOM     96  F   UNL A   1      44.464  31.902  33.233  1.00  0.00    -0.206 F 
ATOM     97  C   UNL A   1      45.280  35.161  31.871  1.00  0.00     0.006 A 
ENDBRANCH  73  90
ENDBRANCH  47  48
ENDBRANCH  39  42
ENDBRANCH  37  38
ENDBRANCH  36  37
ENDBRANCH  35  36
ENDBRANCH  34  35
ENDBRANCH   1  34
TORSDOF 19
ENDMDL
MODEL 2
REMARK VINA RESULT:     -11.3      0.311      5.912
REMARK SMILES CC(C)[C@@H](NC(=O)/C(=C\c1ccccc1F)NC(=O)c1ccccc1)C(=O)NCCCCCCNC(=O)c1ccc(-c2c3nc(c(-c4c(F)cccc4F)c4ccc([nH]4)c(-c4c(F)cccc4F)c4nc(c(-c5c(F)cccc5F)c5ccc2[nH]5)C=C4)C=C3)cc1
REMARK SMILES IDX 30 1 29 2 28 3 26 4 27 5 4 7 2 8 1 9 3 10 5 11 6 12 7 14
REMARK SMILES IDX 8 15 9 16 17 17 18 18 19 20 20 21 21 22 25 23 22 24 24 25
REMARK SMILES IDX 23 26 10 27 11 28 15 29 12 30 14 31 16 32 13 33 31 34 32 35
REMARK SMILES IDX 33 36 34 37 35 38 36 39 37 41 38 42 39 43 91 44 40 45 90 46
REMARK SMILES IDX 41 47 42 48 43 49 84 50 44 51 89 52 83 53 85 54 45 55 88 56
REMARK SMILES IDX 82 57 81 58 46 60 72 61 55 62 71 63 56 64 59 65 70 66 86 67
REMARK SMILES IDX 57 68 58 69 69 71 87 72 60 73 47 74 48 75 53 76 49 77 50 78
REMARK SMILES IDX 52 79 54 80 51 81 73 82 74 83 79 84 75 85 76 86 78 87 80 88
REMARK SMILES IDX 77 89 61 90 62 91 67 92 63 93 64 94 66 95 68 96 65 97
REMARK H PARENT 28 6 5 13 17 19 35 40 85 59 59 70
REMARK Flexibility Score: inf
ROOT
ATOM      1  C   UNL A   1      36.781  22.963  24.237  1.00  0.00     0.021 C 
ENDROOT
BRANCH   1   2
ATOM      2  C   UNL A   1      35.461  23.719  24.190  1.00  0.00     0.116 C 
BRANCH   2   3
ATOM      3  N   UNL A   1      34.761  23.286  23.008  1.00  0.00    -0.354 N 
ATOM      4  C   UNL A   1      33.441  23.483  22.766  1.00  0.00     0.242 C 
ATOM      5  O   UNL A   1      32.783  22.515  22.380  1.00  0.00    -0.273 OA
ATOM      6  H   UNL A   1      35.282  22.811  22.322  1.00  0.00     0.163 HD
BRANCH   4   7
ATOM      7  C   UNL A   1      32.776  24.805  23.147  1.00  0.00     0.174 C 
BRANCH   7   8
ATOM      8  C   UNL A   1      33.167  25.907  22.100  1.00  0.00     0.015 C 
ATOM      9  C   UNL A   1      32.489  25.676  20.745  1.00  0.00     0.010 C 
ATOM     10  C   UNL A   1      32.822  27.342  22.550  1.00  0.00     0.010 C 
ENDBRANCH   7   8
BRANCH   7  11
ATOM     11  N   UNL A   1      31.308  24.689  23.343  1.00  0.00    -0.339 N 
ATOM     12  C   UNL A   1      30.534  25.495  24.158  1.00  0.00     0.268 C 
ATOM     13  H   UNL A   1      30.844  23.974  22.849  1.00  0.00     0.164 HD
ATOM     14  O   UNL A   1      29.640  26.164  23.639  1.00  0.00    -0.268 OA
BRANCH  12  15
ATOM     15  C   UNL A   1      30.577  25.350  25.666  1.00  0.00     0.107 C 
ATOM     16  C   UNL A   1      31.217  26.212  26.491  1.00  0.00     0.043 C 
BRANCH  15  17
ATOM     17  N   UNL A   1      29.865  24.342  26.310  1.00  0.00    -0.317 N 
ATOM     18  C   UNL A   1      30.149  23.084  26.776  1.00  0.00     0.255 C 
ATOM     19  H   UNL A   1      28.926  24.594  26.469  1.00  0.00     0.170 HD
ATOM     20  O   UNL A   1      29.254  22.425  27.308  1.00  0.00    -0.269 OA
BRANCH  18  21
ATOM     21  C   UNL A   1      31.474  22.480  26.667  1.00  0.00     0.040 A 
ATOM     22  C   UNL A   1      32.455  22.832  27.597  1.00  0.00     0.014 A 
ATOM     23  C   UNL A   1      31.770  21.643  25.590  1.00  0.00     0.014 A 
ATOM     24  C   UNL A   1      33.727  22.273  27.490  1.00  0.00     0.001 A 
ATOM     25  C   UNL A   1      33.041  21.080  25.493  1.00  0.00     0.001 A 
ATOM     26  C   UNL A   1      34.013  21.387  26.448  1.00  0.00     0.000 A 
ENDBRANCH  18  21
ENDBRANCH  15  17
BRANCH  16  27
ATOM     27  C   UNL A   1      32.101  27.346  26.200  1.00  0.00     0.012 A 
ATOM     28  C   UNL A   1      31.504  28.616  26.106  1.00  0.00     0.011 A 
ATOM     29  C   UNL A   1      33.484  27.251  26.064  1.00  0.00     0.130 A 
ATOM     30  C   UNL A   1      32.293  29.767  26.037  1.00  0.00     0.001 A 
ATOM     31  C   UNL A   1      34.275  28.394  25.980  1.00  0.00     0.040 A 
ATOM     32  F   UNL A   1      34.084  26.054  26.042  1.00  0.00    -0.206 F 
ATOM     33  C   UNL A   1      33.681  29.656  26.006  1.00  0.00     0.003 A 
ENDBRANCH  16  27
ENDBRANCH  12  15
ENDBRANCH   7  11
ENDBRANCH   4   7
ENDBRANCH   2   3
ENDBRANCH   1   2
BRANCH   1  34
ATOM     34  C   UNL A   1      37.267  22.741  25.675  1.00  0.00     0.002 C 
BRANCH  34  35
ATOM     35  C   UNL A   1      38.685  22.170  25.777  1.00  0.00     0.002 C 
BRANCH  35  36
ATOM     36  C   UNL A   1      38.807  20.708  25.343  1.00  0.00     0.021 C 
BRANCH  36  37
ATOM     37  C   UNL A   1      39.459  19.805  26.381  1.00  0.00     0.116 C 
BRANCH  37  38
ATOM     38  N   UNL A   1      40.677  19.190  25.890  1.00  0.00    -0.352 N 
ATOM     39  C   UNL A   1      41.926  19.748  25.801  1.00  0.00     0.251 C 
ATOM     40  H   UNL A   1      40.596  18.257  25.584  1.00  0.00     0.163 HD
ATOM     41  O   UNL A   1      42.838  19.164  25.235  1.00  0.00    -0.269 OA
BRANCH  39  42
ATOM     42  C   UNL A   1      42.139  21.092  26.375  1.00  0.00     0.039 A 
ATOM     43  C   UNL A   1      42.140  21.232  27.763  1.00  0.00     0.014 A 
ATOM     44  C   UNL A   1      42.382  22.191  25.545  1.00  0.00     0.014 A 
ATOM     45  C   UNL A   1      42.429  22.476  28.324  1.00  0.00     0.010 A 
ATOM     46  C   UNL A   1      42.742  23.410  26.107  1.00  0.00     0.010 A 
ATOM     47  C   UNL A   1      42.759  23.567  27.501  1.00  0.00    -0.014 A 
BRANCH  47  48
ATOM     48  C   UNL A   1      43.114  24.882  28.088  1.00  0.00     0.031 A 
ATOM     49  C   UNL A   1      42.045  25.909  28.331  1.00  0.00     0.074 A 
ATOM     50  C   UNL A   1      44.401  25.164  28.365  1.00  0.00     0.049 A 
ATOM     51  N   UNL A   1      42.162  27.128  28.793  1.00  0.00    -0.248 NA
ATOM     52  C   UNL A   1      40.665  25.528  27.986  1.00  0.00     0.031 C 
ATOM     53  C   UNL A   1      45.532  24.261  28.138  1.00  0.00     0.029 A 
ATOM     54  N   UNL A   1      44.976  26.290  28.897  1.00  0.00    -0.354 N 
ATOM     55  C   UNL A   1      40.878  27.657  28.790  1.00  0.00     0.074 A 
ATOM     56  C   UNL A   1      40.005  26.652  28.225  1.00  0.00     0.031 C 
ATOM     57  C   UNL A   1      46.658  24.856  28.560  1.00  0.00     0.029 A 
ATOM     58  C   UNL A   1      46.339  26.193  29.048  1.00  0.00     0.049 A 
ATOM     59  H   UNL A   1      44.462  27.092  29.146  1.00  0.00     0.167 HD
ATOM     60  C   UNL A   1      40.461  28.861  29.244  1.00  0.00     0.037 A 
ATOM     61  C   UNL A   1      47.229  27.084  29.525  1.00  0.00     0.037 A 
ATOM     62  C   UNL A   1      41.330  29.847  29.831  1.00  0.00     0.049 A 
ATOM     63  C   UNL A   1      46.744  28.423  30.007  1.00  0.00     0.074 A 
ATOM     64  C   UNL A   1      40.993  31.076  30.368  1.00  0.00     0.029 A 
ATOM     65  N   UNL A   1      42.703  29.714  29.961  1.00  0.00    -0.354 N 
ATOM     66  N   UNL A   1      45.520  28.891  30.044  1.00  0.00    -0.248 NA
ATOM     67  C   UNL A   1      47.760  29.357  30.514  1.00  0.00     0.031 C 
ATOM     68  C   UNL A   1      42.168  31.709  30.779  1.00  0.00     0.029 A 
ATOM     69  C   UNL A   1      43.232  30.851  30.548  1.00  0.00     0.049 A 
ATOM     70  H   UNL A   1      43.225  28.928  29.677  1.00  0.00     0.167 HD
ATOM     71  C   UNL A   1      45.615  30.161  30.599  1.00  0.00     0.074 A 
ATOM     72  C   UNL A   1      47.015  30.386  30.893  1.00  0.00     0.031 C 
ATOM     73  C   UNL A   1      44.628  31.058  30.840  1.00  0.00     0.037 A 
BRANCH  60  74
ATOM     74  C   UNL A   1      38.998  29.179  29.140  1.00  0.00     0.057 A 
ATOM     75  C   UNL A   1      38.158  29.060  30.254  1.00  0.00     0.134 A 
ATOM     76  C   UNL A   1      38.408  29.536  27.920  1.00  0.00     0.134 A 
ATOM     77  F   UNL A   1      38.657  28.717  31.450  1.00  0.00    -0.206 F 
ATOM     78  C   UNL A   1      36.782  29.272  30.156  1.00  0.00     0.040 A 
ATOM     79  C   UNL A   1      37.037  29.779  27.815  1.00  0.00     0.040 A 
ATOM     80  F   UNL A   1      39.158  29.679  26.817  1.00  0.00    -0.206 F 
ATOM     81  C   UNL A   1      36.219  29.636  28.934  1.00  0.00     0.006 A 
ENDBRANCH  60  74
BRANCH  61  82
ATOM     82  C   UNL A   1      48.666  26.717  29.600  1.00  0.00     0.057 A 
ATOM     83  C   UNL A   1      49.218  26.138  30.749  1.00  0.00     0.134 A 
ATOM     84  C   UNL A   1      49.529  26.966  28.526  1.00  0.00     0.134 A 
ATOM     85  F   UNL A   1      48.445  25.881  31.815  1.00  0.00    -0.206 F 
ATOM     86  C   UNL A   1      50.577  25.839  30.836  1.00  0.00     0.040 A 
ATOM     87  C   UNL A   1      50.886  26.650  28.590  1.00  0.00     0.040 A 
ATOM     88  F   UNL A   1      49.056  27.503  27.391  1.00  0.00    -0.206 F 
ATOM     89  C   UNL A   1      51.417  26.091  29.752  1.00  0.00     0.006 A 
ENDBRANCH  61  82
BRANCH  73  90
ATOM     90  C   UNL A   1      45.011  32.363  31.475  1.00  0.00     0.057 A 
ATOM     91  C   UNL A   1      45.002  32.508  32.868  1.00  0.00     0.134 A 
ATOM     92  C   UNL A   1      45.302  33.497  30.706  1.00  0.00     0.134 A 
ATOM     93  F   UNL A   1      44.719  31.463  33.659  1.00  0.00    -0.206 F 
ATOM     94  C   UNL A   1      45.248  33.740  33.474  1.00  0.00     0.040 A 
ATOM     95  C   UNL A   1      45.576  34.729  31.303  1.00  0.00     0.040 A 
ATOM     96  F   UNL A   1      45.336  33.421  29.367  1.00  0.00    -0.206 F 
ATOM     97  C   UNL A   1      45.537  34.855  32.690  1.00  0.00     0.006 A 
ENDBRANCH  73  90
ENDBRANCH  47  48
ENDBRANCH  39  42
ENDBRANCH  37  38
ENDBRANCH  36  37
ENDBRANCH  35  36
ENDBRANCH  34  35
ENDBRANCH   1  34
TORSDOF 19
ENDMDL
MODEL 3
REMARK VINA RESULT:     -11.2      3.925      7.682
REMARK SMILES CC(C)[C@@H](NC(=O)/C(=C\c1ccccc1F)NC(=O)c1ccccc1)C(=O)NCCCCCCNC(=O)c1ccc(-c2c3nc(c(-c4c(F)cccc4F)c4ccc([nH]4)c(-c4c(F)cccc4F)c4nc(c(-c5c(F)cccc5F)c5ccc2[nH]5)C=C4)C=C3)cc1
REMARK SMILES IDX 30 1 29 2 28 3 26 4 27 5 4 7 2 8 1 9 3 10 5 11 6 12 7 14
REMARK SMILES IDX 8 15 9 16 17 17 18 18 19 20 20 21 21 22 25 23 22 24 24 25
REMARK SMILES IDX 23 26 10 27 11 28 15 29 12 30 14 31 16 32 13 33 31 34 32 35
REMARK SMILES IDX 33 36 34 37 35 38 36 39 37 41 38 42 39 43 91 44 40 45 90 46
REMARK SMILES IDX 41 47 42 48 43 49 84 50 44 51 89 52 83 53 85 54 45 55 88 56
REMARK SMILES IDX 82 57 81 58 46 60 72 61 55 62 71 63 56 64 59 65 70 66 86 67
REMARK SMILES IDX 57 68 58 69 69 71 87 72 60 73 47 74 48 75 53 76 49 77 50 78
REMARK SMILES IDX 52 79 54 80 51 81 73 82 74 83 79 84 75 85 76 86 78 87 80 88
REMARK SMILES IDX 77 89 61 90 62 91 67 92 63 93 64 94 66 95 68 96 65 97
REMARK H PARENT 28 6 5 13 17 19 35 40 85 59 59 70
REMARK Flexibility Score: inf
ROOT
ATOM      1  C   UNL A   1      36.348  23.361  23.410  1.00  0.00     0.021 C 
ENDROOT
BRANCH   1   2
ATOM      2  C   UNL A   1      34.906  23.734  23.719  1.00  0.00     0.116 C 
BRANCH   2   3
ATOM      3  N   UNL A   1      34.100  23.283  22.613  1.00  0.00    -0.354 N 
ATOM      4  C   UNL A   1      32.764  23.481  22.489  1.00  0.00     0.242 C 
ATOM      5  O   UNL A   1      32.072  22.510  22.181  1.00  0.00    -0.273 OA
ATOM      6  H   UNL A   1      34.555  22.795  21.890  1.00  0.00     0.163 HD
BRANCH   4   7
ATOM      7  C   UNL A   1      32.140  24.812  22.905  1.00  0.00     0.174 C 
BRANCH   7   8
ATOM      8  C   UNL A   1      32.333  25.863  21.754  1.00  0.00     0.015 C 
ATOM      9  C   UNL A   1      33.394  26.911  22.108  1.00  0.00     0.010 C 
ATOM     10  C   UNL A   1      32.735  25.237  20.402  1.00  0.00     0.010 C 
ENDBRANCH   7   8
BRANCH   7  11
ATOM     11  N   UNL A   1      30.725  24.687  23.340  1.00  0.00    -0.339 N 
ATOM     12  C   UNL A   1      30.085  25.503  24.254  1.00  0.00     0.268 C 
ATOM     13  H   UNL A   1      30.196  23.958  22.943  1.00  0.00     0.164 HD
ATOM     14  O   UNL A   1      29.109  26.153  23.875  1.00  0.00    -0.268 OA
BRANCH  12  15
ATOM     15  C   UNL A   1      30.375  25.393  25.738  1.00  0.00     0.107 C 
ATOM     16  C   UNL A   1      31.164  26.254  26.420  1.00  0.00     0.043 C 
BRANCH  15  17
ATOM     17  N   UNL A   1      29.755  24.421  26.519  1.00  0.00    -0.317 N 
ATOM     18  C   UNL A   1      30.089  23.173  26.981  1.00  0.00     0.255 C 
ATOM     19  H   UNL A   1      28.856  24.697  26.810  1.00  0.00     0.170 HD
ATOM     20  O   UNL A   1      29.276  22.551  27.666  1.00  0.00    -0.269 OA
BRANCH  18  21
ATOM     21  C   UNL A   1      31.373  22.540  26.693  1.00  0.00     0.040 A 
ATOM     22  C   UNL A   1      31.474  21.694  25.586  1.00  0.00     0.014 A 
ATOM     23  C   UNL A   1      32.444  22.709  27.571  1.00  0.00     0.014 A 
ATOM     24  C   UNL A   1      32.691  21.073  25.314  1.00  0.00     0.001 A 
ATOM     25  C   UNL A   1      33.661  22.093  27.289  1.00  0.00     0.001 A 
ATOM     26  C   UNL A   1      33.786  21.285  26.156  1.00  0.00     0.000 A 
ENDBRANCH  18  21
ENDBRANCH  15  17
BRANCH  16  27
ATOM     27  C   UNL A   1      32.016  27.355  25.955  1.00  0.00     0.012 A 
ATOM     28  C   UNL A   1      31.382  28.577  25.668  1.00  0.00     0.011 A 
ATOM     29  C   UNL A   1      33.401  27.280  25.832  1.00  0.00     0.130 A 
ATOM     30  C   UNL A   1      32.137  29.727  25.419  1.00  0.00     0.001 A 
ATOM     31  C   UNL A   1      34.158  28.420  25.570  1.00  0.00     0.040 A 
ATOM     32  F   UNL A   1      34.036  26.113  25.993  1.00  0.00    -0.206 F 
ATOM     33  C   UNL A   1      33.528  29.653  25.402  1.00  0.00     0.003 A 
ENDBRANCH  16  27
ENDBRANCH  12  15
ENDBRANCH   7  11
ENDBRANCH   4   7
ENDBRANCH   2   3
ENDBRANCH   1   2
BRANCH   1  34
ATOM     34  C   UNL A   1      36.831  22.176  24.255  1.00  0.00     0.002 C 
BRANCH  34  35
ATOM     35  C   UNL A   1      37.153  22.532  25.710  1.00  0.00     0.002 C 
BRANCH  35  36
ATOM     36  C   UNL A   1      37.950  23.825  25.880  1.00  0.00     0.021 C 
BRANCH  36  37
ATOM     37  C   UNL A   1      39.133  23.705  26.829  1.00  0.00     0.116 C 
BRANCH  37  38
ATOM     38  N   UNL A   1      40.404  23.872  26.152  1.00  0.00    -0.352 N 
ATOM     39  C   UNL A   1      41.291  24.912  26.267  1.00  0.00     0.251 C 
ATOM     40  H   UNL A   1      40.662  23.150  25.534  1.00  0.00     0.163 HD
ATOM     41  O   UNL A   1      42.262  24.997  25.530  1.00  0.00    -0.269 OA
BRANCH  39  42
ATOM     42  C   UNL A   1      41.028  25.952  27.282  1.00  0.00     0.039 A 
ATOM     43  C   UNL A   1      40.165  25.652  28.337  1.00  0.00     0.014 A 
ATOM     44  C   UNL A   1      41.666  27.193  27.212  1.00  0.00     0.014 A 
ATOM     45  C   UNL A   1      39.975  26.588  29.352  1.00  0.00     0.010 A 
ATOM     46  C   UNL A   1      41.533  28.095  28.263  1.00  0.00     0.010 A 
ATOM     47  C   UNL A   1      40.679  27.805  29.337  1.00  0.00    -0.014 A 
BRANCH  47  48
ATOM     48  C   UNL A   1      40.520  28.789  30.435  1.00  0.00     0.031 A 
ATOM     49  C   UNL A   1      39.455  29.845  30.350  1.00  0.00     0.074 A 
ATOM     50  C   UNL A   1      41.359  28.755  31.488  1.00  0.00     0.049 A 
ATOM     51  N   UNL A   1      39.189  30.818  31.184  1.00  0.00    -0.248 NA
ATOM     52  C   UNL A   1      38.590  29.823  29.159  1.00  0.00     0.031 C 
ATOM     53  C   UNL A   1      42.455  27.800  31.665  1.00  0.00     0.029 A 
ATOM     54  N   UNL A   1      41.422  29.544  32.608  1.00  0.00    -0.354 N 
ATOM     55  C   UNL A   1      38.134  31.522  30.618  1.00  0.00     0.074 A 
ATOM     56  C   UNL A   1      37.847  30.904  29.343  1.00  0.00     0.031 C 
ATOM     57  C   UNL A   1      43.059  28.038  32.839  1.00  0.00     0.029 A 
ATOM     58  C   UNL A   1      42.422  29.185  33.479  1.00  0.00     0.049 A 
ATOM     59  H   UNL A   1      40.810  30.298  32.772  1.00  0.00     0.167 HD
ATOM     60  C   UNL A   1      37.449  32.570  31.131  1.00  0.00     0.037 A 
ATOM     61  C   UNL A   1      42.784  29.720  34.661  1.00  0.00     0.037 A 
ATOM     62  C   UNL A   1      37.722  33.162  32.413  1.00  0.00     0.049 A 
ATOM     63  C   UNL A   1      42.019  30.896  35.201  1.00  0.00     0.074 A 
ATOM     64  C   UNL A   1      37.049  34.195  33.041  1.00  0.00     0.029 A 
ATOM     65  N   UNL A   1      38.746  32.774  33.263  1.00  0.00    -0.354 N 
ATOM     66  N   UNL A   1      40.992  31.521  34.678  1.00  0.00    -0.248 NA
ATOM     67  C   UNL A   1      42.460  31.442  36.493  1.00  0.00     0.031 C 
ATOM     68  C   UNL A   1      37.695  34.464  34.250  1.00  0.00     0.029 A 
ATOM     69  C   UNL A   1      38.737  33.563  34.401  1.00  0.00     0.049 A 
ATOM     70  H   UNL A   1      39.384  32.045  33.084  1.00  0.00     0.167 HD
ATOM     71  C   UNL A   1      40.649  32.515  35.585  1.00  0.00     0.074 A 
ATOM     72  C   UNL A   1      41.570  32.404  36.697  1.00  0.00     0.031 C 
ATOM     73  C   UNL A   1      39.659  33.437  35.502  1.00  0.00     0.037 A 
BRANCH  60  74
ATOM     74  C   UNL A   1      36.327  33.138  30.313  1.00  0.00     0.057 A 
ATOM     75  C   UNL A   1      36.586  34.022  29.258  1.00  0.00     0.134 A 
ATOM     76  C   UNL A   1      34.986  32.865  30.612  1.00  0.00     0.134 A 
ATOM     77  F   UNL A   1      37.847  34.332  28.921  1.00  0.00    -0.206 F 
ATOM     78  C   UNL A   1      35.551  34.624  28.539  1.00  0.00     0.040 A 
ATOM     79  C   UNL A   1      33.943  33.437  29.883  1.00  0.00     0.040 A 
ATOM     80  F   UNL A   1      34.670  32.017  31.603  1.00  0.00    -0.206 F 
ATOM     81  C   UNL A   1      34.225  34.329  28.850  1.00  0.00     0.006 A 
ENDBRANCH  60  74
BRANCH  61  82
ATOM     82  C   UNL A   1      43.907  29.120  35.425  1.00  0.00     0.057 A 
ATOM     83  C   UNL A   1      43.698  28.093  36.354  1.00  0.00     0.134 A 
ATOM     84  C   UNL A   1      45.217  29.584  35.262  1.00  0.00     0.134 A 
ATOM     85  F   UNL A   1      42.463  27.610  36.562  1.00  0.00    -0.206 F 
ATOM     86  C   UNL A   1      44.746  27.563  37.107  1.00  0.00     0.040 A 
ATOM     87  C   UNL A   1      46.279  29.047  35.991  1.00  0.00     0.040 A 
ATOM     88  F   UNL A   1      45.484  30.554  34.375  1.00  0.00    -0.206 F 
ATOM     89  C   UNL A   1      46.044  28.038  36.924  1.00  0.00     0.006 A 
ENDBRANCH  61  82
BRANCH  73  90
ATOM     90  C   UNL A   1      39.495  34.391  36.648  1.00  0.00     0.057 A 
ATOM     91  C   UNL A   1      40.091  35.659  36.612  1.00  0.00     0.134 A 
ATOM     92  C   UNL A   1      38.825  34.023  37.821  1.00  0.00     0.134 A 
ATOM     93  F   UNL A   1      40.758  36.066  35.521  1.00  0.00    -0.206 F 
ATOM     94  C   UNL A   1      40.044  36.518  37.709  1.00  0.00     0.040 A 
ATOM     95  C   UNL A   1      38.749  34.886  38.916  1.00  0.00     0.040 A 
ATOM     96  F   UNL A   1      38.225  32.827  37.915  1.00  0.00    -0.206 F 
ATOM     97  C   UNL A   1      39.369  36.132  38.866  1.00  0.00     0.006 A 
ENDBRANCH  73  90
ENDBRANCH  47  48
ENDBRANCH  39  42
ENDBRANCH  37  38
ENDBRANCH  36  37
ENDBRANCH  35  36
ENDBRANCH  34  35
ENDBRANCH   1  34
TORSDOF 19
ENDMDL
