MODEL 1
REMARK VINA RESULT:      -9.4      0.000      0.000
REMARK SMILES C#CCN(CC(=O)NCCCCCCNC(=O)c1ccc(-c2c3nc(c(-c4c(F)cccc4F)c4ccc([nH]4)c(-c4c(F)cccc4F)c4nc(c(-c5c(F)cccc5F)c5ccc2[nH]5)C=C4)C=C3)cc1)C(=O)N[C@@H](C)CCCC
REMARK SMILES IDX 9 1 8 2 6 3 7 4 5 6 4 7 3 8 2 9 1 10 72 11 73 12 74 13 75 15
REMARK SMILES IDX 76 16 77 17 78 18 79 19 80 20 10 21 11 22 12 23 13 24 14 25
REMARK SMILES IDX 15 26 16 27 17 29 18 30 19 31 71 32 20 33 70 34 21 35 22 36
REMARK SMILES IDX 23 37 64 38 24 39 69 40 63 41 65 42 25 43 68 44 62 45 61 46
REMARK SMILES IDX 26 48 52 49 35 50 51 51 36 52 39 53 50 54 66 55 37 56 38 57
REMARK SMILES IDX 49 59 67 60 40 61 27 62 28 63 33 64 29 65 30 66 32 67 34 68
REMARK SMILES IDX 31 69 53 70 54 71 59 72 55 73 56 74 58 75 60 76 57 77 41 78
REMARK SMILES IDX 42 79 47 80 43 81 44 82 46 83 48 84 45 85
REMARK H PARENT 8 5 74 14 15 28 65 47 39 58
REMARK Flexibility Score: inf
ROOT
ATOM      1  C   UNL A   1      33.074  27.257  26.275  1.00  0.00     0.116 C 
ENDROOT
BRANCH   1   2
ATOM      2  N   UNL A   1      31.835  26.681  26.731  1.00  0.00    -0.355 N 
ATOM      3  C   UNL A   1      30.718  26.381  26.020  1.00  0.00     0.239 C 
ATOM      4  O   UNL A   1      29.907  25.613  26.549  1.00  0.00    -0.273 OA
ATOM      5  H   UNL A   1      31.793  26.475  27.693  1.00  0.00     0.163 HD
BRANCH   3   6
ATOM      6  C   UNL A   1      30.543  26.829  24.558  1.00  0.00     0.222 C 
BRANCH   6   7
ATOM      7  N   UNL A   1      31.148  25.989  23.519  1.00  0.00    -0.304 N 
BRANCH   7   8
ATOM      8  C   UNL A   1      31.712  26.695  22.373  1.00  0.00     0.211 C 
BRANCH   8   9
ATOM      9  C   UNL A   1      32.542  27.919  22.724  1.00  0.00    -0.085 C 
ATOM     10  C   UNL A   1      33.255  28.968  23.026  1.00  0.00     0.006 C 
ENDBRANCH   8   9
ENDBRANCH   7   8
BRANCH   7  11
ATOM     11  C   UNL A   1      31.240  24.628  23.481  1.00  0.00     0.318 C 
ATOM     12  O   UNL A   1      30.290  23.930  23.104  1.00  0.00    -0.249 OA
ATOM     13  N   UNL A   1      32.328  23.928  23.836  1.00  0.00    -0.336 N 
ATOM     14  H   UNL A   1      32.200  22.967  23.661  1.00  0.00     0.165 HD
BRANCH  13  15
ATOM     15  C   UNL A   1      33.642  24.184  24.405  1.00  0.00     0.080 C 
ATOM     16  C   UNL A   1      33.721  23.502  25.774  1.00  0.00     0.031 C 
BRANCH  15  17
ATOM     17  C   UNL A   1      34.777  23.679  23.498  1.00  0.00     0.024 C 
BRANCH  17  18
ATOM     18  C   UNL A   1      35.830  22.771  24.148  1.00  0.00     0.002 C 
BRANCH  18  19
ATOM     19  C   UNL A   1      37.154  23.402  24.579  1.00  0.00    -0.003 C 
ATOM     20  C   UNL A   1      37.824  22.747  25.778  1.00  0.00     0.004 C 
ENDBRANCH  18  19
ENDBRANCH  17  18
ENDBRANCH  15  17
ENDBRANCH  13  15
ENDBRANCH   7  11
ENDBRANCH   6   7
ENDBRANCH   3   6
ENDBRANCH   1   2
BRANCH   1  21
ATOM     21  C   UNL A   1      33.421  28.544  27.016  1.00  0.00     0.021 C 
BRANCH  21  22
ATOM     22  C   UNL A   1      32.214  29.440  27.316  1.00  0.00     0.002 C 
BRANCH  22  23
ATOM     23  C   UNL A   1      31.802  30.387  26.183  1.00  0.00     0.002 C 
BRANCH  23  24
ATOM     24  C   UNL A   1      31.521  31.829  26.609  1.00  0.00     0.021 C 
BRANCH  24  25
ATOM     25  C   UNL A   1      32.692  32.520  27.289  1.00  0.00     0.116 C 
BRANCH  25  26
ATOM     26  N   UNL A   1      32.415  33.921  27.550  1.00  0.00    -0.352 N 
ATOM     27  C   UNL A   1      33.014  34.757  28.463  1.00  0.00     0.251 C 
ATOM     28  H   UNL A   1      31.704  34.326  27.003  1.00  0.00     0.163 HD
ATOM     29  O   UNL A   1      32.542  35.852  28.717  1.00  0.00    -0.269 OA
BRANCH  27  30
ATOM     30  C   UNL A   1      34.238  34.293  29.152  1.00  0.00     0.039 A 
ATOM     31  C   UNL A   1      34.119  33.581  30.347  1.00  0.00     0.014 A 
ATOM     32  C   UNL A   1      35.495  34.542  28.594  1.00  0.00     0.014 A 
ATOM     33  C   UNL A   1      35.264  33.065  30.957  1.00  0.00     0.010 A 
ATOM     34  C   UNL A   1      36.625  33.967  29.164  1.00  0.00     0.010 A 
ATOM     35  C   UNL A   1      36.520  33.227  30.353  1.00  0.00    -0.014 A 
BRANCH  35  36
ATOM     36  C   UNL A   1      37.756  32.665  30.952  1.00  0.00     0.031 A 
ATOM     37  C   UNL A   1      38.376  31.437  30.347  1.00  0.00     0.074 A 
ATOM     38  C   UNL A   1      38.266  33.200  32.077  1.00  0.00     0.049 A 
ATOM     39  N   UNL A   1      39.349  30.691  30.801  1.00  0.00    -0.248 NA
ATOM     40  C   UNL A   1      37.803  30.971  29.073  1.00  0.00     0.031 C 
ATOM     41  C   UNL A   1      37.740  34.376  32.774  1.00  0.00     0.029 A 
ATOM     42  N   UNL A   1      39.330  32.807  32.849  1.00  0.00    -0.354 N 
ATOM     43  C   UNL A   1      39.494  29.662  29.879  1.00  0.00     0.074 A 
ATOM     44  C   UNL A   1      38.475  29.848  28.870  1.00  0.00     0.031 C 
ATOM     45  C   UNL A   1      38.486  34.610  33.866  1.00  0.00     0.029 A 
ATOM     46  C   UNL A   1      39.512  33.577  33.973  1.00  0.00     0.049 A 
ATOM     47  H   UNL A   1      39.909  32.044  32.620  1.00  0.00     0.167 HD
ATOM     48  C   UNL A   1      40.411  28.665  29.862  1.00  0.00     0.037 A 
ATOM     49  C   UNL A   1      40.392  33.450  34.983  1.00  0.00     0.037 A 
ATOM     50  C   UNL A   1      41.435  28.494  30.856  1.00  0.00     0.049 A 
ATOM     51  C   UNL A   1      41.381  32.315  34.957  1.00  0.00     0.074 A 
ATOM     52  C   UNL A   1      42.424  27.529  30.919  1.00  0.00     0.029 A 
ATOM     53  N   UNL A   1      41.605  29.317  31.959  1.00  0.00    -0.354 N 
ATOM     54  N   UNL A   1      41.528  31.368  34.062  1.00  0.00    -0.248 NA
ATOM     55  C   UNL A   1      42.328  32.231  36.079  1.00  0.00     0.031 C 
ATOM     56  C   UNL A   1      43.175  27.749  32.077  1.00  0.00     0.029 A 
ATOM     57  C   UNL A   1      42.680  28.877  32.712  1.00  0.00     0.049 A 
ATOM     58  H   UNL A   1      41.045  30.098  32.174  1.00  0.00     0.167 HD
ATOM     59  C   UNL A   1      42.605  30.602  34.492  1.00  0.00     0.074 A 
ATOM     60  C   UNL A   1      43.077  31.197  35.724  1.00  0.00     0.031 C 
ATOM     61  C   UNL A   1      43.153  29.503  33.919  1.00  0.00     0.037 A 
BRANCH  48  62
ATOM     62  C   UNL A   1      40.351  27.692  28.721  1.00  0.00     0.057 A 
ATOM     63  C   UNL A   1      39.591  26.518  28.798  1.00  0.00     0.134 A 
ATOM     64  C   UNL A   1      41.028  27.946  27.523  1.00  0.00     0.134 A 
ATOM     65  F   UNL A   1      38.929  26.209  29.925  1.00  0.00    -0.206 F 
ATOM     66  C   UNL A   1      39.524  25.620  27.733  1.00  0.00     0.040 A 
ATOM     67  C   UNL A   1      40.948  27.069  26.440  1.00  0.00     0.040 A 
ATOM     68  F   UNL A   1      41.770  29.055  27.379  1.00  0.00    -0.206 F 
ATOM     69  C   UNL A   1      40.198  25.898  26.546  1.00  0.00     0.006 A 
ENDBRANCH  48  62
BRANCH  49  70
ATOM     70  C   UNL A   1      40.388  34.417  36.111  1.00  0.00     0.057 A 
ATOM     71  C   UNL A   1      41.173  35.574  36.072  1.00  0.00     0.134 A 
ATOM     72  C   UNL A   1      39.628  34.192  37.265  1.00  0.00     0.134 A 
ATOM     73  F   UNL A   1      41.937  35.836  35.001  1.00  0.00    -0.206 F 
ATOM     74  C   UNL A   1      41.227  36.459  37.151  1.00  0.00     0.040 A 
ATOM     75  C   UNL A   1      39.652  35.081  38.341  1.00  0.00     0.040 A 
ATOM     76  F   UNL A   1      38.848  33.105  37.363  1.00  0.00    -0.206 F 
ATOM     77  C   UNL A   1      40.463  36.213  38.290  1.00  0.00     0.006 A 
ENDBRANCH  49  70
BRANCH  61  78
ATOM     78  C   UNL A   1      44.360  28.908  34.581  1.00  0.00     0.057 A 
ATOM     79  C   UNL A   1      44.256  27.891  35.536  1.00  0.00     0.134 A 
ATOM     80  C   UNL A   1      45.646  29.320  34.205  1.00  0.00     0.134 A 
ATOM     81  F   UNL A   1      43.052  27.464  35.945  1.00  0.00    -0.206 F 
ATOM     82  C   UNL A   1      45.390  27.312  36.108  1.00  0.00     0.040 A 
ATOM     83  C   UNL A   1      46.787  28.731  34.751  1.00  0.00     0.040 A 
ATOM     84  F   UNL A   1      45.814  30.285  33.288  1.00  0.00    -0.206 F 
ATOM     85  C   UNL A   1      46.660  27.726  35.709  1.00  0.00     0.006 A 
ENDBRANCH  61  78
ENDBRANCH  35  36
ENDBRANCH  27  30
ENDBRANCH  25  26
ENDBRANCH  24  25
ENDBRANCH  23  24
ENDBRANCH  22  23
ENDBRANCH  21  22
ENDBRANCH   1  21
TORSDOF 21
ENDMDL
MODEL 2
REMARK VINA RESULT:      -9.1      6.460     10.837
REMARK SMILES C#CCN(CC(=O)NCCCCCCNC(=O)c1ccc(-c2c3nc(c(-c4c(F)cccc4F)c4ccc([nH]4)c(-c4c(F)cccc4F)c4nc(c(-c5c(F)cccc5F)c5ccc2[nH]5)C=C4)C=C3)cc1)C(=O)N[C@@H](C)CCCC
REMARK SMILES IDX 9 1 8 2 6 3 7 4 5 6 4 7 3 8 2 9 1 10 72 11 73 12 74 13 75 15
REMARK SMILES IDX 76 16 77 17 78 18 79 19 80 20 10 21 11 22 12 23 13 24 14 25
REMARK SMILES IDX 15 26 16 27 17 29 18 30 19 31 71 32 20 33 70 34 21 35 22 36
REMARK SMILES IDX 23 37 64 38 24 39 69 40 63 41 65 42 25 43 68 44 62 45 61 46
REMARK SMILES IDX 26 48 52 49 35 50 51 51 36 52 39 53 50 54 66 55 37 56 38 57
REMARK SMILES IDX 49 59 67 60 40 61 27 62 28 63 33 64 29 65 30 66 32 67 34 68
REMARK SMILES IDX 31 69 53 70 54 71 59 72 55 73 56 74 58 75 60 76 57 77 41 78
REMARK SMILES IDX 42 79 47 80 43 81 44 82 46 83 48 84 45 85
REMARK H PARENT 8 5 74 14 15 28 65 47 39 58
REMARK Flexibility Score: inf
ROOT
ATOM      1  C   UNL A   1      39.344  21.937  26.187  1.00  0.00     0.116 C 
ENDROOT
BRANCH   1   2
ATOM      2  N   UNL A   1      38.479  23.039  25.853  1.00  0.00    -0.355 N 
ATOM      3  C   UNL A   1      37.149  23.030  25.581  1.00  0.00     0.239 C 
ATOM      4  O   UNL A   1      36.560  24.116  25.632  1.00  0.00    -0.273 OA
ATOM      5  H   UNL A   1      38.913  23.922  25.817  1.00  0.00     0.163 HD
BRANCH   3   6
ATOM      6  C   UNL A   1      36.369  21.718  25.390  1.00  0.00     0.222 C 
BRANCH   6   7
ATOM      7  N   UNL A   1      34.909  21.778  25.514  1.00  0.00    -0.304 N 
BRANCH   7   8
ATOM      8  C   UNL A   1      34.214  22.583  24.514  1.00  0.00     0.211 C 
BRANCH   8   9
ATOM      9  C   UNL A   1      33.191  23.555  25.079  1.00  0.00    -0.085 C 
ATOM     10  C   UNL A   1      32.315  24.390  25.564  1.00  0.00     0.006 C 
ENDBRANCH   8   9
ENDBRANCH   7   8
BRANCH   7  11
ATOM     11  C   UNL A   1      34.115  21.185  26.454  1.00  0.00     0.318 C 
ATOM     12  O   UNL A   1      34.066  21.611  27.614  1.00  0.00    -0.249 OA
ATOM     13  N   UNL A   1      33.336  20.117  26.229  1.00  0.00    -0.336 N 
ATOM     14  H   UNL A   1      32.796  19.901  27.024  1.00  0.00     0.165 HD
BRANCH  13  15
ATOM     15  C   UNL A   1      33.061  19.186  25.145  1.00  0.00     0.080 C 
ATOM     16  C   UNL A   1      32.284  19.927  24.052  1.00  0.00     0.031 C 
BRANCH  15  17
ATOM     17  C   UNL A   1      34.346  18.579  24.558  1.00  0.00     0.024 C 
BRANCH  17  18
ATOM     18  C   UNL A   1      34.186  17.315  23.702  1.00  0.00     0.002 C 
BRANCH  18  19
ATOM     19  C   UNL A   1      34.301  15.958  24.398  1.00  0.00    -0.003 C 
ATOM     20  C   UNL A   1      35.464  15.825  25.370  1.00  0.00     0.004 C 
ENDBRANCH  18  19
ENDBRANCH  17  18
ENDBRANCH  15  17
ENDBRANCH  13  15
ENDBRANCH   7  11
ENDBRANCH   6   7
ENDBRANCH   3   6
ENDBRANCH   1   2
BRANCH   1  21
ATOM     21  C   UNL A   1      40.412  22.328  27.203  1.00  0.00     0.021 C 
BRANCH  21  22
ATOM     22  C   UNL A   1      41.747  21.598  27.020  1.00  0.00     0.002 C 
BRANCH  22  23
ATOM     23  C   UNL A   1      41.674  20.068  27.083  1.00  0.00     0.002 C 
BRANCH  23  24
ATOM     24  C   UNL A   1      42.222  19.338  25.855  1.00  0.00     0.021 C 
BRANCH  24  25
ATOM     25  C   UNL A   1      43.549  18.634  26.086  1.00  0.00     0.116 C 
BRANCH  25  26
ATOM     26  N   UNL A   1      44.291  18.460  24.850  1.00  0.00    -0.352 N 
ATOM     27  C   UNL A   1      44.837  19.425  24.036  1.00  0.00     0.251 C 
ATOM     28  H   UNL A   1      44.421  17.530  24.557  1.00  0.00     0.163 HD
ATOM     29  O   UNL A   1      45.255  19.146  22.925  1.00  0.00    -0.269 OA
BRANCH  27  30
ATOM     30  C   UNL A   1      44.888  20.819  24.526  1.00  0.00     0.039 A 
ATOM     31  C   UNL A   1      45.537  21.094  25.732  1.00  0.00     0.014 A 
ATOM     32  C   UNL A   1      44.317  21.849  23.774  1.00  0.00     0.014 A 
ATOM     33  C   UNL A   1      45.665  22.418  26.157  1.00  0.00     0.010 A 
ATOM     34  C   UNL A   1      44.508  23.170  24.162  1.00  0.00     0.010 A 
ATOM     35  C   UNL A   1      45.179  23.466  25.359  1.00  0.00    -0.014 A 
BRANCH  35  36
ATOM     36  C   UNL A   1      45.326  24.887  25.760  1.00  0.00     0.031 A 
ATOM     37  C   UNL A   1      46.681  25.535  25.697  1.00  0.00     0.074 A 
ATOM     38  C   UNL A   1      44.272  25.563  26.256  1.00  0.00     0.049 A 
ATOM     39  N   UNL A   1      47.063  26.701  26.150  1.00  0.00    -0.248 NA
ATOM     40  C   UNL A   1      47.756  24.752  25.065  1.00  0.00     0.031 C 
ATOM     41  C   UNL A   1      42.912  25.036  26.391  1.00  0.00     0.029 A 
ATOM     42  N   UNL A   1      44.186  26.835  26.763  1.00  0.00    -0.354 N 
ATOM     43  C   UNL A   1      48.422  26.784  25.871  1.00  0.00     0.074 A 
ATOM     44  C   UNL A   1      48.808  25.531  25.261  1.00  0.00     0.031 C 
ATOM     45  C   UNL A   1      42.128  25.979  26.940  1.00  0.00     0.029 A 
ATOM     46  C   UNL A   1      42.937  27.157  27.238  1.00  0.00     0.049 A 
ATOM     47  H   UNL A   1      44.948  27.458  26.786  1.00  0.00     0.167 HD
ATOM     48  C   UNL A   1      49.267  27.821  26.083  1.00  0.00     0.037 A 
ATOM     49  C   UNL A   1      42.502  28.268  27.861  1.00  0.00     0.037 A 
ATOM     50  C   UNL A   1      48.875  29.073  26.672  1.00  0.00     0.049 A 
ATOM     51  C   UNL A   1      43.468  29.395  28.112  1.00  0.00     0.074 A 
ATOM     52  C   UNL A   1      49.650  30.193  26.911  1.00  0.00     0.029 A 
ATOM     53  N   UNL A   1      47.592  29.370  27.106  1.00  0.00    -0.354 N 
ATOM     54  N   UNL A   1      44.742  29.473  27.815  1.00  0.00    -0.248 NA
ATOM     55  C   UNL A   1      42.935  30.589  28.785  1.00  0.00     0.031 C 
ATOM     56  C   UNL A   1      48.843  31.159  27.519  1.00  0.00     0.029 A 
ATOM     57  C   UNL A   1      47.556  30.655  27.619  1.00  0.00     0.049 A 
ATOM     58  H   UNL A   1      46.823  28.758  27.058  1.00  0.00     0.167 HD
ATOM     59  C   UNL A   1      45.153  30.734  28.227  1.00  0.00     0.074 A 
ATOM     60  C   UNL A   1      43.992  31.389  28.791  1.00  0.00     0.031 C 
ATOM     61  C   UNL A   1      46.382  31.300  28.147  1.00  0.00     0.037 A 
BRANCH  48  62
ATOM     62  C   UNL A   1      50.695  27.646  25.659  1.00  0.00     0.057 A 
ATOM     63  C   UNL A   1      51.691  27.280  26.574  1.00  0.00     0.134 A 
ATOM     64  C   UNL A   1      51.074  27.806  24.322  1.00  0.00     0.134 A 
ATOM     65  F   UNL A   1      51.395  27.125  27.875  1.00  0.00    -0.206 F 
ATOM     66  C   UNL A   1      53.017  27.103  26.179  1.00  0.00     0.040 A 
ATOM     67  C   UNL A   1      52.392  27.606  23.908  1.00  0.00     0.040 A 
ATOM     68  F   UNL A   1      50.169  28.149  23.392  1.00  0.00    -0.206 F 
ATOM     69  C   UNL A   1      53.369  27.259  24.840  1.00  0.00     0.006 A 
ENDBRANCH  48  62
BRANCH  49  70
ATOM     70  C   UNL A   1      41.086  28.380  28.296  1.00  0.00     0.057 A 
ATOM     71  C   UNL A   1      40.691  27.985  29.580  1.00  0.00     0.134 A 
ATOM     72  C   UNL A   1      40.090  28.850  27.432  1.00  0.00     0.134 A 
ATOM     73  F   UNL A   1      41.596  27.508  30.447  1.00  0.00    -0.206 F 
ATOM     74  C   UNL A   1      39.354  28.026  29.979  1.00  0.00     0.040 A 
ATOM     75  C   UNL A   1      38.753  28.921  27.827  1.00  0.00     0.040 A 
ATOM     76  F   UNL A   1      40.403  29.252  26.191  1.00  0.00    -0.206 F 
ATOM     77  C   UNL A   1      38.380  28.497  29.101  1.00  0.00     0.006 A 
ENDBRANCH  49  70
BRANCH  61  78
ATOM     78  C   UNL A   1      46.524  32.715  28.623  1.00  0.00     0.057 A 
ATOM     79  C   UNL A   1      46.888  33.021  29.939  1.00  0.00     0.134 A 
ATOM     80  C   UNL A   1      46.354  33.781  27.730  1.00  0.00     0.134 A 
ATOM     81  F   UNL A   1      47.052  32.044  30.843  1.00  0.00    -0.206 F 
ATOM     82  C   UNL A   1      47.064  34.341  30.356  1.00  0.00     0.040 A 
ATOM     83  C   UNL A   1      46.551  35.103  28.128  1.00  0.00     0.040 A 
ATOM     84  F   UNL A   1      46.013  33.554  26.452  1.00  0.00    -0.206 F 
ATOM     85  C   UNL A   1      46.905  35.386  29.447  1.00  0.00     0.006 A 
ENDBRANCH  61  78
ENDBRANCH  35  36
ENDBRANCH  27  30
ENDBRANCH  25  26
ENDBRANCH  24  25
ENDBRANCH  23  24
ENDBRANCH  22  23
ENDBRANCH  21  22
ENDBRANCH   1  21
TORSDOF 21
ENDMDL
MODEL 3
REMARK VINA RESULT:      -9.1      4.889      9.948
REMARK SMILES C#CCN(CC(=O)NCCCCCCNC(=O)c1ccc(-c2c3nc(c(-c4c(F)cccc4F)c4ccc([nH]4)c(-c4c(F)cccc4F)c4nc(c(-c5c(F)cccc5F)c5ccc2[nH]5)C=C4)C=C3)cc1)C(=O)N[C@@H](C)CCCC
REMARK SMILES IDX 9 1 8 2 6 3 7 4 5 6 4 7 3 8 2 9 1 10 72 11 73 12 74 13 75 15
REMARK SMILES IDX 76 16 77 17 78 18 79 19 80 20 10 21 11 22 12 23 13 24 14 25
REMARK SMILES IDX 15 26 16 27 17 29 18 30 19 31 71 32 20 33 70 34 21 35 22 36
REMARK SMILES IDX 23 37 64 38 24 39 69 40 63 41 65 42 25 43 68 44 62 45 61 46
REMARK SMILES IDX 26 48 52 49 35 50 51 51 36 52 39 53 50 54 66 55 37 56 38 57
REMARK SMILES IDX 49 59 67 60 40 61 27 62 28 63 33 64 29 65 30 66 32 67 34 68
REMARK SMILES IDX 31 69 53 70 54 71 59 72 55 73 56 74 58 75 60 76 57 77 41 78
REMARK SMILES IDX 42 79 47 80 43 81 44 82 46 83 48 84 45 85
REMARK H PARENT 8 5 74 14 15 28 65 47 39 58
REMARK Flexibility Score: inf
ROOT
ATOM      1  C   UNL A   1      35.543  24.015  25.179  1.00  0.00     0.116 C 
ENDROOT
BRANCH   1   2
ATOM      2  N   UNL A   1      35.144  23.488  26.459  1.00  0.00    -0.355 N 
ATOM      3  C   UNL A   1      34.112  22.658  26.758  1.00  0.00     0.239 C 
ATOM      4  O   UNL A   1      34.149  22.092  27.855  1.00  0.00    -0.273 OA
ATOM      5  H   UNL A   1      35.698  23.768  27.223  1.00  0.00     0.163 HD
BRANCH   3   6
ATOM      6  C   UNL A   1      33.033  22.299  25.720  1.00  0.00     0.222 C 
BRANCH   6   7
ATOM      7  N   UNL A   1      31.925  23.244  25.546  1.00  0.00    -0.304 N 
BRANCH   7   8
ATOM      8  C   UNL A   1      31.439  23.418  24.181  1.00  0.00     0.211 C 
BRANCH   8   9
ATOM      9  C   UNL A   1      31.777  22.277  23.235  1.00  0.00    -0.085 C 
ATOM     10  C   UNL A   1      32.067  21.298  22.424  1.00  0.00     0.006 C 
ENDBRANCH   8   9
ENDBRANCH   7   8
BRANCH   7  11
ATOM     11  C   UNL A   1      31.296  23.992  26.499  1.00  0.00     0.318 C 
ATOM     12  O   UNL A   1      30.669  23.461  27.424  1.00  0.00    -0.249 OA
ATOM     13  N   UNL A   1      31.288  25.333  26.532  1.00  0.00    -0.336 N 
ATOM     14  H   UNL A   1      30.838  25.663  27.343  1.00  0.00     0.165 HD
BRANCH  13  15
ATOM     15  C   UNL A   1      31.757  26.439  25.710  1.00  0.00     0.080 C 
ATOM     16  C   UNL A   1      30.561  27.026  24.955  1.00  0.00     0.031 C 
BRANCH  15  17
ATOM     17  C   UNL A   1      32.442  27.535  26.545  1.00  0.00     0.024 C 
BRANCH  17  18
ATOM     18  C   UNL A   1      31.709  28.879  26.657  1.00  0.00     0.002 C 
BRANCH  18  19
ATOM     19  C   UNL A   1      32.543  30.158  26.583  1.00  0.00    -0.003 C 
ATOM     20  C   UNL A   1      33.813  30.153  27.420  1.00  0.00     0.004 C 
ENDBRANCH  18  19
ENDBRANCH  17  18
ENDBRANCH  15  17
ENDBRANCH  13  15
ENDBRANCH   7  11
ENDBRANCH   6   7
ENDBRANCH   3   6
ENDBRANCH   1   2
BRANCH   1  21
ATOM     21  C   UNL A   1      35.646  22.931  24.113  1.00  0.00     0.021 C 
BRANCH  21  22
ATOM     22  C   UNL A   1      36.948  22.123  24.164  1.00  0.00     0.002 C 
BRANCH  22  23
ATOM     23  C   UNL A   1      36.900  20.854  25.022  1.00  0.00     0.002 C 
BRANCH  23  24
ATOM     24  C   UNL A   1      38.108  19.926  24.882  1.00  0.00     0.021 C 
BRANCH  24  25
ATOM     25  C   UNL A   1      39.275  20.277  25.791  1.00  0.00     0.116 C 
BRANCH  25  26
ATOM     26  N   UNL A   1      40.237  19.193  25.879  1.00  0.00    -0.352 N 
ATOM     27  C   UNL A   1      41.591  19.265  26.107  1.00  0.00     0.251 C 
ATOM     28  H   UNL A   1      39.872  18.286  25.759  1.00  0.00     0.163 HD
ATOM     29  O   UNL A   1      42.308  18.291  25.952  1.00  0.00    -0.269 OA
BRANCH  27  30
ATOM     30  C   UNL A   1      42.170  20.559  26.527  1.00  0.00     0.039 A 
ATOM     31  C   UNL A   1      42.694  21.418  25.558  1.00  0.00     0.014 A 
ATOM     32  C   UNL A   1      42.167  20.925  27.876  1.00  0.00     0.014 A 
ATOM     33  C   UNL A   1      43.163  22.677  25.937  1.00  0.00     0.010 A 
ATOM     34  C   UNL A   1      42.567  22.205  28.241  1.00  0.00     0.010 A 
ATOM     35  C   UNL A   1      43.073  23.091  27.276  1.00  0.00    -0.014 A 
BRANCH  35  36
ATOM     36  C   UNL A   1      43.530  24.434  27.712  1.00  0.00     0.031 A 
ATOM     37  C   UNL A   1      42.510  25.476  28.079  1.00  0.00     0.074 A 
ATOM     38  C   UNL A   1      44.841  24.741  27.697  1.00  0.00     0.049 A 
ATOM     39  N   UNL A   1      42.679  26.750  28.325  1.00  0.00    -0.248 NA
ATOM     40  C   UNL A   1      41.109  25.029  28.148  1.00  0.00     0.031 C 
ATOM     41  C   UNL A   1      45.925  23.824  27.337  1.00  0.00     0.029 A 
ATOM     42  N   UNL A   1      45.484  25.922  27.970  1.00  0.00    -0.354 N 
ATOM     43  C   UNL A   1      41.408  27.257  28.563  1.00  0.00     0.074 A 
ATOM     44  C   UNL A   1      40.474  26.168  28.378  1.00  0.00     0.031 C 
ATOM     45  C   UNL A   1      47.096  24.476  27.416  1.00  0.00     0.029 A 
ATOM     46  C   UNL A   1      46.844  25.865  27.786  1.00  0.00     0.049 A 
ATOM     47  H   UNL A   1      45.014  26.734  28.269  1.00  0.00     0.167 HD
ATOM     48  C   UNL A   1      41.054  28.512  28.927  1.00  0.00     0.037 A 
ATOM     49  C   UNL A   1      47.777  26.831  27.883  1.00  0.00     0.037 A 
ATOM     50  C   UNL A   1      41.987  29.587  29.130  1.00  0.00     0.049 A 
ATOM     51  C   UNL A   1      47.354  28.225  28.260  1.00  0.00     0.074 A 
ATOM     52  C   UNL A   1      41.731  30.890  29.518  1.00  0.00     0.029 A 
ATOM     53  N   UNL A   1      43.359  29.478  28.966  1.00  0.00    -0.354 N 
ATOM     54  N   UNL A   1      46.152  28.685  28.514  1.00  0.00    -0.248 NA
ATOM     55  C   UNL A   1      48.416  29.237  28.365  1.00  0.00     0.031 C 
ATOM     56  C   UNL A   1      42.947  31.578  29.561  1.00  0.00     0.029 A 
ATOM     57  C   UNL A   1      43.963  30.693  29.240  1.00  0.00     0.049 A 
ATOM     58  H   UNL A   1      43.833  28.658  28.695  1.00  0.00     0.167 HD
ATOM     59  C   UNL A   1      46.318  30.023  28.846  1.00  0.00     0.074 A 
ATOM     60  C   UNL A   1      47.736  30.302  28.766  1.00  0.00     0.031 C 
ATOM     61  C   UNL A   1      45.381  30.941  29.185  1.00  0.00     0.037 A 
BRANCH  48  62
ATOM     62  C   UNL A   1      39.594  28.782  29.144  1.00  0.00     0.057 A 
ATOM     63  C   UNL A   1      38.997  28.620  30.401  1.00  0.00     0.134 A 
ATOM     64  C   UNL A   1      38.785  29.242  28.099  1.00  0.00     0.134 A 
ATOM     65  F   UNL A   1      39.716  28.169  31.441  1.00  0.00    -0.206 F 
ATOM     66  C   UNL A   1      37.643  28.884  30.606  1.00  0.00     0.040 A 
ATOM     67  C   UNL A   1      37.434  29.536  28.297  1.00  0.00     0.040 A 
ATOM     68  F   UNL A   1      39.293  29.424  26.871  1.00  0.00    -0.206 F 
ATOM     69  C   UNL A   1      36.859  29.351  29.553  1.00  0.00     0.006 A 
ENDBRANCH  48  62
BRANCH  49  70
ATOM     70  C   UNL A   1      49.207  26.524  27.623  1.00  0.00     0.057 A 
ATOM     71  C   UNL A   1      50.071  26.168  28.665  1.00  0.00     0.134 A 
ATOM     72  C   UNL A   1      49.752  26.612  26.336  1.00  0.00     0.134 A 
ATOM     73  F   UNL A   1      49.612  26.084  29.923  1.00  0.00    -0.206 F 
ATOM     74  C   UNL A   1      51.430  25.938  28.443  1.00  0.00     0.040 A 
ATOM     75  C   UNL A   1      51.104  26.361  26.096  1.00  0.00     0.040 A 
ATOM     76  F   UNL A   1      48.977  26.941  25.292  1.00  0.00    -0.206 F 
ATOM     77  C   UNL A   1      51.950  26.033  27.154  1.00  0.00     0.006 A 
ENDBRANCH  49  70
BRANCH  61  78
ATOM     78  C   UNL A   1      45.858  32.313  29.555  1.00  0.00     0.057 A 
ATOM     79  C   UNL A   1      46.243  32.636  30.861  1.00  0.00     0.134 A 
ATOM     80  C   UNL A   1      45.992  33.303  28.573  1.00  0.00     0.134 A 
ATOM     81  F   UNL A   1      46.126  31.735  31.847  1.00  0.00    -0.206 F 
ATOM     82  C   UNL A   1      46.732  33.904  31.181  1.00  0.00     0.040 A 
ATOM     83  C   UNL A   1      46.503  34.565  28.876  1.00  0.00     0.040 A 
ATOM     84  F   UNL A   1      45.649  33.053  27.300  1.00  0.00    -0.206 F 
ATOM     85  C   UNL A   1      46.872  34.869  30.186  1.00  0.00     0.006 A 
ENDBRANCH  61  78
ENDBRANCH  35  36
ENDBRANCH  27  30
ENDBRANCH  25  26
ENDBRANCH  24  25
ENDBRANCH  23  24
ENDBRANCH  22  23
ENDBRANCH  21  22
ENDBRANCH   1  21
TORSDOF 21
ENDMDL
