MODEL 1
REMARK VINA RESULT:     -11.5      0.000      0.000
REMARK SMILES C=CCc1cccc(-c2ccc([C@@H](C)C(=O)NCCCCCCNC(=O)c3ccc(-c4c5nc(c(-c6c(F)cccc6F)c6ccc([nH]6)c(-c6c(F)cccc6F)c6nc(c(-c7c(F)cccc7F)c7ccc4[nH]7)C=C6)C=C5)cc3)cc2)c1
REMARK SMILES IDX 19 1 18 2 17 3 15 4 16 5 13 7 14 8 12 9 9 10 10 11 82 12
REMARK SMILES IDX 11 13 81 14 8 15 4 16 5 17 83 18 6 19 7 20 3 21 2 22 1 23
REMARK SMILES IDX 20 24 21 25 22 26 23 27 24 28 25 29 26 31 27 32 28 33 80 34
REMARK SMILES IDX 29 35 79 36 30 37 31 38 32 39 73 40 33 41 78 42 72 43 74 44
REMARK SMILES IDX 34 45 77 46 71 47 70 48 35 50 61 51 44 52 60 53 45 54 48 55
REMARK SMILES IDX 59 56 75 57 46 58 47 59 58 61 76 62 49 63 36 64 37 65 42 66
REMARK SMILES IDX 38 67 39 68 41 69 43 70 40 71 62 72 63 73 68 74 64 75 65 76
REMARK SMILES IDX 67 77 69 78 66 79 50 80 51 81 56 82 52 83 53 84 55 85 57 86
REMARK SMILES IDX 54 87
REMARK H PARENT 17 6 24 30 74 49 48 60
REMARK Flexibility Score: inf
ROOT
ATOM      1  C   UNL A   1      34.409  25.351  25.444  1.00  0.00     0.021 C 
ENDROOT
BRANCH   1   2
ATOM      2  C   UNL A   1      34.548  23.828  25.444  1.00  0.00     0.116 C 
BRANCH   2   3
ATOM      3  N   UNL A   1      34.083  23.243  26.683  1.00  0.00    -0.356 N 
ATOM      4  C   UNL A   1      32.911  22.629  27.002  1.00  0.00     0.227 C 
ATOM      5  O   UNL A   1      32.765  22.300  28.186  1.00  0.00    -0.274 OA
ATOM      6  H   UNL A   1      34.728  23.298  27.425  1.00  0.00     0.163 HD
BRANCH   4   7
ATOM      7  C   UNL A   1      31.805  22.327  25.981  1.00  0.00     0.105 C 
ATOM      8  C   UNL A   1      32.183  21.264  24.949  1.00  0.00     0.023 C 
BRANCH   7   9
ATOM      9  C   UNL A   1      31.120  23.575  25.446  1.00  0.00    -0.036 A 
ATOM     10  C   UNL A   1      29.723  25.818  24.344  1.00  0.00    -0.018 A 
ATOM     11  C   UNL A   1      29.965  25.703  25.721  1.00  0.00     0.009 A 
ATOM     12  C   UNL A   1      30.233  24.793  23.529  1.00  0.00     0.009 A 
ATOM     13  C   UNL A   1      30.675  24.620  26.259  1.00  0.00     0.005 A 
ATOM     14  C   UNL A   1      30.896  23.684  24.068  1.00  0.00     0.005 A 
BRANCH  10  15
ATOM     15  C   UNL A   1      28.970  26.964  23.773  1.00  0.00    -0.018 A 
ATOM     16  C   UNL A   1      28.943  29.097  22.540  1.00  0.00    -0.044 A 
ATOM     17  C   UNL A   1      27.562  29.192  22.723  1.00  0.00     0.004 A 
ATOM     18  C   UNL A   1      29.624  27.975  23.045  1.00  0.00     0.012 A 
ATOM     19  C   UNL A   1      26.882  28.193  23.415  1.00  0.00     0.001 A 
ATOM     20  C   UNL A   1      27.581  27.101  23.943  1.00  0.00     0.009 A 
BRANCH  16  21
ATOM     21  C   UNL A   1      29.721  30.206  21.869  1.00  0.00     0.062 C 
BRANCH  21  22
ATOM     22  C   UNL A   1      28.951  31.499  21.880  1.00  0.00    -0.030 C 
ATOM     23  C   UNL A   1      28.167  31.926  20.880  1.00  0.00     0.004 C 
ENDBRANCH  21  22
ENDBRANCH  16  21
ENDBRANCH  10  15
ENDBRANCH   7   9
ENDBRANCH   4   7
ENDBRANCH   2   3
ENDBRANCH   1   2
BRANCH   1  24
ATOM     24  C   UNL A   1      33.828  25.924  24.147  1.00  0.00     0.002 C 
BRANCH  24  25
ATOM     25  C   UNL A   1      33.111  27.273  24.289  1.00  0.00     0.002 C 
BRANCH  25  26
ATOM     26  C   UNL A   1      33.965  28.426  24.827  1.00  0.00     0.021 C 
BRANCH  26  27
ATOM     27  C   UNL A   1      33.867  28.657  26.333  1.00  0.00     0.116 C 
BRANCH  27  28
ATOM     28  N   UNL A   1      33.775  30.069  26.664  1.00  0.00    -0.352 N 
ATOM     29  C   UNL A   1      34.536  30.829  27.515  1.00  0.00     0.251 C 
ATOM     30  H   UNL A   1      33.054  30.557  26.205  1.00  0.00     0.163 HD
ATOM     31  O   UNL A   1      34.168  31.961  27.813  1.00  0.00    -0.269 OA
BRANCH  29  32
ATOM     32  C   UNL A   1      35.794  30.298  28.087  1.00  0.00     0.039 A 
ATOM     33  C   UNL A   1      36.960  30.373  27.318  1.00  0.00     0.014 A 
ATOM     34  C   UNL A   1      35.823  29.672  29.336  1.00  0.00     0.014 A 
ATOM     35  C   UNL A   1      38.158  29.856  27.816  1.00  0.00     0.010 A 
ATOM     36  C   UNL A   1      37.032  29.209  29.858  1.00  0.00     0.010 A 
ATOM     37  C   UNL A   1      38.208  29.286  29.098  1.00  0.00    -0.014 A 
BRANCH  37  38
ATOM     38  C   UNL A   1      39.484  28.753  29.639  1.00  0.00     0.031 A 
ATOM     39  C   UNL A   1      40.116  29.378  30.853  1.00  0.00     0.074 A 
ATOM     40  C   UNL A   1      40.089  27.721  29.021  1.00  0.00     0.049 A 
ATOM     41  N   UNL A   1      41.235  29.065  31.456  1.00  0.00    -0.248 NA
ATOM     42  C   UNL A   1      39.410  30.520  31.455  1.00  0.00     0.031 C 
ATOM     43  C   UNL A   1      39.605  27.060  27.807  1.00  0.00     0.029 A 
ATOM     44  N   UNL A   1      41.247  27.050  29.326  1.00  0.00    -0.354 N 
ATOM     45  C   UNL A   1      41.366  29.968  32.503  1.00  0.00     0.074 A 
ATOM     46  C   UNL A   1      40.243  30.876  32.421  1.00  0.00     0.031 C 
ATOM     47  C   UNL A   1      40.448  26.065  27.483  1.00  0.00     0.029 A 
ATOM     48  C   UNL A   1      41.540  26.032  28.451  1.00  0.00     0.049 A 
ATOM     49  H   UNL A   1      41.812  27.276  30.099  1.00  0.00     0.167 HD
ATOM     50  C   UNL A   1      42.321  30.021  33.464  1.00  0.00     0.037 A 
ATOM     51  C   UNL A   1      42.572  25.168  28.435  1.00  0.00     0.037 A 
ATOM     52  C   UNL A   1      43.431  29.109  33.557  1.00  0.00     0.049 A 
ATOM     53  C   UNL A   1      43.601  25.230  29.528  1.00  0.00     0.074 A 
ATOM     54  C   UNL A   1      44.446  29.074  34.499  1.00  0.00     0.029 A 
ATOM     55  N   UNL A   1      43.666  28.062  32.680  1.00  0.00    -0.354 N 
ATOM     56  N   UNL A   1      43.687  26.064  30.536  1.00  0.00    -0.248 NA
ATOM     57  C   UNL A   1      44.666  24.218  29.493  1.00  0.00     0.031 C 
ATOM     58  C   UNL A   1      45.305  28.016  34.181  1.00  0.00     0.029 A 
ATOM     59  C   UNL A   1      44.805  27.372  33.061  1.00  0.00     0.049 A 
ATOM     60  H   UNL A   1      43.105  27.841  31.900  1.00  0.00     0.167 HD
ATOM     61  C   UNL A   1      44.797  25.661  31.268  1.00  0.00     0.074 A 
ATOM     62  C   UNL A   1      45.339  24.497  30.599  1.00  0.00     0.031 C 
ATOM     63  C   UNL A   1      45.322  26.208  32.390  1.00  0.00     0.037 A 
BRANCH  50  64
ATOM     64  C   UNL A   1      42.191  31.093  34.505  1.00  0.00     0.057 A 
ATOM     65  C   UNL A   1      42.775  32.354  34.331  1.00  0.00     0.134 A 
ATOM     66  C   UNL A   1      41.448  30.880  35.672  1.00  0.00     0.134 A 
ATOM     67  F   UNL A   1      43.512  32.619  33.241  1.00  0.00    -0.206 F 
ATOM     68  C   UNL A   1      42.643  33.360  35.292  1.00  0.00     0.040 A 
ATOM     69  C   UNL A   1      41.290  31.885  36.629  1.00  0.00     0.040 A 
ATOM     70  F   UNL A   1      40.859  29.697  35.899  1.00  0.00    -0.206 F 
ATOM     71  C   UNL A   1      41.892  33.128  36.442  1.00  0.00     0.006 A 
ENDBRANCH  50  64
BRANCH  51  72
ATOM     72  C   UNL A   1      42.669  24.144  27.364  1.00  0.00     0.057 A 
ATOM     73  C   UNL A   1      43.257  24.443  26.130  1.00  0.00     0.134 A 
ATOM     74  C   UNL A   1      42.155  22.855  27.540  1.00  0.00     0.134 A 
ATOM     75  F   UNL A   1      43.751  25.669  25.897  1.00  0.00    -0.206 F 
ATOM     76  C   UNL A   1      43.308  23.506  25.098  1.00  0.00     0.040 A 
ATOM     77  C   UNL A   1      42.220  21.899  26.526  1.00  0.00     0.040 A 
ATOM     78  F   UNL A   1      41.587  22.505  28.703  1.00  0.00    -0.206 F 
ATOM     79  C   UNL A   1      42.789  22.227  25.296  1.00  0.00     0.006 A 
ENDBRANCH  51  72
BRANCH  63  80
ATOM     80  C   UNL A   1      46.519  25.526  32.982  1.00  0.00     0.057 A 
ATOM     81  C   UNL A   1      46.395  24.521  33.949  1.00  0.00     0.134 A 
ATOM     82  C   UNL A   1      47.813  25.875  32.571  1.00  0.00     0.134 A 
ATOM     83  F   UNL A   1      45.184  24.151  34.393  1.00  0.00    -0.206 F 
ATOM     84  C   UNL A   1      47.516  23.908  34.511  1.00  0.00     0.040 A 
ATOM     85  C   UNL A   1      48.940  25.253  33.109  1.00  0.00     0.040 A 
ATOM     86  F   UNL A   1      48.000  26.825  31.643  1.00  0.00    -0.206 F 
ATOM     87  C   UNL A   1      48.794  24.272  34.088  1.00  0.00     0.006 A 
ENDBRANCH  63  80
ENDBRANCH  37  38
ENDBRANCH  29  32
ENDBRANCH  27  28
ENDBRANCH  26  27
ENDBRANCH  25  26
ENDBRANCH  24  25
ENDBRANCH   1  24
TORSDOF 17
ENDMDL
MODEL 2
REMARK VINA RESULT:     -11.2      5.602     11.531
REMARK SMILES C=CCc1cccc(-c2ccc([C@@H](C)C(=O)NCCCCCCNC(=O)c3ccc(-c4c5nc(c(-c6c(F)cccc6F)c6ccc([nH]6)c(-c6c(F)cccc6F)c6nc(c(-c7c(F)cccc7F)c7ccc4[nH]7)C=C6)C=C5)cc3)cc2)c1
REMARK SMILES IDX 19 1 18 2 17 3 15 4 16 5 13 7 14 8 12 9 9 10 10 11 82 12
REMARK SMILES IDX 11 13 81 14 8 15 4 16 5 17 83 18 6 19 7 20 3 21 2 22 1 23
REMARK SMILES IDX 20 24 21 25 22 26 23 27 24 28 25 29 26 31 27 32 28 33 80 34
REMARK SMILES IDX 29 35 79 36 30 37 31 38 32 39 73 40 33 41 78 42 72 43 74 44
REMARK SMILES IDX 34 45 77 46 71 47 70 48 35 50 61 51 44 52 60 53 45 54 48 55
REMARK SMILES IDX 59 56 75 57 46 58 47 59 58 61 76 62 49 63 36 64 37 65 42 66
REMARK SMILES IDX 38 67 39 68 41 69 43 70 40 71 62 72 63 73 68 74 64 75 65 76
REMARK SMILES IDX 67 77 69 78 66 79 50 80 51 81 56 82 52 83 53 84 55 85 57 86
REMARK SMILES IDX 54 87
REMARK H PARENT 17 6 24 30 74 49 48 60
REMARK Flexibility Score: inf
ROOT
ATOM      1  C   UNL A   1      44.916  19.568  24.383  1.00  0.00     0.021 C 
ENDROOT
BRANCH   1   2
ATOM      2  C   UNL A   1      45.805  20.346  25.354  1.00  0.00     0.116 C 
BRANCH   2   3
ATOM      3  N   UNL A   1      46.236  21.610  24.796  1.00  0.00    -0.356 N 
ATOM      4  C   UNL A   1      45.620  22.823  24.739  1.00  0.00     0.227 C 
ATOM      5  O   UNL A   1      46.211  23.713  24.114  1.00  0.00    -0.274 OA
ATOM      6  H   UNL A   1      47.131  21.590  24.386  1.00  0.00     0.163 HD
BRANCH   4   7
ATOM      7  C   UNL A   1      44.272  23.124  25.411  1.00  0.00     0.105 C 
ATOM      8  C   UNL A   1      43.389  24.096  24.629  1.00  0.00     0.023 C 
BRANCH   7   9
ATOM      9  C   UNL A   1      44.384  23.367  26.907  1.00  0.00    -0.036 A 
ATOM     10  C   UNL A   1      44.652  23.992  29.689  1.00  0.00    -0.018 A 
ATOM     11  C   UNL A   1      43.490  23.395  29.175  1.00  0.00     0.009 A 
ATOM     12  C   UNL A   1      45.691  24.234  28.775  1.00  0.00     0.009 A 
ATOM     13  C   UNL A   1      43.370  23.062  27.818  1.00  0.00     0.005 A 
ATOM     14  C   UNL A   1      45.553  23.950  27.411  1.00  0.00     0.005 A 
BRANCH  10  15
ATOM     15  C   UNL A   1      44.780  24.348  31.125  1.00  0.00    -0.018 A 
ATOM     16  C   UNL A   1      44.206  23.933  33.486  1.00  0.00    -0.044 A 
ATOM     17  C   UNL A   1      44.962  25.042  33.870  1.00  0.00     0.004 A 
ATOM     18  C   UNL A   1      44.144  23.587  32.123  1.00  0.00     0.012 A 
ATOM     19  C   UNL A   1      45.626  25.798  32.908  1.00  0.00     0.001 A 
ATOM     20  C   UNL A   1      45.524  25.461  31.553  1.00  0.00     0.009 A 
BRANCH  16  21
ATOM     21  C   UNL A   1      43.405  23.144  34.495  1.00  0.00     0.062 C 
BRANCH  21  22
ATOM     22  C   UNL A   1      42.847  24.037  35.570  1.00  0.00    -0.030 C 
ATOM     23  C   UNL A   1      41.561  24.405  35.661  1.00  0.00     0.004 C 
ENDBRANCH  21  22
ENDBRANCH  16  21
ENDBRANCH  10  15
ENDBRANCH   7   9
ENDBRANCH   4   7
ENDBRANCH   2   3
ENDBRANCH   1   2
BRANCH   1  24
ATOM     24  C   UNL A   1      43.647  18.994  25.024  1.00  0.00     0.002 C 
BRANCH  24  25
ATOM     25  C   UNL A   1      43.061  19.824  26.174  1.00  0.00     0.002 C 
BRANCH  25  26
ATOM     26  C   UNL A   1      41.539  20.002  26.157  1.00  0.00     0.021 C 
BRANCH  26  27
ATOM     27  C   UNL A   1      41.053  21.440  26.323  1.00  0.00     0.116 C 
BRANCH  27  28
ATOM     28  N   UNL A   1      39.674  21.602  25.895  1.00  0.00    -0.352 N 
ATOM     29  C   UNL A   1      38.797  22.634  26.111  1.00  0.00     0.251 C 
ATOM     30  H   UNL A   1      39.312  20.853  25.368  1.00  0.00     0.163 HD
ATOM     31  O   UNL A   1      37.609  22.489  25.841  1.00  0.00    -0.269 OA
BRANCH  29  32
ATOM     32  C   UNL A   1      39.264  23.922  26.673  1.00  0.00     0.039 A 
ATOM     33  C   UNL A   1      39.892  24.834  25.820  1.00  0.00     0.014 A 
ATOM     34  C   UNL A   1      39.150  24.208  28.037  1.00  0.00     0.014 A 
ATOM     35  C   UNL A   1      40.370  26.046  26.323  1.00  0.00     0.010 A 
ATOM     36  C   UNL A   1      39.574  25.444  28.528  1.00  0.00     0.010 A 
ATOM     37  C   UNL A   1      40.198  26.368  27.679  1.00  0.00    -0.014 A 
BRANCH  37  38
ATOM     38  C   UNL A   1      40.688  27.664  28.215  1.00  0.00     0.031 A 
ATOM     39  C   UNL A   1      42.163  27.948  28.288  1.00  0.00     0.074 A 
ATOM     40  C   UNL A   1      39.804  28.576  28.662  1.00  0.00     0.049 A 
ATOM     41  N   UNL A   1      42.779  29.011  28.743  1.00  0.00    -0.248 NA
ATOM     42  C   UNL A   1      43.067  26.891  27.807  1.00  0.00     0.031 C 
ATOM     43  C   UNL A   1      38.350  28.401  28.694  1.00  0.00     0.029 A 
ATOM     44  N   UNL A   1      39.999  29.831  29.182  1.00  0.00    -0.354 N 
ATOM     45  C   UNL A   1      44.137  28.749  28.604  1.00  0.00     0.074 A 
ATOM     46  C   UNL A   1      44.257  27.407  28.076  1.00  0.00     0.031 C 
ATOM     47  C   UNL A   1      37.784  29.516  29.185  1.00  0.00     0.029 A 
ATOM     48  C   UNL A   1      38.833  30.473  29.524  1.00  0.00     0.049 A 
ATOM     49  H   UNL A   1      40.890  30.234  29.297  1.00  0.00     0.167 HD
ATOM     50  C   UNL A   1      45.189  29.562  28.868  1.00  0.00     0.037 A 
ATOM     51  C   UNL A   1      38.634  31.697  30.047  1.00  0.00     0.037 A 
ATOM     52  C   UNL A   1      45.071  30.903  29.379  1.00  0.00     0.049 A 
ATOM     53  C   UNL A   1      39.816  32.588  30.303  1.00  0.00     0.074 A 
ATOM     54  C   UNL A   1      46.077  31.809  29.670  1.00  0.00     0.029 A 
ATOM     55  N   UNL A   1      43.871  31.534  29.666  1.00  0.00    -0.354 N 
ATOM     56  N   UNL A   1      41.092  32.342  30.126  1.00  0.00    -0.248 NA
ATOM     57  C   UNL A   1      39.530  33.938  30.812  1.00  0.00     0.031 C 
ATOM     58  C   UNL A   1      45.485  32.983  30.150  1.00  0.00     0.029 A 
ATOM     59  C   UNL A   1      44.110  32.819  30.126  1.00  0.00     0.049 A 
ATOM     60  H   UNL A   1      42.980  31.128  29.560  1.00  0.00     0.167 HD
ATOM     61  C   UNL A   1      41.756  33.511  30.476  1.00  0.00     0.074 A 
ATOM     62  C   UNL A   1      40.741  34.471  30.856  1.00  0.00     0.031 C 
ATOM     63  C   UNL A   1      43.087  33.764  30.487  1.00  0.00     0.037 A 
BRANCH  50  64
ATOM     64  C   UNL A   1      46.561  29.025  28.586  1.00  0.00     0.057 A 
ATOM     65  C   UNL A   1      47.305  28.367  29.573  1.00  0.00     0.134 A 
ATOM     66  C   UNL A   1      47.130  29.133  27.312  1.00  0.00     0.134 A 
ATOM     67  F   UNL A   1      46.822  28.242  30.819  1.00  0.00    -0.206 F 
ATOM     68  C   UNL A   1      48.576  27.852  29.309  1.00  0.00     0.040 A 
ATOM     69  C   UNL A   1      48.391  28.603  27.030  1.00  0.00     0.040 A 
ATOM     70  F   UNL A   1      46.469  29.748  26.319  1.00  0.00    -0.206 F 
ATOM     71  C   UNL A   1      49.119  27.964  28.031  1.00  0.00     0.006 A 
ENDBRANCH  50  64
BRANCH  51  72
ATOM     72  C   UNL A   1      37.257  32.168  30.335  1.00  0.00     0.057 A 
ATOM     73  C   UNL A   1      36.545  32.932  29.403  1.00  0.00     0.134 A 
ATOM     74  C   UNL A   1      36.631  31.889  31.555  1.00  0.00     0.134 A 
ATOM     75  F   UNL A   1      37.101  33.248  28.223  1.00  0.00    -0.206 F 
ATOM     76  C   UNL A   1      35.270  33.425  29.683  1.00  0.00     0.040 A 
ATOM     77  C   UNL A   1      35.346  32.354  31.839  1.00  0.00     0.040 A 
ATOM     78  F   UNL A   1      37.258  31.154  32.485  1.00  0.00    -0.206 F 
ATOM     79  C   UNL A   1      34.666  33.133  30.905  1.00  0.00     0.006 A 
ENDBRANCH  51  72
BRANCH  63  80
ATOM     80  C   UNL A   1      43.511  35.147  30.884  1.00  0.00     0.057 A 
ATOM     81  C   UNL A   1      43.783  35.483  32.216  1.00  0.00     0.134 A 
ATOM     82  C   UNL A   1      43.657  36.152  29.918  1.00  0.00     0.134 A 
ATOM     83  F   UNL A   1      43.649  34.568  33.188  1.00  0.00    -0.206 F 
ATOM     84  C   UNL A   1      44.154  36.778  32.579  1.00  0.00     0.040 A 
ATOM     85  C   UNL A   1      44.050  37.444  30.267  1.00  0.00     0.040 A 
ATOM     86  F   UNL A   1      43.418  35.892  28.624  1.00  0.00    -0.206 F 
ATOM     87  C   UNL A   1      44.292  37.763  31.602  1.00  0.00     0.006 A 
ENDBRANCH  63  80
ENDBRANCH  37  38
ENDBRANCH  29  32
ENDBRANCH  27  28
ENDBRANCH  26  27
ENDBRANCH  25  26
ENDBRANCH  24  25
ENDBRANCH   1  24
TORSDOF 17
ENDMDL
MODEL 3
REMARK VINA RESULT:     -11.1      3.034      7.445
REMARK SMILES C=CCc1cccc(-c2ccc([C@@H](C)C(=O)NCCCCCCNC(=O)c3ccc(-c4c5nc(c(-c6c(F)cccc6F)c6ccc([nH]6)c(-c6c(F)cccc6F)c6nc(c(-c7c(F)cccc7F)c7ccc4[nH]7)C=C6)C=C5)cc3)cc2)c1
REMARK SMILES IDX 19 1 18 2 17 3 15 4 16 5 13 7 14 8 12 9 9 10 10 11 82 12
REMARK SMILES IDX 11 13 81 14 8 15 4 16 5 17 83 18 6 19 7 20 3 21 2 22 1 23
REMARK SMILES IDX 20 24 21 25 22 26 23 27 24 28 25 29 26 31 27 32 28 33 80 34
REMARK SMILES IDX 29 35 79 36 30 37 31 38 32 39 73 40 33 41 78 42 72 43 74 44
REMARK SMILES IDX 34 45 77 46 71 47 70 48 35 50 61 51 44 52 60 53 45 54 48 55
REMARK SMILES IDX 59 56 75 57 46 58 47 59 58 61 76 62 49 63 36 64 37 65 42 66
REMARK SMILES IDX 38 67 39 68 41 69 43 70 40 71 62 72 63 73 68 74 64 75 65 76
REMARK SMILES IDX 67 77 69 78 66 79 50 80 51 81 56 82 52 83 53 84 55 85 57 86
REMARK SMILES IDX 54 87
REMARK H PARENT 17 6 24 30 74 49 48 60
REMARK Flexibility Score: inf
ROOT
ATOM      1  C   UNL A   1      36.990  23.134  24.742  1.00  0.00     0.021 C 
ENDROOT
BRANCH   1   2
ATOM      2  C   UNL A   1      36.082  23.790  25.784  1.00  0.00     0.116 C 
BRANCH   2   3
ATOM      3  N   UNL A   1      35.569  22.827  26.735  1.00  0.00    -0.356 N 
ATOM      4  C   UNL A   1      34.411  22.111  26.752  1.00  0.00     0.227 C 
ATOM      5  O   UNL A   1      34.206  21.417  27.756  1.00  0.00    -0.274 OA
ATOM      6  H   UNL A   1      36.161  22.659  27.503  1.00  0.00     0.163 HD
BRANCH   4   7
ATOM      7  C   UNL A   1      33.388  22.121  25.606  1.00  0.00     0.105 C 
ATOM      8  C   UNL A   1      33.812  21.306  24.385  1.00  0.00     0.023 C 
BRANCH   7   9
ATOM      9  C   UNL A   1      32.805  23.498  25.330  1.00  0.00    -0.036 A 
ATOM     10  C   UNL A   1      31.818  26.157  24.934  1.00  0.00    -0.018 A 
ATOM     11  C   UNL A   1      32.207  25.346  23.857  1.00  0.00     0.009 A 
ATOM     12  C   UNL A   1      31.903  25.584  26.214  1.00  0.00     0.009 A 
ATOM     13  C   UNL A   1      32.663  24.034  24.047  1.00  0.00     0.005 A 
ATOM     14  C   UNL A   1      32.407  24.292  26.412  1.00  0.00     0.005 A 
BRANCH  10  15
ATOM     15  C   UNL A   1      31.337  27.548  24.735  1.00  0.00    -0.018 A 
ATOM     16  C   UNL A   1      29.856  29.149  23.587  1.00  0.00    -0.044 A 
ATOM     17  C   UNL A   1      30.440  30.203  24.293  1.00  0.00     0.004 A 
ATOM     18  C   UNL A   1      30.295  27.835  23.834  1.00  0.00     0.012 A 
ATOM     19  C   UNL A   1      31.454  29.947  25.212  1.00  0.00     0.001 A 
ATOM     20  C   UNL A   1      31.903  28.637  25.419  1.00  0.00     0.009 A 
BRANCH  16  21
ATOM     21  C   UNL A   1      28.816  29.403  22.522  1.00  0.00     0.062 C 
BRANCH  21  22
ATOM     22  C   UNL A   1      27.667  30.212  23.060  1.00  0.00    -0.030 C 
ATOM     23  C   UNL A   1      27.639  31.551  23.112  1.00  0.00     0.004 C 
ENDBRANCH  21  22
ENDBRANCH  16  21
ENDBRANCH  10  15
ENDBRANCH   7   9
ENDBRANCH   4   7
ENDBRANCH   2   3
ENDBRANCH   1   2
BRANCH   1  24
ATOM     24  C   UNL A   1      37.770  21.924  25.269  1.00  0.00     0.002 C 
BRANCH  24  25
ATOM     25  C   UNL A   1      37.371  20.572  24.663  1.00  0.00     0.002 C 
BRANCH  25  26
ATOM     26  C   UNL A   1      38.308  19.401  24.976  1.00  0.00     0.021 C 
BRANCH  26  27
ATOM     27  C   UNL A   1      39.311  19.656  26.098  1.00  0.00     0.116 C 
BRANCH  27  28
ATOM     28  N   UNL A   1      40.597  19.036  25.832  1.00  0.00    -0.352 N 
ATOM     29  C   UNL A   1      41.862  19.566  25.877  1.00  0.00     0.251 C 
ATOM     30  H   UNL A   1      40.556  18.086  25.577  1.00  0.00     0.163 HD
ATOM     31  O   UNL A   1      42.805  18.931  25.415  1.00  0.00    -0.269 OA
BRANCH  29  32
ATOM     32  C   UNL A   1      42.103  20.902  26.470  1.00  0.00     0.039 A 
ATOM     33  C   UNL A   1      42.435  21.960  25.619  1.00  0.00     0.014 A 
ATOM     34  C   UNL A   1      42.069  21.104  27.853  1.00  0.00     0.014 A 
ATOM     35  C   UNL A   1      42.697  23.225  26.149  1.00  0.00     0.010 A 
ATOM     36  C   UNL A   1      42.272  22.382  28.377  1.00  0.00     0.010 A 
ATOM     37  C   UNL A   1      42.599  23.451  27.531  1.00  0.00    -0.014 A 
BRANCH  37  38
ATOM     38  C   UNL A   1      42.857  24.799  28.096  1.00  0.00     0.031 A 
ATOM     39  C   UNL A   1      44.250  25.202  28.498  1.00  0.00     0.074 A 
ATOM     40  C   UNL A   1      41.831  25.654  28.275  1.00  0.00     0.049 A 
ATOM     41  N   UNL A   1      44.666  26.326  29.027  1.00  0.00    -0.248 NA
ATOM     42  C   UNL A   1      45.312  24.204  28.299  1.00  0.00     0.031 C 
ATOM     43  C   UNL A   1      40.428  25.366  27.974  1.00  0.00     0.029 A 
ATOM     44  N   UNL A   1      41.812  26.939  28.758  1.00  0.00    -0.354 N 
ATOM     45  C   UNL A   1      46.032  26.168  29.224  1.00  0.00     0.074 A 
ATOM     46  C   UNL A   1      46.366  24.822  28.811  1.00  0.00     0.031 C 
ATOM     47  C   UNL A   1      39.686  26.449  28.259  1.00  0.00     0.029 A 
ATOM     48  C   UNL A   1      40.557  27.498  28.782  1.00  0.00     0.049 A 
ATOM     49  H   UNL A   1      42.619  27.414  29.056  1.00  0.00     0.167 HD
ATOM     50  C   UNL A   1      46.933  27.071  29.683  1.00  0.00     0.037 A 
ATOM     51  C   UNL A   1      40.156  28.720  29.178  1.00  0.00     0.037 A 
ATOM     52  C   UNL A   1      46.606  28.416  30.080  1.00  0.00     0.049 A 
ATOM     53  C   UNL A   1      41.179  29.711  29.655  1.00  0.00     0.074 A 
ATOM     54  C   UNL A   1      47.449  29.409  30.549  1.00  0.00     0.029 A 
ATOM     55  N   UNL A   1      45.332  28.959  30.044  1.00  0.00    -0.354 N 
ATOM     56  N   UNL A   1      42.474  29.560  29.796  1.00  0.00    -0.248 NA
ATOM     57  C   UNL A   1      40.688  31.051  30.010  1.00  0.00     0.031 C 
ATOM     58  C   UNL A   1      46.681  30.548  30.814  1.00  0.00     0.029 A 
ATOM     59  C   UNL A   1      45.366  30.275  30.477  1.00  0.00     0.049 A 
ATOM     60  H   UNL A   1      44.521  28.480  29.754  1.00  0.00     0.167 HD
ATOM     61  C   UNL A   1      42.954  30.790  30.229  1.00  0.00     0.074 A 
ATOM     62  C   UNL A   1      41.815  31.680  30.308  1.00  0.00     0.031 C 
ATOM     63  C   UNL A   1      44.224  31.148  30.537  1.00  0.00     0.037 A 
BRANCH  50  64
ATOM     64  C   UNL A   1      48.366  26.635  29.759  1.00  0.00     0.057 A 
ATOM     65  C   UNL A   1      49.267  26.904  28.721  1.00  0.00     0.134 A 
ATOM     66  C   UNL A   1      48.861  25.975  30.889  1.00  0.00     0.134 A 
ATOM     67  F   UNL A   1      48.853  27.522  27.604  1.00  0.00    -0.206 F 
ATOM     68  C   UNL A   1      50.606  26.513  28.795  1.00  0.00     0.040 A 
ATOM     69  C   UNL A   1      50.203  25.599  30.985  1.00  0.00     0.040 A 
ATOM     70  F   UNL A   1      48.053  25.690  31.922  1.00  0.00    -0.206 F 
ATOM     71  C   UNL A   1      51.078  25.864  29.933  1.00  0.00     0.006 A 
ENDBRANCH  50  64
BRANCH  51  72
ATOM     72  C   UNL A   1      38.720  29.091  29.110  1.00  0.00     0.057 A 
ATOM     73  C   UNL A   1      38.149  29.550  27.918  1.00  0.00     0.134 A 
ATOM     74  C   UNL A   1      37.894  29.019  30.237  1.00  0.00     0.134 A 
ATOM     75  F   UNL A   1      38.895  29.657  26.808  1.00  0.00    -0.206 F 
ATOM     76  C   UNL A   1      36.813  29.950  27.854  1.00  0.00     0.040 A 
ATOM     77  C   UNL A   1      36.551  29.394  30.183  1.00  0.00     0.040 A 
ATOM     78  F   UNL A   1      38.382  28.579  31.406  1.00  0.00    -0.206 F 
ATOM     79  C   UNL A   1      36.010  29.870  28.990  1.00  0.00     0.006 A 
ENDBRANCH  51  72
BRANCH  63  80
ATOM     80  C   UNL A   1      44.446  32.573  30.948  1.00  0.00     0.057 A 
ATOM     81  C   UNL A   1      44.725  33.578  30.013  1.00  0.00     0.134 A 
ATOM     82  C   UNL A   1      44.371  32.945  32.296  1.00  0.00     0.134 A 
ATOM     83  F   UNL A   1      44.823  33.283  28.708  1.00  0.00    -0.206 F 
ATOM     84  C   UNL A   1      44.954  34.897  30.407  1.00  0.00     0.040 A 
ATOM     85  C   UNL A   1      44.575  34.265  32.700  1.00  0.00     0.040 A 
ATOM     86  F   UNL A   1      44.100  32.032  33.241  1.00  0.00    -0.206 F 
ATOM     87  C   UNL A   1      44.876  35.244  31.755  1.00  0.00     0.006 A 
ENDBRANCH  63  80
ENDBRANCH  37  38
ENDBRANCH  29  32
ENDBRANCH  27  28
ENDBRANCH  26  27
ENDBRANCH  25  26
ENDBRANCH  24  25
ENDBRANCH   1  24
TORSDOF 17
ENDMDL
