MODEL 1
REMARK VINA RESULT:     -10.8      0.000      0.000
REMARK SMILES C[C@H]1[C@H](C(=O)NCCCCCCNC(=O)c2ccc(-c3c4nc(c(-c5c(F)cccc5F)c5ccc([nH]5)c(-c5c(F)cccc5F)c5nc(c(-c6c(F)cccc6F)c6ccc3[nH]6)C=C5)C=C4)cc2)CCN1C(=O)[C@H]1CC=CCC1
REMARK SMILES IDX 9 1 8 2 7 3 6 4 4 5 5 6 3 8 1 9 2 10 72 11 70 12 71 13 73 14
REMARK SMILES IDX 74 15 75 16 76 17 80 18 77 19 79 20 78 21 10 22 11 23 12 24
REMARK SMILES IDX 13 25 14 26 15 28 16 29 17 30 69 31 18 32 68 33 19 34 20 35
REMARK SMILES IDX 21 36 62 37 22 38 67 39 61 40 63 41 23 42 66 43 60 44 59 45
REMARK SMILES IDX 24 47 50 48 33 49 49 50 34 51 37 52 48 53 64 54 35 55 36 56
REMARK SMILES IDX 47 58 65 59 38 60 25 61 26 62 31 63 27 64 28 65 30 66 32 67
REMARK SMILES IDX 29 68 51 69 52 70 57 71 53 72 54 73 56 74 58 75 55 76 39 77
REMARK SMILES IDX 40 78 45 79 41 80 42 81 44 82 46 83 43 84
REMARK H PARENT 6 7 13 27 63 46 37 57
REMARK Flexibility Score: inf
ROOT
ATOM      1  C   UNL A   1      38.517  22.220  25.791  1.00  0.00     0.002 C 
ENDROOT
BRANCH   1   2
ATOM      2  C   UNL A   1      37.783  23.558  25.856  1.00  0.00     0.021 C 
BRANCH   2   3
ATOM      3  C   UNL A   1      36.259  23.489  25.787  1.00  0.00     0.116 C 
BRANCH   3   4
ATOM      4  N   UNL A   1      35.763  24.016  24.532  1.00  0.00    -0.356 N 
ATOM      5  C   UNL A   1      34.527  24.003  23.971  1.00  0.00     0.225 C 
ATOM      6  O   UNL A   1      34.422  24.516  22.852  1.00  0.00    -0.275 OA
ATOM      7  H   UNL A   1      36.448  24.466  23.985  1.00  0.00     0.163 HD
BRANCH   5   8
ATOM      8  C   UNL A   1      33.300  23.386  24.628  1.00  0.00     0.102 C 
ATOM      9  C   UNL A   1      32.792  23.200  27.070  1.00  0.00     0.032 C 
ATOM     10  C   UNL A   1      32.802  24.154  25.869  1.00  0.00     0.094 C 
ATOM     11  N   UNL A   1      31.452  24.602  25.523  1.00  0.00    -0.339 N 
ATOM     12  C   UNL A   1      32.090  23.191  23.717  1.00  0.00     0.037 C 
ATOM     13  C   UNL A   1      30.901  23.725  24.501  1.00  0.00     0.120 C 
BRANCH  11  14
ATOM     14  C   UNL A   1      30.671  25.629  26.003  1.00  0.00     0.226 C 
ATOM     15  O   UNL A   1      29.552  25.357  26.468  1.00  0.00    -0.275 OA
BRANCH  14  16
ATOM     16  C   UNL A   1      31.047  27.122  25.955  1.00  0.00     0.083 C 
ATOM     17  C   UNL A   1      31.736  27.721  27.182  1.00  0.00     0.040 C 
ATOM     18  C   UNL A   1      31.610  27.614  24.618  1.00  0.00     0.018 C 
ATOM     19  C   UNL A   1      33.186  28.054  27.005  1.00  0.00    -0.030 C 
ATOM     20  C   UNL A   1      33.131  27.694  24.540  1.00  0.00     0.028 C 
ATOM     21  C   UNL A   1      33.810  28.046  25.822  1.00  0.00    -0.031 C 
ENDBRANCH  14  16
ENDBRANCH  11  14
ENDBRANCH   5   8
ENDBRANCH   3   4
ENDBRANCH   2   3
ENDBRANCH   1   2
BRANCH   1  22
ATOM     22  C   UNL A   1      37.827  21.128  24.974  1.00  0.00     0.002 C 
BRANCH  22  23
ATOM     23  C   UNL A   1      38.541  19.776  24.942  1.00  0.00     0.021 C 
BRANCH  23  24
ATOM     24  C   UNL A   1      39.365  19.438  26.182  1.00  0.00     0.116 C 
BRANCH  24  25
ATOM     25  N   UNL A   1      40.676  18.903  25.854  1.00  0.00    -0.352 N 
ATOM     26  C   UNL A   1      41.895  19.527  25.844  1.00  0.00     0.251 C 
ATOM     27  H   UNL A   1      40.689  17.950  25.602  1.00  0.00     0.163 HD
ATOM     28  O   UNL A   1      42.878  18.957  25.371  1.00  0.00    -0.269 OA
BRANCH  26  29
ATOM     29  C   UNL A   1      42.030  20.897  26.380  1.00  0.00     0.039 A 
ATOM     30  C   UNL A   1      41.883  21.102  27.753  1.00  0.00     0.014 A 
ATOM     31  C   UNL A   1      42.297  21.977  25.533  1.00  0.00     0.014 A 
ATOM     32  C   UNL A   1      42.064  22.378  28.286  1.00  0.00     0.010 A 
ATOM     33  C   UNL A   1      42.551  23.234  26.073  1.00  0.00     0.010 A 
ATOM     34  C   UNL A   1      42.435  23.449  27.455  1.00  0.00    -0.014 A 
BRANCH  34  35
ATOM     35  C   UNL A   1      42.707  24.797  28.018  1.00  0.00     0.031 A 
ATOM     36  C   UNL A   1      44.094  25.165  28.467  1.00  0.00     0.074 A 
ATOM     37  C   UNL A   1      41.693  25.669  28.176  1.00  0.00     0.049 A 
ATOM     38  N   UNL A   1      44.515  26.271  29.028  1.00  0.00    -0.248 NA
ATOM     39  C   UNL A   1      45.141  24.148  28.286  1.00  0.00     0.031 C 
ATOM     40  C   UNL A   1      40.295  25.415  27.822  1.00  0.00     0.029 A 
ATOM     41  N   UNL A   1      41.681  26.944  28.684  1.00  0.00    -0.354 N 
ATOM     42  C   UNL A   1      45.869  26.079  29.273  1.00  0.00     0.074 A 
ATOM     43  C   UNL A   1      46.187  24.731  28.853  1.00  0.00     0.031 C 
ATOM     44  C   UNL A   1      39.566  26.508  28.099  1.00  0.00     0.029 A 
ATOM     45  C   UNL A   1      40.435  27.523  28.687  1.00  0.00     0.049 A 
ATOM     46  H   UNL A   1      42.488  27.401  29.015  1.00  0.00     0.167 HD
ATOM     47  C   UNL A   1      46.771  26.953  29.779  1.00  0.00     0.037 A 
ATOM     48  C   UNL A   1      40.035  28.734  29.121  1.00  0.00     0.037 A 
ATOM     49  C   UNL A   1      46.454  28.299  30.183  1.00  0.00     0.049 A 
ATOM     50  C   UNL A   1      41.052  29.678  29.700  1.00  0.00     0.074 A 
ATOM     51  C   UNL A   1      47.308  29.281  30.654  1.00  0.00     0.029 A 
ATOM     52  N   UNL A   1      45.181  28.849  30.168  1.00  0.00    -0.354 N 
ATOM     53  N   UNL A   1      42.342  29.510  29.860  1.00  0.00    -0.248 NA
ATOM     54  C   UNL A   1      40.556  30.985  30.157  1.00  0.00     0.031 C 
ATOM     55  C   UNL A   1      46.545  30.409  30.972  1.00  0.00     0.029 A 
ATOM     56  C   UNL A   1      45.223  30.149  30.647  1.00  0.00     0.049 A 
ATOM     57  H   UNL A   1      44.369  28.387  29.862  1.00  0.00     0.167 HD
ATOM     58  C   UNL A   1      42.816  30.695  30.408  1.00  0.00     0.074 A 
ATOM     59  C   UNL A   1      41.678  31.580  30.538  1.00  0.00     0.031 C 
ATOM     60  C   UNL A   1      44.081  31.020  30.770  1.00  0.00     0.037 A 
BRANCH  47  61
ATOM     61  C   UNL A   1      48.188  26.478  29.926  1.00  0.00     0.057 A 
ATOM     62  C   UNL A   1      48.625  25.797  31.071  1.00  0.00     0.134 A 
ATOM     63  C   UNL A   1      49.120  26.676  28.900  1.00  0.00     0.134 A 
ATOM     64  F   UNL A   1      47.786  25.582  32.096  1.00  0.00    -0.206 F 
ATOM     65  C   UNL A   1      49.944  25.358  31.201  1.00  0.00     0.040 A 
ATOM     66  C   UNL A   1      50.433  26.215  29.006  1.00  0.00     0.040 A 
ATOM     67  F   UNL A   1      48.768  27.313  27.773  1.00  0.00    -0.206 F 
ATOM     68  C   UNL A   1      50.851  25.561  30.164  1.00  0.00     0.006 A 
ENDBRANCH  47  61
BRANCH  48  69
ATOM     69  C   UNL A   1      38.609  29.130  29.009  1.00  0.00     0.057 A 
ATOM     70  C   UNL A   1      38.086  29.613  27.803  1.00  0.00     0.134 A 
ATOM     71  C   UNL A   1      37.736  29.048  30.100  1.00  0.00     0.134 A 
ATOM     72  F   UNL A   1      38.878  29.733  26.726  1.00  0.00    -0.206 F 
ATOM     73  C   UNL A   1      36.755  30.016  27.690  1.00  0.00     0.040 A 
ATOM     74  C   UNL A   1      36.396  29.421  29.996  1.00  0.00     0.040 A 
ATOM     75  F   UNL A   1      38.172  28.586  31.282  1.00  0.00    -0.206 F 
ATOM     76  C   UNL A   1      35.904  29.915  28.789  1.00  0.00     0.006 A 
ENDBRANCH  48  69
BRANCH  60  77
ATOM     77  C   UNL A   1      44.307  32.401  31.313  1.00  0.00     0.057 A 
ATOM     78  C   UNL A   1      44.222  32.682  32.683  1.00  0.00     0.134 A 
ATOM     79  C   UNL A   1      44.650  33.457  30.457  1.00  0.00     0.134 A 
ATOM     80  F   UNL A   1      43.885  31.720  33.555  1.00  0.00    -0.206 F 
ATOM     81  C   UNL A   1      44.447  33.967  33.179  1.00  0.00     0.040 A 
ATOM     82  C   UNL A   1      44.904  34.739  30.945  1.00  0.00     0.040 A 
ATOM     83  F   UNL A   1      44.756  33.255  29.135  1.00  0.00    -0.206 F 
ATOM     84  C   UNL A   1      44.797  34.999  32.309  1.00  0.00     0.006 A 
ENDBRANCH  60  77
ENDBRANCH  34  35
ENDBRANCH  26  29
ENDBRANCH  24  25
ENDBRANCH  23  24
ENDBRANCH  22  23
ENDBRANCH   1  22
TORSDOF 15
ENDMDL
MODEL 2
REMARK VINA RESULT:     -10.7      4.333      9.180
REMARK SMILES C[C@H]1[C@H](C(=O)NCCCCCCNC(=O)c2ccc(-c3c4nc(c(-c5c(F)cccc5F)c5ccc([nH]5)c(-c5c(F)cccc5F)c5nc(c(-c6c(F)cccc6F)c6ccc3[nH]6)C=C5)C=C4)cc2)CCN1C(=O)[C@H]1CC=CCC1
REMARK SMILES IDX 9 1 8 2 7 3 6 4 4 5 5 6 3 8 1 9 2 10 72 11 70 12 71 13 73 14
REMARK SMILES IDX 74 15 75 16 76 17 80 18 77 19 79 20 78 21 10 22 11 23 12 24
REMARK SMILES IDX 13 25 14 26 15 28 16 29 17 30 69 31 18 32 68 33 19 34 20 35
REMARK SMILES IDX 21 36 62 37 22 38 67 39 61 40 63 41 23 42 66 43 60 44 59 45
REMARK SMILES IDX 24 47 50 48 33 49 49 50 34 51 37 52 48 53 64 54 35 55 36 56
REMARK SMILES IDX 47 58 65 59 38 60 25 61 26 62 31 63 27 64 28 65 30 66 32 67
REMARK SMILES IDX 29 68 51 69 52 70 57 71 53 72 54 73 56 74 58 75 55 76 39 77
REMARK SMILES IDX 40 78 45 79 41 80 42 81 44 82 46 83 43 84
REMARK H PARENT 6 7 13 27 63 46 37 57
REMARK Flexibility Score: inf
ROOT
ATOM      1  C   UNL A   1      33.081  30.481  27.326  1.00  0.00     0.002 C 
ENDROOT
BRANCH   1   2
ATOM      2  C   UNL A   1      33.341  28.975  27.346  1.00  0.00     0.021 C 
BRANCH   2   3
ATOM      3  C   UNL A   1      34.484  28.482  26.463  1.00  0.00     0.116 C 
BRANCH   3   4
ATOM      4  N   UNL A   1      34.323  28.926  25.093  1.00  0.00    -0.356 N 
ATOM      5  C   UNL A   1      33.598  28.427  24.061  1.00  0.00     0.225 C 
ATOM      6  O   UNL A   1      33.691  29.021  22.981  1.00  0.00    -0.275 OA
ATOM      7  H   UNL A   1      34.832  29.740  24.871  1.00  0.00     0.163 HD
BRANCH   5   8
ATOM      8  C   UNL A   1      32.715  27.191  24.158  1.00  0.00     0.102 C 
ATOM      9  C   UNL A   1      31.111  26.587  25.980  1.00  0.00     0.032 C 
ATOM     10  C   UNL A   1      31.314  27.467  24.741  1.00  0.00     0.094 C 
ATOM     11  N   UNL A   1      30.380  27.117  23.669  1.00  0.00    -0.339 N 
ATOM     12  C   UNL A   1      32.506  26.423  22.855  1.00  0.00     0.037 C 
ATOM     13  C   UNL A   1      31.010  26.155  22.777  1.00  0.00     0.120 C 
BRANCH  11  14
ATOM     14  C   UNL A   1      29.084  27.505  23.413  1.00  0.00     0.226 C 
ATOM     15  O   UNL A   1      28.158  26.788  23.824  1.00  0.00    -0.275 OA
BRANCH  14  16
ATOM     16  C   UNL A   1      28.678  28.743  22.591  1.00  0.00     0.083 C 
ATOM     17  C   UNL A   1      27.311  29.366  22.872  1.00  0.00     0.040 C 
ATOM     18  C   UNL A   1      29.794  29.763  22.347  1.00  0.00     0.018 C 
ATOM     19  C   UNL A   1      27.342  30.691  23.573  1.00  0.00    -0.030 C 
ATOM     20  C   UNL A   1      29.804  30.958  23.295  1.00  0.00     0.028 C 
ATOM     21  C   UNL A   1      28.458  31.405  23.757  1.00  0.00    -0.031 C 
ENDBRANCH  14  16
ENDBRANCH  11  14
ENDBRANCH   5   8
ENDBRANCH   3   4
ENDBRANCH   2   3
ENDBRANCH   1   2
BRANCH   1  22
ATOM     22  C   UNL A   1      31.708  30.906  26.808  1.00  0.00     0.002 C 
BRANCH  22  23
ATOM     23  C   UNL A   1      31.421  32.407  26.852  1.00  0.00     0.021 C 
BRANCH  23  24
ATOM     24  C   UNL A   1      32.650  33.312  26.865  1.00  0.00     0.116 C 
BRANCH  24  25
ATOM     25  N   UNL A   1      32.489  34.464  27.736  1.00  0.00    -0.352 N 
ATOM     26  C   UNL A   1      33.136  34.772  28.904  1.00  0.00     0.251 C 
ATOM     27  H   UNL A   1      31.815  35.120  27.444  1.00  0.00     0.163 HD
ATOM     28  O   UNL A   1      32.744  35.709  29.600  1.00  0.00    -0.269 OA
BRANCH  26  29
ATOM     29  C   UNL A   1      34.292  33.965  29.345  1.00  0.00     0.039 A 
ATOM     30  C   UNL A   1      35.580  34.399  29.023  1.00  0.00     0.014 A 
ATOM     31  C   UNL A   1      34.109  32.783  30.070  1.00  0.00     0.014 A 
ATOM     32  C   UNL A   1      36.686  33.682  29.481  1.00  0.00     0.010 A 
ATOM     33  C   UNL A   1      35.212  32.111  30.588  1.00  0.00     0.010 A 
ATOM     34  C   UNL A   1      36.512  32.552  30.297  1.00  0.00    -0.014 A 
BRANCH  34  35
ATOM     35  C   UNL A   1      37.680  31.824  30.856  1.00  0.00     0.031 A 
ATOM     36  C   UNL A   1      38.193  32.153  32.230  1.00  0.00     0.074 A 
ATOM     37  C   UNL A   1      38.313  30.903  30.103  1.00  0.00     0.049 A 
ATOM     38  N   UNL A   1      39.227  31.662  32.866  1.00  0.00    -0.248 NA
ATOM     39  C   UNL A   1      37.464  33.188  32.980  1.00  0.00     0.031 C 
ATOM     40  C   UNL A   1      37.941  30.526  28.737  1.00  0.00     0.029 A 
ATOM     41  N   UNL A   1      39.409  30.124  30.376  1.00  0.00    -0.354 N 
ATOM     42  C   UNL A   1      39.276  32.334  34.082  1.00  0.00     0.074 A 
ATOM     43  C   UNL A   1      38.204  33.305  34.071  1.00  0.00     0.031 C 
ATOM     44  C   UNL A   1      38.778  29.570  28.303  1.00  0.00     0.029 A 
ATOM     45  C   UNL A   1      39.768  29.296  29.340  1.00  0.00     0.049 A 
ATOM     46  H   UNL A   1      39.893  30.155  31.233  1.00  0.00     0.167 HD
ATOM     47  C   UNL A   1      40.123  32.143  35.122  1.00  0.00     0.037 A 
ATOM     48  C   UNL A   1      40.785  28.420  29.233  1.00  0.00     0.037 A 
ATOM     49  C   UNL A   1      41.180  31.165  35.135  1.00  0.00     0.049 A 
ATOM     50  C   UNL A   1      41.725  28.242  30.393  1.00  0.00     0.074 A 
ATOM     51  C   UNL A   1      42.054  30.854  36.162  1.00  0.00     0.029 A 
ATOM     52  N   UNL A   1      41.510  30.343  34.067  1.00  0.00    -0.354 N 
ATOM     53  N   UNL A   1      41.716  28.832  31.564  1.00  0.00    -0.248 NA
ATOM     54  C   UNL A   1      42.815  27.272  30.219  1.00  0.00     0.031 C 
ATOM     55  C   UNL A   1      42.946  29.881  35.699  1.00  0.00     0.029 A 
ATOM     56  C   UNL A   1      42.592  29.545  34.402  1.00  0.00     0.049 A 
ATOM     57  H   UNL A   1      41.044  30.329  33.201  1.00  0.00     0.167 HD
ATOM     58  C   UNL A   1      42.778  28.286  32.274  1.00  0.00     0.074 A 
ATOM     59  C   UNL A   1      43.400  27.306  31.408  1.00  0.00     0.031 C 
ATOM     60  C   UNL A   1      43.200  28.572  33.530  1.00  0.00     0.037 A 
BRANCH  47  61
ATOM     61  C   UNL A   1      39.939  33.011  36.333  1.00  0.00     0.057 A 
ATOM     62  C   UNL A   1      40.671  34.192  36.514  1.00  0.00     0.134 A 
ATOM     63  C   UNL A   1      38.996  32.682  37.315  1.00  0.00     0.134 A 
ATOM     64  F   UNL A   1      41.598  34.563  35.617  1.00  0.00    -0.206 F 
ATOM     65  C   UNL A   1      40.496  34.996  37.642  1.00  0.00     0.040 A 
ATOM     66  C   UNL A   1      38.790  33.493  38.432  1.00  0.00     0.040 A 
ATOM     67  F   UNL A   1      38.254  31.570  37.201  1.00  0.00    -0.206 F 
ATOM     68  C   UNL A   1      39.547  34.650  38.602  1.00  0.00     0.006 A 
ENDBRANCH  47  61
BRANCH  48  69
ATOM     69  C   UNL A   1      40.958  27.630  27.988  1.00  0.00     0.057 A 
ATOM     70  C   UNL A   1      41.720  28.122  26.921  1.00  0.00     0.134 A 
ATOM     71  C   UNL A   1      40.362  26.373  27.827  1.00  0.00     0.134 A 
ATOM     72  F   UNL A   1      42.302  29.328  27.008  1.00  0.00    -0.206 F 
ATOM     73  C   UNL A   1      41.869  27.402  25.735  1.00  0.00     0.040 A 
ATOM     74  C   UNL A   1      40.523  25.631  26.657  1.00  0.00     0.040 A 
ATOM     75  F   UNL A   1      39.625  25.843  28.814  1.00  0.00    -0.206 F 
ATOM     76  C   UNL A   1      41.273  26.150  25.602  1.00  0.00     0.006 A 
ENDBRANCH  48  69
BRANCH  60  77
ATOM     77  C   UNL A   1      44.371  27.793  34.055  1.00  0.00     0.057 A 
ATOM     78  C   UNL A   1      45.682  28.276  33.967  1.00  0.00     0.134 A 
ATOM     79  C   UNL A   1      44.179  26.559  34.691  1.00  0.00     0.134 A 
ATOM     80  F   UNL A   1      45.937  29.445  33.358  1.00  0.00    -0.206 F 
ATOM     81  C   UNL A   1      46.763  27.550  34.470  1.00  0.00     0.040 A 
ATOM     82  C   UNL A   1      45.248  25.837  35.223  1.00  0.00     0.040 A 
ATOM     83  F   UNL A   1      42.947  26.042  34.817  1.00  0.00    -0.206 F 
ATOM     84  C   UNL A   1      46.546  26.330  35.109  1.00  0.00     0.006 A 
ENDBRANCH  60  77
ENDBRANCH  34  35
ENDBRANCH  26  29
ENDBRANCH  24  25
ENDBRANCH  23  24
ENDBRANCH  22  23
ENDBRANCH   1  22
TORSDOF 15
ENDMDL
MODEL 3
REMARK VINA RESULT:     -10.6      1.214      6.563
REMARK SMILES C[C@H]1[C@H](C(=O)NCCCCCCNC(=O)c2ccc(-c3c4nc(c(-c5c(F)cccc5F)c5ccc([nH]5)c(-c5c(F)cccc5F)c5nc(c(-c6c(F)cccc6F)c6ccc3[nH]6)C=C5)C=C4)cc2)CCN1C(=O)[C@H]1CC=CCC1
REMARK SMILES IDX 9 1 8 2 7 3 6 4 4 5 5 6 3 8 1 9 2 10 72 11 70 12 71 13 73 14
REMARK SMILES IDX 74 15 75 16 76 17 80 18 77 19 79 20 78 21 10 22 11 23 12 24
REMARK SMILES IDX 13 25 14 26 15 28 16 29 17 30 69 31 18 32 68 33 19 34 20 35
REMARK SMILES IDX 21 36 62 37 22 38 67 39 61 40 63 41 23 42 66 43 60 44 59 45
REMARK SMILES IDX 24 47 50 48 33 49 49 50 34 51 37 52 48 53 64 54 35 55 36 56
REMARK SMILES IDX 47 58 65 59 38 60 25 61 26 62 31 63 27 64 28 65 30 66 32 67
REMARK SMILES IDX 29 68 51 69 52 70 57 71 53 72 54 73 56 74 58 75 55 76 39 77
REMARK SMILES IDX 40 78 45 79 41 80 42 81 44 82 46 83 43 84
REMARK H PARENT 6 7 13 27 63 46 37 57
REMARK Flexibility Score: inf
ROOT
ATOM      1  C   UNL A   1      34.966  20.079  24.960  1.00  0.00     0.002 C 
ENDROOT
BRANCH   1   2
ATOM      2  C   UNL A   1      33.763  20.598  25.746  1.00  0.00     0.021 C 
BRANCH   2   3
ATOM      3  C   UNL A   1      34.083  21.425  26.989  1.00  0.00     0.116 C 
BRANCH   3   4
ATOM      4  N   UNL A   1      32.930  22.180  27.433  1.00  0.00    -0.356 N 
ATOM      5  C   UNL A   1      32.189  23.140  26.823  1.00  0.00     0.225 C 
ATOM      6  O   UNL A   1      31.267  23.630  27.484  1.00  0.00    -0.275 OA
ATOM      7  H   UNL A   1      32.627  21.956  28.343  1.00  0.00     0.163 HD
BRANCH   5   8
ATOM      8  C   UNL A   1      32.444  23.645  25.410  1.00  0.00     0.102 C 
ATOM      9  C   UNL A   1      30.860  23.663  23.474  1.00  0.00     0.032 C 
ATOM     10  C   UNL A   1      31.240  24.374  24.779  1.00  0.00     0.094 C 
ATOM     11  N   UNL A   1      31.708  25.739  24.535  1.00  0.00    -0.339 N 
ATOM     12  C   UNL A   1      33.652  24.565  25.243  1.00  0.00     0.037 C 
ATOM     13  C   UNL A   1      33.157  25.737  24.409  1.00  0.00     0.120 C 
BRANCH  11  14
ATOM     14  C   UNL A   1      31.033  26.930  24.386  1.00  0.00     0.226 C 
ATOM     15  O   UNL A   1      30.424  27.139  23.324  1.00  0.00    -0.275 OA
BRANCH  14  16
ATOM     16  C   UNL A   1      31.023  28.075  25.416  1.00  0.00     0.083 C 
ATOM     17  C   UNL A   1      31.367  27.730  26.866  1.00  0.00     0.040 C 
ATOM     18  C   UNL A   1      31.616  29.401  24.930  1.00  0.00     0.018 C 
ATOM     19  C   UNL A   1      32.697  28.228  27.345  1.00  0.00    -0.030 C 
ATOM     20  C   UNL A   1      33.064  29.656  25.336  1.00  0.00     0.028 C 
ATOM     21  C   UNL A   1      33.454  29.094  26.663  1.00  0.00    -0.031 C 
ENDBRANCH  14  16
ENDBRANCH  11  14
ENDBRANCH   5   8
ENDBRANCH   3   4
ENDBRANCH   2   3
ENDBRANCH   1   2
BRANCH   1  22
ATOM     22  C   UNL A   1      36.248  20.898  25.098  1.00  0.00     0.002 C 
BRANCH  22  23
ATOM     23  C   UNL A   1      37.549  20.138  24.840  1.00  0.00     0.021 C 
BRANCH  23  24
ATOM     24  C   UNL A   1      38.728  20.534  25.726  1.00  0.00     0.116 C 
BRANCH  24  25
ATOM     25  N   UNL A   1      39.768  19.518  25.761  1.00  0.00    -0.352 N 
ATOM     26  C   UNL A   1      41.097  19.641  26.068  1.00  0.00     0.251 C 
ATOM     27  H   UNL A   1      39.472  18.607  25.530  1.00  0.00     0.163 HD
ATOM     28  O   UNL A   1      41.866  18.699  25.875  1.00  0.00    -0.269 OA
BRANCH  26  29
ATOM     29  C   UNL A   1      41.618  20.914  26.607  1.00  0.00     0.039 A 
ATOM     30  C   UNL A   1      42.137  21.860  25.720  1.00  0.00     0.014 A 
ATOM     31  C   UNL A   1      41.600  21.174  27.980  1.00  0.00     0.014 A 
ATOM     32  C   UNL A   1      42.580  23.091  26.204  1.00  0.00     0.010 A 
ATOM     33  C   UNL A   1      41.973  22.429  28.453  1.00  0.00     0.010 A 
ATOM     34  C   UNL A   1      42.469  23.400  27.570  1.00  0.00    -0.014 A 
BRANCH  34  35
ATOM     35  C   UNL A   1      42.864  24.736  28.088  1.00  0.00     0.031 A 
ATOM     36  C   UNL A   1      41.825  25.796  28.322  1.00  0.00     0.074 A 
ATOM     37  C   UNL A   1      44.167  25.010  28.294  1.00  0.00     0.049 A 
ATOM     38  N   UNL A   1      41.982  27.033  28.722  1.00  0.00    -0.248 NA
ATOM     39  C   UNL A   1      40.428  25.427  28.049  1.00  0.00     0.031 C 
ATOM     40  C   UNL A   1      45.275  24.081  28.061  1.00  0.00     0.029 A 
ATOM     41  N   UNL A   1      44.780  26.154  28.739  1.00  0.00    -0.354 N 
ATOM     42  C   UNL A   1      40.709  27.589  28.738  1.00  0.00     0.074 A 
ATOM     43  C   UNL A   1      39.799  26.575  28.254  1.00  0.00     0.031 C 
ATOM     44  C   UNL A   1      46.429  24.684  28.389  1.00  0.00     0.029 A 
ATOM     45  C   UNL A   1      46.148  26.051  28.816  1.00  0.00     0.049 A 
ATOM     46  H   UNL A   1      44.287  26.972  28.980  1.00  0.00     0.167 HD
ATOM     47  C   UNL A   1      40.330  28.826  29.141  1.00  0.00     0.037 A 
ATOM     48  C   UNL A   1      47.074  26.958  29.182  1.00  0.00     0.037 A 
ATOM     49  C   UNL A   1      41.237  29.829  29.636  1.00  0.00     0.049 A 
ATOM     50  C   UNL A   1      46.629  28.331  29.604  1.00  0.00     0.074 A 
ATOM     51  C   UNL A   1      40.943  31.091  30.123  1.00  0.00     0.029 A 
ATOM     52  N   UNL A   1      42.614  29.685  29.702  1.00  0.00    -0.354 N 
ATOM     53  N   UNL A   1      45.415  28.820  29.683  1.00  0.00    -0.248 NA
ATOM     54  C   UNL A   1      47.684  29.278  29.992  1.00  0.00     0.031 C 
ATOM     55  C   UNL A   1      42.148  31.730  30.435  1.00  0.00     0.029 A 
ATOM     56  C   UNL A   1      43.188  30.847  30.195  1.00  0.00     0.049 A 
ATOM     57  H   UNL A   1      43.112  28.879  29.437  1.00  0.00     0.167 HD
ATOM     58  C   UNL A   1      45.558  30.119  30.155  1.00  0.00     0.074 A 
ATOM     59  C   UNL A   1      46.975  30.336  30.360  1.00  0.00     0.031 C 
ATOM     60  C   UNL A   1      44.601  31.048  30.396  1.00  0.00     0.037 A 
BRANCH  47  61
ATOM     61  C   UNL A   1      38.868  29.161  29.063  1.00  0.00     0.057 A 
ATOM     62  C   UNL A   1      38.267  29.572  27.865  1.00  0.00     0.134 A 
ATOM     63  C   UNL A   1      38.043  29.042  30.188  1.00  0.00     0.134 A 
ATOM     64  F   UNL A   1      39.000  29.716  26.750  1.00  0.00    -0.206 F 
ATOM     65  C   UNL A   1      36.907  29.882  27.797  1.00  0.00     0.040 A 
ATOM     66  C   UNL A   1      36.677  29.320  30.126  1.00  0.00     0.040 A 
ATOM     67  F   UNL A   1      38.550  28.646  31.366  1.00  0.00    -0.206 F 
ATOM     68  C   UNL A   1      36.107  29.750  28.930  1.00  0.00     0.006 A 
ENDBRANCH  47  61
BRANCH  48  69
ATOM     69  C   UNL A   1      48.513  26.593  29.183  1.00  0.00     0.057 A 
ATOM     70  C   UNL A   1      49.103  25.987  30.299  1.00  0.00     0.134 A 
ATOM     71  C   UNL A   1      49.336  26.849  28.079  1.00  0.00     0.134 A 
ATOM     72  F   UNL A   1      48.371  25.733  31.394  1.00  0.00    -0.206 F 
ATOM     73  C   UNL A   1      50.460  25.664  30.324  1.00  0.00     0.040 A 
ATOM     74  C   UNL A   1      50.688  26.508  28.081  1.00  0.00     0.040 A 
ATOM     75  F   UNL A   1      48.830  27.421  26.977  1.00  0.00    -0.206 F 
ATOM     76  C   UNL A   1      51.257  25.920  29.209  1.00  0.00     0.006 A 
ENDBRANCH  48  69
BRANCH  60  77
ATOM     77  C   UNL A   1      45.051  32.373  30.939  1.00  0.00     0.057 A 
ATOM     78  C   UNL A   1      45.319  33.464  30.103  1.00  0.00     0.134 A 
ATOM     79  C   UNL A   1      45.181  32.570  32.321  1.00  0.00     0.134 A 
ATOM     80  F   UNL A   1      45.226  33.339  28.771  1.00  0.00    -0.206 F 
ATOM     81  C   UNL A   1      45.724  34.697  30.619  1.00  0.00     0.040 A 
ATOM     82  C   UNL A   1      45.558  33.805  32.849  1.00  0.00     0.040 A 
ATOM     83  F   UNL A   1      44.932  31.569  33.179  1.00  0.00    -0.206 F 
ATOM     84  C   UNL A   1      45.836  34.872  31.997  1.00  0.00     0.006 A 
ENDBRANCH  60  77
ENDBRANCH  34  35
ENDBRANCH  26  29
ENDBRANCH  24  25
ENDBRANCH  23  24
ENDBRANCH  22  23
ENDBRANCH   1  22
TORSDOF 15
ENDMDL
