MODEL 1
REMARK VINA RESULT:     -12.2      0.000      0.000
REMARK SMILES O=C(NCCCCCCNC(=O)c1cc(Br)ccc1N1CC2(CCCCC2)C1)c1ccc(-c2c3nc(c(-c4c(F)cccc4F)c4ccc([nH]4)c(-c4c(F)cccc4F)c4nc(c(-c5c(F)cccc5F)c5ccc2[nH]5)C=C4)C=C3)cc1
REMARK SMILES IDX 6 1 5 2 4 3 3 4 1 5 2 6 29 8 30 9 82 10 31 11 81 12 32 13
REMARK SMILES IDX 33 14 34 15 75 16 35 17 80 18 74 19 76 20 36 21 79 22 73 23
REMARK SMILES IDX 72 24 37 26 63 27 46 28 62 29 47 30 50 31 61 32 77 33 48 34
REMARK SMILES IDX 49 35 60 37 78 38 51 39 38 40 39 41 44 42 40 43 41 44 43 45
REMARK SMILES IDX 45 46 42 47 64 48 65 49 70 50 66 51 67 52 69 53 71 54 68 55
REMARK SMILES IDX 52 56 53 57 58 58 54 59 55 60 57 61 59 62 56 63 7 64 8 65
REMARK SMILES IDX 9 66 10 67 11 68 12 70 13 71 14 72 19 73 15 74 18 75 16 76
REMARK SMILES IDX 17 77 20 78 21 79 28 80 22 81 23 82 27 83 24 84 26 85 25 86
REMARK H PARENT 3 7 76 25 50 36 10 69
REMARK Flexibility Score: inf
ROOT
ATOM      1  C   UNL A   1      37.424  20.871  24.626  1.00  0.00     0.002 C 
ENDROOT
BRANCH   1   2
ATOM      2  C   UNL A   1      38.241  19.608  24.900  1.00  0.00     0.021 C 
BRANCH   2   3
ATOM      3  C   UNL A   1      39.187  19.668  26.093  1.00  0.00     0.116 C 
BRANCH   3   4
ATOM      4  N   UNL A   1      40.358  18.831  25.938  1.00  0.00    -0.352 N 
ATOM      5  O   UNL A   1      42.551  18.343  25.736  1.00  0.00    -0.269 OA
ATOM      6  C   UNL A   1      41.688  19.179  26.000  1.00  0.00     0.251 C 
ATOM      7  H   UNL A   1      40.176  17.879  25.764  1.00  0.00     0.163 HD
BRANCH   6   8
ATOM      8  C   UNL A   1      42.091  20.559  26.352  1.00  0.00     0.039 A 
ATOM      9  C   UNL A   1      42.269  21.542  25.376  1.00  0.00     0.014 A 
ATOM     10  C   UNL A   1      42.254  20.883  27.704  1.00  0.00     0.014 A 
ATOM     11  C   UNL A   1      42.708  22.816  25.740  1.00  0.00     0.010 A 
ATOM     12  C   UNL A   1      42.641  22.176  28.074  1.00  0.00     0.010 A 
ATOM     13  C   UNL A   1      42.891  23.145  27.092  1.00  0.00    -0.014 A 
BRANCH  13  14
ATOM     14  C   UNL A   1      43.277  24.529  27.463  1.00  0.00     0.031 A 
ATOM     15  C   UNL A   1      44.704  24.989  27.375  1.00  0.00     0.074 A 
ATOM     16  C   UNL A   1      42.319  25.382  27.873  1.00  0.00     0.049 A 
ATOM     17  N   UNL A   1      45.205  26.172  27.635  1.00  0.00    -0.248 NA
ATOM     18  C   UNL A   1      45.701  23.997  26.946  1.00  0.00     0.031 C 
ATOM     19  C   UNL A   1      40.902  25.047  28.024  1.00  0.00     0.029 A 
ATOM     20  N   UNL A   1      42.390  26.705  28.224  1.00  0.00    -0.354 N 
ATOM     21  C   UNL A   1      46.571  26.063  27.419  1.00  0.00     0.074 A 
ATOM     22  C   UNL A   1      46.827  24.696  27.017  1.00  0.00     0.031 C 
ATOM     23  C   UNL A   1      40.231  26.145  28.405  1.00  0.00     0.029 A 
ATOM     24  C   UNL A   1      41.173  27.248  28.556  1.00  0.00     0.049 A 
ATOM     25  H   UNL A   1      43.232  27.216  28.238  1.00  0.00     0.167 HD
ATOM     26  C   UNL A   1      47.524  27.018  27.539  1.00  0.00     0.037 A 
ATOM     27  C   UNL A   1      40.850  28.495  28.942  1.00  0.00     0.037 A 
ATOM     28  C   UNL A   1      47.271  28.385  27.915  1.00  0.00     0.049 A 
ATOM     29  C   UNL A   1      41.924  29.536  29.054  1.00  0.00     0.074 A 
ATOM     30  C   UNL A   1      48.170  29.433  28.011  1.00  0.00     0.029 A 
ATOM     31  N   UNL A   1      46.028  28.892  28.256  1.00  0.00    -0.354 N 
ATOM     32  N   UNL A   1      43.207  29.426  28.808  1.00  0.00    -0.248 NA
ATOM     33  C   UNL A   1      41.507  30.872  29.502  1.00  0.00     0.031 C 
ATOM     34  C   UNL A   1      47.473  30.571  28.434  1.00  0.00     0.029 A 
ATOM     35  C   UNL A   1      46.139  30.235  28.580  1.00  0.00     0.049 A 
ATOM     36  H   UNL A   1      45.190  28.375  28.268  1.00  0.00     0.167 HD
ATOM     37  C   UNL A   1      43.749  30.675  29.070  1.00  0.00     0.074 A 
ATOM     38  C   UNL A   1      42.655  31.534  29.474  1.00  0.00     0.031 C 
ATOM     39  C   UNL A   1      45.042  31.071  28.989  1.00  0.00     0.037 A 
BRANCH  26  40
ATOM     40  C   UNL A   1      48.941  26.621  27.265  1.00  0.00     0.057 A 
ATOM     41  C   UNL A   1      49.772  26.124  28.274  1.00  0.00     0.134 A 
ATOM     42  C   UNL A   1      49.459  26.678  25.965  1.00  0.00     0.134 A 
ATOM     43  F   UNL A   1      49.335  26.053  29.541  1.00  0.00    -0.206 F 
ATOM     44  C   UNL A   1      51.074  25.702  28.003  1.00  0.00     0.040 A 
ATOM     45  C   UNL A   1      50.754  26.248  25.679  1.00  0.00     0.040 A 
ATOM     46  F   UNL A   1      48.709  27.143  24.954  1.00  0.00    -0.206 F 
ATOM     47  C   UNL A   1      51.567  25.758  26.699  1.00  0.00     0.006 A 
ENDBRANCH  26  40
BRANCH  27  48
ATOM     48  C   UNL A   1      39.439  28.826  29.241  1.00  0.00     0.057 A 
ATOM     49  C   UNL A   1      38.910  28.631  30.520  1.00  0.00     0.134 A 
ATOM     50  C   UNL A   1      38.595  29.360  28.262  1.00  0.00     0.134 A 
ATOM     51  F   UNL A   1      39.671  28.106  31.492  1.00  0.00    -0.206 F 
ATOM     52  C   UNL A   1      37.586  28.953  30.816  1.00  0.00     0.040 A 
ATOM     53  C   UNL A   1      37.274  29.703  28.548  1.00  0.00     0.040 A 
ATOM     54  F   UNL A   1      39.052  29.572  27.017  1.00  0.00    -0.206 F 
ATOM     55  C   UNL A   1      36.766  29.496  29.829  1.00  0.00     0.006 A 
ENDBRANCH  27  48
BRANCH  39  56
ATOM     56  C   UNL A   1      45.334  32.494  29.345  1.00  0.00     0.057 A 
ATOM     57  C   UNL A   1      45.256  33.514  28.389  1.00  0.00     0.134 A 
ATOM     58  C   UNL A   1      45.677  32.852  30.653  1.00  0.00     0.134 A 
ATOM     59  F   UNL A   1      44.946  33.229  27.115  1.00  0.00    -0.206 F 
ATOM     60  C   UNL A   1      45.525  34.842  28.719  1.00  0.00     0.040 A 
ATOM     61  C   UNL A   1      45.935  34.178  30.999  1.00  0.00     0.040 A 
ATOM     62  F   UNL A   1      45.767  31.919  31.614  1.00  0.00    -0.206 F 
ATOM     63  C   UNL A   1      45.862  35.177  30.030  1.00  0.00     0.006 A 
ENDBRANCH  39  56
ENDBRANCH  13  14
ENDBRANCH   6   8
ENDBRANCH   3   4
ENDBRANCH   2   3
ENDBRANCH   1   2
BRANCH   1  64
ATOM     64  C   UNL A   1      37.621  22.043  25.590  1.00  0.00     0.002 C 
BRANCH  64  65
ATOM     65  C   UNL A   1      37.299  23.446  25.064  1.00  0.00     0.021 C 
BRANCH  65  66
ATOM     66  C   UNL A   1      35.822  23.803  24.914  1.00  0.00     0.116 C 
BRANCH  66  67
ATOM     67  N   UNL A   1      35.316  23.586  23.585  1.00  0.00    -0.352 N 
ATOM     68  C   UNL A   1      34.010  23.389  23.182  1.00  0.00     0.253 C 
ATOM     69  H   UNL A   1      35.990  23.576  22.867  1.00  0.00     0.163 HD
ATOM     70  O   UNL A   1      33.743  23.326  21.980  1.00  0.00    -0.269 OA
BRANCH  68  71
ATOM     71  C   UNL A   1      32.941  23.303  24.187  1.00  0.00     0.064 A 
ATOM     72  C   UNL A   1      32.262  24.497  24.475  1.00  0.00     0.031 A 
ATOM     73  C   UNL A   1      32.515  22.075  24.720  1.00  0.00     0.050 A 
ATOM     74  C   UNL A   1      31.170  24.483  25.338  1.00  0.00     0.018 A 
ATOM     75  C   UNL A   1      31.391  22.094  25.570  1.00  0.00     0.028 A 
ATOM     76  Br  UNL A   1      30.275  26.094  25.747  1.00  0.00    -0.051 Br
ATOM     77  C   UNL A   1      30.732  23.285  25.888  1.00  0.00     0.018 A 
BRANCH  73  78
ATOM     78  N   UNL A   1      33.118  20.828  24.480  1.00  0.00    -0.370 N 
ATOM     79  C   UNL A   1      32.662  19.624  23.873  1.00  0.00     0.125 C 
ATOM     80  C   UNL A   1      34.135  20.206  25.272  1.00  0.00     0.125 C 
ATOM     81  C   UNL A   1      33.605  18.832  24.809  1.00  0.00     0.005 C 
ATOM     82  C   UNL A   1      34.673  17.968  24.129  1.00  0.00     0.011 C 
ATOM     83  C   UNL A   1      32.884  18.046  25.912  1.00  0.00     0.011 C 
ATOM     84  C   UNL A   1      34.046  16.697  23.561  1.00  0.00     0.001 C 
ATOM     85  C   UNL A   1      32.242  16.790  25.325  1.00  0.00     0.001 C 
ATOM     86  C   UNL A   1      33.278  15.916  24.626  1.00  0.00     0.000 C 
ENDBRANCH  73  78
ENDBRANCH  68  71
ENDBRANCH  66  67
ENDBRANCH  65  66
ENDBRANCH  64  65
ENDBRANCH   1  64
TORSDOF 14
ENDMDL
MODEL 2
REMARK VINA RESULT:     -12.1      5.560     10.586
REMARK SMILES O=C(NCCCCCCNC(=O)c1cc(Br)ccc1N1CC2(CCCCC2)C1)c1ccc(-c2c3nc(c(-c4c(F)cccc4F)c4ccc([nH]4)c(-c4c(F)cccc4F)c4nc(c(-c5c(F)cccc5F)c5ccc2[nH]5)C=C4)C=C3)cc1
REMARK SMILES IDX 6 1 5 2 4 3 3 4 1 5 2 6 29 8 30 9 82 10 31 11 81 12 32 13
REMARK SMILES IDX 33 14 34 15 75 16 35 17 80 18 74 19 76 20 36 21 79 22 73 23
REMARK SMILES IDX 72 24 37 26 63 27 46 28 62 29 47 30 50 31 61 32 77 33 48 34
REMARK SMILES IDX 49 35 60 37 78 38 51 39 38 40 39 41 44 42 40 43 41 44 43 45
REMARK SMILES IDX 45 46 42 47 64 48 65 49 70 50 66 51 67 52 69 53 71 54 68 55
REMARK SMILES IDX 52 56 53 57 58 58 54 59 55 60 57 61 59 62 56 63 7 64 8 65
REMARK SMILES IDX 9 66 10 67 11 68 12 70 13 71 14 72 19 73 15 74 18 75 16 76
REMARK SMILES IDX 17 77 20 78 21 79 28 80 22 81 23 82 27 83 24 84 26 85 25 86
REMARK H PARENT 3 7 76 25 50 36 10 69
REMARK Flexibility Score: inf
ROOT
ATOM      1  C   UNL A   1      31.550  30.634  26.583  1.00  0.00     0.002 C 
ENDROOT
BRANCH   1   2
ATOM      2  C   UNL A   1      31.383  32.141  26.777  1.00  0.00     0.021 C 
BRANCH   2   3
ATOM      3  C   UNL A   1      32.668  32.939  26.963  1.00  0.00     0.116 C 
BRANCH   3   4
ATOM      4  N   UNL A   1      32.466  34.193  27.658  1.00  0.00    -0.352 N 
ATOM      5  O   UNL A   1      32.773  35.757  29.254  1.00  0.00    -0.269 OA
ATOM      6  C   UNL A   1      33.159  34.715  28.726  1.00  0.00     0.251 C 
ATOM      7  H   UNL A   1      31.730  34.751  27.317  1.00  0.00     0.163 HD
BRANCH   6   8
ATOM      8  C   UNL A   1      34.349  34.019  29.266  1.00  0.00     0.039 A 
ATOM      9  C   UNL A   1      35.645  34.416  28.928  1.00  0.00     0.014 A 
ATOM     10  C   UNL A   1      34.156  32.965  30.167  1.00  0.00     0.014 A 
ATOM     11  C   UNL A   1      36.742  33.699  29.409  1.00  0.00     0.010 A 
ATOM     12  C   UNL A   1      35.258  32.281  30.693  1.00  0.00     0.010 A 
ATOM     13  C   UNL A   1      36.558  32.631  30.300  1.00  0.00    -0.014 A 
BRANCH  13  14
ATOM     14  C   UNL A   1      37.741  31.935  30.864  1.00  0.00     0.031 A 
ATOM     15  C   UNL A   1      38.229  32.230  32.253  1.00  0.00     0.074 A 
ATOM     16  C   UNL A   1      38.372  31.016  30.109  1.00  0.00     0.049 A 
ATOM     17  N   UNL A   1      39.230  31.691  32.905  1.00  0.00    -0.248 NA
ATOM     18  C   UNL A   1      37.508  33.264  33.009  1.00  0.00     0.031 C 
ATOM     19  C   UNL A   1      38.010  30.660  28.736  1.00  0.00     0.029 A 
ATOM     20  N   UNL A   1      39.442  30.206  30.393  1.00  0.00    -0.354 N 
ATOM     21  C   UNL A   1      39.270  32.329  34.137  1.00  0.00     0.074 A 
ATOM     22  C   UNL A   1      38.201  33.305  34.140  1.00  0.00     0.031 C 
ATOM     23  C   UNL A   1      38.821  29.680  28.309  1.00  0.00     0.029 A 
ATOM     24  C   UNL A   1      39.777  29.363  29.364  1.00  0.00     0.049 A 
ATOM     25  H   UNL A   1      39.922  30.228  31.253  1.00  0.00     0.167 HD
ATOM     26  C   UNL A   1      40.118  32.115  35.171  1.00  0.00     0.037 A 
ATOM     27  C   UNL A   1      40.750  28.438  29.275  1.00  0.00     0.037 A 
ATOM     28  C   UNL A   1      41.166  31.129  35.181  1.00  0.00     0.049 A 
ATOM     29  C   UNL A   1      41.666  28.214  30.441  1.00  0.00     0.074 A 
ATOM     30  C   UNL A   1      42.039  30.808  36.207  1.00  0.00     0.029 A 
ATOM     31  N   UNL A   1      41.483  30.304  34.114  1.00  0.00    -0.354 N 
ATOM     32  N   UNL A   1      41.665  28.800  31.613  1.00  0.00    -0.248 NA
ATOM     33  C   UNL A   1      42.720  27.204  30.270  1.00  0.00     0.031 C 
ATOM     34  C   UNL A   1      42.902  29.804  35.751  1.00  0.00     0.029 A 
ATOM     35  C   UNL A   1      42.550  29.486  34.451  1.00  0.00     0.049 A 
ATOM     36  H   UNL A   1      41.020  30.300  33.246  1.00  0.00     0.167 HD
ATOM     37  C   UNL A   1      42.715  28.231  32.319  1.00  0.00     0.074 A 
ATOM     38  C   UNL A   1      43.318  27.240  31.453  1.00  0.00     0.031 C 
ATOM     39  C   UNL A   1      43.144  28.512  33.573  1.00  0.00     0.037 A 
BRANCH  26  40
ATOM     40  C   UNL A   1      39.952  32.970  36.389  1.00  0.00     0.057 A 
ATOM     41  C   UNL A   1      40.698  34.140  36.571  1.00  0.00     0.134 A 
ATOM     42  C   UNL A   1      38.994  32.652  37.359  1.00  0.00     0.134 A 
ATOM     43  F   UNL A   1      41.637  34.492  35.680  1.00  0.00    -0.206 F 
ATOM     44  C   UNL A   1      40.500  34.963  37.680  1.00  0.00     0.040 A 
ATOM     45  C   UNL A   1      38.778  33.473  38.466  1.00  0.00     0.040 A 
ATOM     46  F   UNL A   1      38.245  31.544  37.238  1.00  0.00    -0.206 F 
ATOM     47  C   UNL A   1      39.533  34.633  38.630  1.00  0.00     0.006 A 
ENDBRANCH  26  40
BRANCH  27  48
ATOM     48  C   UNL A   1      40.896  27.648  28.033  1.00  0.00     0.057 A 
ATOM     49  C   UNL A   1      41.676  28.114  26.971  1.00  0.00     0.134 A 
ATOM     50  C   UNL A   1      40.277  26.402  27.887  1.00  0.00     0.134 A 
ATOM     51  F   UNL A   1      42.278  29.311  27.051  1.00  0.00    -0.206 F 
ATOM     52  C   UNL A   1      41.832  27.371  25.801  1.00  0.00     0.040 A 
ATOM     53  C   UNL A   1      40.439  25.639  26.730  1.00  0.00     0.040 A 
ATOM     54  F   UNL A   1      39.520  25.902  28.877  1.00  0.00    -0.206 F 
ATOM     55  C   UNL A   1      41.216  26.126  25.682  1.00  0.00     0.006 A 
ENDBRANCH  27  48
BRANCH  39  56
ATOM     56  C   UNL A   1      44.320  27.735  34.074  1.00  0.00     0.057 A 
ATOM     57  C   UNL A   1      45.623  28.233  33.956  1.00  0.00     0.134 A 
ATOM     58  C   UNL A   1      44.150  26.493  34.693  1.00  0.00     0.134 A 
ATOM     59  F   UNL A   1      45.848  29.413  33.358  1.00  0.00    -0.206 F 
ATOM     60  C   UNL A   1      46.721  27.513  34.425  1.00  0.00     0.040 A 
ATOM     61  C   UNL A   1      45.238  25.769  35.179  1.00  0.00     0.040 A 
ATOM     62  F   UNL A   1      42.924  25.965  34.836  1.00  0.00    -0.206 F 
ATOM     63  C   UNL A   1      46.529  26.277  35.043  1.00  0.00     0.006 A 
ENDBRANCH  39  56
ENDBRANCH  13  14
ENDBRANCH   6   8
ENDBRANCH   3   4
ENDBRANCH   2   3
ENDBRANCH   1   2
BRANCH   1  64
ATOM     64  C   UNL A   1      32.972  30.077  26.695  1.00  0.00     0.002 C 
BRANCH  64  65
ATOM     65  C   UNL A   1      33.145  28.736  27.416  1.00  0.00     0.021 C 
BRANCH  65  66
ATOM     66  C   UNL A   1      32.883  27.474  26.596  1.00  0.00     0.116 C 
BRANCH  66  67
ATOM     67  N   UNL A   1      31.581  26.906  26.826  1.00  0.00    -0.352 N 
ATOM     68  C   UNL A   1      30.817  26.132  25.975  1.00  0.00     0.253 C 
ATOM     69  H   UNL A   1      31.182  27.095  27.706  1.00  0.00     0.163 HD
ATOM     70  O   UNL A   1      29.764  25.635  26.380  1.00  0.00    -0.269 OA
BRANCH  68  71
ATOM     71  C   UNL A   1      31.289  25.865  24.610  1.00  0.00     0.064 A 
ATOM     72  C   UNL A   1      31.892  24.616  24.393  1.00  0.00     0.031 A 
ATOM     73  C   UNL A   1      31.020  26.739  23.543  1.00  0.00     0.050 A 
ATOM     74  C   UNL A   1      32.273  24.243  23.108  1.00  0.00     0.018 A 
ATOM     75  C   UNL A   1      31.396  26.319  22.251  1.00  0.00     0.028 A 
ATOM     76  Br  UNL A   1      33.109  22.574  22.822  1.00  0.00    -0.051 Br
ATOM     77  C   UNL A   1      32.028  25.091  22.035  1.00  0.00     0.018 A 
BRANCH  73  78
ATOM     78  N   UNL A   1      30.408  28.000  23.656  1.00  0.00    -0.370 N 
ATOM     79  C   UNL A   1      29.085  28.467  23.424  1.00  0.00     0.125 C 
ATOM     80  C   UNL A   1      31.038  29.272  23.469  1.00  0.00     0.125 C 
ATOM     81  C   UNL A   1      29.672  29.843  23.031  1.00  0.00     0.005 C 
ATOM     82  C   UNL A   1      29.220  31.043  23.870  1.00  0.00     0.011 C 
ATOM     83  C   UNL A   1      29.589  30.160  21.532  1.00  0.00     0.011 C 
ATOM     84  C   UNL A   1      27.801  31.455  23.486  1.00  0.00     0.001 C 
ATOM     85  C   UNL A   1      28.160  30.547  21.158  1.00  0.00     0.001 C 
ATOM     86  C   UNL A   1      27.673  31.730  21.989  1.00  0.00     0.000 C 
ENDBRANCH  73  78
ENDBRANCH  68  71
ENDBRANCH  66  67
ENDBRANCH  65  66
ENDBRANCH  64  65
ENDBRANCH   1  64
TORSDOF 14
ENDMDL
MODEL 3
REMARK VINA RESULT:     -12.1      0.230      6.114
REMARK SMILES O=C(NCCCCCCNC(=O)c1cc(Br)ccc1N1CC2(CCCCC2)C1)c1ccc(-c2c3nc(c(-c4c(F)cccc4F)c4ccc([nH]4)c(-c4c(F)cccc4F)c4nc(c(-c5c(F)cccc5F)c5ccc2[nH]5)C=C4)C=C3)cc1
REMARK SMILES IDX 6 1 5 2 4 3 3 4 1 5 2 6 29 8 30 9 82 10 31 11 81 12 32 13
REMARK SMILES IDX 33 14 34 15 75 16 35 17 80 18 74 19 76 20 36 21 79 22 73 23
REMARK SMILES IDX 72 24 37 26 63 27 46 28 62 29 47 30 50 31 61 32 77 33 48 34
REMARK SMILES IDX 49 35 60 37 78 38 51 39 38 40 39 41 44 42 40 43 41 44 43 45
REMARK SMILES IDX 45 46 42 47 64 48 65 49 70 50 66 51 67 52 69 53 71 54 68 55
REMARK SMILES IDX 52 56 53 57 58 58 54 59 55 60 57 61 59 62 56 63 7 64 8 65
REMARK SMILES IDX 9 66 10 67 11 68 12 70 13 71 14 72 19 73 15 74 18 75 16 76
REMARK SMILES IDX 17 77 20 78 21 79 28 80 22 81 23 82 27 83 24 84 26 85 25 86
REMARK H PARENT 3 7 76 25 50 36 10 69
REMARK Flexibility Score: inf
ROOT
ATOM      1  C   UNL A   1      37.516  20.930  24.602  1.00  0.00     0.002 C 
ENDROOT
BRANCH   1   2
ATOM      2  C   UNL A   1      38.240  19.630  24.952  1.00  0.00     0.021 C 
BRANCH   2   3
ATOM      3  C   UNL A   1      39.193  19.692  26.139  1.00  0.00     0.116 C 
BRANCH   3   4
ATOM      4  N   UNL A   1      40.362  18.853  25.979  1.00  0.00    -0.352 N 
ATOM      5  O   UNL A   1      42.552  18.363  25.751  1.00  0.00    -0.269 OA
ATOM      6  C   UNL A   1      41.693  19.203  26.015  1.00  0.00     0.251 C 
ATOM      7  H   UNL A   1      40.179  17.899  25.823  1.00  0.00     0.163 HD
BRANCH   6   8
ATOM      8  C   UNL A   1      42.100  20.588  26.341  1.00  0.00     0.039 A 
ATOM      9  C   UNL A   1      42.284  21.550  25.345  1.00  0.00     0.014 A 
ATOM     10  C   UNL A   1      42.263  20.939  27.686  1.00  0.00     0.014 A 
ATOM     11  C   UNL A   1      42.727  22.830  25.684  1.00  0.00     0.010 A 
ATOM     12  C   UNL A   1      42.653  22.238  28.031  1.00  0.00     0.010 A 
ATOM     13  C   UNL A   1      42.908  23.186  27.029  1.00  0.00    -0.014 A 
BRANCH  13  14
ATOM     14  C   UNL A   1      43.299  24.575  27.372  1.00  0.00     0.031 A 
ATOM     15  C   UNL A   1      42.281  25.582  27.824  1.00  0.00     0.074 A 
ATOM     16  C   UNL A   1      44.597  24.924  27.284  1.00  0.00     0.049 A 
ATOM     17  N   UNL A   1      42.461  26.828  28.187  1.00  0.00    -0.248 NA
ATOM     18  C   UNL A   1      40.879  25.141  27.870  1.00  0.00     0.031 C 
ATOM     19  C   UNL A   1      45.677  24.043  26.835  1.00  0.00     0.029 A 
ATOM     20  N   UNL A   1      45.230  26.104  27.581  1.00  0.00    -0.354 N 
ATOM     21  C   UNL A   1      41.200  27.323  28.488  1.00  0.00     0.074 A 
ATOM     22  C   UNL A   1      40.259  26.249  28.254  1.00  0.00     0.031 C 
ATOM     23  C   UNL A   1      46.843  24.703  26.916  1.00  0.00     0.029 A 
ATOM     24  C   UNL A   1      46.588  26.058  27.392  1.00  0.00     0.049 A 
ATOM     25  H   UNL A   1      44.754  26.906  27.898  1.00  0.00     0.167 HD
ATOM     26  C   UNL A   1      40.860  28.560  28.924  1.00  0.00     0.037 A 
ATOM     27  C   UNL A   1      47.527  27.003  27.578  1.00  0.00     0.037 A 
ATOM     28  C   UNL A   1      41.795  29.624  29.182  1.00  0.00     0.049 A 
ATOM     29  C   UNL A   1      47.123  28.359  28.075  1.00  0.00     0.074 A 
ATOM     30  C   UNL A   1      41.544  30.892  29.676  1.00  0.00     0.029 A 
ATOM     31  N   UNL A   1      43.161  29.543  28.966  1.00  0.00    -0.354 N 
ATOM     32  N   UNL A   1      45.930  28.799  28.391  1.00  0.00    -0.248 NA
ATOM     33  C   UNL A   1      48.195  29.352  28.235  1.00  0.00     0.031 C 
ATOM     34  C   UNL A   1      42.757  31.588  29.736  1.00  0.00     0.029 A 
ATOM     35  C   UNL A   1      43.764  30.745  29.300  1.00  0.00     0.049 A 
ATOM     36  H   UNL A   1      43.634  28.750  28.624  1.00  0.00     0.167 HD
ATOM     37  C   UNL A   1      46.106  30.116  28.788  1.00  0.00     0.074 A 
ATOM     38  C   UNL A   1      47.524  30.399  28.693  1.00  0.00     0.031 C 
ATOM     39  C   UNL A   1      45.174  31.012  29.190  1.00  0.00     0.037 A 
BRANCH  26  40
ATOM     40  C   UNL A   1      39.407  28.838  29.152  1.00  0.00     0.057 A 
ATOM     41  C   UNL A   1      38.809  28.640  30.402  1.00  0.00     0.134 A 
ATOM     42  C   UNL A   1      38.613  29.366  28.127  1.00  0.00     0.134 A 
ATOM     43  F   UNL A   1      39.517  28.128  31.420  1.00  0.00    -0.206 F 
ATOM     44  C   UNL A   1      37.468  28.953  30.624  1.00  0.00     0.040 A 
ATOM     45  C   UNL A   1      37.274  29.695  28.341  1.00  0.00     0.040 A 
ATOM     46  F   UNL A   1      39.130  29.581  26.908  1.00  0.00    -0.206 F 
ATOM     47  C   UNL A   1      36.697  29.488  29.592  1.00  0.00     0.006 A 
ENDBRANCH  26  40
BRANCH  27  48
ATOM     48  C   UNL A   1      48.946  26.689  27.299  1.00  0.00     0.057 A 
ATOM     49  C   UNL A   1      49.791  26.219  28.308  1.00  0.00     0.134 A 
ATOM     50  C   UNL A   1      49.483  26.833  26.016  1.00  0.00     0.134 A 
ATOM     51  F   UNL A   1      49.332  26.078  29.562  1.00  0.00    -0.206 F 
ATOM     52  C   UNL A   1      51.126  25.906  28.053  1.00  0.00     0.040 A 
ATOM     53  C   UNL A   1      50.811  26.507  25.742  1.00  0.00     0.040 A 
ATOM     54  F   UNL A   1      48.716  27.276  25.007  1.00  0.00    -0.206 F 
ATOM     55  C   UNL A   1      51.637  26.045  26.764  1.00  0.00     0.006 A 
ENDBRANCH  27  48
BRANCH  39  56
ATOM     56  C   UNL A   1      45.663  32.378  29.553  1.00  0.00     0.057 A 
ATOM     57  C   UNL A   1      46.093  32.675  30.852  1.00  0.00     0.134 A 
ATOM     58  C   UNL A   1      45.724  33.398  28.598  1.00  0.00     0.134 A 
ATOM     59  F   UNL A   1      46.044  31.740  31.814  1.00  0.00    -0.206 F 
ATOM     60  C   UNL A   1      46.553  33.946  31.192  1.00  0.00     0.040 A 
ATOM     61  C   UNL A   1      46.196  34.669  28.922  1.00  0.00     0.040 A 
ATOM     62  F   UNL A   1      45.327  33.173  27.335  1.00  0.00    -0.206 F 
ATOM     63  C   UNL A   1      46.609  34.948  30.223  1.00  0.00     0.006 A 
ENDBRANCH  39  56
ENDBRANCH  13  14
ENDBRANCH   6   8
ENDBRANCH   3   4
ENDBRANCH   2   3
ENDBRANCH   1   2
BRANCH   1  64
ATOM     64  C   UNL A   1      37.772  22.130  25.518  1.00  0.00     0.002 C 
BRANCH  64  65
ATOM     65  C   UNL A   1      37.268  23.497  25.040  1.00  0.00     0.021 C 
BRANCH  65  66
ATOM     66  C   UNL A   1      35.755  23.675  24.935  1.00  0.00     0.116 C 
BRANCH  66  67
ATOM     67  N   UNL A   1      35.253  23.501  23.598  1.00  0.00    -0.352 N 
ATOM     68  C   UNL A   1      33.947  23.330  23.184  1.00  0.00     0.253 C 
ATOM     69  H   UNL A   1      35.930  23.503  22.883  1.00  0.00     0.163 HD
ATOM     70  O   UNL A   1      33.685  23.304  21.979  1.00  0.00    -0.269 OA
BRANCH  68  71
ATOM     71  C   UNL A   1      32.873  23.228  24.181  1.00  0.00     0.064 A 
ATOM     72  C   UNL A   1      32.183  24.415  24.475  1.00  0.00     0.031 A 
ATOM     73  C   UNL A   1      32.452  21.992  24.702  1.00  0.00     0.050 A 
ATOM     74  C   UNL A   1      31.086  24.385  25.331  1.00  0.00     0.018 A 
ATOM     75  C   UNL A   1      31.323  21.995  25.545  1.00  0.00     0.028 A 
ATOM     76  Br  UNL A   1      30.176  25.986  25.748  1.00  0.00    -0.051 Br
ATOM     77  C   UNL A   1      30.653  23.179  25.868  1.00  0.00     0.018 A 
BRANCH  73  78
ATOM     78  N   UNL A   1      33.066  20.752  24.454  1.00  0.00    -0.370 N 
ATOM     79  C   UNL A   1      32.612  19.538  23.866  1.00  0.00     0.125 C 
ATOM     80  C   UNL A   1      34.109  20.148  25.226  1.00  0.00     0.125 C 
ATOM     81  C   UNL A   1      33.588  18.764  24.784  1.00  0.00     0.005 C 
ATOM     82  C   UNL A   1      34.650  17.910  24.085  1.00  0.00     0.011 C 
ATOM     83  C   UNL A   1      32.903  17.975  25.909  1.00  0.00     0.011 C 
ATOM     84  C   UNL A   1      34.028  16.628  23.539  1.00  0.00     0.001 C 
ATOM     85  C   UNL A   1      32.264  16.708  25.344  1.00  0.00     0.001 C 
ATOM     86  C   UNL A   1      33.295  15.843  24.626  1.00  0.00     0.000 C 
ENDBRANCH  73  78
ENDBRANCH  68  71
ENDBRANCH  66  67
ENDBRANCH  65  66
ENDBRANCH  64  65
ENDBRANCH   1  64
TORSDOF 14
ENDMDL
