MODEL 1
REMARK VINA RESULT:     -14.1      0.000      0.000
REMARK SMILES CC[C@@H]1CCC[C@@](CC[NH+]2CCOCC2)(C(=O)NCCCCCCNC(=O)c2ccc(-c3c4nc(c(-c5c(F)cccc5F)c5ccc([nH]5)c(-c5c(F)cccc5F)c5nc(c(-c6c(F)cccc6F)c6ccc3[nH]6)C=C5)C=C4)cc2)C1
REMARK SMILES IDX 21 1 20 2 19 3 18 4 16 5 17 6 7 8 3 9 4 10 82 11 5 12 6 13
REMARK SMILES IDX 2 14 1 15 8 16 9 17 10 18 11 19 15 20 12 22 14 23 13 24
REMARK SMILES IDX 22 25 23 26 24 27 25 28 26 29 27 31 28 32 29 33 81 34 30 35
REMARK SMILES IDX 80 36 31 37 32 38 33 39 74 40 34 41 79 42 73 43 75 44 35 45
REMARK SMILES IDX 78 46 72 47 71 48 36 50 62 51 45 52 61 53 46 54 49 55 60 56
REMARK SMILES IDX 76 57 47 58 48 59 59 61 77 62 50 63 37 64 38 65 43 66 39 67
REMARK SMILES IDX 40 68 42 69 44 70 41 71 63 72 64 73 69 74 65 75 66 76 68 77
REMARK SMILES IDX 70 78 67 79 51 80 52 81 57 82 53 83 54 84 56 85 58 86 55 87
REMARK H PARENT 18 7 10 21 25 30 75 49 49 60
REMARK Flexibility Score: inf
ROOT
ATOM      1  C   UNL A   1      32.886  30.158  27.256  1.00  0.00     0.002 C 
ENDROOT
BRANCH   1   2
ATOM      2  C   UNL A   1      33.098  28.653  26.995  1.00  0.00     0.021 C 
BRANCH   2   3
ATOM      3  C   UNL A   1      31.853  27.553  27.524  1.00  0.00     0.116 C 
BRANCH   3   4
ATOM      4  N   UNL A   1      31.260  25.759  26.701  1.00  0.00    -0.356 N 
ATOM      5  C   UNL A   1      31.656  25.046  25.182  1.00  0.00     0.226 C 
ATOM      6  O   UNL A   1      31.108  23.973  24.939  1.00  0.00    -0.274 OA
ATOM      7  H   UNL A   1      30.655  25.225  27.265  1.00  0.00     0.163 HD
BRANCH   5   8
ATOM      8  C   UNL A   1      33.089  25.837  24.157  1.00  0.00     0.055 C 
ATOM      9  C   UNL A   1      34.528  23.937  25.143  1.00  0.00    -0.010 C 
ATOM     10  C   UNL A   1      34.863  23.361  23.759  1.00  0.00     0.003 C 
ATOM     11  C   UNL A   1      34.293  25.492  25.111  1.00  0.00     0.020 C 
ATOM     12  C   UNL A   1      33.910  23.817  22.674  1.00  0.00     0.001 C 
ATOM     13  C   UNL A   1      33.618  25.294  22.775  1.00  0.00     0.017 C 
BRANCH   9  14
ATOM     14  C   UNL A   1      35.589  23.463  26.146  1.00  0.00     0.000 C 
ATOM     15  C   UNL A   1      37.016  23.684  25.673  1.00  0.00     0.004 C 
ENDBRANCH   9  14
BRANCH   8  16
ATOM     16  C   UNL A   1      33.022  27.646  23.650  1.00  0.00     0.078 C 
BRANCH  16  17
ATOM     17  C   UNL A   1      31.396  28.546  23.544  1.00  0.00     0.263 C 
BRANCH  17  18
ATOM     18  N   UNL A   1      30.139  27.690  23.256  1.00  0.00    -0.331 N 
ATOM     19  C   UNL A   1      29.951  28.821  22.374  1.00  0.00     0.291 C 
ATOM     20  C   UNL A   1      28.378  27.315  23.413  1.00  0.00     0.291 C 
ATOM     21  H   UNL A   1      30.384  26.741  23.539  1.00  0.00     0.348 HD
ATOM     22  C   UNL A   1      29.082  30.667  22.862  1.00  0.00     0.221 C 
ATOM     23  C   UNL A   1      26.848  28.532  23.550  1.00  0.00     0.221 C 
ATOM     24  O   UNL A   1      27.231  30.366  23.316  1.00  0.00    -0.370 OA
ENDBRANCH  17  18
ENDBRANCH  16  17
ENDBRANCH   8  16
ENDBRANCH   5   8
ENDBRANCH   3   4
ENDBRANCH   2   3
ENDBRANCH   1   2
BRANCH   1  25
ATOM     25  C   UNL A   1      31.868  30.853  26.328  1.00  0.00     0.002 C 
BRANCH  25  26
ATOM     26  C   UNL A   1      31.563  32.293  26.706  1.00  0.00     0.021 C 
BRANCH  26  27
ATOM     27  C   UNL A   1      32.712  32.946  27.448  1.00  0.00     0.116 C 
BRANCH  27  28
ATOM     28  N   UNL A   1      32.449  34.362  27.717  1.00  0.00    -0.352 N 
ATOM     29  C   UNL A   1      33.008  35.144  28.690  1.00  0.00     0.251 C 
ATOM     30  H   UNL A   1      31.793  34.801  27.130  1.00  0.00     0.163 HD
ATOM     31  O   UNL A   1      32.574  36.249  28.977  1.00  0.00    -0.269 OA
BRANCH  29  32
ATOM     32  C   UNL A   1      34.179  34.577  29.358  1.00  0.00     0.039 A 
ATOM     33  C   UNL A   1      34.011  33.754  30.468  1.00  0.00     0.014 A 
ATOM     34  C   UNL A   1      35.415  34.734  28.725  1.00  0.00     0.014 A 
ATOM     35  C   UNL A   1      35.114  33.050  30.938  1.00  0.00     0.010 A 
ATOM     36  C   UNL A   1      36.468  33.937  29.115  1.00  0.00     0.010 A 
ATOM     37  C   UNL A   1      36.337  33.123  30.248  1.00  0.00    -0.014 A 
BRANCH  37  38
ATOM     38  C   UNL A   1      37.541  32.431  30.744  1.00  0.00     0.031 A 
ATOM     39  C   UNL A   1      38.215  32.970  31.975  1.00  0.00     0.074 A 
ATOM     40  C   UNL A   1      38.039  31.381  30.067  1.00  0.00     0.049 A 
ATOM     41  N   UNL A   1      39.330  32.590  32.539  1.00  0.00    -0.248 NA
ATOM     42  C   UNL A   1      37.573  34.122  32.636  1.00  0.00     0.031 C 
ATOM     43  C   UNL A   1      37.485  30.821  28.831  1.00  0.00     0.029 A 
ATOM     44  N   UNL A   1      39.130  30.597  30.326  1.00  0.00    -0.354 N 
ATOM     45  C   UNL A   1      39.519  33.460  33.604  1.00  0.00     0.074 A 
ATOM     46  C   UNL A   1      38.467  34.446  33.553  1.00  0.00     0.031 C 
ATOM     47  C   UNL A   1      38.217  29.757  28.464  1.00  0.00     0.029 A 
ATOM     48  C   UNL A   1      39.311  29.586  29.414  1.00  0.00     0.049 A 
ATOM     49  H   UNL A   1      39.729  30.744  31.094  1.00  0.00     0.167 HD
ATOM     50  C   UNL A   1      40.459  33.408  34.574  1.00  0.00     0.037 A 
ATOM     51  C   UNL A   1      40.260  28.634  29.366  1.00  0.00     0.037 A 
ATOM     52  C   UNL A   1      41.474  32.395  34.633  1.00  0.00     0.049 A 
ATOM     53  C   UNL A   1      41.303  28.610  30.452  1.00  0.00     0.074 A 
ATOM     54  C   UNL A   1      42.465  32.221  35.580  1.00  0.00     0.029 A 
ATOM     55  N   UNL A   1      41.611  31.372  33.707  1.00  0.00    -0.354 N 
ATOM     56  N   UNL A   1      41.443  29.406  31.486  1.00  0.00    -0.248 NA
ATOM     57  C   UNL A   1      42.316  27.550  30.370  1.00  0.00     0.031 C 
ATOM     58  C   UNL A   1      43.224  31.108  35.208  1.00  0.00     0.029 A 
ATOM     59  C   UNL A   1      42.675  30.562  34.058  1.00  0.00     0.049 A 
ATOM     60  H   UNL A   1      41.036  31.241  32.919  1.00  0.00     0.167 HD
ATOM     61  C   UNL A   1      42.530  28.917  32.198  1.00  0.00     0.074 A 
ATOM     62  C   UNL A   1      43.002  27.748  31.485  1.00  0.00     0.031 C 
ATOM     63  C   UNL A   1      43.094  29.388  33.338  1.00  0.00     0.037 A 
BRANCH  50  64
ATOM     64  C   UNL A   1      40.397  34.448  35.652  1.00  0.00     0.057 A 
ATOM     65  C   UNL A   1      39.638  34.256  36.815  1.00  0.00     0.134 A 
ATOM     66  C   UNL A   1      41.116  35.643  35.542  1.00  0.00     0.134 A 
ATOM     67  F   UNL A   1      38.905  33.142  36.972  1.00  0.00    -0.206 F 
ATOM     68  C   UNL A   1      39.577  35.223  37.818  1.00  0.00     0.040 A 
ATOM     69  C   UNL A   1      41.089  36.606  36.553  1.00  0.00     0.040 A 
ATOM     70  F   UNL A   1      41.860  35.894  34.453  1.00  0.00    -0.206 F 
ATOM     71  C   UNL A   1      40.314  36.399  37.693  1.00  0.00     0.006 A 
ENDBRANCH  50  64
BRANCH  51  72
ATOM     72  C   UNL A   1      40.260  27.613  28.287  1.00  0.00     0.057 A 
ATOM     73  C   UNL A   1      39.652  26.365  28.474  1.00  0.00     0.134 A 
ATOM     74  C   UNL A   1      40.905  27.835  27.064  1.00  0.00     0.134 A 
ATOM     75  F   UNL A   1      39.027  26.086  29.628  1.00  0.00    -0.206 F 
ATOM     76  C   UNL A   1      39.723  25.361  27.508  1.00  0.00     0.040 A 
ATOM     77  C   UNL A   1      40.957  26.851  26.076  1.00  0.00     0.040 A 
ATOM     78  F   UNL A   1      41.494  29.013  26.812  1.00  0.00    -0.206 F 
ATOM     79  C   UNL A   1      40.378  25.604  26.302  1.00  0.00     0.006 A 
ENDBRANCH  51  72
BRANCH  63  80
ATOM     80  C   UNL A   1      44.234  28.602  33.910  1.00  0.00     0.057 A 
ATOM     81  C   UNL A   1      45.567  28.896  33.596  1.00  0.00     0.134 A 
ATOM     82  C   UNL A   1      43.992  27.569  34.823  1.00  0.00     0.134 A 
ATOM     83  F   UNL A   1      45.862  29.869  32.721  1.00  0.00    -0.206 F 
ATOM     84  C   UNL A   1      46.620  28.169  34.151  1.00  0.00     0.040 A 
ATOM     85  C   UNL A   1      45.038  26.856  35.408  1.00  0.00     0.040 A 
ATOM     86  F   UNL A   1      42.738  27.248  35.174  1.00  0.00    -0.206 F 
ATOM     87  C   UNL A   1      46.356  27.150  35.065  1.00  0.00     0.006 A 
ENDBRANCH  63  80
ENDBRANCH  37  38
ENDBRANCH  29  32
ENDBRANCH  27  28
ENDBRANCH  26  27
ENDBRANCH  25  26
ENDBRANCH   1  25
TORSDOF 17
ENDMDL
MODEL 2
REMARK VINA RESULT:     -13.9      4.972     10.222
REMARK SMILES CC[C@@H]1CCC[C@@](CC[NH+]2CCOCC2)(C(=O)NCCCCCCNC(=O)c2ccc(-c3c4nc(c(-c5c(F)cccc5F)c5ccc([nH]5)c(-c5c(F)cccc5F)c5nc(c(-c6c(F)cccc6F)c6ccc3[nH]6)C=C5)C=C4)cc2)C1
REMARK SMILES IDX 21 1 20 2 19 3 18 4 16 5 17 6 7 8 3 9 4 10 82 11 5 12 6 13
REMARK SMILES IDX 2 14 1 15 8 16 9 17 10 18 11 19 15 20 12 22 14 23 13 24
REMARK SMILES IDX 22 25 23 26 24 27 25 28 26 29 27 31 28 32 29 33 81 34 30 35
REMARK SMILES IDX 80 36 31 37 32 38 33 39 74 40 34 41 79 42 73 43 75 44 35 45
REMARK SMILES IDX 78 46 72 47 71 48 36 50 62 51 45 52 61 53 46 54 49 55 60 56
REMARK SMILES IDX 76 57 47 58 48 59 59 61 77 62 50 63 37 64 38 65 43 66 39 67
REMARK SMILES IDX 40 68 42 69 44 70 41 71 63 72 64 73 69 74 65 75 66 76 68 77
REMARK SMILES IDX 70 78 67 79 51 80 52 81 57 82 53 83 54 84 56 85 58 86 55 87
REMARK H PARENT 18 7 10 21 25 30 75 49 49 60
REMARK Flexibility Score: inf
ROOT
ATOM      1  C   UNL A   1      37.802  22.135  25.321  1.00  0.00     0.002 C 
ENDROOT
BRANCH   1   2
ATOM      2  C   UNL A   1      37.052  23.318  24.675  1.00  0.00     0.021 C 
BRANCH   2   3
ATOM      3  C   UNL A   1      36.180  23.015  23.196  1.00  0.00     0.116 C 
BRANCH   3   4
ATOM      4  N   UNL A   1      34.224  23.459  22.720  1.00  0.00    -0.356 N 
ATOM      5  C   UNL A   1      32.828  23.561  23.727  1.00  0.00     0.226 C 
ATOM      6  O   UNL A   1      31.771  23.802  23.149  1.00  0.00    -0.274 OA
ATOM      7  H   UNL A   1      34.062  23.642  21.766  1.00  0.00     0.163 HD
BRANCH   5   8
ATOM      8  C   UNL A   1      33.091  23.560  25.641  1.00  0.00     0.055 C 
ATOM      9  C   UNL A   1      32.979  26.127  25.421  1.00  0.00    -0.010 C 
ATOM     10  C   UNL A   1      31.755  26.235  26.343  1.00  0.00     0.003 C 
ATOM     11  C   UNL A   1      33.900  24.904  25.779  1.00  0.00     0.020 C 
ATOM     12  C   UNL A   1      31.007  24.928  26.501  1.00  0.00     0.001 C 
ATOM     13  C   UNL A   1      31.952  23.769  26.709  1.00  0.00     0.017 C 
BRANCH   9  14
ATOM     14  C   UNL A   1      33.692  27.486  25.385  1.00  0.00     0.000 C 
ATOM     15  C   UNL A   1      33.724  28.194  26.730  1.00  0.00     0.004 C 
ENDBRANCH   9  14
BRANCH   8  16
ATOM     16  C   UNL A   1      33.905  22.098  26.497  1.00  0.00     0.078 C 
BRANCH  16  17
ATOM     17  C   UNL A   1      33.711  20.372  25.827  1.00  0.00     0.263 C 
BRANCH  17  18
ATOM     18  N   UNL A   1      32.596  20.150  24.776  1.00  0.00    -0.331 N 
ATOM     19  C   UNL A   1      32.831  18.810  25.266  1.00  0.00     0.291 C 
ATOM     20  C   UNL A   1      31.998  19.625  23.154  1.00  0.00     0.291 C 
ATOM     21  H   UNL A   1      32.134  21.053  24.674  1.00  0.00     0.348 HD
ATOM     22  C   UNL A   1      34.294  17.462  24.598  1.00  0.00     0.221 C 
ATOM     23  C   UNL A   1      32.616  18.162  22.006  1.00  0.00     0.221 C 
ATOM     24  O   UNL A   1      33.914  17.017  22.759  1.00  0.00    -0.370 OA
ENDBRANCH  17  18
ENDBRANCH  16  17
ENDBRANCH   8  16
ENDBRANCH   5   8
ENDBRANCH   3   4
ENDBRANCH   2   3
ENDBRANCH   1   2
BRANCH   1  25
ATOM     25  C   UNL A   1      37.246  20.736  24.983  1.00  0.00     0.002 C 
BRANCH  25  26
ATOM     26  C   UNL A   1      38.273  19.620  25.073  1.00  0.00     0.021 C 
BRANCH  26  27
ATOM     27  C   UNL A   1      39.547  20.068  25.761  1.00  0.00     0.116 C 
BRANCH  27  28
ATOM     28  N   UNL A   1      40.499  18.964  25.911  1.00  0.00    -0.352 N 
ATOM     29  C   UNL A   1      41.853  19.049  26.085  1.00  0.00     0.251 C 
ATOM     30  H   UNL A   1      40.120  18.057  25.883  1.00  0.00     0.163 HD
ATOM     31  O   UNL A   1      42.591  18.081  25.986  1.00  0.00    -0.269 OA
BRANCH  29  32
ATOM     32  C   UNL A   1      42.363  20.379  26.419  1.00  0.00     0.039 A 
ATOM     33  C   UNL A   1      42.730  21.254  25.401  1.00  0.00     0.014 A 
ATOM     34  C   UNL A   1      42.274  20.781  27.755  1.00  0.00     0.014 A 
ATOM     35  C   UNL A   1      42.989  22.578  25.734  1.00  0.00     0.010 A 
ATOM     36  C   UNL A   1      42.406  22.118  28.056  1.00  0.00     0.010 A 
ATOM     37  C   UNL A   1      42.805  23.017  27.058  1.00  0.00    -0.014 A 
BRANCH  37  38
ATOM     38  C   UNL A   1      43.118  24.401  27.459  1.00  0.00     0.031 A 
ATOM     39  C   UNL A   1      44.559  24.828  27.474  1.00  0.00     0.074 A 
ATOM     40  C   UNL A   1      42.131  25.226  27.851  1.00  0.00     0.049 A 
ATOM     41  N   UNL A   1      45.082  25.955  27.878  1.00  0.00    -0.248 NA
ATOM     42  C   UNL A   1      45.553  23.838  27.017  1.00  0.00     0.031 C 
ATOM     43  C   UNL A   1      40.708  24.882  27.921  1.00  0.00     0.029 A 
ATOM     44  N   UNL A   1      42.179  26.529  28.265  1.00  0.00    -0.354 N 
ATOM     45  C   UNL A   1      46.453  25.798  27.732  1.00  0.00     0.074 A 
ATOM     46  C   UNL A   1      46.693  24.443  27.300  1.00  0.00     0.031 C 
ATOM     47  C   UNL A   1      40.015  25.963  28.314  1.00  0.00     0.029 A 
ATOM     48  C   UNL A   1      40.946  27.059  28.560  1.00  0.00     0.049 A 
ATOM     49  H   UNL A   1      43.017  27.039  28.346  1.00  0.00     0.167 HD
ATOM     50  C   UNL A   1      47.426  26.724  27.890  1.00  0.00     0.037 A 
ATOM     51  C   UNL A   1      40.621  28.295  28.980  1.00  0.00     0.037 A 
ATOM     52  C   UNL A   1      47.165  28.081  28.279  1.00  0.00     0.049 A 
ATOM     53  C   UNL A   1      41.728  29.300  29.162  1.00  0.00     0.074 A 
ATOM     54  C   UNL A   1      48.063  29.117  28.448  1.00  0.00     0.029 A 
ATOM     55  N   UNL A   1      45.903  28.588  28.544  1.00  0.00    -0.354 N 
ATOM     56  N   UNL A   1      43.018  29.158  28.970  1.00  0.00    -0.248 NA
ATOM     57  C   UNL A   1      41.332  30.641  29.612  1.00  0.00     0.031 C 
ATOM     58  C   UNL A   1      47.345  30.247  28.847  1.00  0.00     0.029 A 
ATOM     59  C   UNL A   1      45.997  29.926  28.879  1.00  0.00     0.049 A 
ATOM     60  H   UNL A   1      45.065  28.074  28.499  1.00  0.00     0.167 HD
ATOM     61  C   UNL A   1      43.581  30.400  29.232  1.00  0.00     0.074 A 
ATOM     62  C   UNL A   1      42.489  31.285  29.583  1.00  0.00     0.031 C 
ATOM     63  C   UNL A   1      44.882  30.781  29.191  1.00  0.00     0.037 A 
BRANCH  50  64
ATOM     64  C   UNL A   1      48.835  26.301  27.604  1.00  0.00     0.057 A 
ATOM     65  C   UNL A   1      49.680  25.827  28.618  1.00  0.00     0.134 A 
ATOM     66  C   UNL A   1      49.351  26.347  26.304  1.00  0.00     0.134 A 
ATOM     67  F   UNL A   1      49.255  25.781  29.890  1.00  0.00    -0.206 F 
ATOM     68  C   UNL A   1      50.993  25.435  28.354  1.00  0.00     0.040 A 
ATOM     69  C   UNL A   1      50.653  25.929  26.022  1.00  0.00     0.040 A 
ATOM     70  F   UNL A   1      48.600  26.795  25.287  1.00  0.00    -0.206 F 
ATOM     71  C   UNL A   1      51.479  25.476  27.050  1.00  0.00     0.006 A 
ENDBRANCH  50  64
BRANCH  51  72
ATOM     72  C   UNL A   1      39.205  28.668  29.225  1.00  0.00     0.057 A 
ATOM     73  C   UNL A   1      38.429  29.257  28.220  1.00  0.00     0.134 A 
ATOM     74  C   UNL A   1      38.604  28.492  30.478  1.00  0.00     0.134 A 
ATOM     75  F   UNL A   1      38.949  29.464  27.000  1.00  0.00    -0.206 F 
ATOM     76  C   UNL A   1      37.127  29.699  28.460  1.00  0.00     0.040 A 
ATOM     77  C   UNL A   1      37.292  28.900  30.724  1.00  0.00     0.040 A 
ATOM     78  F   UNL A   1      39.285  27.919  31.482  1.00  0.00    -0.206 F 
ATOM     79  C   UNL A   1      36.555  29.520  29.718  1.00  0.00     0.006 A 
ENDBRANCH  51  72
BRANCH  63  80
ATOM     80  C   UNL A   1      45.179  32.223  29.470  1.00  0.00     0.057 A 
ATOM     81  C   UNL A   1      45.152  33.194  28.461  1.00  0.00     0.134 A 
ATOM     82  C   UNL A   1      45.451  32.648  30.777  1.00  0.00     0.134 A 
ATOM     83  F   UNL A   1      44.907  32.847  27.189  1.00  0.00    -0.206 F 
ATOM     84  C   UNL A   1      45.413  34.535  28.739  1.00  0.00     0.040 A 
ATOM     85  C   UNL A   1      45.682  33.991  31.071  1.00  0.00     0.040 A 
ATOM     86  F   UNL A   1      45.478  31.768  31.789  1.00  0.00    -0.206 F 
ATOM     87  C   UNL A   1      45.671  34.938  30.049  1.00  0.00     0.006 A 
ENDBRANCH  63  80
ENDBRANCH  37  38
ENDBRANCH  29  32
ENDBRANCH  27  28
ENDBRANCH  26  27
ENDBRANCH  25  26
ENDBRANCH   1  25
TORSDOF 17
ENDMDL
MODEL 3
REMARK VINA RESULT:     -13.6      4.541      9.585
REMARK SMILES CC[C@@H]1CCC[C@@](CC[NH+]2CCOCC2)(C(=O)NCCCCCCNC(=O)c2ccc(-c3c4nc(c(-c5c(F)cccc5F)c5ccc([nH]5)c(-c5c(F)cccc5F)c5nc(c(-c6c(F)cccc6F)c6ccc3[nH]6)C=C5)C=C4)cc2)C1
REMARK SMILES IDX 21 1 20 2 19 3 18 4 16 5 17 6 7 8 3 9 4 10 82 11 5 12 6 13
REMARK SMILES IDX 2 14 1 15 8 16 9 17 10 18 11 19 15 20 12 22 14 23 13 24
REMARK SMILES IDX 22 25 23 26 24 27 25 28 26 29 27 31 28 32 29 33 81 34 30 35
REMARK SMILES IDX 80 36 31 37 32 38 33 39 74 40 34 41 79 42 73 43 75 44 35 45
REMARK SMILES IDX 78 46 72 47 71 48 36 50 62 51 45 52 61 53 46 54 49 55 60 56
REMARK SMILES IDX 76 57 47 58 48 59 59 61 77 62 50 63 37 64 38 65 43 66 39 67
REMARK SMILES IDX 40 68 42 69 44 70 41 71 63 72 64 73 69 74 65 75 66 76 68 77
REMARK SMILES IDX 70 78 67 79 51 80 52 81 57 82 53 83 54 84 56 85 58 86 55 87
REMARK H PARENT 18 7 10 21 25 30 75 49 49 60
REMARK Flexibility Score: inf
ROOT
ATOM      1  C   UNL A   1      37.867  22.442  24.993  1.00  0.00     0.002 C 
ENDROOT
BRANCH   1   2
ATOM      2  C   UNL A   1      37.219  23.303  26.097  1.00  0.00     0.021 C 
BRANCH   2   3
ATOM      3  C   UNL A   1      35.910  24.359  25.639  1.00  0.00     0.116 C 
BRANCH   3   4
ATOM      4  N   UNL A   1      34.615  24.215  24.043  1.00  0.00    -0.356 N 
ATOM      5  C   UNL A   1      33.061  23.476  23.932  1.00  0.00     0.226 C 
ATOM      6  O   UNL A   1      32.535  23.505  22.822  1.00  0.00    -0.274 OA
ATOM      7  H   UNL A   1      34.934  24.635  23.211  1.00  0.00     0.163 HD
BRANCH   5   8
ATOM      8  C   UNL A   1      32.200  22.931  25.573  1.00  0.00     0.055 C 
ATOM      9  C   UNL A   1      32.932  20.553  24.893  1.00  0.00    -0.010 C 
ATOM     10  C   UNL A   1      33.783  20.365  26.157  1.00  0.00     0.003 C 
ATOM     11  C   UNL A   1      31.701  21.505  25.128  1.00  0.00     0.020 C 
ATOM     12  C   UNL A   1      34.138  21.668  26.841  1.00  0.00     0.001 C 
ATOM     13  C   UNL A   1      32.949  22.595  26.919  1.00  0.00     0.017 C 
BRANCH   9  14
ATOM     14  C   UNL A   1      32.581  19.172  24.321  1.00  0.00     0.000 C 
ATOM     15  C   UNL A   1      32.560  18.068  25.366  1.00  0.00     0.004 C 
ENDBRANCH   9  14
BRANCH   8  16
ATOM     16  C   UNL A   1      30.857  23.991  26.351  1.00  0.00     0.078 C 
BRANCH  16  17
ATOM     17  C   UNL A   1      30.519  25.712  25.726  1.00  0.00     0.263 C 
BRANCH  17  18
ATOM     18  N   UNL A   1      30.825  26.881  26.694  1.00  0.00    -0.331 N 
ATOM     19  C   UNL A   1      31.017  27.494  25.398  1.00  0.00     0.291 C 
ATOM     20  C   UNL A   1      31.950  27.994  27.566  1.00  0.00     0.291 C 
ATOM     21  H   UNL A   1      30.356  26.641  27.567  1.00  0.00     0.348 HD
ATOM     22  C   UNL A   1      32.763  27.462  24.236  1.00  0.00     0.221 C 
ATOM     23  C   UNL A   1      33.664  28.748  26.986  1.00  0.00     0.221 C 
ATOM     24  O   UNL A   1      34.147  28.408  25.193  1.00  0.00    -0.370 OA
ENDBRANCH  17  18
ENDBRANCH  16  17
ENDBRANCH   8  16
ENDBRANCH   5   8
ENDBRANCH   3   4
ENDBRANCH   2   3
ENDBRANCH   1   2
BRANCH   1  25
ATOM     25  C   UNL A   1      37.188  21.082  24.733  1.00  0.00     0.002 C 
BRANCH  25  26
ATOM     26  C   UNL A   1      38.080  19.880  24.996  1.00  0.00     0.021 C 
BRANCH  26  27
ATOM     27  C   UNL A   1      39.266  20.229  25.873  1.00  0.00     0.116 C 
BRANCH  27  28
ATOM     28  N   UNL A   1      40.239  19.135  25.928  1.00  0.00    -0.352 N 
ATOM     29  C   UNL A   1      41.598  19.234  26.046  1.00  0.00     0.251 C 
ATOM     30  H   UNL A   1      39.873  18.224  25.873  1.00  0.00     0.163 HD
ATOM     31  O   UNL A   1      42.346  18.284  25.868  1.00  0.00    -0.269 OA
BRANCH  29  32
ATOM     32  C   UNL A   1      42.104  20.555  26.419  1.00  0.00     0.039 A 
ATOM     33  C   UNL A   1      42.388  21.492  25.430  1.00  0.00     0.014 A 
ATOM     34  C   UNL A   1      42.094  20.883  27.778  1.00  0.00     0.014 A 
ATOM     35  C   UNL A   1      42.643  22.802  25.819  1.00  0.00     0.010 A 
ATOM     36  C   UNL A   1      42.220  22.204  28.144  1.00  0.00     0.010 A 
ATOM     37  C   UNL A   1      42.537  23.164  27.174  1.00  0.00    -0.014 A 
BRANCH  37  38
ATOM     38  C   UNL A   1      42.849  24.531  27.630  1.00  0.00     0.031 A 
ATOM     39  C   UNL A   1      44.294  24.928  27.747  1.00  0.00     0.074 A 
ATOM     40  C   UNL A   1      41.854  25.365  27.981  1.00  0.00     0.049 A 
ATOM     41  N   UNL A   1      44.810  26.034  28.212  1.00  0.00    -0.248 NA
ATOM     42  C   UNL A   1      45.296  23.930  27.327  1.00  0.00     0.031 C 
ATOM     43  C   UNL A   1      40.423  25.048  27.952  1.00  0.00     0.029 A 
ATOM     44  N   UNL A   1      41.900  26.656  28.432  1.00  0.00    -0.354 N 
ATOM     45  C   UNL A   1      46.185  25.854  28.148  1.00  0.00     0.074 A 
ATOM     46  C   UNL A   1      46.427  24.506  27.697  1.00  0.00     0.031 C 
ATOM     47  C   UNL A   1      39.727  26.133  28.330  1.00  0.00     0.029 A 
ATOM     48  C   UNL A   1      40.661  27.203  28.662  1.00  0.00     0.049 A 
ATOM     49  H   UNL A   1      42.741  27.147  28.578  1.00  0.00     0.167 HD
ATOM     50  C   UNL A   1      47.162  26.756  28.391  1.00  0.00     0.037 A 
ATOM     51  C   UNL A   1      40.333  28.434  29.093  1.00  0.00     0.037 A 
ATOM     52  C   UNL A   1      46.903  28.108  28.799  1.00  0.00     0.049 A 
ATOM     53  C   UNL A   1      41.443  29.412  29.371  1.00  0.00     0.074 A 
ATOM     54  C   UNL A   1      47.807  29.121  29.051  1.00  0.00     0.029 A 
ATOM     55  N   UNL A   1      45.636  28.633  28.997  1.00  0.00    -0.354 N 
ATOM     56  N   UNL A   1      42.740  29.250  29.256  1.00  0.00    -0.248 NA
ATOM     57  C   UNL A   1      41.045  30.749  29.830  1.00  0.00     0.031 C 
ATOM     58  C   UNL A   1      47.086  30.255  29.433  1.00  0.00     0.029 A 
ATOM     59  C   UNL A   1      45.732  29.960  29.372  1.00  0.00     0.049 A 
ATOM     60  H   UNL A   1      44.793  28.137  28.886  1.00  0.00     0.167 HD
ATOM     61  C   UNL A   1      43.308  30.473  29.586  1.00  0.00     0.074 A 
ATOM     62  C   UNL A   1      42.213  31.370  29.891  1.00  0.00     0.031 C 
ATOM     63  C   UNL A   1      44.616  30.829  29.637  1.00  0.00     0.037 A 
BRANCH  50  64
ATOM     64  C   UNL A   1      48.579  26.313  28.183  1.00  0.00     0.057 A 
ATOM     65  C   UNL A   1      49.212  26.435  26.938  1.00  0.00     0.134 A 
ATOM     66  C   UNL A   1      49.328  25.776  29.237  1.00  0.00     0.134 A 
ATOM     67  F   UNL A   1      48.542  26.918  25.880  1.00  0.00    -0.206 F 
ATOM     68  C   UNL A   1      50.530  26.021  26.742  1.00  0.00     0.040 A 
ATOM     69  C   UNL A   1      50.657  25.386  29.061  1.00  0.00     0.040 A 
ATOM     70  F   UNL A   1      48.783  25.625  30.453  1.00  0.00    -0.206 F 
ATOM     71  C   UNL A   1      51.260  25.504  27.810  1.00  0.00     0.006 A 
ENDBRANCH  50  64
BRANCH  51  72
ATOM     72  C   UNL A   1      38.911  28.829  29.259  1.00  0.00     0.057 A 
ATOM     73  C   UNL A   1      38.203  29.436  28.214  1.00  0.00     0.134 A 
ATOM     74  C   UNL A   1      38.236  28.657  30.474  1.00  0.00     0.134 A 
ATOM     75  F   UNL A   1      38.795  29.639  27.027  1.00  0.00    -0.206 F 
ATOM     76  C   UNL A   1      36.897  29.897  28.382  1.00  0.00     0.040 A 
ATOM     77  C   UNL A   1      36.919  29.085  30.647  1.00  0.00     0.040 A 
ATOM     78  F   UNL A   1      38.849  28.069  31.512  1.00  0.00    -0.206 F 
ATOM     79  C   UNL A   1      36.250  29.721  29.604  1.00  0.00     0.006 A 
ENDBRANCH  51  72
BRANCH  63  80
ATOM     80  C   UNL A   1      44.921  32.257  29.972  1.00  0.00     0.057 A 
ATOM     81  C   UNL A   1      44.980  33.253  28.989  1.00  0.00     0.134 A 
ATOM     82  C   UNL A   1      45.113  32.645  31.304  1.00  0.00     0.134 A 
ATOM     83  F   UNL A   1      44.815  32.942  27.695  1.00  0.00    -0.206 F 
ATOM     84  C   UNL A   1      45.247  34.582  29.317  1.00  0.00     0.040 A 
ATOM     85  C   UNL A   1      45.349  33.975  31.647  1.00  0.00     0.040 A 
ATOM     86  F   UNL A   1      45.055  31.740  32.293  1.00  0.00    -0.206 F 
ATOM     87  C   UNL A   1      45.425  34.947  30.651  1.00  0.00     0.006 A 
ENDBRANCH  63  80
ENDBRANCH  37  38
ENDBRANCH  29  32
ENDBRANCH  27  28
ENDBRANCH  26  27
ENDBRANCH  25  26
ENDBRANCH   1  25
TORSDOF 17
ENDMDL
