MODEL 1
REMARK VINA RESULT:     -10.7      0.000      0.000
REMARK SMILES C[C@@H](NC(=O)c1ccc(S(=O)(=O)N(C)C)o1)C(=O)NCCCCCCNC(=O)c1ccc(-c2c3nc(c(-c4c(F)cccc4F)c4ccc([nH]4)c(-c4c(F)cccc4F)c4nc(c(-c5c(F)cccc5F)c5ccc2[nH]5)C=C4)C=C3)cc1
REMARK SMILES IDX 21 1 20 2 19 3 17 4 18 5 2 7 1 8 3 9 4 10 5 12 6 13 7 14
REMARK SMILES IDX 16 15 8 16 9 17 10 18 11 19 12 20 13 21 14 22 15 23 22 24
REMARK SMILES IDX 23 25 24 26 25 27 26 28 27 29 28 31 29 32 30 33 82 34 31 35
REMARK SMILES IDX 81 36 32 37 33 38 34 39 75 40 35 41 80 42 74 43 76 44 36 45
REMARK SMILES IDX 79 46 73 47 72 48 37 50 63 51 46 52 62 53 47 54 50 55 61 56
REMARK SMILES IDX 77 57 48 58 49 59 60 61 78 62 51 63 38 64 39 65 44 66 40 67
REMARK SMILES IDX 41 68 43 69 45 70 42 71 64 72 65 73 70 74 66 75 67 76 69 77
REMARK SMILES IDX 71 78 68 79 52 80 53 81 58 82 54 83 55 84 57 85 59 86 56 87
REMARK H PARENT 19 6 3 11 26 30 76 49 50 60
REMARK Flexibility Score: inf
ROOT
ATOM      1  C   UNL A   1      34.220  29.300  27.274  1.00  0.00     0.021 C 
ENDROOT
BRANCH   1   2
ATOM      2  C   UNL A   1      33.160  28.288  26.860  1.00  0.00     0.116 C 
BRANCH   2   3
ATOM      3  N   UNL A   1      33.779  27.071  26.373  1.00  0.00    -0.354 N 
ATOM      4  C   UNL A   1      33.862  26.590  25.105  1.00  0.00     0.242 C 
ATOM      5  O   UNL A   1      34.331  25.460  24.944  1.00  0.00    -0.273 OA
ATOM      6  H   UNL A   1      34.202  26.510  27.062  1.00  0.00     0.163 HD
BRANCH   4   7
ATOM      7  C   UNL A   1      33.271  27.365  23.912  1.00  0.00     0.168 C 
ATOM      8  C   UNL A   1      34.267  28.470  23.544  1.00  0.00     0.041 C 
BRANCH   7   9
ATOM      9  N   UNL A   1      32.920  26.581  22.725  1.00  0.00    -0.338 N 
ATOM     10  C   UNL A   1      31.748  26.558  21.997  1.00  0.00     0.287 C 
ATOM     11  H   UNL A   1      33.627  25.979  22.399  1.00  0.00     0.164 HD
ATOM     12  O   UNL A   1      31.779  25.963  20.920  1.00  0.00    -0.266 OA
BRANCH  10  13
ATOM     13  C   UNL A   1      30.537  27.113  22.565  1.00  0.00     0.193 A 
ATOM     14  C   UNL A   1      29.607  26.647  23.469  1.00  0.00     0.058 A 
ATOM     15  O   UNL A   1      30.141  28.347  22.119  1.00  0.00    -0.438 OA
ATOM     16  C   UNL A   1      28.548  27.587  23.484  1.00  0.00     0.065 A 
ATOM     17  C   UNL A   1      28.903  28.648  22.658  1.00  0.00     0.234 A 
BRANCH  17  18
ATOM     18  S   UNL A   1      28.046  30.174  22.230  1.00  0.00     0.275 S 
ATOM     19  O   UNL A   1      27.921  30.165  20.794  1.00  0.00    -0.204 OA
ATOM     20  O   UNL A   1      26.885  30.198  23.097  1.00  0.00    -0.204 OA
BRANCH  18  21
ATOM     21  N   UNL A   1      29.028  31.508  22.677  1.00  0.00    -0.201 NA
ATOM     22  C   UNL A   1      28.438  32.825  22.363  1.00  0.00     0.124 C 
ATOM     23  C   UNL A   1      29.477  31.441  24.092  1.00  0.00     0.124 C 
ENDBRANCH  18  21
ENDBRANCH  17  18
ENDBRANCH  10  13
ENDBRANCH   7   9
ENDBRANCH   4   7
ENDBRANCH   2   3
ENDBRANCH   1   2
BRANCH   1  24
ATOM     24  C   UNL A   1      33.718  30.746  27.251  1.00  0.00     0.002 C 
BRANCH  24  25
ATOM     25  C   UNL A   1      32.231  30.885  26.925  1.00  0.00     0.002 C 
BRANCH  25  26
ATOM     26  C   UNL A   1      31.651  32.287  27.056  1.00  0.00     0.021 C 
BRANCH  26  27
ATOM     27  C   UNL A   1      32.679  33.392  26.904  1.00  0.00     0.116 C 
BRANCH  27  28
ATOM     28  N   UNL A   1      32.470  34.491  27.838  1.00  0.00    -0.352 N 
ATOM     29  C   UNL A   1      33.129  34.751  29.014  1.00  0.00     0.251 C 
ATOM     30  H   UNL A   1      31.763  35.131  27.593  1.00  0.00     0.163 HD
ATOM     31  O   UNL A   1      32.755  35.639  29.771  1.00  0.00    -0.269 OA
BRANCH  29  32
ATOM     32  C   UNL A   1      34.288  33.912  29.363  1.00  0.00     0.039 A 
ATOM     33  C   UNL A   1      35.562  34.305  28.949  1.00  0.00     0.014 A 
ATOM     34  C   UNL A   1      34.114  32.784  30.170  1.00  0.00     0.014 A 
ATOM     35  C   UNL A   1      36.674  33.596  29.401  1.00  0.00     0.010 A 
ATOM     36  C   UNL A   1      35.224  32.144  30.697  1.00  0.00     0.010 A 
ATOM     37  C   UNL A   1      36.514  32.535  30.307  1.00  0.00    -0.014 A 
BRANCH  37  38
ATOM     38  C   UNL A   1      37.678  31.791  30.842  1.00  0.00     0.031 A 
ATOM     39  C   UNL A   1      38.203  32.127  32.210  1.00  0.00     0.074 A 
ATOM     40  C   UNL A   1      38.302  30.877  30.075  1.00  0.00     0.049 A 
ATOM     41  N   UNL A   1      39.265  31.672  32.824  1.00  0.00    -0.248 NA
ATOM     42  C   UNL A   1      37.458  33.143  32.973  1.00  0.00     0.031 C 
ATOM     43  C   UNL A   1      37.919  30.508  28.711  1.00  0.00     0.029 A 
ATOM     44  N   UNL A   1      39.404  30.101  30.332  1.00  0.00    -0.354 N 
ATOM     45  C   UNL A   1      39.324  32.361  34.029  1.00  0.00     0.074 A 
ATOM     46  C   UNL A   1      38.232  33.308  34.034  1.00  0.00     0.031 C 
ATOM     47  C   UNL A   1      38.754  29.557  28.262  1.00  0.00     0.029 A 
ATOM     48  C   UNL A   1      39.753  29.278  29.288  1.00  0.00     0.049 A 
ATOM     49  H   UNL A   1      39.898  30.131  31.183  1.00  0.00     0.167 HD
ATOM     50  C   UNL A   1      40.192  32.197  35.054  1.00  0.00     0.037 A 
ATOM     51  C   UNL A   1      40.769  28.403  29.176  1.00  0.00     0.037 A 
ATOM     52  C   UNL A   1      41.250  31.223  35.058  1.00  0.00     0.049 A 
ATOM     53  C   UNL A   1      41.713  28.228  30.333  1.00  0.00     0.074 A 
ATOM     54  C   UNL A   1      42.145  30.928  36.070  1.00  0.00     0.029 A 
ATOM     55  N   UNL A   1      41.551  30.383  33.997  1.00  0.00    -0.354 N 
ATOM     56  N   UNL A   1      41.718  28.837  31.495  1.00  0.00    -0.248 NA
ATOM     57  C   UNL A   1      42.788  27.240  30.167  1.00  0.00     0.031 C 
ATOM     58  C   UNL A   1      43.014  29.935  35.606  1.00  0.00     0.029 A 
ATOM     59  C   UNL A   1      42.630  29.579  34.322  1.00  0.00     0.049 A 
ATOM     60  H   UNL A   1      41.069  30.362  33.138  1.00  0.00     0.167 HD
ATOM     61  C   UNL A   1      42.774  28.286  32.209  1.00  0.00     0.074 A 
ATOM     62  C   UNL A   1      43.378  27.286  31.354  1.00  0.00     0.031 C 
ATOM     63  C   UNL A   1      43.206  28.581  33.459  1.00  0.00     0.037 A 
BRANCH  50  64
ATOM     64  C   UNL A   1      40.021  33.082  36.253  1.00  0.00     0.057 A 
ATOM     65  C   UNL A   1      39.121  32.769  37.281  1.00  0.00     0.134 A 
ATOM     66  C   UNL A   1      40.778  34.252  36.392  1.00  0.00     0.134 A 
ATOM     67  F   UNL A   1      38.354  31.671  37.202  1.00  0.00    -0.206 F 
ATOM     68  C   UNL A   1      38.959  33.602  38.389  1.00  0.00     0.040 A 
ATOM     69  C   UNL A   1      40.645  35.077  37.511  1.00  0.00     0.040 A 
ATOM     70  F   UNL A   1      41.660  34.611  35.448  1.00  0.00    -0.206 F 
ATOM     71  C   UNL A   1      39.728  34.756  38.509  1.00  0.00     0.006 A 
ENDBRANCH  50  64
BRANCH  51  72
ATOM     72  C   UNL A   1      40.930  27.603  27.935  1.00  0.00     0.057 A 
ATOM     73  C   UNL A   1      40.329  26.346  27.805  1.00  0.00     0.134 A 
ATOM     74  C   UNL A   1      41.692  28.067  26.855  1.00  0.00     0.134 A 
ATOM     75  F   UNL A   1      39.601  25.839  28.812  1.00  0.00    -0.206 F 
ATOM     76  C   UNL A   1      40.494  25.569  26.658  1.00  0.00     0.040 A 
ATOM     77  C   UNL A   1      41.846  27.312  25.691  1.00  0.00     0.040 A 
ATOM     78  F   UNL A   1      42.288  29.267  26.914  1.00  0.00    -0.206 F 
ATOM     79  C   UNL A   1      41.252  26.055  25.594  1.00  0.00     0.006 A 
ENDBRANCH  51  72
BRANCH  63  80
ATOM     80  C   UNL A   1      44.359  27.784  33.991  1.00  0.00     0.057 A 
ATOM     81  C   UNL A   1      45.681  28.234  33.885  1.00  0.00     0.134 A 
ATOM     82  C   UNL A   1      44.138  26.574  34.661  1.00  0.00     0.134 A 
ATOM     83  F   UNL A   1      45.960  29.380  33.246  1.00  0.00    -0.206 F 
ATOM     84  C   UNL A   1      46.744  27.497  34.408  1.00  0.00     0.040 A 
ATOM     85  C   UNL A   1      45.190  25.842  35.210  1.00  0.00     0.040 A 
ATOM     86  F   UNL A   1      42.893  26.093  34.805  1.00  0.00    -0.206 F 
ATOM     87  C   UNL A   1      46.499  26.300  35.079  1.00  0.00     0.006 A 
ENDBRANCH  63  80
ENDBRANCH  37  38
ENDBRANCH  29  32
ENDBRANCH  27  28
ENDBRANCH  26  27
ENDBRANCH  25  26
ENDBRANCH  24  25
ENDBRANCH   1  24
TORSDOF 17
ENDMDL
MODEL 2
REMARK VINA RESULT:     -10.3      2.218      7.359
REMARK SMILES C[C@@H](NC(=O)c1ccc(S(=O)(=O)N(C)C)o1)C(=O)NCCCCCCNC(=O)c1ccc(-c2c3nc(c(-c4c(F)cccc4F)c4ccc([nH]4)c(-c4c(F)cccc4F)c4nc(c(-c5c(F)cccc5F)c5ccc2[nH]5)C=C4)C=C3)cc1
REMARK SMILES IDX 21 1 20 2 19 3 17 4 18 5 2 7 1 8 3 9 4 10 5 12 6 13 7 14
REMARK SMILES IDX 16 15 8 16 9 17 10 18 11 19 12 20 13 21 14 22 15 23 22 24
REMARK SMILES IDX 23 25 24 26 25 27 26 28 27 29 28 31 29 32 30 33 82 34 31 35
REMARK SMILES IDX 81 36 32 37 33 38 34 39 75 40 35 41 80 42 74 43 76 44 36 45
REMARK SMILES IDX 79 46 73 47 72 48 37 50 63 51 46 52 62 53 47 54 50 55 61 56
REMARK SMILES IDX 77 57 48 58 49 59 60 61 78 62 51 63 38 64 39 65 44 66 40 67
REMARK SMILES IDX 41 68 43 69 45 70 42 71 64 72 65 73 70 74 66 75 67 76 69 77
REMARK SMILES IDX 71 78 68 79 52 80 53 81 58 82 54 83 55 84 57 85 59 86 56 87
REMARK H PARENT 19 6 3 11 26 30 76 49 50 60
REMARK Flexibility Score: inf
ROOT
ATOM      1  C   UNL A   1      33.961  28.536  25.144  1.00  0.00     0.021 C 
ENDROOT
BRANCH   1   2
ATOM      2  C   UNL A   1      33.528  29.039  23.774  1.00  0.00     0.116 C 
BRANCH   2   3
ATOM      3  N   UNL A   1      33.824  28.054  22.752  1.00  0.00    -0.354 N 
ATOM      4  C   UNL A   1      33.084  26.996  22.330  1.00  0.00     0.242 C 
ATOM      5  O   UNL A   1      33.599  26.212  21.528  1.00  0.00    -0.273 OA
ATOM      6  H   UNL A   1      34.688  28.170  22.296  1.00  0.00     0.163 HD
BRANCH   4   7
ATOM      7  C   UNL A   1      31.696  26.697  22.929  1.00  0.00     0.168 C 
ATOM      8  C   UNL A   1      30.707  27.692  22.313  1.00  0.00     0.041 C 
BRANCH   7   9
ATOM      9  N   UNL A   1      31.197  25.327  22.782  1.00  0.00    -0.338 N 
ATOM     10  C   UNL A   1      31.532  24.186  23.482  1.00  0.00     0.287 C 
ATOM     11  H   UNL A   1      30.520  25.202  22.078  1.00  0.00     0.164 HD
ATOM     12  O   UNL A   1      30.818  23.199  23.303  1.00  0.00    -0.266 OA
BRANCH  10  13
ATOM     13  C   UNL A   1      32.741  24.160  24.280  1.00  0.00     0.193 A 
ATOM     14  C   UNL A   1      33.085  24.689  25.505  1.00  0.00     0.058 A 
ATOM     15  O   UNL A   1      33.835  23.534  23.744  1.00  0.00    -0.438 OA
ATOM     16  C   UNL A   1      34.476  24.471  25.665  1.00  0.00     0.065 A 
ATOM     17  C   UNL A   1      34.923  23.733  24.575  1.00  0.00     0.234 A 
BRANCH  17  18
ATOM     18  S   UNL A   1      36.554  23.100  24.143  1.00  0.00     0.275 S 
ATOM     19  O   UNL A   1      36.650  23.207  22.709  1.00  0.00    -0.204 OA
ATOM     20  O   UNL A   1      37.465  23.803  25.023  1.00  0.00    -0.204 OA
BRANCH  18  21
ATOM     21  N   UNL A   1      36.636  21.439  24.566  1.00  0.00    -0.201 NA
ATOM     22  C   UNL A   1      37.909  21.039  25.199  1.00  0.00     0.124 C 
ATOM     23  C   UNL A   1      35.470  20.995  25.373  1.00  0.00     0.124 C 
ENDBRANCH  18  21
ENDBRANCH  17  18
ENDBRANCH  10  13
ENDBRANCH   7   9
ENDBRANCH   4   7
ENDBRANCH   2   3
ENDBRANCH   1   2
BRANCH   1  24
ATOM     24  C   UNL A   1      33.316  29.303  26.302  1.00  0.00     0.002 C 
BRANCH  24  25
ATOM     25  C   UNL A   1      32.043  30.057  25.919  1.00  0.00     0.002 C 
BRANCH  25  26
ATOM     26  C   UNL A   1      31.718  31.283  26.762  1.00  0.00     0.021 C 
BRANCH  26  27
ATOM     27  C   UNL A   1      32.936  32.101  27.148  1.00  0.00     0.116 C 
BRANCH  27  28
ATOM     28  N   UNL A   1      32.615  33.493  27.430  1.00  0.00    -0.352 N 
ATOM     29  C   UNL A   1      33.172  34.327  28.368  1.00  0.00     0.251 C 
ATOM     30  H   UNL A   1      31.904  33.889  26.875  1.00  0.00     0.163 HD
ATOM     31  O   UNL A   1      32.708  35.439  28.588  1.00  0.00    -0.269 OA
BRANCH  29  32
ATOM     32  C   UNL A   1      34.333  33.838  29.133  1.00  0.00     0.039 A 
ATOM     33  C   UNL A   1      34.132  32.902  30.148  1.00  0.00     0.014 A 
ATOM     34  C   UNL A   1      35.621  34.251  28.782  1.00  0.00     0.014 A 
ATOM     35  C   UNL A   1      35.239  32.328  30.773  1.00  0.00     0.010 A 
ATOM     36  C   UNL A   1      36.717  33.607  29.334  1.00  0.00     0.010 A 
ATOM     37  C   UNL A   1      36.538  32.650  30.344  1.00  0.00    -0.014 A 
BRANCH  37  38
ATOM     38  C   UNL A   1      37.733  32.023  30.955  1.00  0.00     0.031 A 
ATOM     39  C   UNL A   1      38.445  30.921  30.222  1.00  0.00     0.074 A 
ATOM     40  C   UNL A   1      38.126  32.390  32.190  1.00  0.00     0.049 A 
ATOM     41  N   UNL A   1      39.443  30.174  30.617  1.00  0.00    -0.248 NA
ATOM     42  C   UNL A   1      37.940  30.587  28.880  1.00  0.00     0.031 C 
ATOM     43  C   UNL A   1      37.479  33.407  33.021  1.00  0.00     0.029 A 
ATOM     44  N   UNL A   1      39.161  31.935  32.967  1.00  0.00    -0.354 N 
ATOM     45  C   UNL A   1      39.667  29.272  29.586  1.00  0.00     0.074 A 
ATOM     46  C   UNL A   1      38.663  29.521  28.575  1.00  0.00     0.031 C 
ATOM     47  C   UNL A   1      38.149  33.519  34.180  1.00  0.00     0.029 A 
ATOM     48  C   UNL A   1      39.246  32.556  34.190  1.00  0.00     0.049 A 
ATOM     49  H   UNL A   1      39.784  31.231  32.676  1.00  0.00     0.167 HD
ATOM     50  C   UNL A   1      40.641  28.340  29.475  1.00  0.00     0.037 A 
ATOM     51  C   UNL A   1      40.110  32.363  35.203  1.00  0.00     0.037 A 
ATOM     52  C   UNL A   1      41.661  28.127  30.466  1.00  0.00     0.049 A 
ATOM     53  C   UNL A   1      41.193  31.331  35.051  1.00  0.00     0.074 A 
ATOM     54  C   UNL A   1      42.735  27.255  30.425  1.00  0.00     0.029 A 
ATOM     55  N   UNL A   1      41.735  28.799  31.677  1.00  0.00    -0.354 N 
ATOM     56  N   UNL A   1      41.436  30.530  34.042  1.00  0.00    -0.248 NA
ATOM     57  C   UNL A   1      42.126  31.180  36.177  1.00  0.00     0.031 C 
ATOM     58  C   UNL A   1      43.436  27.372  31.630  1.00  0.00     0.029 A 
ATOM     59  C   UNL A   1      42.826  28.351  32.400  1.00  0.00     0.049 A 
ATOM     60  H   UNL A   1      41.104  29.493  31.978  1.00  0.00     0.167 HD
ATOM     61  C   UNL A   1      42.565  29.802  34.396  1.00  0.00     0.074 A 
ATOM     62  C   UNL A   1      42.965  30.267  35.708  1.00  0.00     0.031 C 
ATOM     63  C   UNL A   1      43.212  28.837  33.699  1.00  0.00     0.037 A 
BRANCH  50  64
ATOM     64  C   UNL A   1      40.652  27.494  28.236  1.00  0.00     0.057 A 
ATOM     65  C   UNL A   1      41.401  27.849  27.105  1.00  0.00     0.134 A 
ATOM     66  C   UNL A   1      39.921  26.301  28.178  1.00  0.00     0.134 A 
ATOM     67  F   UNL A   1      42.111  28.987  27.089  1.00  0.00    -0.206 F 
ATOM     68  C   UNL A   1      41.398  27.063  25.952  1.00  0.00     0.040 A 
ATOM     69  C   UNL A   1      39.934  25.493  27.039  1.00  0.00     0.040 A 
ATOM     70  F   UNL A   1      39.185  25.900  29.225  1.00  0.00    -0.206 F 
ATOM     71  C   UNL A   1      40.669  25.877  25.920  1.00  0.00     0.006 A 
ENDBRANCH  50  64
BRANCH  51  72
ATOM     72  C   UNL A   1      40.008  33.183  36.437  1.00  0.00     0.057 A 
ATOM     73  C   UNL A   1      39.134  32.823  37.470  1.00  0.00     0.134 A 
ATOM     74  C   UNL A   1      40.770  34.345  36.613  1.00  0.00     0.134 A 
ATOM     75  F   UNL A   1      38.365  31.731  37.353  1.00  0.00    -0.206 F 
ATOM     76  C   UNL A   1      39.004  33.598  38.623  1.00  0.00     0.040 A 
ATOM     77  C   UNL A   1      40.669  35.117  37.772  1.00  0.00     0.040 A 
ATOM     78  F   UNL A   1      41.631  34.739  35.664  1.00  0.00    -0.206 F 
ATOM     79  C   UNL A   1      39.777  34.748  38.778  1.00  0.00     0.006 A 
ENDBRANCH  51  72
BRANCH  63  80
ATOM     80  C   UNL A   1      44.443  28.250  34.324  1.00  0.00     0.057 A 
ATOM     81  C   UNL A   1      44.393  27.095  35.114  1.00  0.00     0.134 A 
ATOM     82  C   UNL A   1      45.701  28.822  34.090  1.00  0.00     0.134 A 
ATOM     83  F   UNL A   1      43.218  26.507  35.384  1.00  0.00    -0.206 F 
ATOM     84  C   UNL A   1      45.548  26.543  35.668  1.00  0.00     0.040 A 
ATOM     85  C   UNL A   1      46.864  28.264  34.616  1.00  0.00     0.040 A 
ATOM     86  F   UNL A   1      45.817  29.924  33.333  1.00  0.00    -0.206 F 
ATOM     87  C   UNL A   1      46.790  27.123  35.414  1.00  0.00     0.006 A 
ENDBRANCH  63  80
ENDBRANCH  37  38
ENDBRANCH  29  32
ENDBRANCH  27  28
ENDBRANCH  26  27
ENDBRANCH  25  26
ENDBRANCH  24  25
ENDBRANCH   1  24
TORSDOF 17
ENDMDL
MODEL 3
REMARK VINA RESULT:     -10.1      2.548      6.986
REMARK SMILES C[C@@H](NC(=O)c1ccc(S(=O)(=O)N(C)C)o1)C(=O)NCCCCCCNC(=O)c1ccc(-c2c3nc(c(-c4c(F)cccc4F)c4ccc([nH]4)c(-c4c(F)cccc4F)c4nc(c(-c5c(F)cccc5F)c5ccc2[nH]5)C=C4)C=C3)cc1
REMARK SMILES IDX 21 1 20 2 19 3 17 4 18 5 2 7 1 8 3 9 4 10 5 12 6 13 7 14
REMARK SMILES IDX 16 15 8 16 9 17 10 18 11 19 12 20 13 21 14 22 15 23 22 24
REMARK SMILES IDX 23 25 24 26 25 27 26 28 27 29 28 31 29 32 30 33 82 34 31 35
REMARK SMILES IDX 81 36 32 37 33 38 34 39 75 40 35 41 80 42 74 43 76 44 36 45
REMARK SMILES IDX 79 46 73 47 72 48 37 50 63 51 46 52 62 53 47 54 50 55 61 56
REMARK SMILES IDX 77 57 48 58 49 59 60 61 78 62 51 63 38 64 39 65 44 66 40 67
REMARK SMILES IDX 41 68 43 69 45 70 42 71 64 72 65 73 70 74 66 75 67 76 69 77
REMARK SMILES IDX 71 78 68 79 52 80 53 81 58 82 54 83 55 84 57 85 59 86 56 87
REMARK H PARENT 19 6 3 11 26 30 76 49 50 60
REMARK Flexibility Score: inf
ROOT
ATOM      1  C   UNL A   1      31.040  27.157  26.191  1.00  0.00     0.021 C 
ENDROOT
BRANCH   1   2
ATOM      2  C   UNL A   1      31.660  25.769  26.287  1.00  0.00     0.116 C 
BRANCH   2   3
ATOM      3  N   UNL A   1      30.722  24.831  26.873  1.00  0.00    -0.354 N 
ATOM      4  C   UNL A   1      30.845  23.492  27.067  1.00  0.00     0.242 C 
ATOM      5  O   UNL A   1      29.858  22.872  27.471  1.00  0.00    -0.273 OA
ATOM      6  H   UNL A   1      29.870  25.222  27.174  1.00  0.00     0.163 HD
BRANCH   4   7
ATOM      7  C   UNL A   1      32.129  22.738  26.671  1.00  0.00     0.168 C 
ATOM      8  C   UNL A   1      32.834  22.321  27.966  1.00  0.00     0.041 C 
BRANCH   7   9
ATOM      9  N   UNL A   1      31.968  21.582  25.785  1.00  0.00    -0.338 N 
ATOM     10  C   UNL A   1      32.583  21.299  24.582  1.00  0.00     0.287 C 
ATOM     11  H   UNL A   1      31.324  20.905  26.095  1.00  0.00     0.164 HD
ATOM     12  O   UNL A   1      32.426  20.163  24.136  1.00  0.00    -0.266 OA
BRANCH  10  13
ATOM     13  C   UNL A   1      33.265  22.352  23.858  1.00  0.00     0.193 A 
ATOM     14  C   UNL A   1      34.591  22.625  23.598  1.00  0.00     0.058 A 
ATOM     15  O   UNL A   1      32.495  23.356  23.332  1.00  0.00    -0.438 OA
ATOM     16  C   UNL A   1      34.630  23.903  22.988  1.00  0.00     0.065 A 
ATOM     17  C   UNL A   1      33.321  24.334  22.809  1.00  0.00     0.234 A 
BRANCH  17  18
ATOM     18  S   UNL A   1      32.641  25.841  22.090  1.00  0.00     0.275 S 
ATOM     19  O   UNL A   1      33.461  26.133  20.942  1.00  0.00    -0.204 OA
ATOM     20  O   UNL A   1      31.221  25.580  21.968  1.00  0.00    -0.204 OA
BRANCH  18  21
ATOM     21  N   UNL A   1      32.816  27.123  23.217  1.00  0.00    -0.201 NA
ATOM     22  C   UNL A   1      34.055  27.057  24.020  1.00  0.00     0.124 C 
ATOM     23  C   UNL A   1      32.649  28.461  22.594  1.00  0.00     0.124 C 
ENDBRANCH  18  21
ENDBRANCH  17  18
ENDBRANCH  10  13
ENDBRANCH   7   9
ENDBRANCH   4   7
ENDBRANCH   2   3
ENDBRANCH   1   2
BRANCH   1  24
ATOM     24  C   UNL A   1      31.823  28.224  26.961  1.00  0.00     0.002 C 
BRANCH  24  25
ATOM     25  C   UNL A   1      32.128  29.482  26.148  1.00  0.00     0.002 C 
BRANCH  25  26
ATOM     26  C   UNL A   1      31.717  30.801  26.788  1.00  0.00     0.021 C 
BRANCH  26  27
ATOM     27  C   UNL A   1      32.887  31.695  27.154  1.00  0.00     0.116 C 
BRANCH  27  28
ATOM     28  N   UNL A   1      32.480  33.058  27.466  1.00  0.00    -0.352 N 
ATOM     29  C   UNL A   1      33.102  33.972  28.281  1.00  0.00     0.251 C 
ATOM     30  H   UNL A   1      31.649  33.366  27.037  1.00  0.00     0.163 HD
ATOM     31  O   UNL A   1      32.572  35.041  28.561  1.00  0.00    -0.269 OA
BRANCH  29  32
ATOM     32  C   UNL A   1      34.420  33.622  28.840  1.00  0.00     0.039 A 
ATOM     33  C   UNL A   1      34.482  32.880  30.021  1.00  0.00     0.014 A 
ATOM     34  C   UNL A   1      35.583  33.963  28.146  1.00  0.00     0.014 A 
ATOM     35  C   UNL A   1      35.720  32.423  30.473  1.00  0.00     0.010 A 
ATOM     36  C   UNL A   1      36.797  33.425  28.542  1.00  0.00     0.010 A 
ATOM     37  C   UNL A   1      36.879  32.661  29.716  1.00  0.00    -0.014 A 
BRANCH  37  38
ATOM     38  C   UNL A   1      38.202  32.149  30.144  1.00  0.00     0.031 A 
ATOM     39  C   UNL A   1      38.700  30.841  29.596  1.00  0.00     0.074 A 
ATOM     40  C   UNL A   1      38.912  32.817  31.074  1.00  0.00     0.049 A 
ATOM     41  N   UNL A   1      39.776  30.167  29.912  1.00  0.00    -0.248 NA
ATOM     42  C   UNL A   1      37.853  30.182  28.588  1.00  0.00     0.031 C 
ATOM     43  C   UNL A   1      38.504  34.066  31.720  1.00  0.00     0.029 A 
ATOM     44  N   UNL A   1      40.123  32.527  31.648  1.00  0.00    -0.354 N 
ATOM     45  C   UNL A   1      39.721  29.001  29.160  1.00  0.00     0.074 A 
ATOM     46  C   UNL A   1      38.478  29.027  28.422  1.00  0.00     0.031 C 
ATOM     47  C   UNL A   1      39.462  34.449  32.580  1.00  0.00     0.029 A 
ATOM     48  C   UNL A   1      40.530  33.456  32.576  1.00  0.00     0.049 A 
ATOM     49  H   UNL A   1      40.651  31.728  31.418  1.00  0.00     0.167 HD
ATOM     50  C   UNL A   1      40.638  28.011  29.069  1.00  0.00     0.037 A 
ATOM     51  C   UNL A   1      41.639  33.493  33.337  1.00  0.00     0.037 A 
ATOM     52  C   UNL A   1      41.891  28.013  29.775  1.00  0.00     0.049 A 
ATOM     53  C   UNL A   1      42.650  32.388  33.208  1.00  0.00     0.074 A 
ATOM     54  C   UNL A   1      42.921  27.093  29.704  1.00  0.00     0.029 A 
ATOM     55  N   UNL A   1      42.283  28.988  30.679  1.00  0.00    -0.354 N 
ATOM     56  N   UNL A   1      42.618  31.324  32.443  1.00  0.00    -0.248 NA
ATOM     57  C   UNL A   1      43.855  32.493  34.043  1.00  0.00     0.031 C 
ATOM     58  C   UNL A   1      43.922  27.492  30.597  1.00  0.00     0.029 A 
ATOM     59  C   UNL A   1      43.534  28.685  31.187  1.00  0.00     0.049 A 
ATOM     60  H   UNL A   1      41.750  29.780  30.924  1.00  0.00     0.167 HD
ATOM     61  C   UNL A   1      43.809  30.648  32.680  1.00  0.00     0.074 A 
ATOM     62  C   UNL A   1      44.545  31.431  33.652  1.00  0.00     0.031 C 
ATOM     63  C   UNL A   1      44.253  29.486  32.144  1.00  0.00     0.037 A 
BRANCH  50  64
ATOM     64  C   UNL A   1      40.321  26.855  28.166  1.00  0.00     0.057 A 
ATOM     65  C   UNL A   1      40.854  26.760  26.873  1.00  0.00     0.134 A 
ATOM     66  C   UNL A   1      39.488  25.817  28.599  1.00  0.00     0.134 A 
ATOM     67  F   UNL A   1      41.647  27.729  26.391  1.00  0.00    -0.206 F 
ATOM     68  C   UNL A   1      40.547  25.687  26.034  1.00  0.00     0.040 A 
ATOM     69  C   UNL A   1      39.197  24.725  27.778  1.00  0.00     0.040 A 
ATOM     70  F   UNL A   1      38.945  25.843  29.825  1.00  0.00    -0.206 F 
ATOM     71  C   UNL A   1      39.722  24.663  26.489  1.00  0.00     0.006 A 
ENDBRANCH  50  64
BRANCH  51  72
ATOM     72  C   UNL A   1      41.866  34.628  34.267  1.00  0.00     0.057 A 
ATOM     73  C   UNL A   1      42.443  35.823  33.818  1.00  0.00     0.134 A 
ATOM     74  C   UNL A   1      41.523  34.549  35.622  1.00  0.00     0.134 A 
ATOM     75  F   UNL A   1      42.810  35.954  32.534  1.00  0.00    -0.206 F 
ATOM     76  C   UNL A   1      42.691  36.888  34.685  1.00  0.00     0.040 A 
ATOM     77  C   UNL A   1      41.742  35.616  36.496  1.00  0.00     0.040 A 
ATOM     78  F   UNL A   1      40.960  33.435  36.113  1.00  0.00    -0.206 F 
ATOM     79  C   UNL A   1      42.335  36.787  36.028  1.00  0.00     0.006 A 
ENDBRANCH  51  72
BRANCH  63  80
ATOM     80  C   UNL A   1      45.613  29.013  32.564  1.00  0.00     0.057 A 
ATOM     81  C   UNL A   1      45.792  28.145  33.648  1.00  0.00     0.134 A 
ATOM     82  C   UNL A   1      46.752  29.394  31.843  1.00  0.00     0.134 A 
ATOM     83  F   UNL A   1      44.743  27.753  34.386  1.00  0.00    -0.206 F 
ATOM     84  C   UNL A   1      47.060  27.691  34.013  1.00  0.00     0.040 A 
ATOM     85  C   UNL A   1      48.020  28.925  32.182  1.00  0.00     0.040 A 
ATOM     86  F   UNL A   1      46.645  30.216  30.787  1.00  0.00    -0.206 F 
ATOM     87  C   UNL A   1      48.178  28.075  33.275  1.00  0.00     0.006 A 
ENDBRANCH  63  80
ENDBRANCH  37  38
ENDBRANCH  29  32
ENDBRANCH  27  28
ENDBRANCH  26  27
ENDBRANCH  25  26
ENDBRANCH  24  25
ENDBRANCH   1  24
TORSDOF 17
ENDMDL
