MODEL 1
REMARK VINA RESULT:     -11.6      0.000      0.000
REMARK SMILES [NH3+]C[C@H]1CC[C@@H](C(=O)N[C@H](C(=O)NCCCCCCNC(=O)c2ccc(-c3c4nc(c(-c5c(F)cccc5F)c5ccc([nH]5)c(-c5c(F)cccc5F)c5nc(c(-c6c(F)cccc6F)c6ccc3[nH]6)C=C5)C=C4)cc2)C2CCCCC2)O1
REMARK SMILES IDX 15 1 14 2 13 3 11 4 12 5 10 7 9 8 7 9 8 10 6 12 3 13 4 14
REMARK SMILES IDX 83 15 5 16 2 17 1 18 77 22 78 23 82 24 79 25 81 26 80 27
REMARK SMILES IDX 16 28 17 29 18 30 19 31 20 32 21 33 22 35 23 36 24 37 76 38
REMARK SMILES IDX 25 39 75 40 26 41 27 42 28 43 69 44 29 45 74 46 68 47 70 48
REMARK SMILES IDX 30 49 73 50 67 51 66 52 31 54 57 55 40 56 56 57 41 58 44 59
REMARK SMILES IDX 55 60 71 61 42 62 43 63 54 65 72 66 45 67 32 68 33 69 38 70
REMARK SMILES IDX 34 71 35 72 37 73 39 74 36 75 58 76 59 77 64 78 60 79 61 80
REMARK SMILES IDX 63 81 65 82 62 83 46 84 47 85 52 86 48 87 49 88 51 89 53 90
REMARK SMILES IDX 50 91
REMARK H PARENT 13 6 9 11 1 19 1 20 1 21 20 34 70 53 44 64
REMARK Flexibility Score: inf
ROOT
ATOM      1  C   UNL A   1      33.055  29.300  25.124  1.00  0.00     0.021 C 
ENDROOT
BRANCH   1   2
ATOM      2  C   UNL A   1      32.885  27.945  24.424  1.00  0.00     0.116 C 
BRANCH   2   3
ATOM      3  N   UNL A   1      32.163  28.133  23.176  1.00  0.00    -0.354 N 
ATOM      4  C   UNL A   1      30.908  27.717  22.816  1.00  0.00     0.242 C 
ATOM      5  O   UNL A   1      30.647  27.655  21.614  1.00  0.00    -0.273 OA
ATOM      6  H   UNL A   1      32.649  28.638  22.485  1.00  0.00     0.163 HD
BRANCH   4   7
ATOM      7  C   UNL A   1      29.858  27.385  23.909  1.00  0.00     0.174 C 
BRANCH   7   8
ATOM      8  N   UNL A   1      28.516  27.683  23.372  1.00  0.00    -0.342 N 
ATOM      9  C   UNL A   1      27.904  28.874  23.107  1.00  0.00     0.249 C 
ATOM     10  O   UNL A   1      26.717  28.846  22.771  1.00  0.00    -0.272 OA
ATOM     11  H   UNL A   1      27.971  26.888  23.170  1.00  0.00     0.164 HD
BRANCH   9  12
ATOM     12  C   UNL A   1      28.687  30.192  23.197  1.00  0.00     0.207 C 
ATOM     13  C   UNL A   1      28.879  31.983  21.683  1.00  0.00     0.174 C 
ATOM     14  C   UNL A   1      28.455  32.537  23.034  1.00  0.00     0.041 C 
ATOM     15  O   UNL A   1      29.160  30.589  21.896  1.00  0.00    -0.359 OA
ATOM     16  C   UNL A   1      27.822  31.336  23.699  1.00  0.00     0.045 C 
BRANCH  13  17
ATOM     17  C   UNL A   1      27.810  32.151  20.582  1.00  0.00     0.291 C 
BRANCH  17  18
ATOM     18  N   UNL A   1      28.317  32.805  19.370  1.00  0.00    -0.355 N 
ATOM     19  H   UNL A   1      28.388  32.119  18.619  1.00  0.00     0.344 HD
ATOM     20  H   UNL A   1      29.238  33.201  19.558  1.00  0.00     0.344 HD
ATOM     21  H   UNL A   1      27.677  33.550  19.093  1.00  0.00     0.344 HD
ENDBRANCH  17  18
ENDBRANCH  13  17
ENDBRANCH   9  12
ENDBRANCH   7   8
BRANCH   7  22
ATOM     22  C   UNL A   1      29.901  25.892  24.372  1.00  0.00     0.021 C 
ATOM     23  C   UNL A   1      30.772  24.988  23.489  1.00  0.00     0.006 C 
ATOM     24  C   UNL A   1      30.374  25.798  25.840  1.00  0.00     0.006 C 
ATOM     25  C   UNL A   1      30.888  23.555  23.993  1.00  0.00     0.000 C 
ATOM     26  C   UNL A   1      30.526  24.357  26.333  1.00  0.00     0.000 C 
ATOM     27  C   UNL A   1      31.421  23.532  25.417  1.00  0.00     0.000 C 
ENDBRANCH   7  22
ENDBRANCH   4   7
ENDBRANCH   2   3
ENDBRANCH   1   2
BRANCH   1  28
ATOM     28  C   UNL A   1      31.889  29.681  26.034  1.00  0.00     0.002 C 
BRANCH  28  29
ATOM     29  C   UNL A   1      31.027  30.829  25.506  1.00  0.00     0.002 C 
BRANCH  29  30
ATOM     30  C   UNL A   1      31.043  32.114  26.345  1.00  0.00     0.021 C 
BRANCH  30  31
ATOM     31  C   UNL A   1      32.395  32.488  26.951  1.00  0.00     0.116 C 
BRANCH  31  32
ATOM     32  N   UNL A   1      32.401  33.840  27.479  1.00  0.00    -0.352 N 
ATOM     33  C   UNL A   1      33.192  34.401  28.444  1.00  0.00     0.251 C 
ATOM     34  H   UNL A   1      31.734  34.445  27.082  1.00  0.00     0.163 HD
ATOM     35  O   UNL A   1      32.897  35.502  28.910  1.00  0.00    -0.269 OA
BRANCH  33  36
ATOM     36  C   UNL A   1      34.395  33.700  28.940  1.00  0.00     0.039 A 
ATOM     37  C   UNL A   1      34.231  32.500  29.638  1.00  0.00     0.014 A 
ATOM     38  C   UNL A   1      35.673  34.249  28.785  1.00  0.00     0.014 A 
ATOM     39  C   UNL A   1      35.345  31.841  30.162  1.00  0.00     0.010 A 
ATOM     40  C   UNL A   1      36.790  33.558  29.252  1.00  0.00     0.010 A 
ATOM     41  C   UNL A   1      36.636  32.362  29.967  1.00  0.00    -0.014 A 
BRANCH  41  42
ATOM     42  C   UNL A   1      37.817  31.686  30.562  1.00  0.00     0.031 A 
ATOM     43  C   UNL A   1      38.231  31.997  31.975  1.00  0.00     0.074 A 
ATOM     44  C   UNL A   1      38.520  30.799  29.832  1.00  0.00     0.049 A 
ATOM     45  N   UNL A   1      39.223  31.506  32.674  1.00  0.00    -0.248 NA
ATOM     46  C   UNL A   1      37.437  33.008  32.691  1.00  0.00     0.031 C 
ATOM     47  C   UNL A   1      38.244  30.437  28.441  1.00  0.00     0.029 A 
ATOM     48  N   UNL A   1      39.608  30.032  30.167  1.00  0.00    -0.354 N 
ATOM     49  C   UNL A   1      39.172  32.148  33.905  1.00  0.00     0.074 A 
ATOM     50  C   UNL A   1      38.093  33.109  33.838  1.00  0.00     0.031 C 
ATOM     51  C   UNL A   1      39.119  29.495  28.051  1.00  0.00     0.029 A 
ATOM     52  C   UNL A   1      40.029  29.204  29.154  1.00  0.00     0.049 A 
ATOM     53  H   UNL A   1      40.046  30.072  31.047  1.00  0.00     0.167 HD
ATOM     54  C   UNL A   1      39.934  31.937  35.006  1.00  0.00     0.037 A 
ATOM     55  C   UNL A   1      41.030  28.304  29.127  1.00  0.00     0.037 A 
ATOM     56  C   UNL A   1      40.992  30.967  35.084  1.00  0.00     0.049 A 
ATOM     57  C   UNL A   1      41.863  28.091  30.360  1.00  0.00     0.074 A 
ATOM     58  C   UNL A   1      41.804  30.655  36.162  1.00  0.00     0.029 A 
ATOM     59  N   UNL A   1      41.384  30.143  34.039  1.00  0.00    -0.354 N 
ATOM     60  N   UNL A   1      41.769  28.669  31.533  1.00  0.00    -0.248 NA
ATOM     61  C   UNL A   1      42.936  27.091  30.267  1.00  0.00     0.031 C 
ATOM     62  C   UNL A   1      42.704  29.662  35.761  1.00  0.00     0.029 A 
ATOM     63  C   UNL A   1      42.429  29.330  34.444  1.00  0.00     0.049 A 
ATOM     64  H   UNL A   1      40.978  30.137  33.142  1.00  0.00     0.167 HD
ATOM     65  C   UNL A   1      42.748  28.083  32.324  1.00  0.00     0.074 A 
ATOM     66  C   UNL A   1      43.413  27.094  31.503  1.00  0.00     0.031 C 
ATOM     67  C   UNL A   1      43.071  28.342  33.615  1.00  0.00     0.037 A 
BRANCH  54  68
ATOM     68  C   UNL A   1      39.631  32.763  36.222  1.00  0.00     0.057 A 
ATOM     69  C   UNL A   1      40.294  33.972  36.471  1.00  0.00     0.134 A 
ATOM     70  C   UNL A   1      38.651  32.364  37.138  1.00  0.00     0.134 A 
ATOM     71  F   UNL A   1      41.254  34.403  35.639  1.00  0.00    -0.206 F 
ATOM     72  C   UNL A   1      40.014  34.741  37.602  1.00  0.00     0.040 A 
ATOM     73  C   UNL A   1      38.342  33.137  38.260  1.00  0.00     0.040 A 
ATOM     74  F   UNL A   1      37.974  31.220  36.958  1.00  0.00    -0.206 F 
ATOM     75  C   UNL A   1      39.030  34.327  38.496  1.00  0.00     0.006 A 
ENDBRANCH  54  68
BRANCH  55  76
ATOM     76  C   UNL A   1      41.282  27.502  27.903  1.00  0.00     0.057 A 
ATOM     77  C   UNL A   1      42.086  27.998  26.870  1.00  0.00     0.134 A 
ATOM     78  C   UNL A   1      40.703  26.240  27.722  1.00  0.00     0.134 A 
ATOM     79  F   UNL A   1      42.652  29.210  26.980  1.00  0.00    -0.206 F 
ATOM     80  C   UNL A   1      42.285  27.282  25.690  1.00  0.00     0.040 A 
ATOM     81  C   UNL A   1      40.913  25.503  26.555  1.00  0.00     0.040 A 
ATOM     82  F   UNL A   1      39.928  25.706  28.676  1.00  0.00    -0.206 F 
ATOM     83  C   UNL A   1      41.699  26.029  25.531  1.00  0.00     0.006 A 
ENDBRANCH  55  76
BRANCH  67  84
ATOM     84  C   UNL A   1      44.167  27.518  34.222  1.00  0.00     0.057 A 
ATOM     85  C   UNL A   1      45.505  27.935  34.196  1.00  0.00     0.134 A 
ATOM     86  C   UNL A   1      43.879  26.302  34.853  1.00  0.00     0.134 A 
ATOM     87  F   UNL A   1      45.847  29.085  33.593  1.00  0.00    -0.206 F 
ATOM     88  C   UNL A   1      46.520  27.157  34.751  1.00  0.00     0.040 A 
ATOM     89  C   UNL A   1      44.883  25.527  35.433  1.00  0.00     0.040 A 
ATOM     90  F   UNL A   1      42.618  25.850  34.918  1.00  0.00    -0.206 F 
ATOM     91  C   UNL A   1      46.210  25.950  35.377  1.00  0.00     0.006 A 
ENDBRANCH  67  84
ENDBRANCH  41  42
ENDBRANCH  33  36
ENDBRANCH  31  32
ENDBRANCH  30  31
ENDBRANCH  29  30
ENDBRANCH  28  29
ENDBRANCH   1  28
TORSDOF 18
ENDMDL
MODEL 2
REMARK VINA RESULT:     -11.2      5.144     10.011
REMARK SMILES [NH3+]C[C@H]1CC[C@@H](C(=O)N[C@H](C(=O)NCCCCCCNC(=O)c2ccc(-c3c4nc(c(-c5c(F)cccc5F)c5ccc([nH]5)c(-c5c(F)cccc5F)c5nc(c(-c6c(F)cccc6F)c6ccc3[nH]6)C=C5)C=C4)cc2)C2CCCCC2)O1
REMARK SMILES IDX 15 1 14 2 13 3 11 4 12 5 10 7 9 8 7 9 8 10 6 12 3 13 4 14
REMARK SMILES IDX 83 15 5 16 2 17 1 18 77 22 78 23 82 24 79 25 81 26 80 27
REMARK SMILES IDX 16 28 17 29 18 30 19 31 20 32 21 33 22 35 23 36 24 37 76 38
REMARK SMILES IDX 25 39 75 40 26 41 27 42 28 43 69 44 29 45 74 46 68 47 70 48
REMARK SMILES IDX 30 49 73 50 67 51 66 52 31 54 57 55 40 56 56 57 41 58 44 59
REMARK SMILES IDX 55 60 71 61 42 62 43 63 54 65 72 66 45 67 32 68 33 69 38 70
REMARK SMILES IDX 34 71 35 72 37 73 39 74 36 75 58 76 59 77 64 78 60 79 61 80
REMARK SMILES IDX 63 81 65 82 62 83 46 84 47 85 52 86 48 87 49 88 51 89 53 90
REMARK SMILES IDX 50 91
REMARK H PARENT 13 6 9 11 1 19 1 20 1 21 20 34 70 53 44 64
REMARK Flexibility Score: inf
ROOT
ATOM      1  C   UNL A   1      38.080  23.769  26.393  1.00  0.00     0.021 C 
ENDROOT
BRANCH   1   2
ATOM      2  C   UNL A   1      36.567  23.672  26.155  1.00  0.00     0.116 C 
BRANCH   2   3
ATOM      3  N   UNL A   1      36.285  23.898  24.747  1.00  0.00    -0.354 N 
ATOM      4  C   UNL A   1      35.100  23.807  24.063  1.00  0.00     0.242 C 
ATOM      5  O   UNL A   1      35.154  23.673  22.840  1.00  0.00    -0.273 OA
ATOM      6  H   UNL A   1      37.062  24.158  24.202  1.00  0.00     0.163 HD
BRANCH   4   7
ATOM      7  C   UNL A   1      33.754  23.918  24.825  1.00  0.00     0.174 C 
BRANCH   7   8
ATOM      8  N   UNL A   1      33.760  22.934  25.925  1.00  0.00    -0.342 N 
ATOM      9  C   UNL A   1      33.659  21.573  25.905  1.00  0.00     0.249 C 
ATOM     10  O   UNL A   1      33.567  20.990  26.990  1.00  0.00    -0.272 OA
ATOM     11  H   UNL A   1      33.852  23.325  26.824  1.00  0.00     0.164 HD
BRANCH   9  12
ATOM     12  C   UNL A   1      33.692  20.805  24.576  1.00  0.00     0.207 C 
ATOM     13  C   UNL A   1      33.247  18.548  24.082  1.00  0.00     0.174 C 
ATOM     14  C   UNL A   1      32.398  19.419  23.168  1.00  0.00     0.041 C 
ATOM     15  O   UNL A   1      34.120  19.447  24.788  1.00  0.00    -0.359 OA
ATOM     16  C   UNL A   1      32.317  20.720  23.933  1.00  0.00     0.045 C 
BRANCH  13  17
ATOM     17  C   UNL A   1      32.419  17.711  25.082  1.00  0.00     0.291 C 
BRANCH  17  18
ATOM     18  N   UNL A   1      32.825  17.903  26.479  1.00  0.00    -0.355 N 
ATOM     19  H   UNL A   1      32.687  18.879  26.741  1.00  0.00     0.344 HD
ATOM     20  H   UNL A   1      33.809  17.658  26.584  1.00  0.00     0.344 HD
ATOM     21  H   UNL A   1      32.259  17.305  27.082  1.00  0.00     0.344 HD
ENDBRANCH  17  18
ENDBRANCH  13  17
ENDBRANCH   9  12
ENDBRANCH   7   8
BRANCH   7  22
ATOM     22  C   UNL A   1      33.497  25.342  25.419  1.00  0.00     0.021 C 
ATOM     23  C   UNL A   1      33.707  26.485  24.416  1.00  0.00     0.006 C 
ATOM     24  C   UNL A   1      32.074  25.427  26.015  1.00  0.00     0.006 C 
ATOM     25  C   UNL A   1      33.366  27.864  24.967  1.00  0.00     0.000 C 
ATOM     26  C   UNL A   1      31.721  26.823  26.535  1.00  0.00     0.000 C 
ATOM     27  C   UNL A   1      31.933  27.897  25.475  1.00  0.00     0.000 C 
ENDBRANCH   7  22
ENDBRANCH   4   7
ENDBRANCH   2   3
ENDBRANCH   1   2
BRANCH   1  28
ATOM     28  C   UNL A   1      38.863  22.541  25.933  1.00  0.00     0.002 C 
BRANCH  28  29
ATOM     29  C   UNL A   1      38.012  21.476  25.239  1.00  0.00     0.002 C 
BRANCH  29  30
ATOM     30  C   UNL A   1      38.615  20.065  25.200  1.00  0.00     0.021 C 
BRANCH  30  31
ATOM     31  C   UNL A   1      39.559  19.720  26.351  1.00  0.00     0.116 C 
BRANCH  31  32
ATOM     32  N   UNL A   1      40.794  19.118  25.881  1.00  0.00    -0.352 N 
ATOM     33  C   UNL A   1      42.038  19.669  25.733  1.00  0.00     0.251 C 
ATOM     34  H   UNL A   1      40.726  18.169  25.631  1.00  0.00     0.163 HD
ATOM     35  O   UNL A   1      42.906  19.056  25.111  1.00  0.00    -0.269 OA
BRANCH  33  36
ATOM     36  C   UNL A   1      42.352  20.995  26.307  1.00  0.00     0.039 A 
ATOM     37  C   UNL A   1      42.306  21.150  27.695  1.00  0.00     0.014 A 
ATOM     38  C   UNL A   1      42.620  22.098  25.488  1.00  0.00     0.014 A 
ATOM     39  C   UNL A   1      42.549  22.403  28.263  1.00  0.00     0.010 A 
ATOM     40  C   UNL A   1      42.925  23.332  26.059  1.00  0.00     0.010 A 
ATOM     41  C   UNL A   1      42.867  23.503  27.450  1.00  0.00    -0.014 A 
BRANCH  41  42
ATOM     42  C   UNL A   1      43.081  24.845  28.050  1.00  0.00     0.031 A 
ATOM     43  C   UNL A   1      44.469  25.290  28.424  1.00  0.00     0.074 A 
ATOM     44  C   UNL A   1      42.030  25.661  28.260  1.00  0.00     0.049 A 
ATOM     45  N   UNL A   1      44.862  26.424  28.947  1.00  0.00    -0.248 NA
ATOM     46  C   UNL A   1      45.558  24.326  28.201  1.00  0.00     0.031 C 
ATOM     47  C   UNL A   1      40.633  25.335  27.974  1.00  0.00     0.029 A 
ATOM     48  N   UNL A   1      41.979  26.939  28.758  1.00  0.00    -0.354 N 
ATOM     49  C   UNL A   1      46.236  26.308  29.115  1.00  0.00     0.074 A 
ATOM     50  C   UNL A   1      46.602  24.972  28.699  1.00  0.00     0.031 C 
ATOM     51  C   UNL A   1      39.864  26.396  28.270  1.00  0.00     0.029 A 
ATOM     52  C   UNL A   1      40.711  27.467  28.787  1.00  0.00     0.049 A 
ATOM     53  H   UNL A   1      42.774  27.430  29.066  1.00  0.00     0.167 HD
ATOM     54  C   UNL A   1      47.121  27.238  29.547  1.00  0.00     0.037 A 
ATOM     55  C   UNL A   1      40.284  28.683  29.177  1.00  0.00     0.037 A 
ATOM     56  C   UNL A   1      46.765  28.575  29.939  1.00  0.00     0.049 A 
ATOM     57  C   UNL A   1      41.287  29.696  29.656  1.00  0.00     0.074 A 
ATOM     58  C   UNL A   1      47.590  29.602  30.364  1.00  0.00     0.029 A 
ATOM     59  N   UNL A   1      45.470  29.073  29.949  1.00  0.00    -0.354 N 
ATOM     60  N   UNL A   1      42.589  29.588  29.760  1.00  0.00    -0.248 NA
ATOM     61  C   UNL A   1      40.758  31.006  30.062  1.00  0.00     0.031 C 
ATOM     62  C   UNL A   1      46.792  30.714  30.656  1.00  0.00     0.029 A 
ATOM     63  C   UNL A   1      45.474  30.390  30.379  1.00  0.00     0.049 A 
ATOM     64  H   UNL A   1      44.667  28.566  29.688  1.00  0.00     0.167 HD
ATOM     65  C   UNL A   1      43.038  30.821  30.214  1.00  0.00     0.074 A 
ATOM     66  C   UNL A   1      41.870  31.667  30.349  1.00  0.00     0.031 C 
ATOM     67  C   UNL A   1      44.302  31.219  30.496  1.00  0.00     0.037 A 
BRANCH  54  68
ATOM     68  C   UNL A   1      48.568  26.841  29.597  1.00  0.00     0.057 A 
ATOM     69  C   UNL A   1      49.118  26.216  30.724  1.00  0.00     0.134 A 
ATOM     70  C   UNL A   1      49.413  27.060  28.503  1.00  0.00     0.134 A 
ATOM     71  F   UNL A   1      48.365  25.990  31.810  1.00  0.00    -0.206 F 
ATOM     72  C   UNL A   1      50.463  25.846  30.771  1.00  0.00     0.040 A 
ATOM     73  C   UNL A   1      50.755  26.672  28.528  1.00  0.00     0.040 A 
ATOM     74  F   UNL A   1      48.951  27.650  27.391  1.00  0.00    -0.206 F 
ATOM     75  C   UNL A   1      51.284  26.068  29.668  1.00  0.00     0.006 A 
ENDBRANCH  54  68
BRANCH  55  76
ATOM     76  C   UNL A   1      38.844  29.032  29.096  1.00  0.00     0.057 A 
ATOM     77  C   UNL A   1      38.273  29.455  27.890  1.00  0.00     0.134 A 
ATOM     78  C   UNL A   1      38.014  28.984  30.222  1.00  0.00     0.134 A 
ATOM     79  F   UNL A   1      39.023  29.540  26.781  1.00  0.00    -0.206 F 
ATOM     80  C   UNL A   1      36.935  29.843  27.810  1.00  0.00     0.040 A 
ATOM     81  C   UNL A   1      36.668  29.347  30.151  1.00  0.00     0.040 A 
ATOM     82  F   UNL A   1      38.498  28.582  31.405  1.00  0.00    -0.206 F 
ATOM     83  C   UNL A   1      36.128  29.787  28.944  1.00  0.00     0.006 A 
ENDBRANCH  55  76
BRANCH  67  84
ATOM     84  C   UNL A   1      44.486  32.638  30.945  1.00  0.00     0.057 A 
ATOM     85  C   UNL A   1      44.463  32.993  32.300  1.00  0.00     0.134 A 
ATOM     86  C   UNL A   1      44.704  33.658  30.011  1.00  0.00     0.134 A 
ATOM     87  F   UNL A   1      44.243  32.063  33.242  1.00  0.00    -0.206 F 
ATOM     88  C   UNL A   1      44.621  34.318  32.708  1.00  0.00     0.040 A 
ATOM     89  C   UNL A   1      44.889  34.983  30.409  1.00  0.00     0.040 A 
ATOM     90  F   UNL A   1      44.746  33.384  28.699  1.00  0.00    -0.206 F 
ATOM     91  C   UNL A   1      44.840  35.317  31.761  1.00  0.00     0.006 A 
ENDBRANCH  67  84
ENDBRANCH  41  42
ENDBRANCH  33  36
ENDBRANCH  31  32
ENDBRANCH  30  31
ENDBRANCH  29  30
ENDBRANCH  28  29
ENDBRANCH   1  28
TORSDOF 18
ENDMDL
MODEL 3
REMARK VINA RESULT:     -11.2      2.117      4.005
REMARK SMILES [NH3+]C[C@H]1CC[C@@H](C(=O)N[C@H](C(=O)NCCCCCCNC(=O)c2ccc(-c3c4nc(c(-c5c(F)cccc5F)c5ccc([nH]5)c(-c5c(F)cccc5F)c5nc(c(-c6c(F)cccc6F)c6ccc3[nH]6)C=C5)C=C4)cc2)C2CCCCC2)O1
REMARK SMILES IDX 15 1 14 2 13 3 11 4 12 5 10 7 9 8 7 9 8 10 6 12 3 13 4 14
REMARK SMILES IDX 83 15 5 16 2 17 1 18 77 22 78 23 82 24 79 25 81 26 80 27
REMARK SMILES IDX 16 28 17 29 18 30 19 31 20 32 21 33 22 35 23 36 24 37 76 38
REMARK SMILES IDX 25 39 75 40 26 41 27 42 28 43 69 44 29 45 74 46 68 47 70 48
REMARK SMILES IDX 30 49 73 50 67 51 66 52 31 54 57 55 40 56 56 57 41 58 44 59
REMARK SMILES IDX 55 60 71 61 42 62 43 63 54 65 72 66 45 67 32 68 33 69 38 70
REMARK SMILES IDX 34 71 35 72 37 73 39 74 36 75 58 76 59 77 64 78 60 79 61 80
REMARK SMILES IDX 63 81 65 82 62 83 46 84 47 85 52 86 48 87 49 88 51 89 53 90
REMARK SMILES IDX 50 91
REMARK H PARENT 13 6 9 11 1 19 1 20 1 21 20 34 70 53 44 64
REMARK Flexibility Score: inf
ROOT
ATOM      1  C   UNL A   1      33.308  29.350  27.001  1.00  0.00     0.021 C 
ENDROOT
BRANCH   1   2
ATOM      2  C   UNL A   1      33.621  28.181  26.059  1.00  0.00     0.116 C 
BRANCH   2   3
ATOM      3  N   UNL A   1      32.965  26.979  26.546  1.00  0.00    -0.354 N 
ATOM      4  C   UNL A   1      31.879  26.307  26.048  1.00  0.00     0.242 C 
ATOM      5  O   UNL A   1      31.274  25.551  26.809  1.00  0.00    -0.273 OA
ATOM      6  H   UNL A   1      33.363  26.586  27.357  1.00  0.00     0.163 HD
BRANCH   4   7
ATOM      7  C   UNL A   1      31.477  26.478  24.560  1.00  0.00     0.174 C 
BRANCH   7   8
ATOM      8  N   UNL A   1      31.011  25.174  24.050  1.00  0.00    -0.342 N 
ATOM      9  C   UNL A   1      31.709  24.079  23.629  1.00  0.00     0.249 C 
ATOM     10  O   UNL A   1      31.068  23.149  23.130  1.00  0.00    -0.272 OA
ATOM     11  H   UNL A   1      30.032  25.078  24.007  1.00  0.00     0.164 HD
BRANCH   9  12
ATOM     12  C   UNL A   1      33.232  24.007  23.805  1.00  0.00     0.207 C 
ATOM     13  C   UNL A   1      34.583  22.472  24.970  1.00  0.00     0.174 C 
ATOM     14  C   UNL A   1      35.095  22.578  23.542  1.00  0.00     0.041 C 
ATOM     15  O   UNL A   1      33.566  23.480  25.103  1.00  0.00    -0.359 OA
ATOM     16  C   UNL A   1      33.880  23.077  22.793  1.00  0.00     0.045 C 
BRANCH  13  17
ATOM     17  C   UNL A   1      34.008  21.082  25.320  1.00  0.00     0.291 C 
BRANCH  17  18
ATOM     18  N   UNL A   1      32.737  21.144  26.050  1.00  0.00    -0.355 N 
ATOM     19  H   UNL A   1      32.435  22.115  26.124  1.00  0.00     0.344 HD
ATOM     20  H   UNL A   1      32.861  20.754  26.984  1.00  0.00     0.344 HD
ATOM     21  H   UNL A   1      32.030  20.605  25.548  1.00  0.00     0.344 HD
ENDBRANCH  17  18
ENDBRANCH  13  17
ENDBRANCH   9  12
ENDBRANCH   7   8
BRANCH   7  22
ATOM     22  C   UNL A   1      30.351  27.541  24.344  1.00  0.00     0.021 C 
ATOM     23  C   UNL A   1      30.746  28.691  23.407  1.00  0.00     0.006 C 
ATOM     24  C   UNL A   1      29.065  26.861  23.820  1.00  0.00     0.006 C 
ATOM     25  C   UNL A   1      29.619  29.675  23.123  1.00  0.00     0.000 C 
ATOM     26  C   UNL A   1      27.946  27.856  23.500  1.00  0.00     0.000 C 
ATOM     27  C   UNL A   1      28.411  28.951  22.549  1.00  0.00     0.000 C 
ENDBRANCH   7  22
ENDBRANCH   4   7
ENDBRANCH   2   3
ENDBRANCH   1   2
BRANCH   1  28
ATOM     28  C   UNL A   1      31.831  29.738  27.043  1.00  0.00     0.002 C 
BRANCH  28  29
ATOM     29  C   UNL A   1      31.459  30.898  26.117  1.00  0.00     0.002 C 
BRANCH  29  30
ATOM     30  C   UNL A   1      31.331  32.272  26.790  1.00  0.00     0.021 C 
BRANCH  30  31
ATOM     31  C   UNL A   1      32.650  32.976  27.104  1.00  0.00     0.116 C 
BRANCH  31  32
ATOM     32  N   UNL A   1      32.442  34.312  27.633  1.00  0.00    -0.352 N 
ATOM     33  C   UNL A   1      33.012  34.924  28.716  1.00  0.00     0.251 C 
ATOM     34  H   UNL A   1      31.792  34.860  27.138  1.00  0.00     0.163 HD
ATOM     35  O   UNL A   1      32.543  35.983  29.135  1.00  0.00    -0.269 OA
BRANCH  33  36
ATOM     36  C   UNL A   1      34.183  34.328  29.394  1.00  0.00     0.039 A 
ATOM     37  C   UNL A   1      35.452  34.542  28.848  1.00  0.00     0.014 A 
ATOM     38  C   UNL A   1      34.035  33.506  30.516  1.00  0.00     0.014 A 
ATOM     39  C   UNL A   1      36.572  33.950  29.436  1.00  0.00     0.010 A 
ATOM     40  C   UNL A   1      35.159  32.968  31.140  1.00  0.00     0.010 A 
ATOM     41  C   UNL A   1      36.436  33.163  30.592  1.00  0.00    -0.014 A 
BRANCH  41  42
ATOM     42  C   UNL A   1      37.619  32.497  31.193  1.00  0.00     0.031 A 
ATOM     43  C   UNL A   1      38.164  32.975  32.512  1.00  0.00     0.074 A 
ATOM     44  C   UNL A   1      38.205  31.466  30.554  1.00  0.00     0.049 A 
ATOM     45  N   UNL A   1      39.178  32.520  33.203  1.00  0.00    -0.248 NA
ATOM     46  C   UNL A   1      37.494  34.133  33.126  1.00  0.00     0.031 C 
ATOM     47  C   UNL A   1      37.795  30.931  29.255  1.00  0.00     0.029 A 
ATOM     48  N   UNL A   1      39.268  30.679  30.919  1.00  0.00    -0.354 N 
ATOM     49  C   UNL A   1      39.267  33.332  34.326  1.00  0.00     0.074 A 
ATOM     50  C   UNL A   1      38.245  34.348  34.195  1.00  0.00     0.031 C 
ATOM     51  C   UNL A   1      38.577  29.883  28.946  1.00  0.00     0.029 A 
ATOM     52  C   UNL A   1      39.554  29.688  30.012  1.00  0.00     0.049 A 
ATOM     53  H   UNL A   1      39.778  30.813  31.750  1.00  0.00     0.167 HD
ATOM     54  C   UNL A   1      40.101  33.226  35.388  1.00  0.00     0.037 A 
ATOM     55  C   UNL A   1      40.494  28.723  30.046  1.00  0.00     0.037 A 
ATOM     56  C   UNL A   1      41.102  32.204  35.533  1.00  0.00     0.049 A 
ATOM     57  C   UNL A   1      41.410  28.630  31.234  1.00  0.00     0.074 A 
ATOM     58  C   UNL A   1      41.978  31.991  36.584  1.00  0.00     0.029 A 
ATOM     59  N   UNL A   1      41.357  31.214  34.595  1.00  0.00    -0.354 N 
ATOM     60  N   UNL A   1      41.447  29.374  32.313  1.00  0.00    -0.248 NA
ATOM     61  C   UNL A   1      42.410  27.553  31.213  1.00  0.00     0.031 C 
ATOM     62  C   UNL A   1      42.781  30.889  36.270  1.00  0.00     0.029 A 
ATOM     63  C   UNL A   1      42.380  30.394  35.040  1.00  0.00     0.049 A 
ATOM     64  H   UNL A   1      40.880  31.109  33.740  1.00  0.00     0.167 HD
ATOM     65  C   UNL A   1      42.450  28.838  33.110  1.00  0.00     0.074 A 
ATOM     66  C   UNL A   1      42.985  27.697  32.398  1.00  0.00     0.031 C 
ATOM     67  C   UNL A   1      42.892  29.255  34.322  1.00  0.00     0.037 A 
BRANCH  54  68
ATOM     68  C   UNL A   1      39.948  34.236  36.488  1.00  0.00     0.057 A 
ATOM     69  C   UNL A   1      40.596  35.478  36.438  1.00  0.00     0.134 A 
ATOM     70  C   UNL A   1      39.128  33.980  37.593  1.00  0.00     0.134 A 
ATOM     71  F   UNL A   1      41.407  35.780  35.412  1.00  0.00    -0.206 F 
ATOM     72  C   UNL A   1      40.455  36.418  37.459  1.00  0.00     0.040 A 
ATOM     73  C   UNL A   1      38.958  34.923  38.609  1.00  0.00     0.040 A 
ATOM     74  F   UNL A   1      38.475  32.814  37.702  1.00  0.00    -0.206 F 
ATOM     75  C   UNL A   1      39.628  36.144  38.546  1.00  0.00     0.006 A 
ENDBRANCH  54  68
BRANCH  55  76
ATOM     76  C   UNL A   1      40.596  27.739  28.940  1.00  0.00     0.057 A 
ATOM     77  C   UNL A   1      41.490  27.939  27.880  1.00  0.00     0.134 A 
ATOM     78  C   UNL A   1      39.788  26.598  28.896  1.00  0.00     0.134 A 
ATOM     79  F   UNL A   1      42.277  29.025  27.857  1.00  0.00    -0.206 F 
ATOM     80  C   UNL A   1      41.557  27.054  26.803  1.00  0.00     0.040 A 
ATOM     81  C   UNL A   1      39.861  25.692  27.836  1.00  0.00     0.040 A 
ATOM     82  F   UNL A   1      38.917  26.346  29.883  1.00  0.00    -0.206 F 
ATOM     83  C   UNL A   1      40.742  25.925  26.781  1.00  0.00     0.006 A 
ENDBRANCH  55  76
BRANCH  67  84
ATOM     84  C   UNL A   1      43.983  28.450  34.963  1.00  0.00     0.057 A 
ATOM     85  C   UNL A   1      45.337  28.746  34.759  1.00  0.00     0.134 A 
ATOM     86  C   UNL A   1      43.674  27.376  35.806  1.00  0.00     0.134 A 
ATOM     87  F   UNL A   1      45.697  29.753  33.949  1.00  0.00    -0.206 F 
ATOM     88  C   UNL A   1      46.345  27.983  35.349  1.00  0.00     0.040 A 
ATOM     89  C   UNL A   1      44.673  26.621  36.422  1.00  0.00     0.040 A 
ATOM     90  F   UNL A   1      42.397  27.045  36.050  1.00  0.00    -0.206 F 
ATOM     91  C   UNL A   1      46.014  26.920  36.187  1.00  0.00     0.006 A 
ENDBRANCH  67  84
ENDBRANCH  41  42
ENDBRANCH  33  36
ENDBRANCH  31  32
ENDBRANCH  30  31
ENDBRANCH  29  30
ENDBRANCH  28  29
ENDBRANCH   1  28
TORSDOF 18
ENDMDL
