MODEL 1
REMARK VINA RESULT:      -9.9      0.000      0.000
REMARK SMILES CCC1(C(=O)N[C@H](C)CC(=O)NCCCCCCNC(=O)c2ccc(-c3c4nc(c(-c5c(F)cccc5F)c5ccc([nH]5)c(-c5c(F)cccc5F)c5nc(c(-c6c(F)cccc6F)c6ccc3[nH]6)C=C5)C=C4)cc2)CCCC1
REMARK SMILES IDX 14 1 13 2 12 3 10 4 11 5 9 7 7 8 8 9 6 10 4 11 5 12 3 14
REMARK SMILES IDX 76 15 79 16 77 17 78 18 2 19 1 20 15 21 16 22 17 23 18 24
REMARK SMILES IDX 19 25 20 26 21 28 22 29 23 30 75 31 24 32 74 33 25 34 26 35
REMARK SMILES IDX 27 36 68 37 28 38 73 39 67 40 69 41 29 42 72 43 66 44 65 45
REMARK SMILES IDX 30 47 56 48 39 49 55 50 40 51 43 52 54 53 70 54 41 55 42 56
REMARK SMILES IDX 53 58 71 59 44 60 31 61 32 62 37 63 33 64 34 65 36 66 38 67
REMARK SMILES IDX 35 68 57 69 58 70 63 71 59 72 60 73 62 74 64 75 61 76 45 77
REMARK SMILES IDX 46 78 51 79 47 80 48 81 50 82 52 83 49 84
REMARK H PARENT 12 6 6 13 19 27 69 46 43 57
REMARK Flexibility Score: inf
ROOT
ATOM      1  C   UNL A   1      41.034  22.074  26.175  1.00  0.00     0.021 C 
ENDROOT
BRANCH   1   2
ATOM      2  C   UNL A   1      39.646  21.473  26.464  1.00  0.00     0.116 C 
BRANCH   2   3
ATOM      3  N   UNL A   1      38.612  22.508  26.488  1.00  0.00    -0.356 N 
ATOM      4  C   UNL A   1      37.562  22.845  25.692  1.00  0.00     0.222 C 
ATOM      5  O   UNL A   1      36.966  23.890  25.972  1.00  0.00    -0.275 OA
ATOM      6  H   UNL A   1      38.696  23.102  27.268  1.00  0.00     0.163 HD
BRANCH   4   7
ATOM      7  C   UNL A   1      37.089  21.999  24.524  1.00  0.00     0.124 C 
BRANCH   7   8
ATOM      8  C   UNL A   1      36.131  20.861  24.901  1.00  0.00     0.088 C 
ATOM      9  C   UNL A   1      36.667  19.433  24.847  1.00  0.00     0.031 C 
BRANCH   8  10
ATOM     10  N   UNL A   1      35.277  21.091  26.095  1.00  0.00    -0.353 N 
ATOM     11  C   UNL A   1      34.105  21.633  26.504  1.00  0.00     0.226 C 
ATOM     12  O   UNL A   1      34.027  21.704  27.740  1.00  0.00    -0.274 OA
ATOM     13  H   UNL A   1      35.731  20.709  26.880  1.00  0.00     0.163 HD
BRANCH  11  14
ATOM     14  C   UNL A   1      32.898  22.089  25.640  1.00  0.00     0.049 C 
ATOM     15  C   UNL A   1      32.362  20.932  24.773  1.00  0.00     0.017 C 
ATOM     16  C   UNL A   1      33.249  23.229  24.666  1.00  0.00     0.017 C 
ATOM     17  C   UNL A   1      32.403  21.399  23.326  1.00  0.00     0.001 C 
ATOM     18  C   UNL A   1      33.333  22.593  23.304  1.00  0.00     0.001 C 
BRANCH  14  19
ATOM     19  C   UNL A   1      31.760  22.675  26.548  1.00  0.00     0.013 C 
ATOM     20  C   UNL A   1      31.502  24.178  26.511  1.00  0.00     0.005 C 
ENDBRANCH  14  19
ENDBRANCH  11  14
ENDBRANCH   8  10
ENDBRANCH   7   8
ENDBRANCH   4   7
ENDBRANCH   2   3
ENDBRANCH   1   2
BRANCH   1  21
ATOM     21  C   UNL A   1      42.142  21.597  27.124  1.00  0.00     0.002 C 
BRANCH  21  22
ATOM     22  C   UNL A   1      41.990  20.165  27.647  1.00  0.00     0.002 C 
BRANCH  22  23
ATOM     23  C   UNL A   1      42.653  19.063  26.808  1.00  0.00     0.021 C 
BRANCH  23  24
ATOM     24  C   UNL A   1      42.579  19.219  25.287  1.00  0.00     0.116 C 
BRANCH  24  25
ATOM     25  N   UNL A   1      43.802  18.819  24.609  1.00  0.00    -0.352 N 
ATOM     26  C   UNL A   1      44.921  19.548  24.290  1.00  0.00     0.251 C 
ATOM     27  H   UNL A   1      43.833  17.874  24.336  1.00  0.00     0.163 HD
ATOM     28  O   UNL A   1      45.803  19.043  23.606  1.00  0.00    -0.269 OA
BRANCH  26  29
ATOM     29  C   UNL A   1      45.068  20.947  24.751  1.00  0.00     0.039 A 
ATOM     30  C   UNL A   1      44.720  21.980  23.874  1.00  0.00     0.014 A 
ATOM     31  C   UNL A   1      45.592  21.246  26.011  1.00  0.00     0.014 A 
ATOM     32  C   UNL A   1      44.849  23.310  24.278  1.00  0.00     0.010 A 
ATOM     33  C   UNL A   1      45.666  22.572  26.435  1.00  0.00     0.010 A 
ATOM     34  C   UNL A   1      45.304  23.616  25.570  1.00  0.00    -0.014 A 
BRANCH  34  35
ATOM     35  C   UNL A   1      45.432  25.023  26.024  1.00  0.00     0.031 A 
ATOM     36  C   UNL A   1      46.766  25.714  25.971  1.00  0.00     0.074 A 
ATOM     37  C   UNL A   1      44.361  25.659  26.536  1.00  0.00     0.049 A 
ATOM     38  N   UNL A   1      47.095  26.913  26.380  1.00  0.00    -0.248 NA
ATOM     39  C   UNL A   1      47.885  24.943  25.406  1.00  0.00     0.031 C 
ATOM     40  C   UNL A   1      43.024  25.082  26.682  1.00  0.00     0.029 A 
ATOM     41  N   UNL A   1      44.232  26.929  27.040  1.00  0.00    -0.354 N 
ATOM     42  C   UNL A   1      48.459  27.032  26.144  1.00  0.00     0.074 A 
ATOM     43  C   UNL A   1      48.904  25.769  25.598  1.00  0.00     0.031 C 
ATOM     44  C   UNL A   1      42.205  26.001  27.220  1.00  0.00     0.029 A 
ATOM     45  C   UNL A   1      42.965  27.219  27.484  1.00  0.00     0.049 A 
ATOM     46  H   UNL A   1      44.978  27.571  27.080  1.00  0.00     0.167 HD
ATOM     47  C   UNL A   1      49.263  28.104  26.342  1.00  0.00     0.037 A 
ATOM     48  C   UNL A   1      42.473  28.342  28.041  1.00  0.00     0.037 A 
ATOM     49  C   UNL A   1      48.810  29.370  26.855  1.00  0.00     0.049 A 
ATOM     50  C   UNL A   1      43.380  29.525  28.233  1.00  0.00     0.074 A 
ATOM     51  C   UNL A   1      49.532  30.536  27.040  1.00  0.00     0.029 A 
ATOM     52  N   UNL A   1      47.511  29.634  27.262  1.00  0.00    -0.354 N 
ATOM     53  N   UNL A   1      44.654  29.643  27.949  1.00  0.00    -0.248 NA
ATOM     54  C   UNL A   1      42.778  30.733  28.813  1.00  0.00     0.031 C 
ATOM     55  C   UNL A   1      48.677  31.498  27.589  1.00  0.00     0.029 A 
ATOM     56  C   UNL A   1      47.414  30.942  27.709  1.00  0.00     0.049 A 
ATOM     57  H   UNL A   1      46.769  28.989  27.238  1.00  0.00     0.167 HD
ATOM     58  C   UNL A   1      45.001  30.945  28.289  1.00  0.00     0.074 A 
ATOM     59  C   UNL A   1      43.799  31.579  28.790  1.00  0.00     0.031 C 
ATOM     60  C   UNL A   1      46.206  31.559  28.193  1.00  0.00     0.037 A 
BRANCH  47  61
ATOM     61  C   UNL A   1      50.715  27.950  25.996  1.00  0.00     0.057 A 
ATOM     62  C   UNL A   1      51.177  28.071  24.679  1.00  0.00     0.134 A 
ATOM     63  C   UNL A   1      51.667  27.695  26.992  1.00  0.00     0.134 A 
ATOM     64  F   UNL A   1      50.316  28.301  23.676  1.00  0.00    -0.206 F 
ATOM     65  C   UNL A   1      52.528  27.915  24.361  1.00  0.00     0.040 A 
ATOM     66  C   UNL A   1      53.023  27.565  26.689  1.00  0.00     0.040 A 
ATOM     67  F   UNL A   1      51.294  27.573  28.275  1.00  0.00    -0.206 F 
ATOM     68  C   UNL A   1      53.455  27.667  25.370  1.00  0.00     0.006 A 
ENDBRANCH  47  61
BRANCH  48  69
ATOM     69  C   UNL A   1      41.041  28.414  28.422  1.00  0.00     0.057 A 
ATOM     70  C   UNL A   1      40.081  28.893  27.524  1.00  0.00     0.134 A 
ATOM     71  C   UNL A   1      40.597  28.005  29.685  1.00  0.00     0.134 A 
ATOM     72  F   UNL A   1      40.449  29.315  26.305  1.00  0.00    -0.206 F 
ATOM     73  C   UNL A   1      38.732  28.980  27.872  1.00  0.00     0.040 A 
ATOM     74  C   UNL A   1      39.249  28.065  30.039  1.00  0.00     0.040 A 
ATOM     75  F   UNL A   1      41.467  27.528  30.587  1.00  0.00    -0.206 F 
ATOM     76  C   UNL A   1      38.312  28.560  29.133  1.00  0.00     0.006 A 
ENDBRANCH  48  69
BRANCH  60  77
ATOM     77  C   UNL A   1      46.272  33.000  28.605  1.00  0.00     0.057 A 
ATOM     78  C   UNL A   1      46.587  33.380  29.916  1.00  0.00     0.134 A 
ATOM     79  C   UNL A   1      46.051  34.017  27.669  1.00  0.00     0.134 A 
ATOM     80  F   UNL A   1      46.795  32.451  30.861  1.00  0.00    -0.206 F 
ATOM     81  C   UNL A   1      46.660  34.723  30.285  1.00  0.00     0.040 A 
ATOM     82  C   UNL A   1      46.145  35.364  28.020  1.00  0.00     0.040 A 
ATOM     83  F   UNL A   1      45.753  33.718  26.395  1.00  0.00    -0.206 F 
ATOM     84  C   UNL A   1      46.445  35.720  29.334  1.00  0.00     0.006 A 
ENDBRANCH  60  77
ENDBRANCH  34  35
ENDBRANCH  26  29
ENDBRANCH  24  25
ENDBRANCH  23  24
ENDBRANCH  22  23
ENDBRANCH  21  22
ENDBRANCH   1  21
TORSDOF 17
ENDMDL
MODEL 2
REMARK VINA RESULT:      -9.8      6.945     12.218
REMARK SMILES CCC1(C(=O)N[C@H](C)CC(=O)NCCCCCCNC(=O)c2ccc(-c3c4nc(c(-c5c(F)cccc5F)c5ccc([nH]5)c(-c5c(F)cccc5F)c5nc(c(-c6c(F)cccc6F)c6ccc3[nH]6)C=C5)C=C4)cc2)CCCC1
REMARK SMILES IDX 14 1 13 2 12 3 10 4 11 5 9 7 7 8 8 9 6 10 4 11 5 12 3 14
REMARK SMILES IDX 76 15 79 16 77 17 78 18 2 19 1 20 15 21 16 22 17 23 18 24
REMARK SMILES IDX 19 25 20 26 21 28 22 29 23 30 75 31 24 32 74 33 25 34 26 35
REMARK SMILES IDX 27 36 68 37 28 38 73 39 67 40 69 41 29 42 72 43 66 44 65 45
REMARK SMILES IDX 30 47 56 48 39 49 55 50 40 51 43 52 54 53 70 54 41 55 42 56
REMARK SMILES IDX 53 58 71 59 44 60 31 61 32 62 37 63 33 64 34 65 36 66 38 67
REMARK SMILES IDX 35 68 57 69 58 70 63 71 59 72 60 73 62 74 64 75 61 76 45 77
REMARK SMILES IDX 46 78 51 79 47 80 48 81 50 82 52 83 49 84
REMARK H PARENT 12 6 6 13 19 27 69 46 43 57
REMARK Flexibility Score: inf
ROOT
ATOM      1  C   UNL A   1      34.109  31.851  27.638  1.00  0.00     0.021 C 
ENDROOT
BRANCH   1   2
ATOM      2  C   UNL A   1      33.803  30.342  27.573  1.00  0.00     0.116 C 
BRANCH   2   3
ATOM      3  N   UNL A   1      33.866  29.844  26.199  1.00  0.00    -0.356 N 
ATOM      4  C   UNL A   1      33.775  28.623  25.608  1.00  0.00     0.222 C 
ATOM      5  O   UNL A   1      34.009  28.574  24.396  1.00  0.00    -0.275 OA
ATOM      6  H   UNL A   1      34.008  30.567  25.546  1.00  0.00     0.163 HD
BRANCH   4   7
ATOM      7  C   UNL A   1      33.380  27.358  26.349  1.00  0.00     0.124 C 
BRANCH   7   8
ATOM      8  C   UNL A   1      31.881  27.031  26.308  1.00  0.00     0.088 C 
ATOM      9  C   UNL A   1      31.100  27.431  25.059  1.00  0.00     0.031 C 
BRANCH   8  10
ATOM     10  N   UNL A   1      31.490  25.685  26.804  1.00  0.00    -0.353 N 
ATOM     11  C   UNL A   1      31.548  24.363  26.517  1.00  0.00     0.226 C 
ATOM     12  O   UNL A   1      30.814  23.690  27.257  1.00  0.00    -0.274 OA
ATOM     13  H   UNL A   1      31.012  25.796  27.657  1.00  0.00     0.163 HD
BRANCH  11  14
ATOM     14  C   UNL A   1      32.431  23.641  25.464  1.00  0.00     0.049 C 
ATOM     15  C   UNL A   1      33.930  23.890  25.726  1.00  0.00     0.017 C 
ATOM     16  C   UNL A   1      32.162  24.114  24.023  1.00  0.00     0.017 C 
ATOM     17  C   UNL A   1      34.514  24.494  24.458  1.00  0.00     0.001 C 
ATOM     18  C   UNL A   1      33.330  24.991  23.656  1.00  0.00     0.001 C 
BRANCH  14  19
ATOM     19  C   UNL A   1      32.120  22.103  25.445  1.00  0.00     0.013 C 
ATOM     20  C   UNL A   1      32.790  21.239  24.381  1.00  0.00     0.005 C 
ENDBRANCH  14  19
ENDBRANCH  11  14
ENDBRANCH   8  10
ENDBRANCH   7   8
ENDBRANCH   4   7
ENDBRANCH   2   3
ENDBRANCH   1   2
BRANCH   1  21
ATOM     21  C   UNL A   1      34.463  32.367  29.039  1.00  0.00     0.002 C 
BRANCH  21  22
ATOM     22  C   UNL A   1      34.565  33.889  29.174  1.00  0.00     0.002 C 
BRANCH  22  23
ATOM     23  C   UNL A   1      33.246  34.669  29.065  1.00  0.00     0.021 C 
BRANCH  23  24
ATOM     24  C   UNL A   1      33.249  36.102  29.602  1.00  0.00     0.116 C 
BRANCH  24  25
ATOM     25  N   UNL A   1      32.445  36.268  30.802  1.00  0.00    -0.352 N 
ATOM     26  C   UNL A   1      32.629  35.777  32.071  1.00  0.00     0.251 C 
ATOM     27  H   UNL A   1      31.639  36.821  30.686  1.00  0.00     0.163 HD
ATOM     28  O   UNL A   1      31.760  35.941  32.920  1.00  0.00    -0.269 OA
BRANCH  26  29
ATOM     29  C   UNL A   1      33.861  35.037  32.422  1.00  0.00     0.039 A 
ATOM     30  C   UNL A   1      33.747  33.705  32.833  1.00  0.00     0.014 A 
ATOM     31  C   UNL A   1      35.113  35.656  32.402  1.00  0.00     0.014 A 
ATOM     32  C   UNL A   1      34.890  32.980  33.174  1.00  0.00     0.010 A 
ATOM     33  C   UNL A   1      36.259  34.917  32.686  1.00  0.00     0.010 A 
ATOM     34  C   UNL A   1      36.158  33.574  33.084  1.00  0.00    -0.014 A 
BRANCH  34  35
ATOM     35  C   UNL A   1      37.387  32.815  33.424  1.00  0.00     0.031 A 
ATOM     36  C   UNL A   1      38.121  33.104  34.705  1.00  0.00     0.074 A 
ATOM     37  C   UNL A   1      37.873  31.907  32.557  1.00  0.00     0.049 A 
ATOM     38  N   UNL A   1      39.243  32.597  35.149  1.00  0.00    -0.248 NA
ATOM     39  C   UNL A   1      37.526  34.118  35.590  1.00  0.00     0.031 C 
ATOM     40  C   UNL A   1      37.277  31.569  31.263  1.00  0.00     0.029 A 
ATOM     41  N   UNL A   1      38.988  31.110  32.628  1.00  0.00    -0.354 N 
ATOM     42  C   UNL A   1      39.499  33.244  36.351  1.00  0.00     0.074 A 
ATOM     43  C   UNL A   1      38.441  34.212  36.544  1.00  0.00     0.031 C 
ATOM     44  C   UNL A   1      38.021  30.619  30.671  1.00  0.00     0.029 A 
ATOM     45  C   UNL A   1      39.160  30.305  31.529  1.00  0.00     0.049 A 
ATOM     46  H   UNL A   1      39.605  31.114  33.396  1.00  0.00     0.167 HD
ATOM     47  C   UNL A   1      40.512  33.036  37.226  1.00  0.00     0.037 A 
ATOM     48  C   UNL A   1      40.129  29.414  31.245  1.00  0.00     0.037 A 
ATOM     49  C   UNL A   1      41.545  32.051  37.046  1.00  0.00     0.049 A 
ATOM     50  C   UNL A   1      41.232  29.186  32.240  1.00  0.00     0.074 A 
ATOM     51  C   UNL A   1      42.584  31.722  37.900  1.00  0.00     0.029 A 
ATOM     52  N   UNL A   1      41.667  31.232  35.934  1.00  0.00    -0.354 N 
ATOM     53  N   UNL A   1      41.429  29.763  33.401  1.00  0.00    -0.248 NA
ATOM     54  C   UNL A   1      42.240  28.177  31.890  1.00  0.00     0.031 C 
ATOM     55  C   UNL A   1      43.353  30.724  37.289  1.00  0.00     0.029 A 
ATOM     56  C   UNL A   1      42.770  30.406  36.074  1.00  0.00     0.049 A 
ATOM     57  H   UNL A   1      41.060  31.237  35.159  1.00  0.00     0.167 HD
ATOM     58  C   UNL A   1      42.566  29.168  33.932  1.00  0.00     0.074 A 
ATOM     59  C   UNL A   1      43.008  28.178  32.972  1.00  0.00     0.031 C 
ATOM     60  C   UNL A   1      43.187  29.419  35.111  1.00  0.00     0.037 A 
BRANCH  47  61
ATOM     61  C   UNL A   1      40.545  33.891  38.459  1.00  0.00     0.057 A 
ATOM     62  C   UNL A   1      39.811  33.560  39.606  1.00  0.00     0.134 A 
ATOM     63  C   UNL A   1      41.332  35.048  38.510  1.00  0.00     0.134 A 
ATOM     64  F   UNL A   1      39.026  32.472  39.619  1.00  0.00    -0.206 F 
ATOM     65  C   UNL A   1      39.835  34.364  40.747  1.00  0.00     0.040 A 
ATOM     66  C   UNL A   1      41.386  35.846  39.654  1.00  0.00     0.040 A 
ATOM     67  F   UNL A   1      42.064  35.421  37.448  1.00  0.00    -0.206 F 
ATOM     68  C   UNL A   1      40.630  35.508  40.774  1.00  0.00     0.006 A 
ENDBRANCH  47  61
BRANCH  48  69
ATOM     69  C   UNL A   1      40.078  28.643  29.978  1.00  0.00     0.057 A 
ATOM     70  C   UNL A   1      40.771  29.077  28.843  1.00  0.00     0.134 A 
ATOM     71  C   UNL A   1      39.341  27.457  29.871  1.00  0.00     0.134 A 
ATOM     72  F   UNL A   1      41.480  30.216  28.881  1.00  0.00    -0.206 F 
ATOM     73  C   UNL A   1      40.722  28.371  27.640  1.00  0.00     0.040 A 
ATOM     74  C   UNL A   1      39.302  26.728  28.681  1.00  0.00     0.040 A 
ATOM     75  F   UNL A   1      38.663  26.984  30.925  1.00  0.00    -0.206 F 
ATOM     76  C   UNL A   1      39.988  27.189  27.559  1.00  0.00     0.006 A 
ENDBRANCH  48  69
BRANCH  60  77
ATOM     77  C   UNL A   1      44.388  28.583  35.441  1.00  0.00     0.057 A 
ATOM     78  C   UNL A   1      44.278  27.371  36.133  1.00  0.00     0.134 A 
ATOM     79  C   UNL A   1      45.666  28.982  35.029  1.00  0.00     0.134 A 
ATOM     80  F   UNL A   1      43.083  26.942  36.565  1.00  0.00    -0.206 F 
ATOM     81  C   UNL A   1      45.401  26.594  36.421  1.00  0.00     0.040 A 
ATOM     82  C   UNL A   1      46.793  28.203  35.291  1.00  0.00     0.040 A 
ATOM     83  F   UNL A   1      45.837  30.130  34.355  1.00  0.00    -0.206 F 
ATOM     84  C   UNL A   1      46.662  27.007  35.994  1.00  0.00     0.006 A 
ENDBRANCH  60  77
ENDBRANCH  34  35
ENDBRANCH  26  29
ENDBRANCH  24  25
ENDBRANCH  23  24
ENDBRANCH  22  23
ENDBRANCH  21  22
ENDBRANCH   1  21
TORSDOF 17
ENDMDL
MODEL 3
REMARK VINA RESULT:      -9.8      4.905     10.799
REMARK SMILES CCC1(C(=O)N[C@H](C)CC(=O)NCCCCCCNC(=O)c2ccc(-c3c4nc(c(-c5c(F)cccc5F)c5ccc([nH]5)c(-c5c(F)cccc5F)c5nc(c(-c6c(F)cccc6F)c6ccc3[nH]6)C=C5)C=C4)cc2)CCCC1
REMARK SMILES IDX 14 1 13 2 12 3 10 4 11 5 9 7 7 8 8 9 6 10 4 11 5 12 3 14
REMARK SMILES IDX 76 15 79 16 77 17 78 18 2 19 1 20 15 21 16 22 17 23 18 24
REMARK SMILES IDX 19 25 20 26 21 28 22 29 23 30 75 31 24 32 74 33 25 34 26 35
REMARK SMILES IDX 27 36 68 37 28 38 73 39 67 40 69 41 29 42 72 43 66 44 65 45
REMARK SMILES IDX 30 47 56 48 39 49 55 50 40 51 43 52 54 53 70 54 41 55 42 56
REMARK SMILES IDX 53 58 71 59 44 60 31 61 32 62 37 63 33 64 34 65 36 66 38 67
REMARK SMILES IDX 35 68 57 69 58 70 63 71 59 72 60 73 62 74 64 75 61 76 45 77
REMARK SMILES IDX 46 78 51 79 47 80 48 81 50 82 52 83 49 84
REMARK H PARENT 12 6 6 13 19 27 69 46 43 57
REMARK Flexibility Score: inf
ROOT
ATOM      1  C   UNL A   1      36.815  32.551  33.002  1.00  0.00     0.021 C 
ENDROOT
BRANCH   1   2
ATOM      2  C   UNL A   1      37.829  31.405  33.179  1.00  0.00     0.116 C 
BRANCH   2   3
ATOM      3  N   UNL A   1      37.777  30.853  34.533  1.00  0.00    -0.356 N 
ATOM      4  C   UNL A   1      38.494  31.025  35.676  1.00  0.00     0.222 C 
ATOM      5  O   UNL A   1      38.228  30.270  36.617  1.00  0.00    -0.275 OA
ATOM      6  H   UNL A   1      37.048  30.200  34.643  1.00  0.00     0.163 HD
BRANCH   4   7
ATOM      7  C   UNL A   1      39.556  32.096  35.848  1.00  0.00     0.124 C 
BRANCH   7   8
ATOM      8  C   UNL A   1      40.992  31.564  35.962  1.00  0.00     0.088 C 
ATOM      9  C   UNL A   1      42.011  32.424  36.704  1.00  0.00     0.031 C 
BRANCH   8  10
ATOM     10  N   UNL A   1      41.132  30.122  36.290  1.00  0.00    -0.353 N 
ATOM     11  C   UNL A   1      41.321  28.897  35.745  1.00  0.00     0.226 C 
ATOM     12  O   UNL A   1      41.133  27.984  36.564  1.00  0.00    -0.274 OA
ATOM     13  H   UNL A   1      41.061  30.017  37.267  1.00  0.00     0.163 HD
BRANCH  11  14
ATOM     14  C   UNL A   1      41.783  28.541  34.306  1.00  0.00     0.049 C 
ATOM     15  C   UNL A   1      41.956  27.018  34.134  1.00  0.00     0.017 C 
ATOM     16  C   UNL A   1      43.138  29.173  33.933  1.00  0.00     0.017 C 
ATOM     17  C   UNL A   1      43.385  26.778  33.669  1.00  0.00     0.001 C 
ATOM     18  C   UNL A   1      44.141  28.050  33.986  1.00  0.00     0.001 C 
BRANCH  14  19
ATOM     19  C   UNL A   1      40.773  29.107  33.246  1.00  0.00     0.013 C 
ATOM     20  C   UNL A   1      39.713  28.168  32.679  1.00  0.00     0.005 C 
ENDBRANCH  14  19
ENDBRANCH  11  14
ENDBRANCH   8  10
ENDBRANCH   7   8
ENDBRANCH   4   7
ENDBRANCH   2   3
ENDBRANCH   1   2
BRANCH   1  21
ATOM     21  C   UNL A   1      36.414  32.823  31.545  1.00  0.00     0.002 C 
BRANCH  21  22
ATOM     22  C   UNL A   1      34.934  32.603  31.218  1.00  0.00     0.002 C 
BRANCH  22  23
ATOM     23  C   UNL A   1      34.391  33.358  29.996  1.00  0.00     0.021 C 
BRANCH  23  24
ATOM     24  C   UNL A   1      34.777  32.809  28.621  1.00  0.00     0.116 C 
BRANCH  24  25
ATOM     25  N   UNL A   1      34.041  31.609  28.255  1.00  0.00    -0.352 N 
ATOM     26  C   UNL A   1      34.483  30.330  28.026  1.00  0.00     0.251 C 
ATOM     27  H   UNL A   1      33.070  31.734  28.155  1.00  0.00     0.163 HD
ATOM     28  O   UNL A   1      33.704  29.481  27.609  1.00  0.00    -0.269 OA
BRANCH  26  29
ATOM     29  C   UNL A   1      35.899  29.966  28.262  1.00  0.00     0.039 A 
ATOM     30  C   UNL A   1      36.278  29.552  29.544  1.00  0.00     0.014 A 
ATOM     31  C   UNL A   1      36.857  30.082  27.254  1.00  0.00     0.014 A 
ATOM     32  C   UNL A   1      37.606  29.205  29.800  1.00  0.00     0.010 A 
ATOM     33  C   UNL A   1      38.170  29.680  27.493  1.00  0.00     0.010 A 
ATOM     34  C   UNL A   1      38.559  29.247  28.771  1.00  0.00    -0.014 A 
BRANCH  34  35
ATOM     35  C   UNL A   1      39.971  28.865  29.018  1.00  0.00     0.031 A 
ATOM     36  C   UNL A   1      40.912  29.840  29.670  1.00  0.00     0.074 A 
ATOM     37  C   UNL A   1      40.420  27.664  28.606  1.00  0.00     0.049 A 
ATOM     38  N   UNL A   1      42.193  29.719  29.911  1.00  0.00    -0.248 NA
ATOM     39  C   UNL A   1      40.342  31.133  30.080  1.00  0.00     0.031 C 
ATOM     40  C   UNL A   1      39.617  26.649  27.923  1.00  0.00     0.029 A 
ATOM     41  N   UNL A   1      41.668  27.099  28.692  1.00  0.00    -0.354 N 
ATOM     42  C   UNL A   1      42.585  30.925  30.480  1.00  0.00     0.074 A 
ATOM     43  C   UNL A   1      41.418  31.779  30.505  1.00  0.00     0.031 C 
ATOM     44  C   UNL A   1      40.386  25.577  27.670  1.00  0.00     0.029 A 
ATOM     45  C   UNL A   1      41.741  25.842  28.145  1.00  0.00     0.049 A 
ATOM     46  H   UNL A   1      42.437  27.552  29.108  1.00  0.00     0.167 HD
ATOM     47  C   UNL A   1      43.801  31.281  30.958  1.00  0.00     0.037 A 
ATOM     48  C   UNL A   1      42.785  24.997  28.038  1.00  0.00     0.037 A 
ATOM     49  C   UNL A   1      44.952  30.417  30.961  1.00  0.00     0.049 A 
ATOM     50  C   UNL A   1      44.120  25.407  28.593  1.00  0.00     0.074 A 
ATOM     51  C   UNL A   1      46.215  30.661  31.473  1.00  0.00     0.029 A 
ATOM     52  N   UNL A   1      44.978  29.138  30.426  1.00  0.00    -0.354 N 
ATOM     53  N   UNL A   1      44.462  26.527  29.182  1.00  0.00    -0.248 NA
ATOM     54  C   UNL A   1      45.212  24.430  28.479  1.00  0.00     0.031 C 
ATOM     55  C   UNL A   1      47.014  29.540  31.220  1.00  0.00     0.029 A 
ATOM     56  C   UNL A   1      46.238  28.584  30.585  1.00  0.00     0.049 A 
ATOM     57  H   UNL A   1      44.214  28.690  29.997  1.00  0.00     0.167 HD
ATOM     58  C   UNL A   1      45.797  26.381  29.533  1.00  0.00     0.074 A 
ATOM     59  C   UNL A   1      46.200  25.058  29.100  1.00  0.00     0.031 C 
ATOM     60  C   UNL A   1      46.616  27.262  30.158  1.00  0.00     0.037 A 
BRANCH  47  61
ATOM     61  C   UNL A   1      43.943  32.664  31.522  1.00  0.00     0.057 A 
ATOM     62  C   UNL A   1      43.724  32.934  32.880  1.00  0.00     0.134 A 
ATOM     63  C   UNL A   1      44.320  33.737  30.705  1.00  0.00     0.134 A 
ATOM     64  F   UNL A   1      43.348  31.953  33.715  1.00  0.00    -0.206 F 
ATOM     65  C   UNL A   1      43.846  34.224  33.398  1.00  0.00     0.040 A 
ATOM     66  C   UNL A   1      44.471  35.028  31.217  1.00  0.00     0.040 A 
ATOM     67  F   UNL A   1      44.549  33.549  29.397  1.00  0.00    -0.206 F 
ATOM     68  C   UNL A   1      44.226  35.274  32.565  1.00  0.00     0.006 A 
ENDBRANCH  47  61
BRANCH  48  69
ATOM     69  C   UNL A   1      42.599  23.665  27.411  1.00  0.00     0.057 A 
ATOM     70  C   UNL A   1      42.235  22.554  28.180  1.00  0.00     0.134 A 
ATOM     71  C   UNL A   1      42.776  23.470  26.036  1.00  0.00     0.134 A 
ATOM     72  F   UNL A   1      42.069  22.675  29.505  1.00  0.00    -0.206 F 
ATOM     73  C   UNL A   1      42.071  21.291  27.608  1.00  0.00     0.040 A 
ATOM     74  C   UNL A   1      42.593  22.218  25.448  1.00  0.00     0.040 A 
ATOM     75  F   UNL A   1      43.116  24.498  25.245  1.00  0.00    -0.206 F 
ATOM     76  C   UNL A   1      42.246  21.122  26.235  1.00  0.00     0.006 A 
ENDBRANCH  48  69
BRANCH  60  77
ATOM     77  C   UNL A   1      48.017  26.808  30.443  1.00  0.00     0.057 A 
ATOM     78  C   UNL A   1      49.072  27.070  29.561  1.00  0.00     0.134 A 
ATOM     79  C   UNL A   1      48.316  26.133  31.633  1.00  0.00     0.134 A 
ATOM     80  F   UNL A   1      48.846  27.701  28.399  1.00  0.00    -0.206 F 
ATOM     81  C   UNL A   1      50.375  26.656  29.843  1.00  0.00     0.040 A 
ATOM     82  C   UNL A   1      49.619  25.734  31.937  1.00  0.00     0.040 A 
ATOM     83  F   UNL A   1      47.350  25.859  32.523  1.00  0.00    -0.206 F 
ATOM     84  C   UNL A   1      50.651  25.992  31.037  1.00  0.00     0.006 A 
ENDBRANCH  60  77
ENDBRANCH  34  35
ENDBRANCH  26  29
ENDBRANCH  24  25
ENDBRANCH  23  24
ENDBRANCH  22  23
ENDBRANCH  21  22
ENDBRANCH   1  21
TORSDOF 17
ENDMDL
