MODEL 1
REMARK VINA RESULT:     -12.3      0.000      0.000
REMARK SMILES CC(=O)n1cc2c3c(cccc31)C(=O)C[C@@H]2C(=O)NCCCCCCNC(=O)c1ccc(-c2c3nc(c(-c4c(F)cccc4F)c4ccc([nH]4)c(-c4c(F)cccc4F)c4nc(c(-c5c(F)cccc5F)c5ccc2[nH]5)C=C4)C=C3)cc1
REMARK SMILES IDX 23 1 22 2 21 3 20 4 19 5 17 6 18 7 16 9 4 10 5 11 12 12 6 13
REMARK SMILES IDX 7 14 11 15 8 16 10 17 15 18 9 19 13 20 14 21 2 22 1 23 3 24
REMARK SMILES IDX 24 25 25 26 26 27 27 28 28 30 29 31 30 32 82 33 31 34 81 35
REMARK SMILES IDX 32 36 33 37 34 38 75 39 35 40 80 41 74 42 76 43 36 44 79 45
REMARK SMILES IDX 73 46 72 47 37 49 63 50 46 51 62 52 47 53 50 54 61 55 77 56
REMARK SMILES IDX 48 57 49 58 60 60 78 61 51 62 38 63 39 64 44 65 40 66 41 67
REMARK SMILES IDX 43 68 45 69 42 70 64 71 65 72 70 73 66 74 67 75 69 76 71 77
REMARK SMILES IDX 68 78 52 79 53 80 58 81 54 82 55 83 57 84 59 85 56 86
REMARK H PARENT 19 8 26 29 76 48 50 59
REMARK Flexibility Score: inf
ROOT
ATOM      1  C   UNL A   1      41.986  19.710  26.721  1.00  0.00     0.002 C 
ENDROOT
BRANCH   1   2
ATOM      2  C   UNL A   1      40.514  20.018  26.403  1.00  0.00     0.002 C 
BRANCH   2   3
ATOM      3  C   UNL A   1      40.204  21.484  26.087  1.00  0.00     0.021 C 
BRANCH   3   4
ATOM      4  C   UNL A   1      38.721  21.836  26.152  1.00  0.00     0.116 C 
BRANCH   4   5
ATOM      5  N   UNL A   1      38.190  22.122  24.831  1.00  0.00    -0.356 N 
ATOM      6  C   UNL A   1      36.981  22.632  24.454  1.00  0.00     0.228 C 
ATOM      7  O   UNL A   1      36.770  22.768  23.247  1.00  0.00    -0.274 OA
ATOM      8  H   UNL A   1      38.800  21.916  24.086  1.00  0.00     0.163 HD
BRANCH   6   9
ATOM      9  C   UNL A   1      35.921  23.027  25.482  1.00  0.00     0.118 C 
ATOM     10  N   UNL A   1      33.271  20.392  25.229  1.00  0.00    -0.287 N 
ATOM     11  C   UNL A   1      34.623  20.732  25.322  1.00  0.00     0.100 A 
ATOM     12  C   UNL A   1      32.532  21.575  25.336  1.00  0.00     0.057 A 
ATOM     13  C   UNL A   1      34.743  22.099  25.428  1.00  0.00    -0.008 A 
ATOM     14  C   UNL A   1      33.441  22.610  25.493  1.00  0.00     0.015 A 
ATOM     15  C   UNL A   1      31.153  21.849  25.349  1.00  0.00     0.027 A 
ATOM     16  C   UNL A   1      33.029  23.930  25.656  1.00  0.00     0.027 A 
ATOM     17  C   UNL A   1      30.743  23.181  25.545  1.00  0.00     0.003 A 
ATOM     18  C   UNL A   1      35.530  24.521  25.331  1.00  0.00     0.099 C 
ATOM     19  C   UNL A   1      31.667  24.217  25.703  1.00  0.00     0.012 A 
ATOM     20  C   UNL A   1      34.113  24.933  25.757  1.00  0.00     0.164 C 
ATOM     21  O   UNL A   1      33.844  26.087  26.083  1.00  0.00    -0.294 OA
BRANCH  10  22
ATOM     22  C   UNL A   1      32.737  19.099  25.065  1.00  0.00     0.227 C 
ATOM     23  C   UNL A   1      32.511  18.668  23.650  1.00  0.00     0.115 C 
ATOM     24  O   UNL A   1      32.541  18.383  26.046  1.00  0.00    -0.274 OA
ENDBRANCH  10  22
ENDBRANCH   6   9
ENDBRANCH   4   5
ENDBRANCH   3   4
ENDBRANCH   2   3
ENDBRANCH   1   2
BRANCH   1  25
ATOM     25  C   UNL A   1      42.586  18.488  26.011  1.00  0.00     0.021 C 
BRANCH  25  26
ATOM     26  C   UNL A   1      44.102  18.438  26.084  1.00  0.00     0.116 C 
BRANCH  26  27
ATOM     27  N   UNL A   1      44.717  18.667  24.780  1.00  0.00    -0.352 N 
ATOM     28  C   UNL A   1      44.756  19.829  24.042  1.00  0.00     0.251 C 
ATOM     29  H   UNL A   1      45.162  17.889  24.375  1.00  0.00     0.163 HD
ATOM     30  O   UNL A   1      44.975  19.798  22.838  1.00  0.00    -0.269 OA
BRANCH  28  31
ATOM     31  C   UNL A   1      44.561  21.118  24.726  1.00  0.00     0.039 A 
ATOM     32  C   UNL A   1      43.538  21.988  24.338  1.00  0.00     0.014 A 
ATOM     33  C   UNL A   1      45.460  21.475  25.732  1.00  0.00     0.014 A 
ATOM     34  C   UNL A   1      43.419  23.210  24.990  1.00  0.00     0.010 A 
ATOM     35  C   UNL A   1      45.253  22.605  26.474  1.00  0.00     0.010 A 
ATOM     36  C   UNL A   1      44.289  23.506  26.050  1.00  0.00    -0.014 A 
BRANCH  36  37
ATOM     37  C   UNL A   1      44.167  24.740  26.801  1.00  0.00     0.031 A 
ATOM     38  C   UNL A   1      45.280  25.684  26.554  1.00  0.00     0.074 A 
ATOM     39  C   UNL A   1      43.044  25.067  27.473  1.00  0.00     0.049 A 
ATOM     40  N   UNL A   1      46.275  25.940  27.335  1.00  0.00    -0.248 NA
ATOM     41  C   UNL A   1      45.415  26.266  25.208  1.00  0.00     0.031 C 
ATOM     42  C   UNL A   1      41.760  24.353  27.501  1.00  0.00     0.029 A 
ATOM     43  N   UNL A   1      42.791  26.170  28.227  1.00  0.00    -0.354 N 
ATOM     44  C   UNL A   1      47.025  26.910  26.679  1.00  0.00     0.074 A 
ATOM     45  C   UNL A   1      46.590  26.889  25.308  1.00  0.00     0.031 C 
ATOM     46  C   UNL A   1      40.814  25.137  28.066  1.00  0.00     0.029 A 
ATOM     47  C   UNL A   1      41.455  26.328  28.588  1.00  0.00     0.049 A 
ATOM     48  H   UNL A   1      43.494  26.804  28.497  1.00  0.00     0.167 HD
ATOM     49  C   UNL A   1      47.701  27.852  27.393  1.00  0.00     0.037 A 
ATOM     50  C   UNL A   1      40.924  27.372  29.271  1.00  0.00     0.037 A 
ATOM     51  C   UNL A   1      47.761  27.473  28.787  1.00  0.00     0.049 A 
ATOM     52  C   UNL A   1      42.041  28.047  29.970  1.00  0.00     0.074 A 
ATOM     53  C   UNL A   1      48.355  26.473  29.525  1.00  0.00     0.029 A 
ATOM     54  N   UNL A   1      46.759  27.997  29.562  1.00  0.00    -0.354 N 
ATOM     55  N   UNL A   1      42.708  27.506  30.949  1.00  0.00    -0.248 NA
ATOM     56  C   UNL A   1      42.703  29.161  29.307  1.00  0.00     0.031 C 
ATOM     57  C   UNL A   1      47.455  26.208  30.603  1.00  0.00     0.029 A 
ATOM     58  C   UNL A   1      46.380  27.094  30.516  1.00  0.00     0.049 A 
ATOM     59  H   UNL A   1      46.368  28.894  29.449  1.00  0.00     0.167 HD
ATOM     60  C   UNL A   1      44.021  27.900  30.740  1.00  0.00     0.074 A 
ATOM     61  C   UNL A   1      43.929  29.031  29.820  1.00  0.00     0.031 C 
ATOM     62  C   UNL A   1      45.053  27.079  31.097  1.00  0.00     0.037 A 
BRANCH  49  63
ATOM     63  C   UNL A   1      47.851  29.307  26.982  1.00  0.00     0.057 A 
ATOM     64  C   UNL A   1      46.787  30.212  26.792  1.00  0.00     0.134 A 
ATOM     65  C   UNL A   1      49.120  29.909  27.108  1.00  0.00     0.134 A 
ATOM     66  F   UNL A   1      45.511  29.826  26.693  1.00  0.00    -0.206 F 
ATOM     67  C   UNL A   1      46.959  31.600  26.791  1.00  0.00     0.040 A 
ATOM     68  C   UNL A   1      49.296  31.297  27.157  1.00  0.00     0.040 A 
ATOM     69  F   UNL A   1      50.221  29.162  27.284  1.00  0.00    -0.206 F 
ATOM     70  C   UNL A   1      48.210  32.150  27.014  1.00  0.00     0.006 A 
ENDBRANCH  49  63
BRANCH  50  71
ATOM     71  C   UNL A   1      39.577  27.969  29.175  1.00  0.00     0.057 A 
ATOM     72  C   UNL A   1      39.212  28.731  28.052  1.00  0.00     0.134 A 
ATOM     73  C   UNL A   1      38.723  28.054  30.284  1.00  0.00     0.134 A 
ATOM     74  F   UNL A   1      40.003  28.779  26.969  1.00  0.00    -0.206 F 
ATOM     75  C   UNL A   1      38.074  29.545  28.037  1.00  0.00     0.040 A 
ATOM     76  C   UNL A   1      37.579  28.864  30.282  1.00  0.00     0.040 A 
ATOM     77  F   UNL A   1      39.014  27.399  31.417  1.00  0.00    -0.206 F 
ATOM     78  C   UNL A   1      37.258  29.622  29.159  1.00  0.00     0.006 A 
ENDBRANCH  50  71
BRANCH  62  79
ATOM     79  C   UNL A   1      44.728  25.954  32.043  1.00  0.00     0.057 A 
ATOM     80  C   UNL A   1      44.776  26.208  33.418  1.00  0.00     0.134 A 
ATOM     81  C   UNL A   1      44.459  24.634  31.652  1.00  0.00     0.134 A 
ATOM     82  F   UNL A   1      45.079  27.435  33.867  1.00  0.00    -0.206 F 
ATOM     83  C   UNL A   1      44.551  25.204  34.361  1.00  0.00     0.040 A 
ATOM     84  C   UNL A   1      44.197  23.626  32.586  1.00  0.00     0.040 A 
ATOM     85  F   UNL A   1      44.479  24.274  30.364  1.00  0.00    -0.206 F 
ATOM     86  C   UNL A   1      44.246  23.910  33.947  1.00  0.00     0.006 A 
ENDBRANCH  62  79
ENDBRANCH  36  37
ENDBRANCH  28  31
ENDBRANCH  26  27
ENDBRANCH  25  26
ENDBRANCH   1  25
TORSDOF 14
ENDMDL
MODEL 2
REMARK VINA RESULT:     -11.9      1.982      3.102
REMARK SMILES CC(=O)n1cc2c3c(cccc31)C(=O)C[C@@H]2C(=O)NCCCCCCNC(=O)c1ccc(-c2c3nc(c(-c4c(F)cccc4F)c4ccc([nH]4)c(-c4c(F)cccc4F)c4nc(c(-c5c(F)cccc5F)c5ccc2[nH]5)C=C4)C=C3)cc1
REMARK SMILES IDX 23 1 22 2 21 3 20 4 19 5 17 6 18 7 16 9 4 10 5 11 12 12 6 13
REMARK SMILES IDX 7 14 11 15 8 16 10 17 15 18 9 19 13 20 14 21 2 22 1 23 3 24
REMARK SMILES IDX 24 25 25 26 26 27 27 28 28 30 29 31 30 32 82 33 31 34 81 35
REMARK SMILES IDX 32 36 33 37 34 38 75 39 35 40 80 41 74 42 76 43 36 44 79 45
REMARK SMILES IDX 73 46 72 47 37 49 63 50 46 51 62 52 47 53 50 54 61 55 77 56
REMARK SMILES IDX 48 57 49 58 60 60 78 61 51 62 38 63 39 64 44 65 40 66 41 67
REMARK SMILES IDX 43 68 45 69 42 70 64 71 65 72 70 73 66 74 67 75 69 76 71 77
REMARK SMILES IDX 68 78 52 79 53 80 58 81 54 82 55 83 57 84 59 85 56 86
REMARK H PARENT 19 8 26 29 76 48 50 59
REMARK Flexibility Score: inf
ROOT
ATOM      1  C   UNL A   1      40.687  21.000  27.004  1.00  0.00     0.002 C 
ENDROOT
BRANCH   1   2
ATOM      2  C   UNL A   1      39.921  22.109  26.266  1.00  0.00     0.002 C 
BRANCH   2   3
ATOM      3  C   UNL A   1      38.441  21.820  26.004  1.00  0.00     0.021 C 
BRANCH   3   4
ATOM      4  C   UNL A   1      37.614  23.058  25.669  1.00  0.00     0.116 C 
BRANCH   4   5
ATOM      5  N   UNL A   1      36.323  23.025  26.336  1.00  0.00    -0.356 N 
ATOM      6  C   UNL A   1      35.123  23.560  25.968  1.00  0.00     0.228 C 
ATOM      7  O   UNL A   1      34.168  23.397  26.731  1.00  0.00    -0.274 OA
ATOM      8  H   UNL A   1      36.313  22.538  27.191  1.00  0.00     0.163 HD
BRANCH   6   9
ATOM      9  C   UNL A   1      34.955  24.331  24.659  1.00  0.00     0.118 C 
ATOM     10  N   UNL A   1      33.001  27.396  25.563  1.00  0.00    -0.287 N 
ATOM     11  C   UNL A   1      34.056  26.521  25.832  1.00  0.00     0.100 A 
ATOM     12  C   UNL A   1      32.415  26.990  24.359  1.00  0.00     0.057 A 
ATOM     13  C   UNL A   1      34.104  25.552  24.855  1.00  0.00    -0.008 A 
ATOM     14  C   UNL A   1      33.120  25.881  23.917  1.00  0.00     0.015 A 
ATOM     15  C   UNL A   1      31.357  27.499  23.585  1.00  0.00     0.027 A 
ATOM     16  C   UNL A   1      32.806  25.242  22.720  1.00  0.00     0.027 A 
ATOM     17  C   UNL A   1      31.065  26.867  22.362  1.00  0.00     0.003 A 
ATOM     18  C   UNL A   1      34.439  23.402  23.528  1.00  0.00     0.099 C 
ATOM     19  C   UNL A   1      31.782  25.751  21.924  1.00  0.00     0.012 A 
ATOM     20  C   UNL A   1      33.610  24.040  22.404  1.00  0.00     0.164 C 
ATOM     21  O   UNL A   1      33.524  23.527  21.291  1.00  0.00    -0.294 OA
BRANCH  10  22
ATOM     22  C   UNL A   1      32.595  28.493  26.348  1.00  0.00     0.227 C 
ATOM     23  C   UNL A   1      31.749  28.160  27.536  1.00  0.00     0.115 C 
ATOM     24  O   UNL A   1      32.985  29.627  26.071  1.00  0.00    -0.274 OA
ENDBRANCH  10  22
ENDBRANCH   6   9
ENDBRANCH   4   5
ENDBRANCH   3   4
ENDBRANCH   2   3
ENDBRANCH   1   2
BRANCH   1  25
ATOM     25  C   UNL A   1      41.342  19.930  26.117  1.00  0.00     0.021 C 
BRANCH  25  26
ATOM     26  C   UNL A   1      42.655  19.412  26.676  1.00  0.00     0.116 C 
BRANCH  26  27
ATOM     27  N   UNL A   1      43.728  19.476  25.688  1.00  0.00    -0.352 N 
ATOM     28  C   UNL A   1      44.199  20.573  25.002  1.00  0.00     0.251 C 
ATOM     29  H   UNL A   1      44.174  18.622  25.485  1.00  0.00     0.163 HD
ATOM     30  O   UNL A   1      44.834  20.437  23.964  1.00  0.00    -0.269 OA
BRANCH  28  31
ATOM     31  C   UNL A   1      43.955  21.917  25.549  1.00  0.00     0.039 A 
ATOM     32  C   UNL A   1      43.177  22.846  24.852  1.00  0.00     0.014 A 
ATOM     33  C   UNL A   1      44.570  22.262  26.754  1.00  0.00     0.014 A 
ATOM     34  C   UNL A   1      43.008  24.115  25.393  1.00  0.00     0.010 A 
ATOM     35  C   UNL A   1      44.282  23.453  27.361  1.00  0.00     0.010 A 
ATOM     36  C   UNL A   1      43.573  24.404  26.643  1.00  0.00    -0.014 A 
BRANCH  36  37
ATOM     37  C   UNL A   1      43.375  25.693  27.279  1.00  0.00     0.031 A 
ATOM     38  C   UNL A   1      44.387  26.699  26.883  1.00  0.00     0.074 A 
ATOM     39  C   UNL A   1      42.259  25.989  27.975  1.00  0.00     0.049 A 
ATOM     40  N   UNL A   1      45.389  27.115  27.581  1.00  0.00    -0.248 NA
ATOM     41  C   UNL A   1      44.407  27.153  25.483  1.00  0.00     0.031 C 
ATOM     42  C   UNL A   1      41.047  25.175  28.141  1.00  0.00     0.029 A 
ATOM     43  N   UNL A   1      41.941  27.136  28.633  1.00  0.00    -0.354 N 
ATOM     44  C   UNL A   1      46.018  28.075  26.796  1.00  0.00     0.074 A 
ATOM     45  C   UNL A   1      45.526  27.880  25.460  1.00  0.00     0.031 C 
ATOM     46  C   UNL A   1      40.061  25.928  28.678  1.00  0.00     0.029 A 
ATOM     47  C   UNL A   1      40.615  27.216  29.048  1.00  0.00     0.049 A 
ATOM     48  H   UNL A   1      42.596  27.852  28.803  1.00  0.00     0.167 HD
ATOM     49  C   UNL A   1      46.638  29.138  27.380  1.00  0.00     0.037 A 
ATOM     50  C   UNL A   1      40.023  28.273  29.656  1.00  0.00     0.037 A 
ATOM     51  C   UNL A   1      46.794  28.907  28.798  1.00  0.00     0.049 A 
ATOM     52  C   UNL A   1      41.105  29.107  30.226  1.00  0.00     0.074 A 
ATOM     53  C   UNL A   1      47.509  28.039  29.596  1.00  0.00     0.029 A 
ATOM     54  N   UNL A   1      45.785  29.419  29.573  1.00  0.00    -0.354 N 
ATOM     55  N   UNL A   1      41.862  28.726  31.215  1.00  0.00    -0.248 NA
ATOM     56  C   UNL A   1      41.634  30.201  29.425  1.00  0.00     0.031 C 
ATOM     57  C   UNL A   1      46.686  27.808  30.741  1.00  0.00     0.029 A 
ATOM     58  C   UNL A   1      45.532  28.586  30.628  1.00  0.00     0.049 A 
ATOM     59  H   UNL A   1      45.310  30.263  29.396  1.00  0.00     0.167 HD
ATOM     60  C   UNL A   1      43.123  29.207  30.899  1.00  0.00     0.074 A 
ATOM     61  C   UNL A   1      42.889  30.229  29.882  1.00  0.00     0.031 C 
ATOM     62  C   UNL A   1      44.240  28.516  31.278  1.00  0.00     0.037 A 
BRANCH  49  63
ATOM     63  C   UNL A   1      46.638  30.552  26.824  1.00  0.00     0.057 A 
ATOM     64  C   UNL A   1      45.488  31.333  26.589  1.00  0.00     0.134 A 
ATOM     65  C   UNL A   1      47.848  31.275  26.841  1.00  0.00     0.134 A 
ATOM     66  F   UNL A   1      44.252  30.825  26.579  1.00  0.00    -0.206 F 
ATOM     67  C   UNL A   1      45.529  32.724  26.447  1.00  0.00     0.040 A 
ATOM     68  C   UNL A   1      47.894  32.672  26.748  1.00  0.00     0.040 A 
ATOM     69  F   UNL A   1      49.019  30.653  27.045  1.00  0.00    -0.206 F 
ATOM     70  C   UNL A   1      46.729  33.404  26.567  1.00  0.00     0.006 A 
ENDBRANCH  49  63
BRANCH  50  71
ATOM     71  C   UNL A   1      38.625  28.741  29.576  1.00  0.00     0.057 A 
ATOM     72  C   UNL A   1      38.148  29.370  28.413  1.00  0.00     0.134 A 
ATOM     73  C   UNL A   1      37.812  28.847  30.713  1.00  0.00     0.134 A 
ATOM     74  F   UNL A   1      38.887  29.393  27.293  1.00  0.00    -0.206 F 
ATOM     75  C   UNL A   1      36.942  30.078  28.385  1.00  0.00     0.040 A 
ATOM     76  C   UNL A   1      36.600  29.551  30.699  1.00  0.00     0.040 A 
ATOM     77  F   UNL A   1      38.206  28.319  31.880  1.00  0.00    -0.206 F 
ATOM     78  C   UNL A   1      36.167  30.180  29.535  1.00  0.00     0.006 A 
ENDBRANCH  50  71
BRANCH  62  79
ATOM     79  C   UNL A   1      44.060  27.469  32.343  1.00  0.00     0.057 A 
ATOM     80  C   UNL A   1      44.058  27.875  33.681  1.00  0.00     0.134 A 
ATOM     81  C   UNL A   1      43.976  26.090  32.101  1.00  0.00     0.134 A 
ATOM     82  F   UNL A   1      44.187  29.174  33.992  1.00  0.00    -0.206 F 
ATOM     83  C   UNL A   1      43.961  26.959  34.730  1.00  0.00     0.040 A 
ATOM     84  C   UNL A   1      43.844  25.163  33.141  1.00  0.00     0.040 A 
ATOM     85  F   UNL A   1      44.059  25.597  30.859  1.00  0.00    -0.206 F 
ATOM     86  C   UNL A   1      43.839  25.599  34.462  1.00  0.00     0.006 A 
ENDBRANCH  62  79
ENDBRANCH  36  37
ENDBRANCH  28  31
ENDBRANCH  26  27
ENDBRANCH  25  26
ENDBRANCH   1  25
TORSDOF 14
ENDMDL
MODEL 3
REMARK VINA RESULT:     -11.8      2.409      7.335
REMARK SMILES CC(=O)n1cc2c3c(cccc31)C(=O)C[C@@H]2C(=O)NCCCCCCNC(=O)c1ccc(-c2c3nc(c(-c4c(F)cccc4F)c4ccc([nH]4)c(-c4c(F)cccc4F)c4nc(c(-c5c(F)cccc5F)c5ccc2[nH]5)C=C4)C=C3)cc1
REMARK SMILES IDX 23 1 22 2 21 3 20 4 19 5 17 6 18 7 16 9 4 10 5 11 12 12 6 13
REMARK SMILES IDX 7 14 11 15 8 16 10 17 15 18 9 19 13 20 14 21 2 22 1 23 3 24
REMARK SMILES IDX 24 25 25 26 26 27 27 28 28 30 29 31 30 32 82 33 31 34 81 35
REMARK SMILES IDX 32 36 33 37 34 38 75 39 35 40 80 41 74 42 76 43 36 44 79 45
REMARK SMILES IDX 73 46 72 47 37 49 63 50 46 51 62 52 47 53 50 54 61 55 77 56
REMARK SMILES IDX 48 57 49 58 60 60 78 61 51 62 38 63 39 64 44 65 40 66 41 67
REMARK SMILES IDX 43 68 45 69 42 70 64 71 65 72 70 73 66 74 67 75 69 76 71 77
REMARK SMILES IDX 68 78 52 79 53 80 58 81 54 82 55 83 57 84 59 85 56 86
REMARK H PARENT 19 8 26 29 76 48 50 59
REMARK Flexibility Score: inf
ROOT
ATOM      1  C   UNL A   1      33.039  28.420  26.965  1.00  0.00     0.002 C 
ENDROOT
BRANCH   1   2
ATOM      2  C   UNL A   1      32.645  27.272  26.022  1.00  0.00     0.002 C 
BRANCH   2   3
ATOM      3  C   UNL A   1      31.177  26.844  26.089  1.00  0.00     0.021 C 
BRANCH   3   4
ATOM      4  C   UNL A   1      30.921  25.418  25.611  1.00  0.00     0.116 C 
BRANCH   4   5
ATOM      5  N   UNL A   1      31.135  24.458  26.680  1.00  0.00    -0.356 N 
ATOM      6  C   UNL A   1      32.120  23.530  26.852  1.00  0.00     0.228 C 
ATOM      7  O   UNL A   1      32.065  22.817  27.856  1.00  0.00    -0.274 OA
ATOM      8  H   UNL A   1      30.462  24.482  27.398  1.00  0.00     0.163 HD
BRANCH   6   9
ATOM      9  C   UNL A   1      33.258  23.370  25.843  1.00  0.00     0.118 C 
ATOM     10  N   UNL A   1      33.074  19.808  24.700  1.00  0.00    -0.287 N 
ATOM     11  C   UNL A   1      32.430  21.016  24.977  1.00  0.00     0.100 A 
ATOM     12  C   UNL A   1      34.448  20.017  24.867  1.00  0.00     0.057 A 
ATOM     13  C   UNL A   1      33.363  21.953  25.363  1.00  0.00    -0.008 A 
ATOM     14  C   UNL A   1      34.616  21.342  25.239  1.00  0.00     0.015 A 
ATOM     15  C   UNL A   1      35.574  19.192  24.697  1.00  0.00     0.027 A 
ATOM     16  C   UNL A   1      35.878  21.887  25.460  1.00  0.00     0.027 A 
ATOM     17  C   UNL A   1      36.847  19.757  24.892  1.00  0.00     0.003 A 
ATOM     18  C   UNL A   1      34.591  23.921  26.417  1.00  0.00     0.099 C 
ATOM     19  C   UNL A   1      37.006  21.094  25.266  1.00  0.00     0.012 A 
ATOM     20  C   UNL A   1      35.898  23.299  25.905  1.00  0.00     0.164 C 
ATOM     21  O   UNL A   1      36.964  23.908  25.945  1.00  0.00    -0.294 OA
BRANCH  10  22
ATOM     22  C   UNL A   1      32.466  18.597  24.317  1.00  0.00     0.227 C 
ATOM     23  C   UNL A   1      32.213  18.438  22.850  1.00  0.00     0.115 C 
ATOM     24  O   UNL A   1      32.230  17.732  25.158  1.00  0.00    -0.274 OA
ENDBRANCH  10  22
ENDBRANCH   6   9
ENDBRANCH   4   5
ENDBRANCH   3   4
ENDBRANCH   2   3
ENDBRANCH   1   2
BRANCH   1  25
ATOM     25  C   UNL A   1      34.147  29.356  26.460  1.00  0.00     0.021 C 
BRANCH  25  26
ATOM     26  C   UNL A   1      35.465  29.175  27.193  1.00  0.00     0.116 C 
BRANCH  26  27
ATOM     27  N   UNL A   1      35.405  29.699  28.554  1.00  0.00    -0.352 N 
ATOM     28  C   UNL A   1      36.309  29.530  29.579  1.00  0.00     0.251 C 
ATOM     29  H   UNL A   1      34.616  30.246  28.767  1.00  0.00     0.163 HD
ATOM     30  O   UNL A   1      35.975  29.707  30.743  1.00  0.00    -0.269 OA
BRANCH  28  31
ATOM     31  C   UNL A   1      37.696  29.159  29.255  1.00  0.00     0.039 A 
ATOM     32  C   UNL A   1      38.346  29.706  28.145  1.00  0.00     0.014 A 
ATOM     33  C   UNL A   1      38.327  28.203  30.052  1.00  0.00     0.014 A 
ATOM     34  C   UNL A   1      39.643  29.295  27.861  1.00  0.00     0.010 A 
ATOM     35  C   UNL A   1      39.651  27.911  29.865  1.00  0.00     0.010 A 
ATOM     36  C   UNL A   1      40.277  28.392  28.726  1.00  0.00    -0.014 A 
BRANCH  36  37
ATOM     37  C   UNL A   1      41.650  27.979  28.508  1.00  0.00     0.031 A 
ATOM     38  C   UNL A   1      41.764  26.719  27.738  1.00  0.00     0.074 A 
ATOM     39  C   UNL A   1      42.697  28.782  28.787  1.00  0.00     0.049 A 
ATOM     40  N   UNL A   1      42.053  25.548  28.196  1.00  0.00    -0.248 NA
ATOM     41  C   UNL A   1      41.315  26.717  26.336  1.00  0.00     0.031 C 
ATOM     42  C   UNL A   1      42.677  30.180  29.237  1.00  0.00     0.029 A 
ATOM     43  N   UNL A   1      44.027  28.530  28.653  1.00  0.00    -0.354 N 
ATOM     44  C   UNL A   1      42.071  24.708  27.088  1.00  0.00     0.074 A 
ATOM     45  C   UNL A   1      41.388  25.417  26.040  1.00  0.00     0.031 C 
ATOM     46  C   UNL A   1      43.919  30.708  29.146  1.00  0.00     0.029 A 
ATOM     47  C   UNL A   1      44.844  29.647  28.797  1.00  0.00     0.049 A 
ATOM     48  H   UNL A   1      44.383  27.630  28.469  1.00  0.00     0.167 HD
ATOM     49  C   UNL A   1      42.924  23.647  27.047  1.00  0.00     0.037 A 
ATOM     50  C   UNL A   1      46.190  29.686  28.639  1.00  0.00     0.037 A 
ATOM     51  C   UNL A   1      43.475  23.399  28.360  1.00  0.00     0.049 A 
ATOM     52  C   UNL A   1      46.683  28.297  28.767  1.00  0.00     0.074 A 
ATOM     53  C   UNL A   1      42.995  22.979  29.581  1.00  0.00     0.029 A 
ATOM     54  N   UNL A   1      44.680  24.009  28.596  1.00  0.00    -0.354 N 
ATOM     55  N   UNL A   1      46.647  27.621  29.881  1.00  0.00    -0.248 NA
ATOM     56  C   UNL A   1      46.830  27.498  27.560  1.00  0.00     0.031 C 
ATOM     57  C   UNL A   1      43.786  23.660  30.557  1.00  0.00     0.029 A 
ATOM     58  C   UNL A   1      44.754  24.419  29.898  1.00  0.00     0.049 A 
ATOM     59  H   UNL A   1      45.390  24.134  27.925  1.00  0.00     0.167 HD
ATOM     60  C   UNL A   1      46.321  26.329  29.498  1.00  0.00     0.074 A 
ATOM     61  C   UNL A   1      46.601  26.283  28.065  1.00  0.00     0.031 C 
ATOM     62  C   UNL A   1      45.579  25.532  30.323  1.00  0.00     0.037 A 
BRANCH  49  63
ATOM     63  C   UNL A   1      43.652  23.169  25.802  1.00  0.00     0.057 A 
ATOM     64  C   UNL A   1      44.586  23.926  25.065  1.00  0.00     0.134 A 
ATOM     65  C   UNL A   1      43.668  21.786  25.528  1.00  0.00     0.134 A 
ATOM     66  F   UNL A   1      44.741  25.244  25.224  1.00  0.00    -0.206 F 
ATOM     67  C   UNL A   1      45.502  23.351  24.180  1.00  0.00     0.040 A 
ATOM     68  C   UNL A   1      44.613  21.196  24.679  1.00  0.00     0.040 A 
ATOM     69  F   UNL A   1      42.824  20.951  26.152  1.00  0.00    -0.206 F 
ATOM     70  C   UNL A   1      45.546  21.978  24.013  1.00  0.00     0.006 A 
ENDBRANCH  49  63
BRANCH  50  71
ATOM     71  C   UNL A   1      47.047  30.786  28.151  1.00  0.00     0.057 A 
ATOM     72  C   UNL A   1      47.954  31.422  29.016  1.00  0.00     0.134 A 
ATOM     73  C   UNL A   1      46.804  31.428  26.929  1.00  0.00     0.134 A 
ATOM     74  F   UNL A   1      48.195  30.929  30.241  1.00  0.00    -0.206 F 
ATOM     75  C   UNL A   1      48.571  32.636  28.693  1.00  0.00     0.040 A 
ATOM     76  C   UNL A   1      47.417  32.643  26.591  1.00  0.00     0.040 A 
ATOM     77  F   UNL A   1      45.920  30.921  26.059  1.00  0.00    -0.206 F 
ATOM     78  C   UNL A   1      48.295  33.257  27.481  1.00  0.00     0.006 A 
ENDBRANCH  50  71
BRANCH  62  79
ATOM     79  C   UNL A   1      45.471  25.959  31.762  1.00  0.00     0.057 A 
ATOM     80  C   UNL A   1      44.336  26.670  32.161  1.00  0.00     0.134 A 
ATOM     81  C   UNL A   1      46.471  25.768  32.728  1.00  0.00     0.134 A 
ATOM     82  F   UNL A   1      43.361  26.936  31.278  1.00  0.00    -0.206 F 
ATOM     83  C   UNL A   1      44.189  27.158  33.461  1.00  0.00     0.040 A 
ATOM     84  C   UNL A   1      46.322  26.220  34.043  1.00  0.00     0.040 A 
ATOM     85  F   UNL A   1      47.631  25.177  32.419  1.00  0.00    -0.206 F 
ATOM     86  C   UNL A   1      45.178  26.920  34.412  1.00  0.00     0.006 A 
ENDBRANCH  62  79
ENDBRANCH  36  37
ENDBRANCH  28  31
ENDBRANCH  26  27
ENDBRANCH  25  26
ENDBRANCH   1  25
TORSDOF 14
ENDMDL
