MODEL 1
REMARK VINA RESULT:     -10.3      0.000      0.000
REMARK SMILES CCCCCCNC(=O)Oc1cccc(-c2ccc([C@@H](C)C(=O)NCCCCCCNC(=O)c3ccc(-c4c5nc(c(-c6c(F)cccc6F)c6ccc([nH]6)c(-c6c(F)cccc6F)c6nc(c(-c7c(F)cccc7F)c7ccc4[nH]7)C=C6)C=C5)cc3)cc2Cl)c1
REMARK SMILES IDX 22 1 23 2 24 3 20 5 21 6 19 7 16 8 17 9 89 10 18 11 88 12
REMARK SMILES IDX 90 13 15 14 11 15 12 16 91 17 13 18 14 19 10 20 8 21 7 22
REMARK SMILES IDX 9 24 6 25 5 26 4 27 3 28 2 29 1 30 25 31 26 32 27 33 28 34
REMARK SMILES IDX 29 35 30 36 31 37 32 38 33 40 34 41 35 42 87 43 36 44 86 45
REMARK SMILES IDX 37 46 38 47 39 48 80 49 40 50 85 51 79 52 81 53 41 54 84 55
REMARK SMILES IDX 78 56 77 57 42 59 68 60 51 61 67 62 52 63 55 64 66 65 82 66
REMARK SMILES IDX 53 67 54 68 65 70 83 71 56 72 43 73 44 74 49 75 45 76 46 77
REMARK SMILES IDX 48 78 50 79 47 80 69 81 70 82 75 83 71 84 72 85 74 86 76 87
REMARK SMILES IDX 73 88 57 89 58 90 63 91 59 92 60 93 62 94 64 95 61 96
REMARK H PARENT 24 4 7 23 31 39 81 58 55 69
REMARK Flexibility Score: inf
ROOT
ATOM      1  C   UNL A   1      37.179  32.272  29.200  1.00  0.00     0.227 C 
ATOM      2  O   UNL A   1      37.496  33.258  28.524  1.00  0.00    -0.274 OA
ATOM      3  N   UNL A   1      38.202  31.531  29.705  1.00  0.00    -0.356 N 
ATOM      4  H   UNL A   1      39.095  31.911  29.536  1.00  0.00     0.163 HD
ENDROOT
BRANCH   1   5
ATOM      5  C   UNL A   1      35.693  31.954  29.436  1.00  0.00     0.105 C 
ATOM      6  C   UNL A   1      35.326  31.719  30.901  1.00  0.00     0.023 C 
BRANCH   5   7
ATOM      7  C   UNL A   1      35.116  30.961  28.439  1.00  0.00    -0.034 A 
ATOM      8  C   UNL A   1      34.051  29.249  26.400  1.00  0.00     0.000 A 
ATOM      9  C   UNL A   1      35.253  28.956  27.070  1.00  0.00     0.010 A 
ATOM     10  C   UNL A   1      33.352  30.393  26.833  1.00  0.00     0.049 A 
ATOM     11  C   UNL A   1      35.754  29.770  28.092  1.00  0.00     0.005 A 
ATOM     12  C   UNL A   1      33.896  31.247  27.808  1.00  0.00     0.025 A 
ATOM     13  Cl  UNL A   1      31.770  30.804  26.256  1.00  0.00    -0.084 Cl
BRANCH   8  14
ATOM     14  C   UNL A   1      33.621  28.365  25.289  1.00  0.00    -0.013 A 
ATOM     15  C   UNL A   1      32.287  26.523  24.425  1.00  0.00     0.133 A 
ATOM     16  C   UNL A   1      32.757  26.740  23.134  1.00  0.00     0.047 A 
ATOM     17  C   UNL A   1      32.699  27.324  25.490  1.00  0.00     0.056 A 
ATOM     18  C   UNL A   1      33.649  27.781  22.905  1.00  0.00     0.004 A 
ATOM     19  C   UNL A   1      34.085  28.574  23.973  1.00  0.00     0.009 A 
BRANCH  15  20
ATOM     20  O   UNL A   1      31.498  25.378  24.628  1.00  0.00    -0.410 OA
BRANCH  20  21
ATOM     21  C   UNL A   1      30.529  25.394  25.619  1.00  0.00     0.412 C 
ATOM     22  N   UNL A   1      29.350  25.949  25.202  1.00  0.00    -0.321 N 
ATOM     23  H   UNL A   1      28.630  26.010  25.871  1.00  0.00     0.167 HD
ATOM     24  O   UNL A   1      30.663  24.980  26.764  1.00  0.00    -0.224 OA
BRANCH  22  25
ATOM     25  C   UNL A   1      29.052  26.457  23.877  1.00  0.00     0.119 C 
BRANCH  25  26
ATOM     26  C   UNL A   1      29.503  27.906  23.702  1.00  0.00     0.021 C 
BRANCH  26  27
ATOM     27  C   UNL A   1      28.644  28.738  22.741  1.00  0.00     0.002 C 
BRANCH  27  28
ATOM     28  C   UNL A   1      29.303  30.012  22.201  1.00  0.00    -0.000 C 
BRANCH  28  29
ATOM     29  C   UNL A   1      28.852  31.317  22.862  1.00  0.00    -0.003 C 
ATOM     30  C   UNL A   1      27.599  31.162  23.709  1.00  0.00     0.004 C 
ENDBRANCH  28  29
ENDBRANCH  27  28
ENDBRANCH  26  27
ENDBRANCH  25  26
ENDBRANCH  22  25
ENDBRANCH  20  21
ENDBRANCH  15  20
ENDBRANCH   8  14
ENDBRANCH   5   7
ENDBRANCH   1   5
BRANCH   3  31
ATOM     31  C   UNL A   1      38.220  30.287  30.444  1.00  0.00     0.116 C 
BRANCH  31  32
ATOM     32  C   UNL A   1      38.842  29.151  29.627  1.00  0.00     0.021 C 
BRANCH  32  33
ATOM     33  C   UNL A   1      38.915  27.817  30.376  1.00  0.00     0.002 C 
BRANCH  33  34
ATOM     34  C   UNL A   1      38.921  26.568  29.485  1.00  0.00     0.002 C 
BRANCH  34  35
ATOM     35  C   UNL A   1      40.081  26.474  28.487  1.00  0.00     0.021 C 
BRANCH  35  36
ATOM     36  C   UNL A   1      39.746  25.758  27.181  1.00  0.00     0.116 C 
BRANCH  36  37
ATOM     37  N   UNL A   1      40.307  24.417  27.139  1.00  0.00    -0.352 N 
ATOM     38  C   UNL A   1      41.587  24.007  26.861  1.00  0.00     0.251 C 
ATOM     39  H   UNL A   1      39.673  23.693  27.342  1.00  0.00     0.163 HD
ATOM     40  O   UNL A   1      41.817  22.819  26.649  1.00  0.00    -0.269 OA
BRANCH  38  41
ATOM     41  C   UNL A   1      42.691  24.987  26.805  1.00  0.00     0.039 A 
ATOM     42  C   UNL A   1      43.033  25.549  25.572  1.00  0.00     0.014 A 
ATOM     43  C   UNL A   1      43.418  25.321  27.953  1.00  0.00     0.014 A 
ATOM     44  C   UNL A   1      44.067  26.485  25.497  1.00  0.00     0.010 A 
ATOM     45  C   UNL A   1      44.405  26.302  27.888  1.00  0.00     0.010 A 
ATOM     46  C   UNL A   1      44.743  26.889  26.660  1.00  0.00    -0.014 A 
BRANCH  46  47
ATOM     47  C   UNL A   1      45.802  27.928  26.606  1.00  0.00     0.031 A 
ATOM     48  C   UNL A   1      45.444  29.385  26.701  1.00  0.00     0.074 A 
ATOM     49  C   UNL A   1      47.083  27.561  26.411  1.00  0.00     0.049 A 
ATOM     50  N   UNL A   1      46.221  30.435  26.622  1.00  0.00    -0.248 NA
ATOM     51  C   UNL A   1      44.019  29.706  26.883  1.00  0.00     0.031 C 
ATOM     52  C   UNL A   1      47.551  26.183  26.254  1.00  0.00     0.029 A 
ATOM     53  N   UNL A   1      48.223  28.315  26.303  1.00  0.00    -0.354 N 
ATOM     54  C   UNL A   1      45.383  31.536  26.731  1.00  0.00     0.074 A 
ATOM     55  C   UNL A   1      44.031  31.030  26.832  1.00  0.00     0.031 C 
ATOM     56  C   UNL A   1      48.884  26.188  26.090  1.00  0.00     0.029 A 
ATOM     57  C   UNL A   1      49.358  27.569  26.098  1.00  0.00     0.049 A 
ATOM     58  H   UNL A   1      48.228  29.297  26.364  1.00  0.00     0.167 HD
ATOM     59  C   UNL A   1      45.711  32.851  26.766  1.00  0.00     0.037 A 
ATOM     60  C   UNL A   1      50.637  27.955  25.933  1.00  0.00     0.037 A 
ATOM     61  C   UNL A   1      47.058  33.352  26.690  1.00  0.00     0.049 A 
ATOM     62  C   UNL A   1      50.977  29.417  25.979  1.00  0.00     0.074 A 
ATOM     63  C   UNL A   1      47.500  34.660  26.782  1.00  0.00     0.029 A 
ATOM     64  N   UNL A   1      48.184  32.564  26.501  1.00  0.00    -0.354 N 
ATOM     65  N   UNL A   1      50.181  30.445  26.152  1.00  0.00    -0.248 NA
ATOM     66  C   UNL A   1      52.393  29.774  25.814  1.00  0.00     0.031 C 
ATOM     67  C   UNL A   1      48.887  34.668  26.608  1.00  0.00     0.029 A 
ATOM     68  C   UNL A   1      49.316  33.360  26.451  1.00  0.00     0.049 A 
ATOM     69  H   UNL A   1      48.179  31.583  26.415  1.00  0.00     0.167 HD
ATOM     70  C   UNL A   1      51.001  31.566  26.140  1.00  0.00     0.074 A 
ATOM     71  C   UNL A   1      52.356  31.091  25.957  1.00  0.00     0.031 C 
ATOM     72  C   UNL A   1      50.660  32.872  26.268  1.00  0.00     0.037 A 
BRANCH  59  73
ATOM     73  C   UNL A   1      44.588  33.839  26.894  1.00  0.00     0.057 A 
ATOM     74  C   UNL A   1      43.957  34.390  25.771  1.00  0.00     0.134 A 
ATOM     75  C   UNL A   1      44.114  34.223  28.155  1.00  0.00     0.134 A 
ATOM     76  F   UNL A   1      44.369  34.071  24.535  1.00  0.00    -0.206 F 
ATOM     77  C   UNL A   1      42.914  35.309  25.897  1.00  0.00     0.040 A 
ATOM     78  C   UNL A   1      43.054  35.122  28.293  1.00  0.00     0.040 A 
ATOM     79  F   UNL A   1      44.668  33.730  29.271  1.00  0.00    -0.206 F 
ATOM     80  C   UNL A   1      42.455  35.673  27.162  1.00  0.00     0.006 A 
ENDBRANCH  59  73
BRANCH  60  81
ATOM     81  C   UNL A   1      51.696  26.935  25.735  1.00  0.00     0.057 A 
ATOM     82  C   UNL A   1      52.086  26.543  24.449  1.00  0.00     0.134 A 
ATOM     83  C   UNL A   1      52.346  26.333  26.818  1.00  0.00     0.134 A 
ATOM     84  F   UNL A   1      51.487  27.072  23.372  1.00  0.00    -0.206 F 
ATOM     85  C   UNL A   1      53.073  25.577  24.246  1.00  0.00     0.040 A 
ATOM     86  C   UNL A   1      53.351  25.383  26.631  1.00  0.00     0.040 A 
ATOM     87  F   UNL A   1      52.024  26.673  28.074  1.00  0.00    -0.206 F 
ATOM     88  C   UNL A   1      53.713  24.999  25.340  1.00  0.00     0.006 A 
ENDBRANCH  60  81
BRANCH  72  89
ATOM     89  C   UNL A   1      51.775  33.875  26.240  1.00  0.00     0.057 A 
ATOM     90  C   UNL A   1      52.193  34.479  25.048  1.00  0.00     0.134 A 
ATOM     91  C   UNL A   1      52.414  34.264  27.423  1.00  0.00     0.134 A 
ATOM     92  F   UNL A   1      51.631  34.139  23.879  1.00  0.00    -0.206 F 
ATOM     93  C   UNL A   1      53.226  35.417  25.032  1.00  0.00     0.040 A 
ATOM     94  C   UNL A   1      53.431  35.221  27.423  1.00  0.00     0.040 A 
ATOM     95  F   UNL A   1      52.055  33.729  28.600  1.00  0.00    -0.206 F 
ATOM     96  C   UNL A   1      53.844  35.796  26.223  1.00  0.00     0.006 A 
ENDBRANCH  72  89
ENDBRANCH  46  47
ENDBRANCH  38  41
ENDBRANCH  36  37
ENDBRANCH  35  36
ENDBRANCH  34  35
ENDBRANCH  33  34
ENDBRANCH  32  33
ENDBRANCH  31  32
ENDBRANCH   3  31
TORSDOF 22
ENDMDL
MODEL 2
REMARK VINA RESULT:     -10.2      7.321     10.878
REMARK SMILES CCCCCCNC(=O)Oc1cccc(-c2ccc([C@@H](C)C(=O)NCCCCCCNC(=O)c3ccc(-c4c5nc(c(-c6c(F)cccc6F)c6ccc([nH]6)c(-c6c(F)cccc6F)c6nc(c(-c7c(F)cccc7F)c7ccc4[nH]7)C=C6)C=C5)cc3)cc2Cl)c1
REMARK SMILES IDX 22 1 23 2 24 3 20 5 21 6 19 7 16 8 17 9 89 10 18 11 88 12
REMARK SMILES IDX 90 13 15 14 11 15 12 16 91 17 13 18 14 19 10 20 8 21 7 22
REMARK SMILES IDX 9 24 6 25 5 26 4 27 3 28 2 29 1 30 25 31 26 32 27 33 28 34
REMARK SMILES IDX 29 35 30 36 31 37 32 38 33 40 34 41 35 42 87 43 36 44 86 45
REMARK SMILES IDX 37 46 38 47 39 48 80 49 40 50 85 51 79 52 81 53 41 54 84 55
REMARK SMILES IDX 78 56 77 57 42 59 68 60 51 61 67 62 52 63 55 64 66 65 82 66
REMARK SMILES IDX 53 67 54 68 65 70 83 71 56 72 43 73 44 74 49 75 45 76 46 77
REMARK SMILES IDX 48 78 50 79 47 80 69 81 70 82 75 83 71 84 72 85 74 86 76 87
REMARK SMILES IDX 73 88 57 89 58 90 63 91 59 92 60 93 62 94 64 95 61 96
REMARK H PARENT 24 4 7 23 31 39 81 58 55 69
REMARK Flexibility Score: inf
ROOT
ATOM      1  C   UNL A   1      42.708  22.574  26.171  1.00  0.00     0.227 C 
ATOM      2  O   UNL A   1      42.796  22.165  25.007  1.00  0.00    -0.274 OA
ATOM      3  N   UNL A   1      43.609  23.521  26.547  1.00  0.00    -0.356 N 
ATOM      4  H   UNL A   1      44.191  23.835  25.817  1.00  0.00     0.163 HD
ENDROOT
BRANCH   1   5
ATOM      5  C   UNL A   1      41.612  22.018  27.095  1.00  0.00     0.105 C 
ATOM      6  C   UNL A   1      41.799  20.551  27.478  1.00  0.00     0.023 C 
BRANCH   5   7
ATOM      7  C   UNL A   1      40.205  22.424  26.683  1.00  0.00    -0.034 A 
ATOM      8  C   UNL A   1      37.474  23.038  26.059  1.00  0.00     0.000 A 
ATOM      9  C   UNL A   1      38.349  23.993  26.609  1.00  0.00     0.010 A 
ATOM     10  C   UNL A   1      38.028  21.778  25.758  1.00  0.00     0.049 A 
ATOM     11  C   UNL A   1      39.692  23.706  26.877  1.00  0.00     0.005 A 
ATOM     12  C   UNL A   1      39.356  21.471  26.098  1.00  0.00     0.025 A 
ATOM     13  Cl  UNL A   1      37.154  20.545  24.908  1.00  0.00    -0.084 Cl
BRANCH   8  14
ATOM     14  C   UNL A   1      36.052  23.408  25.859  1.00  0.00    -0.013 A 
ATOM     15  C   UNL A   1      33.689  23.150  26.383  1.00  0.00     0.133 A 
ATOM     16  C   UNL A   1      33.348  24.186  25.520  1.00  0.00     0.047 A 
ATOM     17  C   UNL A   1      35.019  22.767  26.565  1.00  0.00     0.056 A 
ATOM     18  C   UNL A   1      34.356  24.853  24.831  1.00  0.00     0.004 A 
ATOM     19  C   UNL A   1      35.689  24.458  24.991  1.00  0.00     0.009 A 
BRANCH  15  20
ATOM     20  O   UNL A   1      32.630  22.421  26.947  1.00  0.00    -0.410 OA
BRANCH  20  21
ATOM     21  C   UNL A   1      31.532  22.107  26.160  1.00  0.00     0.412 C 
ATOM     22  N   UNL A   1      31.747  21.019  25.358  1.00  0.00    -0.321 N 
ATOM     23  H   UNL A   1      31.011  20.762  24.757  1.00  0.00     0.167 HD
ATOM     24  O   UNL A   1      30.467  22.710  26.136  1.00  0.00    -0.224 OA
BRANCH  22  25
ATOM     25  C   UNL A   1      32.946  20.206  25.302  1.00  0.00     0.119 C 
BRANCH  25  26
ATOM     26  C   UNL A   1      32.748  18.948  24.458  1.00  0.00     0.021 C 
BRANCH  26  27
ATOM     27  C   UNL A   1      34.018  18.120  24.225  1.00  0.00     0.002 C 
BRANCH  27  28
ATOM     28  C   UNL A   1      33.984  16.690  24.775  1.00  0.00    -0.000 C 
BRANCH  28  29
ATOM     29  C   UNL A   1      32.848  16.389  25.756  1.00  0.00    -0.003 C 
ATOM     30  C   UNL A   1      32.402  14.935  25.733  1.00  0.00     0.004 C 
ENDBRANCH  28  29
ENDBRANCH  27  28
ENDBRANCH  26  27
ENDBRANCH  25  26
ENDBRANCH  22  25
ENDBRANCH  20  21
ENDBRANCH  15  20
ENDBRANCH   8  14
ENDBRANCH   5   7
ENDBRANCH   1   5
BRANCH   3  31
ATOM     31  C   UNL A   1      43.869  24.154  27.823  1.00  0.00     0.116 C 
BRANCH  31  32
ATOM     32  C   UNL A   1      42.870  25.277  28.112  1.00  0.00     0.021 C 
BRANCH  32  33
ATOM     33  C   UNL A   1      42.384  26.012  26.859  1.00  0.00     0.002 C 
BRANCH  33  34
ATOM     34  C   UNL A   1      43.218  27.235  26.456  1.00  0.00     0.002 C 
BRANCH  34  35
ATOM     35  C   UNL A   1      42.809  28.559  27.111  1.00  0.00     0.021 C 
BRANCH  35  36
ATOM     36  C   UNL A   1      43.972  29.480  27.474  1.00  0.00     0.116 C 
BRANCH  36  37
ATOM     37  N   UNL A   1      45.045  29.409  26.495  1.00  0.00    -0.352 N 
ATOM     38  C   UNL A   1      46.327  28.938  26.627  1.00  0.00     0.251 C 
ATOM     39  H   UNL A   1      44.817  29.752  25.601  1.00  0.00     0.163 HD
ATOM     40  O   UNL A   1      47.158  29.171  25.754  1.00  0.00    -0.269 OA
BRANCH  38  41
ATOM     41  C   UNL A   1      46.716  28.156  27.819  1.00  0.00     0.039 A 
ATOM     42  C   UNL A   1      47.231  28.832  28.929  1.00  0.00     0.014 A 
ATOM     43  C   UNL A   1      46.619  26.761  27.831  1.00  0.00     0.014 A 
ATOM     44  C   UNL A   1      47.597  28.115  30.071  1.00  0.00     0.010 A 
ATOM     45  C   UNL A   1      46.924  26.054  28.992  1.00  0.00     0.010 A 
ATOM     46  C   UNL A   1      47.420  26.723  30.121  1.00  0.00    -0.014 A 
BRANCH  46  47
ATOM     47  C   UNL A   1      47.746  25.954  31.348  1.00  0.00     0.031 A 
ATOM     48  C   UNL A   1      46.688  25.686  32.382  1.00  0.00     0.074 A 
ATOM     49  C   UNL A   1      49.013  25.548  31.560  1.00  0.00     0.049 A 
ATOM     50  N   UNL A   1      46.795  25.080  33.538  1.00  0.00    -0.248 NA
ATOM     51  C   UNL A   1      45.336  26.188  32.090  1.00  0.00     0.031 C 
ATOM     52  C   UNL A   1      50.139  25.789  30.656  1.00  0.00     0.029 A 
ATOM     53  N   UNL A   1      49.568  24.856  32.606  1.00  0.00    -0.354 N 
ATOM     54  C   UNL A   1      45.534  25.140  34.114  1.00  0.00     0.074 A 
ATOM     55  C   UNL A   1      44.688  25.885  33.205  1.00  0.00     0.031 C 
ATOM     56  C   UNL A   1      51.246  25.236  31.177  1.00  0.00     0.029 A 
ATOM     57  C   UNL A   1      50.915  24.630  32.464  1.00  0.00     0.049 A 
ATOM     58  H   UNL A   1      49.050  24.551  33.386  1.00  0.00     0.167 HD
ATOM     59  C   UNL A   1      45.112  24.606  35.286  1.00  0.00     0.037 A 
ATOM     60  C   UNL A   1      51.786  24.008  33.279  1.00  0.00     0.037 A 
ATOM     61  C   UNL A   1      45.948  23.845  36.177  1.00  0.00     0.049 A 
ATOM     62  C   UNL A   1      51.294  23.419  34.571  1.00  0.00     0.074 A 
ATOM     63  C   UNL A   1      45.599  23.206  37.354  1.00  0.00     0.029 A 
ATOM     64  N   UNL A   1      47.304  23.622  35.989  1.00  0.00    -0.354 N 
ATOM     65  N   UNL A   1      50.082  23.424  35.072  1.00  0.00    -0.248 NA
ATOM     66  C   UNL A   1      52.288  22.733  35.408  1.00  0.00     0.031 C 
ATOM     67  C   UNL A   1      46.751  22.632  37.899  1.00  0.00     0.029 A 
ATOM     68  C   UNL A   1      47.811  22.875  37.041  1.00  0.00     0.049 A 
ATOM     69  H   UNL A   1      47.829  23.947  35.223  1.00  0.00     0.167 HD
ATOM     70  C   UNL A   1      50.163  22.723  36.268  1.00  0.00     0.074 A 
ATOM     71  C   UNL A   1      51.539  22.296  36.410  1.00  0.00     0.031 C 
ATOM     72  C   UNL A   1      49.184  22.459  37.168  1.00  0.00     0.037 A 
BRANCH  59  73
ATOM     73  C   UNL A   1      43.676  24.825  35.667  1.00  0.00     0.057 A 
ATOM     74  C   UNL A   1      43.285  25.885  36.496  1.00  0.00     0.134 A 
ATOM     75  C   UNL A   1      42.669  23.984  35.176  1.00  0.00     0.134 A 
ATOM     76  F   UNL A   1      44.202  26.721  37.007  1.00  0.00    -0.206 F 
ATOM     77  C   UNL A   1      41.949  26.083  36.848  1.00  0.00     0.040 A 
ATOM     78  C   UNL A   1      41.326  24.188  35.500  1.00  0.00     0.040 A 
ATOM     79  F   UNL A   1      42.972  22.954  34.373  1.00  0.00    -0.206 F 
ATOM     80  C   UNL A   1      40.964  25.236  36.344  1.00  0.00     0.006 A 
ENDBRANCH  59  73
BRANCH  60  81
ATOM     81  C   UNL A   1      53.211  23.886  32.884  1.00  0.00     0.057 A 
ATOM     82  C   UNL A   1      54.101  24.952  33.065  1.00  0.00     0.134 A 
ATOM     83  C   UNL A   1      53.718  22.709  32.323  1.00  0.00     0.134 A 
ATOM     84  F   UNL A   1      53.669  26.112  33.581  1.00  0.00    -0.206 F 
ATOM     85  C   UNL A   1      55.441  24.856  32.688  1.00  0.00     0.040 A 
ATOM     86  C   UNL A   1      55.062  22.591  31.963  1.00  0.00     0.040 A 
ATOM     87  F   UNL A   1      52.918  21.650  32.133  1.00  0.00    -0.206 F 
ATOM     88  C   UNL A   1      55.926  23.670  32.140  1.00  0.00     0.006 A 
ENDBRANCH  60  81
BRANCH  72  89
ATOM     89  C   UNL A   1      49.565  21.649  38.372  1.00  0.00     0.057 A 
ATOM     90  C   UNL A   1      49.593  20.249  38.340  1.00  0.00     0.134 A 
ATOM     91  C   UNL A   1      49.937  22.278  39.566  1.00  0.00     0.134 A 
ATOM     92  F   UNL A   1      49.234  19.586  37.231  1.00  0.00    -0.206 F 
ATOM     93  C   UNL A   1      49.956  19.503  39.463  1.00  0.00     0.040 A 
ATOM     94  C   UNL A   1      50.327  21.544  40.687  1.00  0.00     0.040 A 
ATOM     95  F   UNL A   1      49.938  23.617  39.660  1.00  0.00    -0.206 F 
ATOM     96  C   UNL A   1      50.331  20.151  40.639  1.00  0.00     0.006 A 
ENDBRANCH  72  89
ENDBRANCH  46  47
ENDBRANCH  38  41
ENDBRANCH  36  37
ENDBRANCH  35  36
ENDBRANCH  34  35
ENDBRANCH  33  34
ENDBRANCH  32  33
ENDBRANCH  31  32
ENDBRANCH   3  31
TORSDOF 22
ENDMDL
MODEL 3
REMARK VINA RESULT:     -10.1      4.607      8.730
REMARK SMILES CCCCCCNC(=O)Oc1cccc(-c2ccc([C@@H](C)C(=O)NCCCCCCNC(=O)c3ccc(-c4c5nc(c(-c6c(F)cccc6F)c6ccc([nH]6)c(-c6c(F)cccc6F)c6nc(c(-c7c(F)cccc7F)c7ccc4[nH]7)C=C6)C=C5)cc3)cc2Cl)c1
REMARK SMILES IDX 22 1 23 2 24 3 20 5 21 6 19 7 16 8 17 9 89 10 18 11 88 12
REMARK SMILES IDX 90 13 15 14 11 15 12 16 91 17 13 18 14 19 10 20 8 21 7 22
REMARK SMILES IDX 9 24 6 25 5 26 4 27 3 28 2 29 1 30 25 31 26 32 27 33 28 34
REMARK SMILES IDX 29 35 30 36 31 37 32 38 33 40 34 41 35 42 87 43 36 44 86 45
REMARK SMILES IDX 37 46 38 47 39 48 80 49 40 50 85 51 79 52 81 53 41 54 84 55
REMARK SMILES IDX 78 56 77 57 42 59 68 60 51 61 67 62 52 63 55 64 66 65 82 66
REMARK SMILES IDX 53 67 54 68 65 70 83 71 56 72 43 73 44 74 49 75 45 76 46 77
REMARK SMILES IDX 48 78 50 79 47 80 69 81 70 82 75 83 71 84 72 85 74 86 76 87
REMARK SMILES IDX 73 88 57 89 58 90 63 91 59 92 60 93 62 94 64 95 61 96
REMARK H PARENT 24 4 7 23 31 39 81 58 55 69
REMARK Flexibility Score: inf
ROOT
ATOM      1  C   UNL A   1      36.880  29.932  30.613  1.00  0.00     0.227 C 
ATOM      2  O   UNL A   1      36.716  28.961  31.360  1.00  0.00    -0.274 OA
ATOM      3  N   UNL A   1      35.753  30.569  30.193  1.00  0.00    -0.356 N 
ATOM      4  H   UNL A   1      34.924  30.226  30.599  1.00  0.00     0.163 HD
ENDROOT
BRANCH   1   5
ATOM      5  C   UNL A   1      38.303  30.362  30.220  1.00  0.00     0.105 C 
ATOM      6  C   UNL A   1      38.378  31.711  29.506  1.00  0.00     0.023 C 
BRANCH   5   7
ATOM      7  C   UNL A   1      39.132  29.241  29.612  1.00  0.00    -0.034 A 
ATOM      8  C   UNL A   1      40.865  27.192  28.602  1.00  0.00     0.000 A 
ATOM      9  C   UNL A   1      39.671  26.893  29.284  1.00  0.00     0.010 A 
ATOM     10  C   UNL A   1      41.133  28.555  28.372  1.00  0.00     0.049 A 
ATOM     11  C   UNL A   1      38.805  27.892  29.743  1.00  0.00     0.005 A 
ATOM     12  C   UNL A   1      40.299  29.556  28.899  1.00  0.00     0.025 A 
ATOM     13  Cl  UNL A   1      42.454  29.101  27.390  1.00  0.00    -0.084 Cl
BRANCH   8  14
ATOM     14  C   UNL A   1      41.753  26.074  28.201  1.00  0.00    -0.013 A 
ATOM     15  C   UNL A   1      42.337  24.247  26.703  1.00  0.00     0.133 A 
ATOM     16  C   UNL A   1      43.508  23.995  27.408  1.00  0.00     0.047 A 
ATOM     17  C   UNL A   1      41.472  25.275  27.079  1.00  0.00     0.056 A 
ATOM     18  C   UNL A   1      43.822  24.790  28.505  1.00  0.00     0.004 A 
ATOM     19  C   UNL A   1      42.948  25.807  28.903  1.00  0.00     0.009 A 
BRANCH  15  20
ATOM     20  O   UNL A   1      41.997  23.333  25.691  1.00  0.00    -0.410 OA
BRANCH  20  21
ATOM     21  C   UNL A   1      42.307  21.992  25.862  1.00  0.00     0.412 C 
ATOM     22  N   UNL A   1      41.344  21.308  26.552  1.00  0.00    -0.321 N 
ATOM     23  H   UNL A   1      41.519  20.355  26.726  1.00  0.00     0.167 HD
ATOM     24  O   UNL A   1      43.321  21.432  25.468  1.00  0.00    -0.224 OA
BRANCH  22  25
ATOM     25  C   UNL A   1      40.093  21.842  27.055  1.00  0.00     0.119 C 
BRANCH  25  26
ATOM     26  C   UNL A   1      39.017  21.898  25.972  1.00  0.00     0.021 C 
BRANCH  26  27
ATOM     27  C   UNL A   1      38.374  23.277  25.772  1.00  0.00     0.002 C 
BRANCH  27  28
ATOM     28  C   UNL A   1      36.851  23.326  25.939  1.00  0.00    -0.000 C 
BRANCH  28  29
ATOM     29  C   UNL A   1      36.063  23.706  24.683  1.00  0.00    -0.003 C 
ATOM     30  C   UNL A   1      36.525  22.969  23.436  1.00  0.00     0.004 C 
ENDBRANCH  28  29
ENDBRANCH  27  28
ENDBRANCH  26  27
ENDBRANCH  25  26
ENDBRANCH  22  25
ENDBRANCH  20  21
ENDBRANCH  15  20
ENDBRANCH   8  14
ENDBRANCH   5   7
ENDBRANCH   1   5
BRANCH   3  31
ATOM     31  C   UNL A   1      35.549  31.657  29.262  1.00  0.00     0.116 C 
BRANCH  31  32
ATOM     32  C   UNL A   1      34.644  32.743  29.849  1.00  0.00     0.021 C 
BRANCH  32  33
ATOM     33  C   UNL A   1      35.368  33.711  30.790  1.00  0.00     0.002 C 
BRANCH  33  34
ATOM     34  C   UNL A   1      35.645  33.168  32.198  1.00  0.00     0.002 C 
BRANCH  34  35
ATOM     35  C   UNL A   1      35.749  34.222  33.305  1.00  0.00     0.021 C 
BRANCH  35  36
ATOM     36  C   UNL A   1      37.098  34.272  34.018  1.00  0.00     0.116 C 
BRANCH  36  37
ATOM     37  N   UNL A   1      37.074  33.536  35.273  1.00  0.00    -0.352 N 
ATOM     38  C   UNL A   1      37.744  32.395  35.636  1.00  0.00     0.251 C 
ATOM     39  H   UNL A   1      36.489  33.914  35.967  1.00  0.00     0.163 HD
ATOM     40  O   UNL A   1      37.421  31.794  36.657  1.00  0.00    -0.269 OA
BRANCH  38  41
ATOM     41  C   UNL A   1      38.849  31.878  34.802  1.00  0.00     0.039 A 
ATOM     42  C   UNL A   1      40.123  32.432  34.952  1.00  0.00     0.014 A 
ATOM     43  C   UNL A   1      38.625  30.884  33.843  1.00  0.00     0.014 A 
ATOM     44  C   UNL A   1      41.184  31.953  34.180  1.00  0.00     0.010 A 
ATOM     45  C   UNL A   1      39.696  30.363  33.121  1.00  0.00     0.010 A 
ATOM     46  C   UNL A   1      40.985  30.896  33.279  1.00  0.00    -0.014 A 
BRANCH  46  47
ATOM     47  C   UNL A   1      42.114  30.334  32.497  1.00  0.00     0.031 A 
ATOM     48  C   UNL A   1      42.666  31.079  31.313  1.00  0.00     0.074 A 
ATOM     49  C   UNL A   1      42.605  29.120  32.817  1.00  0.00     0.049 A 
ATOM     50  N   UNL A   1      43.612  30.725  30.480  1.00  0.00    -0.248 NA
ATOM     51  C   UNL A   1      42.057  32.383  31.010  1.00  0.00     0.031 C 
ATOM     52  C   UNL A   1      42.122  28.277  33.912  1.00  0.00     0.029 A 
ATOM     53  N   UNL A   1      43.611  28.383  32.247  1.00  0.00    -0.354 N 
ATOM     54  C   UNL A   1      43.702  31.752  29.551  1.00  0.00     0.074 A 
ATOM     55  C   UNL A   1      42.681  32.721  29.891  1.00  0.00     0.031 C 
ATOM     56  C   UNL A   1      42.846  27.146  33.947  1.00  0.00     0.029 A 
ATOM     57  C   UNL A   1      43.820  27.171  32.859  1.00  0.00     0.049 A 
ATOM     58  H   UNL A   1      44.133  28.692  31.472  1.00  0.00     0.167 HD
ATOM     59  C   UNL A   1      44.569  31.887  28.518  1.00  0.00     0.037 A 
ATOM     60  C   UNL A   1      44.696  26.190  32.575  1.00  0.00     0.037 A 
ATOM     61  C   UNL A   1      45.599  30.935  28.196  1.00  0.00     0.049 A 
ATOM     62  C   UNL A   1      45.651  26.365  31.429  1.00  0.00     0.074 A 
ATOM     63  C   UNL A   1      46.570  31.013  27.212  1.00  0.00     0.029 A 
ATOM     64  N   UNL A   1      45.791  29.728  28.851  1.00  0.00    -0.354 N 
ATOM     65  N   UNL A   1      45.770  27.374  30.599  1.00  0.00    -0.248 NA
ATOM     66  C   UNL A   1      46.598  25.268  31.182  1.00  0.00     0.031 C 
ATOM     67  C   UNL A   1      47.322  29.835  27.245  1.00  0.00     0.029 A 
ATOM     68  C   UNL A   1      46.850  29.042  28.278  1.00  0.00     0.049 A 
ATOM     69  H   UNL A   1      45.255  29.406  29.611  1.00  0.00     0.167 HD
ATOM     70  C   UNL A   1      46.818  27.045  29.749  1.00  0.00     0.074 A 
ATOM     71  C   UNL A   1      47.309  25.750  30.173  1.00  0.00     0.031 C 
ATOM     72  C   UNL A   1      47.326  27.752  28.711  1.00  0.00     0.037 A 
BRANCH  59  73
ATOM     73  C   UNL A   1      44.440  33.116  27.665  1.00  0.00     0.057 A 
ATOM     74  C   UNL A   1      44.891  34.369  28.100  1.00  0.00     0.134 A 
ATOM     75  C   UNL A   1      43.882  33.040  26.382  1.00  0.00     0.134 A 
ATOM     76  F   UNL A   1      45.426  34.512  29.322  1.00  0.00    -0.206 F 
ATOM     77  C   UNL A   1      44.767  35.508  27.302  1.00  0.00     0.040 A 
ATOM     78  C   UNL A   1      43.777  34.167  25.564  1.00  0.00     0.040 A 
ATOM     79  F   UNL A   1      43.435  31.871  25.900  1.00  0.00    -0.206 F 
ATOM     80  C   UNL A   1      44.214  35.407  26.027  1.00  0.00     0.006 A 
ENDBRANCH  59  73
BRANCH  60  81
ATOM     81  C   UNL A   1      44.728  24.964  33.410  1.00  0.00     0.057 A 
ATOM     82  C   UNL A   1      45.280  24.983  34.695  1.00  0.00     0.134 A 
ATOM     83  C   UNL A   1      44.206  23.750  32.948  1.00  0.00     0.134 A 
ATOM     84  F   UNL A   1      45.812  26.113  35.185  1.00  0.00    -0.206 F 
ATOM     85  C   UNL A   1      45.327  23.835  35.488  1.00  0.00     0.040 A 
ATOM     86  C   UNL A   1      44.224  22.600  33.739  1.00  0.00     0.040 A 
ATOM     87  F   UNL A   1      43.655  23.670  31.729  1.00  0.00    -0.206 F 
ATOM     88  C   UNL A   1      44.792  22.640  35.011  1.00  0.00     0.006 A 
ENDBRANCH  60  81
BRANCH  72  89
ATOM     89  C   UNL A   1      48.488  27.151  27.979  1.00  0.00     0.057 A 
ATOM     90  C   UNL A   1      48.308  26.324  26.862  1.00  0.00     0.134 A 
ATOM     91  C   UNL A   1      49.803  27.427  28.374  1.00  0.00     0.134 A 
ATOM     92  F   UNL A   1      47.075  26.010  26.441  1.00  0.00    -0.206 F 
ATOM     93  C   UNL A   1      49.395  25.774  26.181  1.00  0.00     0.040 A 
ATOM     94  C   UNL A   1      50.898  26.904  27.686  1.00  0.00     0.040 A 
ATOM     95  F   UNL A   1      50.043  28.218  29.431  1.00  0.00    -0.206 F 
ATOM     96  C   UNL A   1      50.696  26.070  26.588  1.00  0.00     0.006 A 
ENDBRANCH  72  89
ENDBRANCH  46  47
ENDBRANCH  38  41
ENDBRANCH  36  37
ENDBRANCH  35  36
ENDBRANCH  34  35
ENDBRANCH  33  34
ENDBRANCH  32  33
ENDBRANCH  31  32
ENDBRANCH   3  31
TORSDOF 22
ENDMDL
