MODEL 1
REMARK VINA RESULT:     -12.6      0.000      0.000
REMARK SMILES COC(=O)c1ccc([C@H]2CC(=O)Nc3c(C(=O)NCCCCCCNC(=O)c4ccc(-c5c6nc(c(-c7c(F)cccc7F)c7ccc([nH]7)c(-c7c(F)cccc7F)c7nc(c(-c8c(F)cccc8F)c8ccc5[nH]8)C=C7)C=C6)cc4)cn(-c4ccccc4)c32)cc1
REMARK SMILES IDX 21 1 20 2 19 3 18 4 16 5 17 6 15 8 9 9 10 10 90 11 11 12
REMARK SMILES IDX 14 13 83 14 12 15 13 16 82 17 8 19 5 20 6 21 92 22 7 23
REMARK SMILES IDX 91 24 3 25 4 26 2 27 1 28 84 29 85 30 89 31 86 32 88 33
REMARK SMILES IDX 87 34 22 35 23 36 24 37 25 38 26 39 27 41 28 42 29 43 81 44
REMARK SMILES IDX 30 45 80 46 31 47 32 48 33 49 74 50 34 51 79 52 73 53 75 54
REMARK SMILES IDX 35 55 78 56 72 57 71 58 36 60 62 61 45 62 61 63 46 64 49 65
REMARK SMILES IDX 60 66 76 67 47 68 48 69 59 71 77 72 50 73 37 74 38 75 43 76
REMARK SMILES IDX 39 77 40 78 42 79 44 80 41 81 63 82 64 83 69 84 65 85 66 86
REMARK SMILES IDX 68 87 70 88 67 89 51 90 52 91 57 92 53 93 54 94 56 95 58 96
REMARK SMILES IDX 55 97
REMARK H PARENT 18 7 13 18 25 40 75 59 49 70
REMARK Flexibility Score: inf
ROOT
ATOM      1  C   UNL A   1      34.352  32.016  27.790  1.00  0.00     0.002 C 
ENDROOT
BRANCH   1   2
ATOM      2  C   UNL A   1      34.991  30.634  27.637  1.00  0.00     0.021 C 
BRANCH   2   3
ATOM      3  C   UNL A   1      34.147  29.669  26.792  1.00  0.00     0.116 C 
BRANCH   3   4
ATOM      4  N   UNL A   1      33.046  29.169  27.569  1.00  0.00    -0.352 N 
ATOM      5  C   UNL A   1      32.233  28.081  27.452  1.00  0.00     0.254 C 
ATOM      6  O   UNL A   1      31.392  27.972  28.349  1.00  0.00    -0.269 OA
ATOM      7  H   UNL A   1      32.836  29.730  28.350  1.00  0.00     0.163 HD
BRANCH   5   8
ATOM      8  C   UNL A   1      32.321  27.067  26.392  1.00  0.00     0.081 A 
ATOM      9  C   UNL A   1      31.600  24.609  23.650  1.00  0.00     0.078 C 
ATOM     10  C   UNL A   1      30.101  24.869  23.450  1.00  0.00     0.115 C 
ATOM     11  C   UNL A   1      32.185  25.509  24.712  1.00  0.00     0.055 A 
ATOM     12  C   UNL A   1      29.611  26.228  23.864  1.00  0.00     0.225 C 
ATOM     13  C   UNL A   1      31.506  26.536  25.343  1.00  0.00     0.076 A 
ATOM     14  N   UNL A   1      33.456  25.444  25.255  1.00  0.00    -0.317 N 
ATOM     15  O   UNL A   1      28.587  26.722  23.390  1.00  0.00    -0.275 OA
ATOM     16  N   UNL A   1      30.249  26.852  24.893  1.00  0.00    -0.324 N 
ATOM     17  C   UNL A   1      33.486  26.306  26.322  1.00  0.00     0.107 A 
ATOM     18  H   UNL A   1      29.773  27.583  25.349  1.00  0.00     0.170 HD
BRANCH   9  19
ATOM     19  C   UNL A   1      31.762  23.101  23.870  1.00  0.00    -0.038 A 
ATOM     20  C   UNL A   1      32.274  20.348  24.207  1.00  0.00     0.060 A 
ATOM     21  C   UNL A   1      32.293  20.917  22.930  1.00  0.00     0.016 A 
ATOM     22  C   UNL A   1      31.914  21.136  25.303  1.00  0.00     0.016 A 
ATOM     23  C   UNL A   1      32.052  22.283  22.765  1.00  0.00     0.005 A 
ATOM     24  C   UNL A   1      31.618  22.489  25.125  1.00  0.00     0.005 A 
BRANCH  20  25
ATOM     25  C   UNL A   1      32.684  18.925  24.350  1.00  0.00     0.337 C 
ATOM     26  O   UNL A   1      33.155  18.267  23.444  1.00  0.00    -0.246 OA
BRANCH  25  27
ATOM     27  O   UNL A   1      32.486  18.503  25.626  1.00  0.00    -0.465 OA
ATOM     28  C   UNL A   1      32.618  17.092  25.797  1.00  0.00     0.282 C 
ENDBRANCH  25  27
ENDBRANCH  20  25
ENDBRANCH   9  19
BRANCH  14  29
ATOM     29  C   UNL A   1      34.511  24.563  24.910  1.00  0.00     0.045 A 
ATOM     30  C   UNL A   1      34.891  24.398  23.577  1.00  0.00     0.026 A 
ATOM     31  C   UNL A   1      35.081  23.767  25.916  1.00  0.00     0.026 A 
ATOM     32  C   UNL A   1      35.791  23.389  23.238  1.00  0.00     0.002 A 
ATOM     33  C   UNL A   1      35.954  22.739  25.562  1.00  0.00     0.002 A 
ATOM     34  C   UNL A   1      36.300  22.544  24.225  1.00  0.00     0.000 A 
ENDBRANCH  14  29
ENDBRANCH   5   8
ENDBRANCH   3   4
ENDBRANCH   2   3
ENDBRANCH   1   2
BRANCH   1  35
ATOM     35  C   UNL A   1      35.356  33.151  28.048  1.00  0.00     0.002 C 
BRANCH  35  36
ATOM     36  C   UNL A   1      34.768  34.438  28.648  1.00  0.00     0.021 C 
BRANCH  36  37
ATOM     37  C   UNL A   1      33.437  34.207  29.344  1.00  0.00     0.116 C 
BRANCH  37  38
ATOM     38  N   UNL A   1      33.338  35.003  30.567  1.00  0.00    -0.352 N 
ATOM     39  C   UNL A   1      33.952  34.813  31.783  1.00  0.00     0.251 C 
ATOM     40  H   UNL A   1      32.746  35.787  30.512  1.00  0.00     0.163 HD
ATOM     41  O   UNL A   1      33.535  35.365  32.791  1.00  0.00    -0.269 OA
BRANCH  39  42
ATOM     42  C   UNL A   1      35.125  33.931  31.850  1.00  0.00     0.039 A 
ATOM     43  C   UNL A   1      34.975  32.543  31.789  1.00  0.00     0.014 A 
ATOM     44  C   UNL A   1      36.385  34.514  31.963  1.00  0.00     0.014 A 
ATOM     45  C   UNL A   1      36.115  31.747  31.767  1.00  0.00     0.010 A 
ATOM     46  C   UNL A   1      37.505  33.742  31.792  1.00  0.00     0.010 A 
ATOM     47  C   UNL A   1      37.378  32.358  31.753  1.00  0.00    -0.014 A 
BRANCH  47  48
ATOM     48  C   UNL A   1      38.585  31.559  31.590  1.00  0.00     0.031 A 
ATOM     49  C   UNL A   1      39.285  31.226  32.862  1.00  0.00     0.074 A 
ATOM     50  C   UNL A   1      38.909  30.970  30.419  1.00  0.00     0.049 A 
ATOM     51  N   UNL A   1      40.465  31.593  33.238  1.00  0.00    -0.248 NA
ATOM     52  C   UNL A   1      38.530  30.501  33.899  1.00  0.00     0.031 C 
ATOM     53  C   UNL A   1      38.136  30.938  29.171  1.00  0.00     0.029 A 
ATOM     54  N   UNL A   1      39.968  30.168  30.131  1.00  0.00    -0.354 N 
ATOM     55  C   UNL A   1      40.687  30.975  34.467  1.00  0.00     0.074 A 
ATOM     56  C   UNL A   1      39.410  30.475  34.902  1.00  0.00     0.031 C 
ATOM     57  C   UNL A   1      38.624  29.973  28.360  1.00  0.00     0.029 A 
ATOM     58  C   UNL A   1      39.842  29.450  28.949  1.00  0.00     0.049 A 
ATOM     59  H   UNL A   1      40.759  30.101  30.712  1.00  0.00     0.167 HD
ATOM     60  C   UNL A   1      41.951  30.708  34.902  1.00  0.00     0.037 A 
ATOM     61  C   UNL A   1      40.669  28.473  28.503  1.00  0.00     0.037 A 
ATOM     62  C   UNL A   1      42.922  31.483  34.170  1.00  0.00     0.049 A 
ATOM     63  C   UNL A   1      41.949  28.611  29.238  1.00  0.00     0.074 A 
ATOM     64  C   UNL A   1      43.148  32.832  33.974  1.00  0.00     0.029 A 
ATOM     65  N   UNL A   1      43.632  30.842  33.183  1.00  0.00    -0.354 N 
ATOM     66  N   UNL A   1      42.769  29.613  29.087  1.00  0.00    -0.248 NA
ATOM     67  C   UNL A   1      42.097  27.864  30.477  1.00  0.00     0.031 C 
ATOM     68  C   UNL A   1      43.556  32.942  32.611  1.00  0.00     0.029 A 
ATOM     69  C   UNL A   1      43.624  31.653  32.079  1.00  0.00     0.049 A 
ATOM     70  H   UNL A   1      44.066  29.962  33.256  1.00  0.00     0.167 HD
ATOM     71  C   UNL A   1      43.222  29.893  30.367  1.00  0.00     0.074 A 
ATOM     72  C   UNL A   1      42.850  28.725  31.166  1.00  0.00     0.031 C 
ATOM     73  C   UNL A   1      43.591  31.159  30.722  1.00  0.00     0.037 A 
BRANCH  60  74
ATOM     74  C   UNL A   1      42.345  29.478  35.690  1.00  0.00     0.057 A 
ATOM     75  C   UNL A   1      43.291  29.607  36.725  1.00  0.00     0.134 A 
ATOM     76  C   UNL A   1      42.084  28.153  35.287  1.00  0.00     0.134 A 
ATOM     77  F   UNL A   1      43.632  30.814  37.201  1.00  0.00    -0.206 F 
ATOM     78  C   UNL A   1      43.993  28.512  37.246  1.00  0.00     0.040 A 
ATOM     79  C   UNL A   1      42.742  27.048  35.836  1.00  0.00     0.040 A 
ATOM     80  F   UNL A   1      41.263  27.853  34.275  1.00  0.00    -0.206 F 
ATOM     81  C   UNL A   1      43.727  27.227  36.792  1.00  0.00     0.006 A 
ENDBRANCH  60  74
BRANCH  61  82
ATOM     82  C   UNL A   1      40.341  27.268  27.710  1.00  0.00     0.057 A 
ATOM     83  C   UNL A   1      40.950  27.030  26.471  1.00  0.00     0.134 A 
ATOM     84  C   UNL A   1      39.643  26.186  28.274  1.00  0.00     0.134 A 
ATOM     85  F   UNL A   1      41.668  27.990  25.869  1.00  0.00    -0.206 F 
ATOM     86  C   UNL A   1      40.897  25.779  25.843  1.00  0.00     0.040 A 
ATOM     87  C   UNL A   1      39.578  24.933  27.656  1.00  0.00     0.040 A 
ATOM     88  F   UNL A   1      39.081  26.282  29.489  1.00  0.00    -0.206 F 
ATOM     89  C   UNL A   1      40.220  24.721  26.443  1.00  0.00     0.006 A 
ENDBRANCH  61  82
BRANCH  73  90
ATOM     90  C   UNL A   1      43.744  32.180  29.626  1.00  0.00     0.057 A 
ATOM     91  C   UNL A   1      42.766  33.127  29.283  1.00  0.00     0.134 A 
ATOM     92  C   UNL A   1      44.985  32.302  28.994  1.00  0.00     0.134 A 
ATOM     93  F   UNL A   1      41.580  33.157  29.902  1.00  0.00    -0.206 F 
ATOM     94  C   UNL A   1      43.000  34.120  28.327  1.00  0.00     0.040 A 
ATOM     95  C   UNL A   1      45.244  33.310  28.062  1.00  0.00     0.040 A 
ATOM     96  F   UNL A   1      45.989  31.467  29.310  1.00  0.00    -0.206 F 
ATOM     97  C   UNL A   1      44.247  34.217  27.717  1.00  0.00     0.006 A 
ENDBRANCH  73  90
ENDBRANCH  47  48
ENDBRANCH  39  42
ENDBRANCH  37  38
ENDBRANCH  36  37
ENDBRANCH  35  36
ENDBRANCH   1  35
TORSDOF 17
ENDMDL
MODEL 2
REMARK VINA RESULT:     -12.2      1.943      2.758
REMARK SMILES COC(=O)c1ccc([C@H]2CC(=O)Nc3c(C(=O)NCCCCCCNC(=O)c4ccc(-c5c6nc(c(-c7c(F)cccc7F)c7ccc([nH]7)c(-c7c(F)cccc7F)c7nc(c(-c8c(F)cccc8F)c8ccc5[nH]8)C=C7)C=C6)cc4)cn(-c4ccccc4)c32)cc1
REMARK SMILES IDX 21 1 20 2 19 3 18 4 16 5 17 6 15 8 9 9 10 10 90 11 11 12
REMARK SMILES IDX 14 13 83 14 12 15 13 16 82 17 8 19 5 20 6 21 92 22 7 23
REMARK SMILES IDX 91 24 3 25 4 26 2 27 1 28 84 29 85 30 89 31 86 32 88 33
REMARK SMILES IDX 87 34 22 35 23 36 24 37 25 38 26 39 27 41 28 42 29 43 81 44
REMARK SMILES IDX 30 45 80 46 31 47 32 48 33 49 74 50 34 51 79 52 73 53 75 54
REMARK SMILES IDX 35 55 78 56 72 57 71 58 36 60 62 61 45 62 61 63 46 64 49 65
REMARK SMILES IDX 60 66 76 67 47 68 48 69 59 71 77 72 50 73 37 74 38 75 43 76
REMARK SMILES IDX 39 77 40 78 42 79 44 80 41 81 63 82 64 83 69 84 65 85 66 86
REMARK SMILES IDX 68 87 70 88 67 89 51 90 52 91 57 92 53 93 54 94 56 95 58 96
REMARK SMILES IDX 55 97
REMARK H PARENT 18 7 13 18 25 40 75 59 49 70
REMARK Flexibility Score: inf
ROOT
ATOM      1  C   UNL A   1      36.554  30.638  28.013  1.00  0.00     0.002 C 
ENDROOT
BRANCH   1   2
ATOM      2  C   UNL A   1      35.818  29.297  27.947  1.00  0.00     0.021 C 
BRANCH   2   3
ATOM      3  C   UNL A   1      34.683  29.284  26.914  1.00  0.00     0.116 C 
BRANCH   3   4
ATOM      4  N   UNL A   1      33.434  28.983  27.559  1.00  0.00    -0.352 N 
ATOM      5  C   UNL A   1      32.486  28.023  27.365  1.00  0.00     0.254 C 
ATOM      6  O   UNL A   1      31.537  28.075  28.154  1.00  0.00    -0.269 OA
ATOM      7  H   UNL A   1      33.220  29.600  28.296  1.00  0.00     0.163 HD
BRANCH   5   8
ATOM      8  C   UNL A   1      32.544  26.966  26.347  1.00  0.00     0.081 A 
ATOM      9  C   UNL A   1      31.753  24.424  23.702  1.00  0.00     0.078 C 
ATOM     10  C   UNL A   1      30.263  24.719  23.490  1.00  0.00     0.115 C 
ATOM     11  C   UNL A   1      32.364  25.348  24.729  1.00  0.00     0.055 A 
ATOM     12  C   UNL A   1      29.812  26.107  23.849  1.00  0.00     0.225 C 
ATOM     13  C   UNL A   1      31.715  26.418  25.318  1.00  0.00     0.076 A 
ATOM     14  N   UNL A   1      33.633  25.268  25.276  1.00  0.00    -0.317 N 
ATOM     15  O   UNL A   1      28.802  26.611  23.355  1.00  0.00    -0.275 OA
ATOM     16  N   UNL A   1      30.468  26.752  24.854  1.00  0.00    -0.324 N 
ATOM     17  C   UNL A   1      33.687  26.170  26.307  1.00  0.00     0.107 A 
ATOM     18  H   UNL A   1      30.012  27.514  25.280  1.00  0.00     0.170 HD
BRANCH   9  19
ATOM     19  C   UNL A   1      31.871  22.921  23.981  1.00  0.00    -0.038 A 
ATOM     20  C   UNL A   1      32.303  20.170  24.427  1.00  0.00     0.060 A 
ATOM     21  C   UNL A   1      32.337  20.687  23.128  1.00  0.00     0.016 A 
ATOM     22  C   UNL A   1      31.969  21.011  25.491  1.00  0.00     0.016 A 
ATOM     23  C   UNL A   1      32.136  22.052  22.909  1.00  0.00     0.005 A 
ATOM     24  C   UNL A   1      31.712  22.364  25.260  1.00  0.00     0.005 A 
BRANCH  20  25
ATOM     25  C   UNL A   1      32.672  18.742  24.626  1.00  0.00     0.337 C 
ATOM     26  O   UNL A   1      32.153  18.023  25.456  1.00  0.00    -0.246 OA
BRANCH  25  27
ATOM     27  O   UNL A   1      33.627  18.373  23.733  1.00  0.00    -0.465 OA
ATOM     28  C   UNL A   1      33.660  16.971  23.467  1.00  0.00     0.282 C 
ENDBRANCH  25  27
ENDBRANCH  20  25
ENDBRANCH   9  19
BRANCH  14  29
ATOM     29  C   UNL A   1      34.661  24.343  24.968  1.00  0.00     0.045 A 
ATOM     30  C   UNL A   1      35.416  23.756  25.985  1.00  0.00     0.026 A 
ATOM     31  C   UNL A   1      34.989  24.123  23.622  1.00  0.00     0.026 A 
ATOM     32  C   UNL A   1      36.543  23.004  25.658  1.00  0.00     0.002 A 
ATOM     33  C   UNL A   1      36.138  23.397  23.307  1.00  0.00     0.002 A 
ATOM     34  C   UNL A   1      36.918  22.848  24.323  1.00  0.00     0.000 A 
ENDBRANCH  14  29
ENDBRANCH   5   8
ENDBRANCH   3   4
ENDBRANCH   2   3
ENDBRANCH   1   2
BRANCH   1  35
ATOM     35  C   UNL A   1      35.687  31.853  27.647  1.00  0.00     0.002 C 
BRANCH  35  36
ATOM     36  C   UNL A   1      35.304  32.776  28.815  1.00  0.00     0.021 C 
BRANCH  36  37
ATOM     37  C   UNL A   1      34.398  32.096  29.828  1.00  0.00     0.116 C 
BRANCH  37  38
ATOM     38  N   UNL A   1      34.645  32.602  31.177  1.00  0.00    -0.352 N 
ATOM     39  C   UNL A   1      35.588  32.207  32.098  1.00  0.00     0.251 C 
ATOM     40  H   UNL A   1      34.050  33.330  31.469  1.00  0.00     0.163 HD
ATOM     41  O   UNL A   1      35.471  32.496  33.280  1.00  0.00    -0.269 OA
BRANCH  39  42
ATOM     42  C   UNL A   1      36.743  31.427  31.634  1.00  0.00     0.039 A 
ATOM     43  C   UNL A   1      37.910  32.069  31.210  1.00  0.00     0.014 A 
ATOM     44  C   UNL A   1      36.649  30.038  31.640  1.00  0.00     0.014 A 
ATOM     45  C   UNL A   1      39.011  31.294  30.862  1.00  0.00     0.010 A 
ATOM     46  C   UNL A   1      37.775  29.282  31.441  1.00  0.00     0.010 A 
ATOM     47  C   UNL A   1      38.938  29.900  30.996  1.00  0.00    -0.014 A 
BRANCH  47  48
ATOM     48  C   UNL A   1      40.116  29.072  30.773  1.00  0.00     0.031 A 
ATOM     49  C   UNL A   1      40.924  28.802  31.995  1.00  0.00     0.074 A 
ATOM     50  C   UNL A   1      40.327  28.411  29.615  1.00  0.00     0.049 A 
ATOM     51  N   UNL A   1      42.138  29.170  32.242  1.00  0.00    -0.248 NA
ATOM     52  C   UNL A   1      40.257  28.152  33.137  1.00  0.00     0.031 C 
ATOM     53  C   UNL A   1      39.443  28.319  28.445  1.00  0.00     0.029 A 
ATOM     54  N   UNL A   1      41.345  27.575  29.282  1.00  0.00    -0.354 N 
ATOM     55  C   UNL A   1      42.462  28.620  33.481  1.00  0.00     0.074 A 
ATOM     56  C   UNL A   1      41.223  28.168  34.057  1.00  0.00     0.031 C 
ATOM     57  C   UNL A   1      39.845  27.301  27.652  1.00  0.00     0.029 A 
ATOM     58  C   UNL A   1      41.105  26.792  28.161  1.00  0.00     0.049 A 
ATOM     59  H   UNL A   1      42.185  27.529  29.793  1.00  0.00     0.167 HD
ATOM     60  C   UNL A   1      43.757  28.358  33.816  1.00  0.00     0.037 A 
ATOM     61  C   UNL A   1      41.877  25.776  27.702  1.00  0.00     0.037 A 
ATOM     62  C   UNL A   1      44.667  29.072  32.955  1.00  0.00     0.049 A 
ATOM     63  C   UNL A   1      43.219  25.935  28.311  1.00  0.00     0.074 A 
ATOM     64  C   UNL A   1      44.890  30.403  32.660  1.00  0.00     0.029 A 
ATOM     65  N   UNL A   1      45.277  28.363  31.949  1.00  0.00    -0.354 N 
ATOM     66  N   UNL A   1      44.035  26.912  28.027  1.00  0.00    -0.248 NA
ATOM     67  C   UNL A   1      43.470  25.259  29.574  1.00  0.00     0.031 C 
ATOM     68  C   UNL A   1      45.175  30.426  31.263  1.00  0.00     0.029 A 
ATOM     69  C   UNL A   1      45.179  29.108  30.804  1.00  0.00     0.049 A 
ATOM     70  H   UNL A   1      45.706  27.481  32.036  1.00  0.00     0.167 HD
ATOM     71  C   UNL A   1      44.604  27.258  29.243  1.00  0.00     0.074 A 
ATOM     72  C   UNL A   1      44.292  26.146  30.139  1.00  0.00     0.031 C 
ATOM     73  C   UNL A   1      45.018  28.536  29.487  1.00  0.00     0.037 A 
BRANCH  60  74
ATOM     74  C   UNL A   1      44.205  27.169  34.638  1.00  0.00     0.057 A 
ATOM     75  C   UNL A   1      43.915  25.872  34.173  1.00  0.00     0.134 A 
ATOM     76  C   UNL A   1      44.620  27.238  35.983  1.00  0.00     0.134 A 
ATOM     77  F   UNL A   1      43.509  25.667  32.910  1.00  0.00    -0.206 F 
ATOM     78  C   UNL A   1      43.940  24.748  35.008  1.00  0.00     0.040 A 
ATOM     79  C   UNL A   1      44.697  26.114  36.812  1.00  0.00     0.040 A 
ATOM     80  F   UNL A   1      44.872  28.395  36.604  1.00  0.00    -0.206 F 
ATOM     81  C   UNL A   1      44.320  24.869  36.338  1.00  0.00     0.006 A 
ENDBRANCH  60  74
BRANCH  61  82
ATOM     82  C   UNL A   1      41.464  24.533  27.015  1.00  0.00     0.057 A 
ATOM     83  C   UNL A   1      42.327  23.879  26.124  1.00  0.00     0.134 A 
ATOM     84  C   UNL A   1      40.335  23.806  27.429  1.00  0.00     0.134 A 
ATOM     85  F   UNL A   1      43.449  24.478  25.699  1.00  0.00    -0.206 F 
ATOM     86  C   UNL A   1      42.097  22.566  25.695  1.00  0.00     0.040 A 
ATOM     87  C   UNL A   1      40.092  22.495  27.005  1.00  0.00     0.040 A 
ATOM     88  F   UNL A   1      39.481  24.308  28.333  1.00  0.00    -0.206 F 
ATOM     89  C   UNL A   1      40.983  21.864  26.146  1.00  0.00     0.006 A 
ENDBRANCH  61  82
BRANCH  73  90
ATOM     90  C   UNL A   1      45.084  29.489  28.323  1.00  0.00     0.057 A 
ATOM     91  C   UNL A   1      44.027  30.318  27.917  1.00  0.00     0.134 A 
ATOM     92  C   UNL A   1      46.312  29.679  27.683  1.00  0.00     0.134 A 
ATOM     93  F   UNL A   1      42.839  30.282  28.533  1.00  0.00    -0.206 F 
ATOM     94  C   UNL A   1      44.175  31.259  26.894  1.00  0.00     0.040 A 
ATOM     95  C   UNL A   1      46.484  30.640  26.684  1.00  0.00     0.040 A 
ATOM     96  F   UNL A   1      47.386  28.963  28.055  1.00  0.00    -0.206 F 
ATOM     97  C   UNL A   1      45.410  31.427  26.278  1.00  0.00     0.006 A 
ENDBRANCH  73  90
ENDBRANCH  47  48
ENDBRANCH  39  42
ENDBRANCH  37  38
ENDBRANCH  36  37
ENDBRANCH  35  36
ENDBRANCH   1  35
TORSDOF 17
ENDMDL
MODEL 3
REMARK VINA RESULT:     -12.1      2.762      8.319
REMARK SMILES COC(=O)c1ccc([C@H]2CC(=O)Nc3c(C(=O)NCCCCCCNC(=O)c4ccc(-c5c6nc(c(-c7c(F)cccc7F)c7ccc([nH]7)c(-c7c(F)cccc7F)c7nc(c(-c8c(F)cccc8F)c8ccc5[nH]8)C=C7)C=C6)cc4)cn(-c4ccccc4)c32)cc1
REMARK SMILES IDX 21 1 20 2 19 3 18 4 16 5 17 6 15 8 9 9 10 10 90 11 11 12
REMARK SMILES IDX 14 13 83 14 12 15 13 16 82 17 8 19 5 20 6 21 92 22 7 23
REMARK SMILES IDX 91 24 3 25 4 26 2 27 1 28 84 29 85 30 89 31 86 32 88 33
REMARK SMILES IDX 87 34 22 35 23 36 24 37 25 38 26 39 27 41 28 42 29 43 81 44
REMARK SMILES IDX 30 45 80 46 31 47 32 48 33 49 74 50 34 51 79 52 73 53 75 54
REMARK SMILES IDX 35 55 78 56 72 57 71 58 36 60 62 61 45 62 61 63 46 64 49 65
REMARK SMILES IDX 60 66 76 67 47 68 48 69 59 71 77 72 50 73 37 74 38 75 43 76
REMARK SMILES IDX 39 77 40 78 42 79 44 80 41 81 63 82 64 83 69 84 65 85 66 86
REMARK SMILES IDX 68 87 70 88 67 89 51 90 52 91 57 92 53 93 54 94 56 95 58 96
REMARK SMILES IDX 55 97
REMARK H PARENT 18 7 13 18 25 40 75 59 49 70
REMARK Flexibility Score: inf
ROOT
ATOM      1  C   UNL A   1      39.778  23.735  27.477  1.00  0.00     0.002 C 
ENDROOT
BRANCH   1   2
ATOM      2  C   UNL A   1      38.808  24.483  26.559  1.00  0.00     0.021 C 
BRANCH   2   3
ATOM      3  C   UNL A   1      37.533  23.686  26.251  1.00  0.00     0.116 C 
BRANCH   3   4
ATOM      4  N   UNL A   1      37.488  23.348  24.855  1.00  0.00    -0.352 N 
ATOM      5  C   UNL A   1      36.507  23.396  23.910  1.00  0.00     0.254 C 
ATOM      6  O   UNL A   1      36.863  23.035  22.784  1.00  0.00    -0.269 OA
ATOM      7  H   UNL A   1      38.346  23.013  24.509  1.00  0.00     0.163 HD
BRANCH   5   8
ATOM      8  C   UNL A   1      35.132  23.862  24.137  1.00  0.00     0.081 A 
ATOM      9  C   UNL A   1      31.424  24.429  24.020  1.00  0.00     0.078 C 
ATOM     10  C   UNL A   1      31.025  23.354  23.001  1.00  0.00     0.115 C 
ATOM     11  C   UNL A   1      32.910  24.414  24.293  1.00  0.00     0.055 A 
ATOM     12  C   UNL A   1      31.962  22.186  22.880  1.00  0.00     0.225 C 
ATOM     13  C   UNL A   1      33.797  23.474  23.801  1.00  0.00     0.076 A 
ATOM     14  N   UNL A   1      33.633  25.333  25.033  1.00  0.00    -0.317 N 
ATOM     15  O   UNL A   1      31.586  21.092  22.454  1.00  0.00    -0.275 OA
ATOM     16  N   UNL A   1      33.286  22.400  23.115  1.00  0.00    -0.324 N 
ATOM     17  C   UNL A   1      34.961  25.050  24.844  1.00  0.00     0.107 A 
ATOM     18  H   UNL A   1      33.925  21.737  22.767  1.00  0.00     0.170 HD
BRANCH   9  19
ATOM     19  C   UNL A   1      30.837  25.754  23.520  1.00  0.00    -0.038 A 
ATOM     20  C   UNL A   1      29.773  28.268  22.811  1.00  0.00     0.060 A 
ATOM     21  C   UNL A   1      29.065  27.419  23.667  1.00  0.00     0.016 A 
ATOM     22  C   UNL A   1      30.970  27.824  22.242  1.00  0.00     0.016 A 
ATOM     23  C   UNL A   1      29.598  26.179  24.028  1.00  0.00     0.005 A 
ATOM     24  C   UNL A   1      31.470  26.560  22.561  1.00  0.00     0.005 A 
BRANCH  20  25
ATOM     25  C   UNL A   1      29.239  29.636  22.576  1.00  0.00     0.337 C 
ATOM     26  O   UNL A   1      29.283  30.526  23.402  1.00  0.00    -0.246 OA
BRANCH  25  27
ATOM     27  O   UNL A   1      28.743  29.738  21.315  1.00  0.00    -0.465 OA
ATOM     28  C   UNL A   1      28.089  30.979  21.049  1.00  0.00     0.282 C 
ENDBRANCH  25  27
ENDBRANCH  20  25
ENDBRANCH   9  19
BRANCH  14  29
ATOM     29  C   UNL A   1      33.149  26.461  25.741  1.00  0.00     0.045 A 
ATOM     30  C   UNL A   1      32.144  26.319  26.701  1.00  0.00     0.026 A 
ATOM     31  C   UNL A   1      33.606  27.735  25.373  1.00  0.00     0.026 A 
ATOM     32  C   UNL A   1      31.547  27.456  27.244  1.00  0.00     0.002 A 
ATOM     33  C   UNL A   1      32.979  28.865  25.897  1.00  0.00     0.002 A 
ATOM     34  C   UNL A   1      31.945  28.725  26.822  1.00  0.00     0.000 A 
ENDBRANCH  14  29
ENDBRANCH   5   8
ENDBRANCH   3   4
ENDBRANCH   2   3
ENDBRANCH   1   2
BRANCH   1  35
ATOM     35  C   UNL A   1      39.874  22.226  27.199  1.00  0.00     0.002 C 
BRANCH  35  36
ATOM     36  C   UNL A   1      40.754  21.822  26.004  1.00  0.00     0.021 C 
BRANCH  36  37
ATOM     37  C   UNL A   1      42.153  21.400  26.422  1.00  0.00     0.116 C 
BRANCH  37  38
ATOM     38  N   UNL A   1      43.152  21.879  25.468  1.00  0.00    -0.352 N 
ATOM     39  C   UNL A   1      43.506  23.169  25.148  1.00  0.00     0.251 C 
ATOM     40  H   UNL A   1      43.642  21.175  24.984  1.00  0.00     0.163 HD
ATOM     41  O   UNL A   1      44.121  23.416  24.120  1.00  0.00    -0.269 OA
BRANCH  39  42
ATOM     42  C   UNL A   1      43.131  24.251  26.068  1.00  0.00     0.039 A 
ATOM     43  C   UNL A   1      43.595  24.256  27.386  1.00  0.00     0.014 A 
ATOM     44  C   UNL A   1      42.316  25.273  25.589  1.00  0.00     0.014 A 
ATOM     45  C   UNL A   1      43.290  25.343  28.199  1.00  0.00     0.010 A 
ATOM     46  C   UNL A   1      42.141  26.407  26.340  1.00  0.00     0.010 A 
ATOM     47  C   UNL A   1      42.574  26.422  27.660  1.00  0.00    -0.014 A 
BRANCH  47  48
ATOM     48  C   UNL A   1      42.360  27.632  28.442  1.00  0.00     0.031 A 
ATOM     49  C   UNL A   1      43.388  28.690  28.241  1.00  0.00     0.074 A 
ATOM     50  C   UNL A   1      41.207  27.870  29.105  1.00  0.00     0.049 A 
ATOM     51  N   UNL A   1      44.221  29.162  29.109  1.00  0.00    -0.248 NA
ATOM     52  C   UNL A   1      43.603  29.197  26.874  1.00  0.00     0.031 C 
ATOM     53  C   UNL A   1      39.980  27.064  29.115  1.00  0.00     0.029 A 
ATOM     54  N   UNL A   1      40.850  28.962  29.831  1.00  0.00    -0.354 N 
ATOM     55  C   UNL A   1      44.925  30.172  28.456  1.00  0.00     0.074 A 
ATOM     56  C   UNL A   1      44.636  30.024  27.055  1.00  0.00     0.031 C 
ATOM     57  C   UNL A   1      38.957  27.801  29.601  1.00  0.00     0.029 A 
ATOM     58  C   UNL A   1      39.490  29.056  30.098  1.00  0.00     0.049 A 
ATOM     59  H   UNL A   1      41.501  29.631  30.142  1.00  0.00     0.167 HD
ATOM     60  C   UNL A   1      45.488  31.200  29.153  1.00  0.00     0.037 A 
ATOM     61  C   UNL A   1      38.847  30.107  30.664  1.00  0.00     0.037 A 
ATOM     62  C   UNL A   1      45.604  30.872  30.552  1.00  0.00     0.049 A 
ATOM     63  C   UNL A   1      39.870  30.930  31.352  1.00  0.00     0.074 A 
ATOM     64  C   UNL A   1      46.240  29.881  31.273  1.00  0.00     0.029 A 
ATOM     65  N   UNL A   1      44.680  31.418  31.409  1.00  0.00    -0.354 N 
ATOM     66  N   UNL A   1      40.525  30.540  32.410  1.00  0.00    -0.248 NA
ATOM     67  C   UNL A   1      40.492  32.004  30.594  1.00  0.00     0.031 C 
ATOM     68  C   UNL A   1      45.336  29.557  32.329  1.00  0.00     0.029 A 
ATOM     69  C   UNL A   1      44.239  30.415  32.232  1.00  0.00     0.049 A 
ATOM     70  H   UNL A   1      44.387  32.358  31.429  1.00  0.00     0.167 HD
ATOM     71  C   UNL A   1      41.820  30.993  32.209  1.00  0.00     0.074 A 
ATOM     72  C   UNL A   1      41.717  31.968  31.123  1.00  0.00     0.031 C 
ATOM     73  C   UNL A   1      42.889  30.326  32.736  1.00  0.00     0.037 A 
BRANCH  60  74
ATOM     74  C   UNL A   1      45.562  32.629  28.661  1.00  0.00     0.057 A 
ATOM     75  C   UNL A   1      44.372  33.284  28.291  1.00  0.00     0.134 A 
ATOM     76  C   UNL A   1      46.746  33.272  28.246  1.00  0.00     0.134 A 
ATOM     77  F   UNL A   1      43.174  32.778  28.623  1.00  0.00    -0.206 F 
ATOM     78  C   UNL A   1      44.361  34.432  27.487  1.00  0.00     0.040 A 
ATOM     79  C   UNL A   1      46.746  34.446  27.486  1.00  0.00     0.040 A 
ATOM     80  F   UNL A   1      47.961  32.754  28.455  1.00  0.00    -0.206 F 
ATOM     81  C   UNL A   1      45.552  35.010  27.072  1.00  0.00     0.006 A 
ENDBRANCH  60  74
BRANCH  61  82
ATOM     82  C   UNL A   1      37.476  30.601  30.412  1.00  0.00     0.057 A 
ATOM     83  C   UNL A   1      36.641  30.986  31.471  1.00  0.00     0.134 A 
ATOM     84  C   UNL A   1      37.055  30.976  29.125  1.00  0.00     0.134 A 
ATOM     85  F   UNL A   1      36.975  30.706  32.738  1.00  0.00    -0.206 F 
ATOM     86  C   UNL A   1      35.472  31.730  31.263  1.00  0.00     0.040 A 
ATOM     87  C   UNL A   1      35.888  31.714  28.903  1.00  0.00     0.040 A 
ATOM     88  F   UNL A   1      37.812  30.719  28.047  1.00  0.00    -0.206 F 
ATOM     89  C   UNL A   1      35.099  32.108  29.977  1.00  0.00     0.006 A 
ENDBRANCH  61  82
BRANCH  73  90
ATOM     90  C   UNL A   1      42.614  29.248  33.751  1.00  0.00     0.057 A 
ATOM     91  C   UNL A   1      42.380  29.486  35.115  1.00  0.00     0.134 A 
ATOM     92  C   UNL A   1      42.434  27.937  33.302  1.00  0.00     0.134 A 
ATOM     93  F   UNL A   1      42.430  30.722  35.624  1.00  0.00    -0.206 F 
ATOM     94  C   UNL A   1      42.027  28.459  35.995  1.00  0.00     0.040 A 
ATOM     95  C   UNL A   1      42.047  26.907  34.163  1.00  0.00     0.040 A 
ATOM     96  F   UNL A   1      42.584  27.642  32.000  1.00  0.00    -0.206 F 
ATOM     97  C   UNL A   1      41.853  27.164  35.517  1.00  0.00     0.006 A 
ENDBRANCH  73  90
ENDBRANCH  47  48
ENDBRANCH  39  42
ENDBRANCH  37  38
ENDBRANCH  36  37
ENDBRANCH  35  36
ENDBRANCH   1  35
TORSDOF 17
ENDMDL
