MODEL 1
REMARK VINA RESULT:     -10.8      0.000      0.000
REMARK SMILES O=C(NCCCCCCNC(=O)[C@@H]1CC2(CC[NH2+]CC2)C[N@H+]1Cc1cccc2nonc12)c1ccc(-c2c3nc(c(-c4c(F)cccc4F)c4ccc([nH]4)c(-c4c(F)cccc4F)c4nc(c(-c5c(F)cccc5F)c5ccc2[nH]5)C=C4)C=C3)cc1
REMARK SMILES IDX 6 1 5 2 4 3 3 4 1 5 2 6 33 8 34 9 86 10 35 11 85 12 36 13
REMARK SMILES IDX 37 14 38 15 79 16 39 17 84 18 78 19 80 20 40 21 83 22 77 23
REMARK SMILES IDX 76 24 41 26 67 27 50 28 66 29 51 30 54 31 65 32 81 33 52 34
REMARK SMILES IDX 53 35 64 37 82 38 55 39 42 40 43 41 48 42 44 43 45 44 47 45
REMARK SMILES IDX 49 46 46 47 68 48 69 49 74 50 70 51 71 52 73 53 75 54 72 55
REMARK SMILES IDX 56 56 57 57 62 58 58 59 59 60 61 61 63 62 60 63 7 64 8 65
REMARK SMILES IDX 9 66 10 67 11 68 12 70 13 71 14 72 22 73 15 74 21 75 16 77
REMARK SMILES IDX 20 78 17 79 19 80 18 81 23 84 24 85 25 86 32 87 26 88 28 89
REMARK SMILES IDX 31 90 27 91 29 92 30 93
REMARK H PARENT 3 7 80 25 54 36 10 69 22 76 18 82 18 83
REMARK Flexibility Score: inf
ROOT
ATOM      1  C   UNL A   1      44.127  32.471  26.568  1.00  0.00     0.002 C 
ENDROOT
BRANCH   1   2
ATOM      2  C   UNL A   1      44.269  33.328  25.301  1.00  0.00     0.021 C 
BRANCH   2   3
ATOM      3  C   UNL A   1      43.491  34.649  25.328  1.00  0.00     0.116 C 
BRANCH   3   4
ATOM      4  N   UNL A   1      44.326  35.725  25.832  1.00  0.00    -0.352 N 
ATOM      5  O   UNL A   1      44.881  37.430  27.174  1.00  0.00    -0.269 OA
ATOM      6  C   UNL A   1      44.345  36.326  27.055  1.00  0.00     0.251 C 
ATOM      7  H   UNL A   1      44.983  36.075  25.188  1.00  0.00     0.163 HD
BRANCH   6   8
ATOM      8  C   UNL A   1      43.779  35.671  28.251  1.00  0.00     0.039 A 
ATOM      9  C   UNL A   1      44.665  35.137  29.193  1.00  0.00     0.014 A 
ATOM     10  C   UNL A   1      42.409  35.414  28.354  1.00  0.00     0.014 A 
ATOM     11  C   UNL A   1      44.188  34.338  30.233  1.00  0.00     0.010 A 
ATOM     12  C   UNL A   1      41.934  34.615  29.397  1.00  0.00     0.010 A 
ATOM     13  C   UNL A   1      42.821  34.060  30.335  1.00  0.00    -0.014 A 
BRANCH  13  14
ATOM     14  C   UNL A   1      42.349  33.130  31.383  1.00  0.00     0.031 A 
ATOM     15  C   UNL A   1      40.914  33.200  31.751  1.00  0.00     0.074 A 
ATOM     16  C   UNL A   1      42.880  31.892  31.514  1.00  0.00     0.049 A 
ATOM     17  N   UNL A   1      40.021  32.601  31.024  1.00  0.00    -0.248 NA
ATOM     18  C   UNL A   1      40.357  34.037  32.807  1.00  0.00     0.031 C 
ATOM     19  C   UNL A   1      43.705  31.237  30.490  1.00  0.00     0.029 A 
ATOM     20  N   UNL A   1      42.625  30.896  32.433  1.00  0.00    -0.354 N 
ATOM     21  C   UNL A   1      38.785  33.009  31.467  1.00  0.00     0.074 A 
ATOM     22  C   UNL A   1      39.039  33.883  32.595  1.00  0.00     0.031 C 
ATOM     23  C   UNL A   1      43.762  29.917  30.758  1.00  0.00     0.029 A 
ATOM     24  C   UNL A   1      43.130  29.667  32.044  1.00  0.00     0.049 A 
ATOM     25  H   UNL A   1      42.135  31.043  33.275  1.00  0.00     0.167 HD
ATOM     26  C   UNL A   1      37.641  32.589  30.869  1.00  0.00     0.037 A 
ATOM     27  C   UNL A   1      42.783  28.438  32.496  1.00  0.00     0.037 A 
ATOM     28  C   UNL A   1      37.727  31.633  29.782  1.00  0.00     0.049 A 
ATOM     29  C   UNL A   1      41.426  28.215  31.900  1.00  0.00     0.074 A 
ATOM     30  C   UNL A   1      36.962  31.261  28.692  1.00  0.00     0.029 A 
ATOM     31  N   UNL A   1      38.801  30.782  29.759  1.00  0.00    -0.354 N 
ATOM     32  N   UNL A   1      41.205  27.819  30.673  1.00  0.00    -0.248 NA
ATOM     33  C   UNL A   1      40.234  28.698  32.614  1.00  0.00     0.031 C 
ATOM     34  C   UNL A   1      37.498  30.032  28.183  1.00  0.00     0.029 A 
ATOM     35  C   UNL A   1      38.546  29.666  29.005  1.00  0.00     0.049 A 
ATOM     36  H   UNL A   1      39.650  30.951  30.227  1.00  0.00     0.167 HD
ATOM     37  C   UNL A   1      39.921  28.262  30.391  1.00  0.00     0.074 A 
ATOM     38  C   UNL A   1      39.324  28.667  31.647  1.00  0.00     0.031 C 
ATOM     39  C   UNL A   1      39.483  28.585  29.144  1.00  0.00     0.037 A 
BRANCH  26  40
ATOM     40  C   UNL A   1      36.305  32.928  31.401  1.00  0.00     0.057 A 
ATOM     41  C   UNL A   1      35.823  32.429  32.610  1.00  0.00     0.134 A 
ATOM     42  C   UNL A   1      35.560  33.926  30.757  1.00  0.00     0.134 A 
ATOM     43  F   UNL A   1      36.498  31.480  33.274  1.00  0.00    -0.206 F 
ATOM     44  C   UNL A   1      34.648  32.932  33.178  1.00  0.00     0.040 A 
ATOM     45  C   UNL A   1      34.392  34.440  31.316  1.00  0.00     0.040 A 
ATOM     46  F   UNL A   1      35.978  34.433  29.586  1.00  0.00    -0.206 F 
ATOM     47  C   UNL A   1      33.939  33.950  32.538  1.00  0.00     0.006 A 
ENDBRANCH  26  40
BRANCH  27  48
ATOM     48  C   UNL A   1      43.164  28.121  33.902  1.00  0.00     0.057 A 
ATOM     49  C   UNL A   1      42.702  28.771  35.051  1.00  0.00     0.134 A 
ATOM     50  C   UNL A   1      44.022  27.022  34.129  1.00  0.00     0.134 A 
ATOM     51  F   UNL A   1      41.789  29.746  34.984  1.00  0.00    -0.206 F 
ATOM     52  C   UNL A   1      43.160  28.435  36.333  1.00  0.00     0.040 A 
ATOM     53  C   UNL A   1      44.472  26.663  35.402  1.00  0.00     0.040 A 
ATOM     54  F   UNL A   1      44.432  26.255  33.105  1.00  0.00    -0.206 F 
ATOM     55  C   UNL A   1      44.057  27.388  36.510  1.00  0.00     0.006 A 
ENDBRANCH  27  48
BRANCH  39  56
ATOM     56  C   UNL A   1      40.179  27.976  27.991  1.00  0.00     0.057 A 
ATOM     57  C   UNL A   1      39.858  26.701  27.518  1.00  0.00     0.134 A 
ATOM     58  C   UNL A   1      41.211  28.670  27.347  1.00  0.00     0.134 A 
ATOM     59  F   UNL A   1      38.876  25.983  28.087  1.00  0.00    -0.206 F 
ATOM     60  C   UNL A   1      40.541  26.134  26.440  1.00  0.00     0.040 A 
ATOM     61  C   UNL A   1      41.895  28.118  26.264  1.00  0.00     0.040 A 
ATOM     62  F   UNL A   1      41.591  29.883  27.778  1.00  0.00    -0.206 F 
ATOM     63  C   UNL A   1      41.561  26.846  25.808  1.00  0.00     0.006 A 
ENDBRANCH  39  56
ENDBRANCH  13  14
ENDBRANCH   6   8
ENDBRANCH   3   4
ENDBRANCH   2   3
ENDBRANCH   1   2
BRANCH   1  64
ATOM     64  C   UNL A   1      45.435  32.232  27.323  1.00  0.00     0.002 C 
BRANCH  64  65
ATOM     65  C   UNL A   1      46.188  30.962  26.901  1.00  0.00     0.021 C 
BRANCH  65  66
ATOM     66  C   UNL A   1      45.326  29.696  26.865  1.00  0.00     0.116 C 
BRANCH  66  67
ATOM     67  N   UNL A   1      45.515  29.008  25.607  1.00  0.00    -0.351 N 
ATOM     68  C   UNL A   1      45.985  27.765  25.332  1.00  0.00     0.278 C 
ATOM     69  H   UNL A   1      45.259  29.531  24.813  1.00  0.00     0.163 HD
ATOM     70  O   UNL A   1      46.289  27.550  24.156  1.00  0.00    -0.268 OA
BRANCH  68  71
ATOM     71  C   UNL A   1      46.060  26.695  26.438  1.00  0.00     0.275 C 
ATOM     72  C   UNL A   1      47.457  26.667  27.070  1.00  0.00     0.089 C 
ATOM     73  N   UNL A   1      45.931  25.357  25.869  1.00  0.00    -0.320 N 
ATOM     74  C   UNL A   1      48.147  25.391  26.526  1.00  0.00     0.036 C 
ATOM     75  C   UNL A   1      46.950  24.448  26.327  1.00  0.00     0.270 C 
ATOM     76  H   UNL A   1      46.121  25.462  24.872  1.00  0.00     0.349 HD
ATOM     77  C   UNL A   1      49.179  24.827  27.516  1.00  0.00     0.074 C 
ATOM     78  C   UNL A   1      48.891  25.629  25.185  1.00  0.00     0.074 C 
ATOM     79  C   UNL A   1      50.405  25.737  27.627  1.00  0.00     0.261 C 
ATOM     80  C   UNL A   1      50.119  26.521  25.354  1.00  0.00     0.261 C 
ATOM     81  N   UNL A   1      51.054  25.959  26.333  1.00  0.00    -0.346 N 
ATOM     82  H   UNL A   1      51.406  25.069  25.982  1.00  0.00     0.346 HD
ATOM     83  H   UNL A   1      51.816  26.624  26.467  1.00  0.00     0.346 HD
BRANCH  73  84
ATOM     84  C   UNL A   1      44.703  24.903  25.267  1.00  0.00     0.302 C 
BRANCH  84  85
ATOM     85  C   UNL A   1      43.881  24.168  26.289  1.00  0.00     0.038 A 
ATOM     86  C   UNL A   1      43.705  24.686  27.602  1.00  0.00     0.012 A 
ATOM     87  C   UNL A   1      43.357  22.865  26.130  1.00  0.00     0.144 A 
ATOM     88  C   UNL A   1      43.116  23.965  28.671  1.00  0.00     0.003 A 
ATOM     89  C   UNL A   1      42.754  22.123  27.234  1.00  0.00     0.135 A 
ATOM     90  N   UNL A   1      43.333  22.079  25.043  1.00  0.00    -0.049 NA
ATOM     91  C   UNL A   1      42.631  22.655  28.529  1.00  0.00     0.034 A 
ATOM     92  N   UNL A   1      42.394  20.916  26.782  1.00  0.00    -0.050 NA
ATOM     93  O   UNL A   1      42.742  20.894  25.443  1.00  0.00    -0.243 OA
ENDBRANCH  84  85
ENDBRANCH  73  84
ENDBRANCH  68  71
ENDBRANCH  66  67
ENDBRANCH  65  66
ENDBRANCH  64  65
ENDBRANCH   1  64
TORSDOF 15
ENDMDL
MODEL 2
REMARK VINA RESULT:     -10.6      3.450     11.040
REMARK SMILES O=C(NCCCCCCNC(=O)[C@@H]1CC2(CC[NH2+]CC2)C[N@H+]1Cc1cccc2nonc12)c1ccc(-c2c3nc(c(-c4c(F)cccc4F)c4ccc([nH]4)c(-c4c(F)cccc4F)c4nc(c(-c5c(F)cccc5F)c5ccc2[nH]5)C=C4)C=C3)cc1
REMARK SMILES IDX 6 1 5 2 4 3 3 4 1 5 2 6 33 8 34 9 86 10 35 11 85 12 36 13
REMARK SMILES IDX 37 14 38 15 79 16 39 17 84 18 78 19 80 20 40 21 83 22 77 23
REMARK SMILES IDX 76 24 41 26 67 27 50 28 66 29 51 30 54 31 65 32 81 33 52 34
REMARK SMILES IDX 53 35 64 37 82 38 55 39 42 40 43 41 48 42 44 43 45 44 47 45
REMARK SMILES IDX 49 46 46 47 68 48 69 49 74 50 70 51 71 52 73 53 75 54 72 55
REMARK SMILES IDX 56 56 57 57 62 58 58 59 59 60 61 61 63 62 60 63 7 64 8 65
REMARK SMILES IDX 9 66 10 67 11 68 12 70 13 71 14 72 22 73 15 74 21 75 16 77
REMARK SMILES IDX 20 78 17 79 19 80 18 81 23 84 24 85 25 86 32 87 26 88 28 89
REMARK SMILES IDX 31 90 27 91 29 92 30 93
REMARK H PARENT 3 7 80 25 54 36 10 69 22 76 18 82 18 83
REMARK Flexibility Score: inf
ROOT
ATOM      1  C   UNL A   1      42.401  26.563  36.674  1.00  0.00     0.002 C 
ENDROOT
BRANCH   1   2
ATOM      2  C   UNL A   1      41.534  25.302  36.807  1.00  0.00     0.021 C 
BRANCH   2   3
ATOM      3  C   UNL A   1      41.991  24.114  35.954  1.00  0.00     0.116 C 
BRANCH   3   4
ATOM      4  N   UNL A   1      43.370  23.770  36.253  1.00  0.00    -0.352 N 
ATOM      5  O   UNL A   1      45.486  23.201  35.787  1.00  0.00    -0.269 OA
ATOM      6  C   UNL A   1      44.486  23.853  35.475  1.00  0.00     0.251 C 
ATOM      7  H   UNL A   1      43.523  23.423  37.161  1.00  0.00     0.163 HD
BRANCH   6   8
ATOM      8  C   UNL A   1      44.545  24.734  34.292  1.00  0.00     0.039 A 
ATOM      9  C   UNL A   1      44.053  24.243  33.078  1.00  0.00     0.014 A 
ATOM     10  C   UNL A   1      45.242  25.945  34.327  1.00  0.00     0.014 A 
ATOM     11  C   UNL A   1      44.264  24.953  31.895  1.00  0.00     0.010 A 
ATOM     12  C   UNL A   1      45.451  26.655  33.142  1.00  0.00     0.010 A 
ATOM     13  C   UNL A   1      44.977  26.157  31.916  1.00  0.00    -0.014 A 
BRANCH  13  14
ATOM     14  C   UNL A   1      45.277  26.841  30.640  1.00  0.00     0.031 A 
ATOM     15  C   UNL A   1      45.300  26.005  29.416  1.00  0.00     0.074 A 
ATOM     16  C   UNL A   1      44.881  28.116  30.417  1.00  0.00     0.049 A 
ATOM     17  N   UNL A   1      44.192  25.690  28.817  1.00  0.00    -0.248 NA
ATOM     18  C   UNL A   1      46.478  25.340  28.873  1.00  0.00     0.031 C 
ATOM     19  C   UNL A   1      43.880  28.822  31.228  1.00  0.00     0.029 A 
ATOM     20  N   UNL A   1      45.088  28.946  29.335  1.00  0.00    -0.354 N 
ATOM     21  C   UNL A   1      44.491  24.750  27.859  1.00  0.00     0.074 A 
ATOM     22  C   UNL A   1      45.929  24.579  27.911  1.00  0.00     0.031 C 
ATOM     23  C   UNL A   1      43.451  29.901  30.546  1.00  0.00     0.029 A 
ATOM     24  C   UNL A   1      44.256  30.053  29.344  1.00  0.00     0.049 A 
ATOM     25  H   UNL A   1      45.755  28.770  28.633  1.00  0.00     0.167 HD
ATOM     26  C   UNL A   1      43.524  24.184  27.092  1.00  0.00     0.037 A 
ATOM     27  C   UNL A   1      43.936  30.868  28.310  1.00  0.00     0.037 A 
ATOM     28  C   UNL A   1      42.156  24.637  27.240  1.00  0.00     0.049 A 
ATOM     29  C   UNL A   1      43.024  30.026  27.470  1.00  0.00     0.074 A 
ATOM     30  C   UNL A   1      40.887  24.133  27.014  1.00  0.00     0.029 A 
ATOM     31  N   UNL A   1      41.947  25.920  27.674  1.00  0.00    -0.354 N 
ATOM     32  N   UNL A   1      41.751  29.838  27.708  1.00  0.00    -0.248 NA
ATOM     33  C   UNL A   1      43.597  29.133  26.451  1.00  0.00     0.031 C 
ATOM     34  C   UNL A   1      39.963  25.226  27.102  1.00  0.00     0.029 A 
ATOM     35  C   UNL A   1      40.697  26.373  27.335  1.00  0.00     0.049 A 
ATOM     36  H   UNL A   1      42.612  26.452  28.168  1.00  0.00     0.167 HD
ATOM     37  C   UNL A   1      41.453  28.640  27.075  1.00  0.00     0.074 A 
ATOM     38  C   UNL A   1      42.572  28.325  26.211  1.00  0.00     0.031 C 
ATOM     39  C   UNL A   1      40.478  27.785  27.485  1.00  0.00     0.037 A 
BRANCH  26  40
ATOM     40  C   UNL A   1      43.841  23.257  25.985  1.00  0.00     0.057 A 
ATOM     41  C   UNL A   1      44.487  23.664  24.819  1.00  0.00     0.134 A 
ATOM     42  C   UNL A   1      43.644  21.884  26.184  1.00  0.00     0.134 A 
ATOM     43  F   UNL A   1      44.710  24.964  24.580  1.00  0.00    -0.206 F 
ATOM     44  C   UNL A   1      44.953  22.727  23.892  1.00  0.00     0.040 A 
ATOM     45  C   UNL A   1      44.109  20.940  25.271  1.00  0.00     0.040 A 
ATOM     46  F   UNL A   1      43.020  21.442  27.288  1.00  0.00    -0.206 F 
ATOM     47  C   UNL A   1      44.777  21.361  24.124  1.00  0.00     0.006 A 
ENDBRANCH  26  40
BRANCH  27  48
ATOM     48  C   UNL A   1      45.035  31.728  27.784  1.00  0.00     0.057 A 
ATOM     49  C   UNL A   1      46.254  31.286  27.261  1.00  0.00     0.134 A 
ATOM     50  C   UNL A   1      44.824  33.124  27.740  1.00  0.00     0.134 A 
ATOM     51  F   UNL A   1      46.527  29.983  27.129  1.00  0.00    -0.206 F 
ATOM     52  C   UNL A   1      47.250  32.176  26.837  1.00  0.00     0.040 A 
ATOM     53  C   UNL A   1      45.801  34.023  27.302  1.00  0.00     0.040 A 
ATOM     54  F   UNL A   1      43.643  33.647  28.108  1.00  0.00    -0.206 F 
ATOM     55  C   UNL A   1      47.031  33.549  26.870  1.00  0.00     0.006 A 
ENDBRANCH  27  48
BRANCH  39  56
ATOM     56  C   UNL A   1      39.364  28.341  28.282  1.00  0.00     0.057 A 
ATOM     57  C   UNL A   1      38.459  29.264  27.751  1.00  0.00     0.134 A 
ATOM     58  C   UNL A   1      39.201  27.963  29.620  1.00  0.00     0.134 A 
ATOM     59  F   UNL A   1      38.556  29.667  26.474  1.00  0.00    -0.206 F 
ATOM     60  C   UNL A   1      37.426  29.794  28.527  1.00  0.00     0.040 A 
ATOM     61  C   UNL A   1      38.168  28.478  30.403  1.00  0.00     0.040 A 
ATOM     62  F   UNL A   1      40.060  27.108  30.198  1.00  0.00    -0.206 F 
ATOM     63  C   UNL A   1      37.277  29.398  29.856  1.00  0.00     0.006 A 
ENDBRANCH  39  56
ENDBRANCH  13  14
ENDBRANCH   6   8
ENDBRANCH   3   4
ENDBRANCH   2   3
ENDBRANCH   1   2
BRANCH   1  64
ATOM     64  C   UNL A   1      41.776  27.679  35.837  1.00  0.00     0.002 C 
BRANCH  64  65
ATOM     65  C   UNL A   1      41.867  27.462  34.320  1.00  0.00     0.021 C 
BRANCH  65  66
ATOM     66  C   UNL A   1      40.912  28.332  33.496  1.00  0.00     0.116 C 
BRANCH  66  67
ATOM     67  N   UNL A   1      40.234  29.272  34.362  1.00  0.00    -0.351 N 
ATOM     68  C   UNL A   1      39.679  30.482  34.102  1.00  0.00     0.278 C 
ATOM     69  H   UNL A   1      40.161  28.983  35.301  1.00  0.00     0.163 HD
ATOM     70  O   UNL A   1      39.412  31.176  35.087  1.00  0.00    -0.268 OA
BRANCH  68  71
ATOM     71  C   UNL A   1      39.361  30.903  32.655  1.00  0.00     0.275 C 
ATOM     72  C   UNL A   1      40.546  31.654  32.037  1.00  0.00     0.089 C 
ATOM     73  N   UNL A   1      38.294  31.898  32.632  1.00  0.00    -0.320 N 
ATOM     74  C   UNL A   1      40.132  33.148  31.998  1.00  0.00     0.036 C 
ATOM     75  C   UNL A   1      38.609  33.046  31.821  1.00  0.00     0.270 C 
ATOM     76  H   UNL A   1      38.243  32.271  33.580  1.00  0.00     0.349 HD
ATOM     77  C   UNL A   1      40.808  33.902  30.842  1.00  0.00     0.074 C 
ATOM     78  C   UNL A   1      40.487  33.909  33.303  1.00  0.00     0.074 C 
ATOM     79  C   UNL A   1      42.310  34.073  31.085  1.00  0.00     0.261 C 
ATOM     80  C   UNL A   1      41.995  34.074  33.486  1.00  0.00     0.261 C 
ATOM     81  N   UNL A   1      42.596  34.766  32.342  1.00  0.00    -0.346 N 
ATOM     82  H   UNL A   1      42.218  35.713  32.292  1.00  0.00     0.346 HD
ATOM     83  H   UNL A   1      43.607  34.786  32.474  1.00  0.00     0.346 HD
BRANCH  73  84
ATOM     84  C   UNL A   1      36.944  31.575  33.023  1.00  0.00     0.302 C 
BRANCH  84  85
ATOM     85  C   UNL A   1      36.103  32.822  33.010  1.00  0.00     0.038 A 
ATOM     86  C   UNL A   1      35.999  33.652  34.160  1.00  0.00     0.012 A 
ATOM     87  C   UNL A   1      35.228  33.204  31.968  1.00  0.00     0.144 A 
ATOM     88  C   UNL A   1      35.081  34.723  34.289  1.00  0.00     0.003 A 
ATOM     89  C   UNL A   1      34.280  34.306  32.105  1.00  0.00     0.135 A 
ATOM     90  N   UNL A   1      35.062  32.666  30.750  1.00  0.00    -0.049 NA
ATOM     91  C   UNL A   1      34.181  35.082  33.273  1.00  0.00     0.034 A 
ATOM     92  N   UNL A   1      33.570  34.392  30.974  1.00  0.00    -0.050 NA
ATOM     93  O   UNL A   1      34.053  33.396  30.146  1.00  0.00    -0.243 OA
ENDBRANCH  84  85
ENDBRANCH  73  84
ENDBRANCH  68  71
ENDBRANCH  66  67
ENDBRANCH  65  66
ENDBRANCH  64  65
ENDBRANCH   1  64
TORSDOF 15
ENDMDL
MODEL 3
REMARK VINA RESULT:     -10.6      3.699     11.391
REMARK SMILES O=C(NCCCCCCNC(=O)[C@@H]1CC2(CC[NH2+]CC2)C[N@H+]1Cc1cccc2nonc12)c1ccc(-c2c3nc(c(-c4c(F)cccc4F)c4ccc([nH]4)c(-c4c(F)cccc4F)c4nc(c(-c5c(F)cccc5F)c5ccc2[nH]5)C=C4)C=C3)cc1
REMARK SMILES IDX 6 1 5 2 4 3 3 4 1 5 2 6 33 8 34 9 86 10 35 11 85 12 36 13
REMARK SMILES IDX 37 14 38 15 79 16 39 17 84 18 78 19 80 20 40 21 83 22 77 23
REMARK SMILES IDX 76 24 41 26 67 27 50 28 66 29 51 30 54 31 65 32 81 33 52 34
REMARK SMILES IDX 53 35 64 37 82 38 55 39 42 40 43 41 48 42 44 43 45 44 47 45
REMARK SMILES IDX 49 46 46 47 68 48 69 49 74 50 70 51 71 52 73 53 75 54 72 55
REMARK SMILES IDX 56 56 57 57 62 58 58 59 59 60 61 61 63 62 60 63 7 64 8 65
REMARK SMILES IDX 9 66 10 67 11 68 12 70 13 71 14 72 22 73 15 74 21 75 16 77
REMARK SMILES IDX 20 78 17 79 19 80 18 81 23 84 24 85 25 86 32 87 26 88 28 89
REMARK SMILES IDX 31 90 27 91 29 92 30 93
REMARK H PARENT 3 7 80 25 54 36 10 69 22 76 18 82 18 83
REMARK Flexibility Score: inf
ROOT
ATOM      1  C   UNL A   1      41.522  26.285  35.162  1.00  0.00     0.002 C 
ENDROOT
BRANCH   1   2
ATOM      2  C   UNL A   1      42.302  25.618  36.305  1.00  0.00     0.021 C 
BRANCH   2   3
ATOM      3  C   UNL A   1      42.444  24.096  36.184  1.00  0.00     0.116 C 
BRANCH   3   4
ATOM      4  N   UNL A   1      43.830  23.697  36.354  1.00  0.00    -0.352 N 
ATOM      5  O   UNL A   1      45.876  23.069  35.693  1.00  0.00    -0.269 OA
ATOM      6  C   UNL A   1      44.878  23.763  35.485  1.00  0.00     0.251 C 
ATOM      7  H   UNL A   1      44.047  23.320  37.237  1.00  0.00     0.163 HD
BRANCH   6   8
ATOM      8  C   UNL A   1      44.868  24.675  34.324  1.00  0.00     0.039 A 
ATOM      9  C   UNL A   1      44.184  24.269  33.173  1.00  0.00     0.014 A 
ATOM     10  C   UNL A   1      45.672  25.817  34.295  1.00  0.00     0.014 A 
ATOM     11  C   UNL A   1      44.309  24.997  31.989  1.00  0.00     0.010 A 
ATOM     12  C   UNL A   1      45.794  26.544  33.109  1.00  0.00     0.010 A 
ATOM     13  C   UNL A   1      45.126  26.131  31.944  1.00  0.00    -0.014 A 
BRANCH  13  14
ATOM     14  C   UNL A   1      45.324  26.828  30.655  1.00  0.00     0.031 A 
ATOM     15  C   UNL A   1      45.278  25.999  29.426  1.00  0.00     0.074 A 
ATOM     16  C   UNL A   1      44.890  28.096  30.468  1.00  0.00     0.049 A 
ATOM     17  N   UNL A   1      44.137  25.667  28.903  1.00  0.00    -0.248 NA
ATOM     18  C   UNL A   1      46.428  25.360  28.798  1.00  0.00     0.031 C 
ATOM     19  C   UNL A   1      43.935  28.779  31.351  1.00  0.00     0.029 A 
ATOM     20  N   UNL A   1      45.006  28.936  29.380  1.00  0.00    -0.354 N 
ATOM     21  C   UNL A   1      44.387  24.737  27.921  1.00  0.00     0.074 A 
ATOM     22  C   UNL A   1      45.827  24.594  27.871  1.00  0.00     0.031 C 
ATOM     23  C   UNL A   1      43.439  29.854  30.707  1.00  0.00     0.029 A 
ATOM     24  C   UNL A   1      44.157  30.027  29.454  1.00  0.00     0.049 A 
ATOM     25  H   UNL A   1      45.627  28.777  28.632  1.00  0.00     0.167 HD
ATOM     26  C   UNL A   1      43.380  24.158  27.218  1.00  0.00     0.037 A 
ATOM     27  C   UNL A   1      43.751  30.841  28.450  1.00  0.00     0.037 A 
ATOM     28  C   UNL A   1      42.017  24.584  27.463  1.00  0.00     0.049 A 
ATOM     29  C   UNL A   1      42.799  29.987  27.669  1.00  0.00     0.074 A 
ATOM     30  C   UNL A   1      40.745  24.057  27.321  1.00  0.00     0.029 A 
ATOM     31  N   UNL A   1      41.815  25.860  27.919  1.00  0.00    -0.354 N 
ATOM     32  N   UNL A   1      41.549  29.774  27.993  1.00  0.00    -0.248 NA
ATOM     33  C   UNL A   1      43.316  29.111  26.607  1.00  0.00     0.031 C 
ATOM     34  C   UNL A   1      39.809  25.132  27.480  1.00  0.00     0.029 A 
ATOM     35  C   UNL A   1      40.537  26.291  27.671  1.00  0.00     0.049 A 
ATOM     36  H   UNL A   1      42.502  26.402  28.370  1.00  0.00     0.167 HD
ATOM     37  C   UNL A   1      41.230  28.574  27.374  1.00  0.00     0.074 A 
ATOM     38  C   UNL A   1      42.292  28.284  26.432  1.00  0.00     0.031 C 
ATOM     39  C   UNL A   1      40.302  27.698  27.844  1.00  0.00     0.037 A 
BRANCH  26  40
ATOM     40  C   UNL A   1      43.637  23.244  26.085  1.00  0.00     0.057 A 
ATOM     41  C   UNL A   1      44.171  23.673  24.872  1.00  0.00     0.134 A 
ATOM     42  C   UNL A   1      43.504  21.864  26.295  1.00  0.00     0.134 A 
ATOM     43  F   UNL A   1      44.329  24.980  24.620  1.00  0.00    -0.206 F 
ATOM     44  C   UNL A   1      44.591  22.753  23.906  1.00  0.00     0.040 A 
ATOM     45  C   UNL A   1      43.925  20.938  25.344  1.00  0.00     0.040 A 
ATOM     46  F   UNL A   1      42.988  21.400  27.444  1.00  0.00    -0.206 F 
ATOM     47  C   UNL A   1      44.482  21.382  24.148  1.00  0.00     0.006 A 
ENDBRANCH  26  40
BRANCH  27  48
ATOM     48  C   UNL A   1      44.794  31.725  27.856  1.00  0.00     0.057 A 
ATOM     49  C   UNL A   1      45.960  31.308  27.204  1.00  0.00     0.134 A 
ATOM     50  C   UNL A   1      44.579  33.121  27.882  1.00  0.00     0.134 A 
ATOM     51  F   UNL A   1      46.221  30.012  27.000  1.00  0.00    -0.206 F 
ATOM     52  C   UNL A   1      46.911  32.218  26.722  1.00  0.00     0.040 A 
ATOM     53  C   UNL A   1      45.509  34.040  27.388  1.00  0.00     0.040 A 
ATOM     54  F   UNL A   1      43.437  33.625  28.378  1.00  0.00    -0.206 F 
ATOM     55  C   UNL A   1      46.694  33.588  26.825  1.00  0.00     0.006 A 
ENDBRANCH  27  48
BRANCH  39  56
ATOM     56  C   UNL A   1      39.235  28.228  28.720  1.00  0.00     0.057 A 
ATOM     57  C   UNL A   1      38.187  29.008  28.225  1.00  0.00     0.134 A 
ATOM     58  C   UNL A   1      39.265  27.973  30.097  1.00  0.00     0.134 A 
ATOM     59  F   UNL A   1      38.096  29.288  26.916  1.00  0.00    -0.206 F 
ATOM     60  C   UNL A   1      37.201  29.518  29.072  1.00  0.00     0.040 A 
ATOM     61  C   UNL A   1      38.282  28.469  30.951  1.00  0.00     0.040 A 
ATOM     62  F   UNL A   1      40.267  27.262  30.638  1.00  0.00    -0.206 F 
ATOM     63  C   UNL A   1      37.245  29.245  30.440  1.00  0.00     0.006 A 
ENDBRANCH  39  56
ENDBRANCH  13  14
ENDBRANCH   6   8
ENDBRANCH   3   4
ENDBRANCH   2   3
ENDBRANCH   1   2
BRANCH   1  64
ATOM     64  C   UNL A   1      42.285  27.390  34.431  1.00  0.00     0.002 C 
BRANCH  64  65
ATOM     65  C   UNL A   1      41.471  28.667  34.184  1.00  0.00     0.021 C 
BRANCH  65  66
ATOM     66  C   UNL A   1      41.398  29.615  35.387  1.00  0.00     0.116 C 
BRANCH  66  67
ATOM     67  N   UNL A   1      40.038  29.683  35.877  1.00  0.00    -0.351 N 
ATOM     68  C   UNL A   1      39.127  30.687  35.840  1.00  0.00     0.278 C 
ATOM     69  H   UNL A   1      39.719  28.858  36.311  1.00  0.00     0.163 HD
ATOM     70  O   UNL A   1      38.145  30.552  36.575  1.00  0.00    -0.268 OA
BRANCH  68  71
ATOM     71  C   UNL A   1      39.312  31.877  34.879  1.00  0.00     0.275 C 
ATOM     72  C   UNL A   1      39.958  33.062  35.605  1.00  0.00     0.089 C 
ATOM     73  N   UNL A   1      38.017  32.410  34.467  1.00  0.00    -0.320 N 
ATOM     74  C   UNL A   1      38.826  34.100  35.822  1.00  0.00     0.036 C 
ATOM     75  C   UNL A   1      37.928  33.842  34.603  1.00  0.00     0.270 C 
ATOM     76  H   UNL A   1      37.343  32.054  35.144  1.00  0.00     0.349 HD
ATOM     77  C   UNL A   1      39.364  35.539  35.860  1.00  0.00     0.074 C 
ATOM     78  C   UNL A   1      38.043  33.874  37.143  1.00  0.00     0.074 C 
ATOM     79  C   UNL A   1      40.179  35.800  37.130  1.00  0.00     0.261 C 
ATOM     80  C   UNL A   1      38.892  34.173  38.377  1.00  0.00     0.261 C 
ATOM     81  N   UNL A   1      39.409  35.543  38.349  1.00  0.00    -0.346 N 
ATOM     82  H   UNL A   1      38.625  36.194  38.389  1.00  0.00     0.346 HD
ATOM     83  H   UNL A   1      40.028  35.670  39.150  1.00  0.00     0.346 HD
BRANCH  73  84
ATOM     84  C   UNL A   1      37.112  31.654  33.639  1.00  0.00     0.302 C 
BRANCH  84  85
ATOM     85  C   UNL A   1      37.124  32.208  32.241  1.00  0.00     0.038 A 
ATOM     86  C   UNL A   1      38.344  32.408  31.539  1.00  0.00     0.012 A 
ATOM     87  C   UNL A   1      35.999  32.728  31.560  1.00  0.00     0.144 A 
ATOM     88  C   UNL A   1      38.451  33.102  30.308  1.00  0.00     0.003 A 
ATOM     89  C   UNL A   1      36.112  33.446  30.295  1.00  0.00     0.135 A 
ATOM     90  N   UNL A   1      34.704  32.712  31.912  1.00  0.00    -0.049 NA
ATOM     91  C   UNL A   1      37.342  33.657  29.648  1.00  0.00     0.034 A 
ATOM     92  N   UNL A   1      34.889  33.846  29.928  1.00  0.00    -0.050 NA
ATOM     93  O   UNL A   1      34.031  33.391  30.912  1.00  0.00    -0.243 OA
ENDBRANCH  84  85
ENDBRANCH  73  84
ENDBRANCH  68  71
ENDBRANCH  66  67
ENDBRANCH  65  66
ENDBRANCH  64  65
ENDBRANCH   1  64
TORSDOF 15
ENDMDL
