MODEL 1
REMARK VINA RESULT:     -10.6      0.000      0.000
REMARK SMILES O=C(NCCCCCCNC(=O)[C@H](CO)NC(=O)[C@H](CS)NC(=O)c1ccc(F)cc1)c1ccc(-c2c3nc(c(-c4c(F)cccc4F)c4ccc([nH]4)c(-c4c(F)cccc4F)c4nc(c(-c5c(F)cccc5F)c5ccc2[nH]5)C=C4)C=C3)cc1
REMARK SMILES IDX 7 1 6 2 5 3 4 4 3 5 1 6 2 7 32 9 33 10 85 11 34 12 84 13
REMARK SMILES IDX 35 14 36 15 37 16 78 17 38 18 83 19 77 20 79 21 39 22 82 23
REMARK SMILES IDX 76 24 75 25 40 27 66 28 49 29 65 30 50 31 53 32 64 33 80 34
REMARK SMILES IDX 51 35 52 36 63 38 81 39 54 40 41 41 42 42 47 43 43 44 44 45
REMARK SMILES IDX 46 46 48 47 45 48 67 49 68 50 73 51 69 52 70 53 72 54 74 55
REMARK SMILES IDX 71 56 55 57 56 58 61 59 57 60 58 61 60 62 62 63 59 64 8 65
REMARK SMILES IDX 9 66 10 67 11 68 12 70 13 71 16 72 17 73 18 75 19 76 22 77
REMARK SMILES IDX 23 78 24 80 25 81 26 82 31 83 27 84 30 85 28 86 29 87 20 88
REMARK SMILES IDX 21 89 14 91 15 92
REMARK H PARENT 3 8 79 26 53 37 10 69 16 74 22 79 21 90 15 93
REMARK Flexibility Score: inf
ROOT
ATOM      1  C   UNL A   1      31.422  28.772  25.665  1.00  0.00     0.002 C 
ENDROOT
BRANCH   1   2
ATOM      2  C   UNL A   1      32.607  29.668  26.051  1.00  0.00     0.002 C 
BRANCH   2   3
ATOM      3  C   UNL A   1      33.990  29.022  25.929  1.00  0.00     0.021 C 
BRANCH   3   4
ATOM      4  C   UNL A   1      34.682  28.747  27.260  1.00  0.00     0.116 C 
BRANCH   4   5
ATOM      5  N   UNL A   1      34.675  29.913  28.128  1.00  0.00    -0.352 N 
ATOM      6  O   UNL A   1      35.416  31.288  29.752  1.00  0.00    -0.269 OA
ATOM      7  C   UNL A   1      35.668  30.408  28.936  1.00  0.00     0.251 C 
ATOM      8  H   UNL A   1      33.833  30.423  28.137  1.00  0.00     0.163 HD
BRANCH   7   9
ATOM      9  C   UNL A   1      37.045  29.874  28.832  1.00  0.00     0.039 A 
ATOM     10  C   UNL A   1      37.755  29.970  27.634  1.00  0.00     0.014 A 
ATOM     11  C   UNL A   1      37.649  29.310  29.960  1.00  0.00     0.014 A 
ATOM     12  C   UNL A   1      39.015  29.394  27.530  1.00  0.00     0.010 A 
ATOM     13  C   UNL A   1      38.952  28.806  29.877  1.00  0.00     0.010 A 
ATOM     14  C   UNL A   1      39.638  28.827  28.655  1.00  0.00    -0.014 A 
BRANCH  14  15
ATOM     15  C   UNL A   1      41.040  28.357  28.529  1.00  0.00     0.031 A 
ATOM     16  C   UNL A   1      41.366  26.940  28.152  1.00  0.00     0.074 A 
ATOM     17  C   UNL A   1      42.028  29.260  28.689  1.00  0.00     0.049 A 
ATOM     18  N   UNL A   1      42.536  26.407  27.905  1.00  0.00    -0.248 NA
ATOM     19  C   UNL A   1      40.243  25.997  28.040  1.00  0.00     0.031 C 
ATOM     20  C   UNL A   1      41.829  30.661  29.072  1.00  0.00     0.029 A 
ATOM     21  N   UNL A   1      43.383  29.156  28.508  1.00  0.00    -0.354 N 
ATOM     22  C   UNL A   1      42.294  25.070  27.620  1.00  0.00     0.074 A 
ATOM     23  C   UNL A   1      40.867  24.863  27.745  1.00  0.00     0.031 C 
ATOM     24  C   UNL A   1      43.004  31.303  29.018  1.00  0.00     0.029 A 
ATOM     25  C   UNL A   1      44.047  30.350  28.655  1.00  0.00     0.049 A 
ATOM     26  H   UNL A   1      43.837  28.309  28.294  1.00  0.00     0.167 HD
ATOM     27  C   UNL A   1      43.185  24.109  27.275  1.00  0.00     0.037 A 
ATOM     28  C   UNL A   1      45.350  30.650  28.511  1.00  0.00     0.037 A 
ATOM     29  C   UNL A   1      44.603  24.324  27.135  1.00  0.00     0.049 A 
ATOM     30  C   UNL A   1      46.310  29.562  28.132  1.00  0.00     0.074 A 
ATOM     31  C   UNL A   1      45.579  23.414  26.769  1.00  0.00     0.029 A 
ATOM     32  N   UNL A   1      45.245  25.534  27.349  1.00  0.00    -0.354 N 
ATOM     33  N   UNL A   1      46.062  28.307  27.852  1.00  0.00    -0.248 NA
ATOM     34  C   UNL A   1      47.732  29.928  28.063  1.00  0.00     0.031 C 
ATOM     35  C   UNL A   1      46.817  24.063  26.794  1.00  0.00     0.029 A 
ATOM     36  C   UNL A   1      46.607  25.388  27.139  1.00  0.00     0.049 A 
ATOM     37  H   UNL A   1      44.800  26.373  27.611  1.00  0.00     0.167 HD
ATOM     38  C   UNL A   1      47.293  27.730  27.577  1.00  0.00     0.074 A 
ATOM     39  C   UNL A   1      48.284  28.782  27.690  1.00  0.00     0.031 C 
ATOM     40  C   UNL A   1      47.579  26.442  27.269  1.00  0.00     0.037 A 
BRANCH  27  41
ATOM     41  C   UNL A   1      42.666  22.726  27.020  1.00  0.00     0.057 A 
ATOM     42  C   UNL A   1      42.320  21.885  28.087  1.00  0.00     0.134 A 
ATOM     43  C   UNL A   1      42.609  22.189  25.729  1.00  0.00     0.134 A 
ATOM     44  F   UNL A   1      42.360  22.336  29.349  1.00  0.00    -0.206 F 
ATOM     45  C   UNL A   1      41.953  20.554  27.878  1.00  0.00     0.040 A 
ATOM     46  C   UNL A   1      42.228  20.865  25.506  1.00  0.00     0.040 A 
ATOM     47  F   UNL A   1      42.920  22.945  24.665  1.00  0.00    -0.206 F 
ATOM     48  C   UNL A   1      41.910  20.041  26.583  1.00  0.00     0.006 A 
ENDBRANCH  27  41
BRANCH  28  49
ATOM     49  C   UNL A   1      45.813  32.044  28.715  1.00  0.00     0.057 A 
ATOM     50  C   UNL A   1      45.833  32.969  27.665  1.00  0.00     0.134 A 
ATOM     51  C   UNL A   1      46.270  32.476  29.966  1.00  0.00     0.134 A 
ATOM     52  F   UNL A   1      45.414  32.612  26.442  1.00  0.00    -0.206 F 
ATOM     53  C   UNL A   1      46.308  34.268  27.843  1.00  0.00     0.040 A 
ATOM     54  C   UNL A   1      46.724  33.781  30.165  1.00  0.00     0.040 A 
ATOM     55  F   UNL A   1      46.259  31.641  31.015  1.00  0.00    -0.206 F 
ATOM     56  C   UNL A   1      46.752  34.678  29.099  1.00  0.00     0.006 A 
ENDBRANCH  28  49
BRANCH  40  57
ATOM     57  C   UNL A   1      49.019  26.102  27.042  1.00  0.00     0.057 A 
ATOM     58  C   UNL A   1      49.835  25.684  28.100  1.00  0.00     0.134 A 
ATOM     59  C   UNL A   1      49.607  26.224  25.776  1.00  0.00     0.134 A 
ATOM     60  F   UNL A   1      49.333  25.554  29.338  1.00  0.00    -0.206 F 
ATOM     61  C   UNL A   1      51.187  25.403  27.908  1.00  0.00     0.040 A 
ATOM     62  C   UNL A   1      50.953  25.925  25.568  1.00  0.00     0.040 A 
ATOM     63  F   UNL A   1      48.873  26.608  24.721  1.00  0.00    -0.206 F 
ATOM     64  C   UNL A   1      51.749  25.519  26.637  1.00  0.00     0.006 A 
ENDBRANCH  40  57
ENDBRANCH  14  15
ENDBRANCH   7   9
ENDBRANCH   4   5
ENDBRANCH   3   4
ENDBRANCH   2   3
ENDBRANCH   1   2
BRANCH   1  65
ATOM     65  C   UNL A   1      31.359  27.426  26.391  1.00  0.00     0.021 C 
BRANCH  65  66
ATOM     66  C   UNL A   1      30.623  26.337  25.613  1.00  0.00     0.116 C 
BRANCH  66  67
ATOM     67  N   UNL A   1      30.039  25.347  26.489  1.00  0.00    -0.354 N 
ATOM     68  C   UNL A   1      30.423  24.056  26.728  1.00  0.00     0.244 C 
ATOM     69  H   UNL A   1      29.247  25.647  26.991  1.00  0.00     0.163 HD
ATOM     70  O   UNL A   1      29.677  23.365  27.426  1.00  0.00    -0.273 OA
BRANCH  68  71
ATOM     71  C   UNL A   1      31.677  23.472  26.039  1.00  0.00     0.197 C 
BRANCH  71  72
ATOM     72  N   UNL A   1      32.505  22.707  26.986  1.00  0.00    -0.340 N 
ATOM     73  C   UNL A   1      33.318  21.627  26.823  1.00  0.00     0.244 C 
ATOM     74  H   UNL A   1      32.462  23.038  27.912  1.00  0.00     0.164 HD
ATOM     75  O   UNL A   1      33.993  21.301  27.807  1.00  0.00    -0.273 OA
BRANCH  73  76
ATOM     76  C   UNL A   1      33.587  20.944  25.461  1.00  0.00     0.181 C 
BRANCH  76  77
ATOM     77  N   UNL A   1      34.985  21.052  25.044  1.00  0.00    -0.339 N 
ATOM     78  C   UNL A   1      35.636  22.068  24.399  1.00  0.00     0.251 C 
ATOM     79  H   UNL A   1      35.545  20.273  25.262  1.00  0.00     0.164 HD
ATOM     80  O   UNL A   1      36.801  21.937  24.034  1.00  0.00    -0.269 OA
BRANCH  78  81
ATOM     81  C   UNL A   1      34.934  23.338  24.153  1.00  0.00     0.040 A 
ATOM     82  C   UNL A   1      34.168  23.506  22.992  1.00  0.00     0.017 A 
ATOM     83  C   UNL A   1      35.040  24.363  25.096  1.00  0.00     0.017 A 
ATOM     84  C   UNL A   1      33.572  24.739  22.737  1.00  0.00     0.040 A 
ATOM     85  C   UNL A   1      34.434  25.591  24.839  1.00  0.00     0.040 A 
ATOM     86  C   UNL A   1      33.719  25.772  23.657  1.00  0.00     0.123 A 
ATOM     87  F   UNL A   1      33.161  26.962  23.401  1.00  0.00    -0.207 F 
ENDBRANCH  78  81
ENDBRANCH  76  77
BRANCH  76  88
ATOM     88  C   UNL A   1      33.069  19.499  25.490  1.00  0.00     0.101 C 
BRANCH  88  89
ATOM     89  S   UNL A   1      33.560  18.484  24.057  1.00  0.00    -0.177 SA
ATOM     90  H   UNL A   1      34.497  17.578  24.444  1.00  0.00     0.102 HD
ENDBRANCH  88  89
ENDBRANCH  76  88
ENDBRANCH  73  76
ENDBRANCH  71  72
BRANCH  71  91
ATOM     91  C   UNL A   1      31.235  22.581  24.863  1.00  0.00     0.191 C 
BRANCH  91  92
ATOM     92  O   UNL A   1      30.499  23.366  23.928  1.00  0.00    -0.394 OA
ATOM     93  H   UNL A   1      29.573  23.418  24.208  1.00  0.00     0.210 HD
ENDBRANCH  91  92
ENDBRANCH  71  91
ENDBRANCH  68  71
ENDBRANCH  66  67
ENDBRANCH  65  66
ENDBRANCH   1  65
TORSDOF 21
ENDMDL
MODEL 2
REMARK VINA RESULT:     -10.4      2.100      7.463
REMARK SMILES O=C(NCCCCCCNC(=O)[C@H](CO)NC(=O)[C@H](CS)NC(=O)c1ccc(F)cc1)c1ccc(-c2c3nc(c(-c4c(F)cccc4F)c4ccc([nH]4)c(-c4c(F)cccc4F)c4nc(c(-c5c(F)cccc5F)c5ccc2[nH]5)C=C4)C=C3)cc1
REMARK SMILES IDX 7 1 6 2 5 3 4 4 3 5 1 6 2 7 32 9 33 10 85 11 34 12 84 13
REMARK SMILES IDX 35 14 36 15 37 16 78 17 38 18 83 19 77 20 79 21 39 22 82 23
REMARK SMILES IDX 76 24 75 25 40 27 66 28 49 29 65 30 50 31 53 32 64 33 80 34
REMARK SMILES IDX 51 35 52 36 63 38 81 39 54 40 41 41 42 42 47 43 43 44 44 45
REMARK SMILES IDX 46 46 48 47 45 48 67 49 68 50 73 51 69 52 70 53 72 54 74 55
REMARK SMILES IDX 71 56 55 57 56 58 61 59 57 60 58 61 60 62 62 63 59 64 8 65
REMARK SMILES IDX 9 66 10 67 11 68 12 70 13 71 16 72 17 73 18 75 19 76 22 77
REMARK SMILES IDX 23 78 24 80 25 81 26 82 31 83 27 84 30 85 28 86 29 87 20 88
REMARK SMILES IDX 21 89 14 91 15 92
REMARK H PARENT 3 8 79 26 53 37 10 69 16 74 22 79 21 90 15 93
REMARK Flexibility Score: inf
ROOT
ATOM      1  C   UNL A   1      37.358  21.690  24.670  1.00  0.00     0.002 C 
ENDROOT
BRANCH   1   2
ATOM      2  C   UNL A   1      36.958  20.208  24.646  1.00  0.00     0.002 C 
BRANCH   2   3
ATOM      3  C   UNL A   1      37.981  19.238  25.244  1.00  0.00     0.021 C 
BRANCH   3   4
ATOM      4  C   UNL A   1      39.268  19.894  25.733  1.00  0.00     0.116 C 
BRANCH   4   5
ATOM      5  N   UNL A   1      40.368  18.946  25.805  1.00  0.00    -0.352 N 
ATOM      6  O   UNL A   1      42.517  18.269  25.855  1.00  0.00    -0.269 OA
ATOM      7  C   UNL A   1      41.703  19.172  26.028  1.00  0.00     0.251 C 
ATOM      8  H   UNL A   1      40.117  18.003  25.677  1.00  0.00     0.163 HD
BRANCH   7   9
ATOM      9  C   UNL A   1      42.168  20.507  26.468  1.00  0.00     0.039 A 
ATOM     10  C   UNL A   1      42.655  21.430  25.542  1.00  0.00     0.014 A 
ATOM     11  C   UNL A   1      42.074  20.854  27.820  1.00  0.00     0.014 A 
ATOM     12  C   UNL A   1      43.160  22.648  25.980  1.00  0.00     0.010 A 
ATOM     13  C   UNL A   1      42.506  22.114  28.249  1.00  0.00     0.010 A 
ATOM     14  C   UNL A   1      43.071  23.014  27.334  1.00  0.00    -0.014 A 
BRANCH  14  15
ATOM     15  C   UNL A   1      43.490  24.382  27.729  1.00  0.00     0.031 A 
ATOM     16  C   UNL A   1      44.917  24.834  27.609  1.00  0.00     0.074 A 
ATOM     17  C   UNL A   1      42.537  25.246  28.132  1.00  0.00     0.049 A 
ATOM     18  N   UNL A   1      45.419  26.026  27.818  1.00  0.00    -0.248 NA
ATOM     19  C   UNL A   1      45.912  23.828  27.209  1.00  0.00     0.031 C 
ATOM     20  C   UNL A   1      41.120  24.911  28.302  1.00  0.00     0.029 A 
ATOM     21  N   UNL A   1      42.598  26.583  28.427  1.00  0.00    -0.354 N 
ATOM     22  C   UNL A   1      46.783  25.912  27.586  1.00  0.00     0.074 A 
ATOM     23  C   UNL A   1      47.038  24.529  27.241  1.00  0.00     0.031 C 
ATOM     24  C   UNL A   1      40.435  26.026  28.590  1.00  0.00     0.029 A 
ATOM     25  C   UNL A   1      41.370  27.142  28.684  1.00  0.00     0.049 A 
ATOM     26  H   UNL A   1      43.440  27.093  28.453  1.00  0.00     0.167 HD
ATOM     27  C   UNL A   1      47.730  26.879  27.647  1.00  0.00     0.037 A 
ATOM     28  C   UNL A   1      41.028  28.413  28.961  1.00  0.00     0.037 A 
ATOM     29  C   UNL A   1      47.467  28.257  27.973  1.00  0.00     0.049 A 
ATOM     30  C   UNL A   1      42.101  29.459  29.025  1.00  0.00     0.074 A 
ATOM     31  C   UNL A   1      48.362  29.311  28.039  1.00  0.00     0.029 A 
ATOM     32  N   UNL A   1      46.218  28.774  28.284  1.00  0.00    -0.354 N 
ATOM     33  N   UNL A   1      43.384  29.336  28.788  1.00  0.00    -0.248 NA
ATOM     34  C   UNL A   1      41.683  30.815  29.406  1.00  0.00     0.031 C 
ATOM     35  C   UNL A   1      47.662  30.459  28.422  1.00  0.00     0.029 A 
ATOM     36  C   UNL A   1      46.324  30.128  28.559  1.00  0.00     0.049 A 
ATOM     37  H   UNL A   1      45.381  28.255  28.307  1.00  0.00     0.167 HD
ATOM     38  C   UNL A   1      43.928  30.595  28.994  1.00  0.00     0.074 A 
ATOM     39  C   UNL A   1      42.830  31.475  29.342  1.00  0.00     0.031 C 
ATOM     40  C   UNL A   1      45.223  30.985  28.915  1.00  0.00     0.037 A 
BRANCH  27  41
ATOM     41  C   UNL A   1      49.149  26.494  27.354  1.00  0.00     0.057 A 
ATOM     42  C   UNL A   1      49.623  26.461  26.035  1.00  0.00     0.134 A 
ATOM     43  C   UNL A   1      50.013  26.056  28.363  1.00  0.00     0.134 A 
ATOM     44  F   UNL A   1      48.841  26.861  25.022  1.00  0.00    -0.206 F 
ATOM     45  C   UNL A   1      50.901  25.987  25.731  1.00  0.00     0.040 A 
ATOM     46  C   UNL A   1      51.299  25.596  28.073  1.00  0.00     0.040 A 
ATOM     47  F   UNL A   1      49.623  26.071  29.647  1.00  0.00    -0.206 F 
ATOM     48  C   UNL A   1      51.741  25.550  26.753  1.00  0.00     0.006 A 
ENDBRANCH  27  41
BRANCH  28  49
ATOM     49  C   UNL A   1      39.604  28.762  29.187  1.00  0.00     0.057 A 
ATOM     50  C   UNL A   1      39.012  28.635  30.449  1.00  0.00     0.134 A 
ATOM     51  C   UNL A   1      38.795  29.209  28.135  1.00  0.00     0.134 A 
ATOM     52  F   UNL A   1      39.734  28.206  31.494  1.00  0.00    -0.206 F 
ATOM     53  C   UNL A   1      37.663  28.921  30.656  1.00  0.00     0.040 A 
ATOM     54  C   UNL A   1      37.449  29.523  28.333  1.00  0.00     0.040 A 
ATOM     55  F   UNL A   1      39.310  29.366  26.907  1.00  0.00    -0.206 F 
ATOM     56  C   UNL A   1      36.878  29.370  29.595  1.00  0.00     0.006 A 
ENDBRANCH  28  49
BRANCH  40  57
ATOM     57  C   UNL A   1      45.520  32.421  29.216  1.00  0.00     0.057 A 
ATOM     58  C   UNL A   1      45.490  33.389  28.205  1.00  0.00     0.134 A 
ATOM     59  C   UNL A   1      45.874  32.838  30.506  1.00  0.00     0.134 A 
ATOM     60  F   UNL A   1      45.166  33.051  26.948  1.00  0.00    -0.206 F 
ATOM     61  C   UNL A   1      45.805  34.722  28.467  1.00  0.00     0.040 A 
ATOM     62  C   UNL A   1      46.169  34.173  30.784  1.00  0.00     0.040 A 
ATOM     63  F   UNL A   1      45.908  31.958  31.519  1.00  0.00    -0.206 F 
ATOM     64  C   UNL A   1      46.141  35.118  29.761  1.00  0.00     0.006 A 
ENDBRANCH  40  57
ENDBRANCH  14  15
ENDBRANCH   7   9
ENDBRANCH   4   5
ENDBRANCH   3   4
ENDBRANCH   2   3
ENDBRANCH   1   2
BRANCH   1  65
ATOM     65  C   UNL A   1      36.674  22.567  23.618  1.00  0.00     0.021 C 
BRANCH  65  66
ATOM     66  C   UNL A   1      35.357  23.181  24.087  1.00  0.00     0.116 C 
BRANCH  66  67
ATOM     67  N   UNL A   1      34.289  22.962  23.137  1.00  0.00    -0.354 N 
ATOM     68  C   UNL A   1      33.226  22.104  23.199  1.00  0.00     0.244 C 
ATOM     69  H   UNL A   1      34.332  23.515  22.324  1.00  0.00     0.163 HD
ATOM     70  O   UNL A   1      32.519  22.007  22.195  1.00  0.00    -0.273 OA
BRANCH  68  71
ATOM     71  C   UNL A   1      33.015  21.209  24.441  1.00  0.00     0.197 C 
BRANCH  71  72
ATOM     72  N   UNL A   1      31.699  21.445  25.059  1.00  0.00    -0.340 N 
ATOM     73  C   UNL A   1      31.281  22.324  26.011  1.00  0.00     0.244 C 
ATOM     74  H   UNL A   1      30.987  20.855  24.719  1.00  0.00     0.164 HD
ATOM     75  O   UNL A   1      30.062  22.364  26.216  1.00  0.00    -0.273 OA
BRANCH  73  76
ATOM     76  C   UNL A   1      32.195  23.381  26.673  1.00  0.00     0.181 C 
BRANCH  76  77
ATOM     77  N   UNL A   1      31.476  24.606  27.025  1.00  0.00    -0.339 N 
ATOM     78  C   UNL A   1      31.305  25.762  26.314  1.00  0.00     0.251 C 
ATOM     79  H   UNL A   1      31.048  24.596  27.911  1.00  0.00     0.164 HD
ATOM     80  O   UNL A   1      30.751  26.735  26.819  1.00  0.00    -0.269 OA
BRANCH  78  81
ATOM     81  C   UNL A   1      31.779  25.834  24.922  1.00  0.00     0.040 A 
ATOM     82  C   UNL A   1      30.969  25.375  23.877  1.00  0.00     0.017 A 
ATOM     83  C   UNL A   1      33.043  26.374  24.667  1.00  0.00     0.017 A 
ATOM     84  C   UNL A   1      31.463  25.380  22.574  1.00  0.00     0.040 A 
ATOM     85  C   UNL A   1      33.527  26.385  23.361  1.00  0.00     0.040 A 
ATOM     86  C   UNL A   1      32.740  25.876  22.329  1.00  0.00     0.123 A 
ATOM     87  F   UNL A   1      33.220  25.864  21.080  1.00  0.00    -0.207 F 
ENDBRANCH  78  81
ENDBRANCH  76  77
BRANCH  76  88
ATOM     88  C   UNL A   1      32.947  22.755  27.856  1.00  0.00     0.101 C 
BRANCH  88  89
ATOM     89  S   UNL A   1      34.493  21.897  27.408  1.00  0.00    -0.177 SA
ATOM     90  H   UNL A   1      34.583  20.733  28.105  1.00  0.00     0.102 HD
ENDBRANCH  88  89
ENDBRANCH  76  88
ENDBRANCH  73  76
ENDBRANCH  71  72
BRANCH  71  91
ATOM     91  C   UNL A   1      33.162  19.733  24.029  1.00  0.00     0.191 C 
BRANCH  91  92
ATOM     92  O   UNL A   1      32.156  19.408  23.074  1.00  0.00    -0.394 OA
ATOM     93  H   UNL A   1      31.505  18.813  23.478  1.00  0.00     0.210 HD
ENDBRANCH  91  92
ENDBRANCH  71  91
ENDBRANCH  68  71
ENDBRANCH  66  67
ENDBRANCH  65  66
ENDBRANCH   1  65
TORSDOF 21
ENDMDL
MODEL 3
REMARK VINA RESULT:     -10.3      4.756      8.271
REMARK SMILES O=C(NCCCCCCNC(=O)[C@H](CO)NC(=O)[C@H](CS)NC(=O)c1ccc(F)cc1)c1ccc(-c2c3nc(c(-c4c(F)cccc4F)c4ccc([nH]4)c(-c4c(F)cccc4F)c4nc(c(-c5c(F)cccc5F)c5ccc2[nH]5)C=C4)C=C3)cc1
REMARK SMILES IDX 7 1 6 2 5 3 4 4 3 5 1 6 2 7 32 9 33 10 85 11 34 12 84 13
REMARK SMILES IDX 35 14 36 15 37 16 78 17 38 18 83 19 77 20 79 21 39 22 82 23
REMARK SMILES IDX 76 24 75 25 40 27 66 28 49 29 65 30 50 31 53 32 64 33 80 34
REMARK SMILES IDX 51 35 52 36 63 38 81 39 54 40 41 41 42 42 47 43 43 44 44 45
REMARK SMILES IDX 46 46 48 47 45 48 67 49 68 50 73 51 69 52 70 53 72 54 74 55
REMARK SMILES IDX 71 56 55 57 56 58 61 59 57 60 58 61 60 62 62 63 59 64 8 65
REMARK SMILES IDX 9 66 10 67 11 68 12 70 13 71 16 72 17 73 18 75 19 76 22 77
REMARK SMILES IDX 23 78 24 80 25 81 26 82 31 83 27 84 30 85 28 86 29 87 20 88
REMARK SMILES IDX 21 89 14 91 15 92
REMARK H PARENT 3 8 79 26 53 37 10 69 16 74 22 79 21 90 15 93
REMARK Flexibility Score: inf
ROOT
ATOM      1  C   UNL A   1      32.145  29.620  26.940  1.00  0.00     0.002 C 
ENDROOT
BRANCH   1   2
ATOM      2  C   UNL A   1      31.435  30.629  26.027  1.00  0.00     0.002 C 
BRANCH   2   3
ATOM      3  C   UNL A   1      31.341  32.057  26.569  1.00  0.00     0.021 C 
BRANCH   3   4
ATOM      4  C   UNL A   1      32.679  32.679  26.957  1.00  0.00     0.116 C 
BRANCH   4   5
ATOM      5  N   UNL A   1      32.512  33.967  27.609  1.00  0.00    -0.352 N 
ATOM      6  O   UNL A   1      32.771  35.519  29.222  1.00  0.00    -0.269 OA
ATOM      7  C   UNL A   1      33.184  34.498  28.682  1.00  0.00     0.251 C 
ATOM      8  H   UNL A   1      31.814  34.545  27.223  1.00  0.00     0.163 HD
BRANCH   7   9
ATOM      9  C   UNL A   1      34.402  33.834  29.197  1.00  0.00     0.039 A 
ATOM     10  C   UNL A   1      35.669  34.293  28.834  1.00  0.00     0.014 A 
ATOM     11  C   UNL A   1      34.275  32.765  30.090  1.00  0.00     0.014 A 
ATOM     12  C   UNL A   1      36.801  33.611  29.262  1.00  0.00     0.010 A 
ATOM     13  C   UNL A   1      35.419  32.131  30.588  1.00  0.00     0.010 A 
ATOM     14  C   UNL A   1      36.692  32.537  30.163  1.00  0.00    -0.014 A 
BRANCH  14  15
ATOM     15  C   UNL A   1      37.935  31.936  30.705  1.00  0.00     0.031 A 
ATOM     16  C   UNL A   1      38.447  32.283  32.073  1.00  0.00     0.074 A 
ATOM     17  C   UNL A   1      38.563  31.002  29.963  1.00  0.00     0.049 A 
ATOM     18  N   UNL A   1      39.460  31.767  32.724  1.00  0.00    -0.248 NA
ATOM     19  C   UNL A   1      37.741  33.343  32.808  1.00  0.00     0.031 C 
ATOM     20  C   UNL A   1      38.164  30.597  28.611  1.00  0.00     0.029 A 
ATOM     21  N   UNL A   1      39.633  30.194  30.247  1.00  0.00    -0.354 N 
ATOM     22  C   UNL A   1      39.520  32.443  33.935  1.00  0.00     0.074 A 
ATOM     23  C   UNL A   1      38.455  33.424  33.924  1.00  0.00     0.031 C 
ATOM     24  C   UNL A   1      38.924  29.565  28.218  1.00  0.00     0.029 A 
ATOM     25  C   UNL A   1      39.900  29.274  29.262  1.00  0.00     0.049 A 
ATOM     26  H   UNL A   1      40.159  30.265  31.076  1.00  0.00     0.167 HD
ATOM     27  C   UNL A   1      40.381  32.251  34.963  1.00  0.00     0.037 A 
ATOM     28  C   UNL A   1      40.825  28.299  29.203  1.00  0.00     0.037 A 
ATOM     29  C   UNL A   1      41.428  31.262  34.975  1.00  0.00     0.049 A 
ATOM     30  C   UNL A   1      41.766  28.116  30.356  1.00  0.00     0.074 A 
ATOM     31  C   UNL A   1      42.336  30.982  35.983  1.00  0.00     0.029 A 
ATOM     32  N   UNL A   1      41.704  30.387  33.935  1.00  0.00    -0.354 N 
ATOM     33  N   UNL A   1      41.799  28.755  31.499  1.00  0.00    -0.248 NA
ATOM     34  C   UNL A   1      42.804  27.088  30.207  1.00  0.00     0.031 C 
ATOM     35  C   UNL A   1      43.183  29.962  35.540  1.00  0.00     0.029 A 
ATOM     36  C   UNL A   1      42.779  29.580  34.271  1.00  0.00     0.049 A 
ATOM     37  H   UNL A   1      41.210  30.346  33.084  1.00  0.00     0.167 HD
ATOM     38  C   UNL A   1      42.861  28.211  32.206  1.00  0.00     0.074 A 
ATOM     39  C   UNL A   1      43.426  27.166  31.375  1.00  0.00     0.031 C 
ATOM     40  C   UNL A   1      43.335  28.554  33.428  1.00  0.00     0.037 A 
BRANCH  27  41
ATOM     41  C   UNL A   1      40.240  33.125  36.173  1.00  0.00     0.057 A 
ATOM     42  C   UNL A   1      41.060  34.249  36.342  1.00  0.00     0.134 A 
ATOM     43  C   UNL A   1      39.369  32.796  37.218  1.00  0.00     0.134 A 
ATOM     44  F   UNL A   1      41.921  34.613  35.381  1.00  0.00    -0.206 F 
ATOM     45  C   UNL A   1      41.030  35.004  37.517  1.00  0.00     0.040 A 
ATOM     46  C   UNL A   1      39.318  33.553  38.390  1.00  0.00     0.040 A 
ATOM     47  F   UNL A   1      38.552  31.738  37.113  1.00  0.00    -0.206 F 
ATOM     48  C   UNL A   1      40.158  34.653  38.546  1.00  0.00     0.006 A 
ENDBRANCH  27  41
BRANCH  28  49
ATOM     49  C   UNL A   1      40.893  27.418  28.011  1.00  0.00     0.057 A 
ATOM     50  C   UNL A   1      40.207  26.200  27.964  1.00  0.00     0.134 A 
ATOM     51  C   UNL A   1      41.668  27.768  26.899  1.00  0.00     0.134 A 
ATOM     52  F   UNL A   1      39.453  25.807  29.001  1.00  0.00    -0.206 F 
ATOM     53  C   UNL A   1      40.303  25.349  26.862  1.00  0.00     0.040 A 
ATOM     54  C   UNL A   1      41.753  26.939  25.780  1.00  0.00     0.040 A 
ATOM     55  F   UNL A   1      42.334  28.932  26.879  1.00  0.00    -0.206 F 
ATOM     56  C   UNL A   1      41.076  25.721  25.764  1.00  0.00     0.006 A 
ENDBRANCH  28  49
BRANCH  40  57
ATOM     57  C   UNL A   1      44.524  27.797  33.933  1.00  0.00     0.057 A 
ATOM     58  C   UNL A   1      45.824  28.238  33.661  1.00  0.00     0.134 A 
ATOM     59  C   UNL A   1      44.377  26.608  34.658  1.00  0.00     0.134 A 
ATOM     60  F   UNL A   1      46.031  29.366  32.965  1.00  0.00    -0.206 F 
ATOM     61  C   UNL A   1      46.939  27.519  34.092  1.00  0.00     0.040 A 
ATOM     62  C   UNL A   1      45.485  25.893  35.113  1.00  0.00     0.040 A 
ATOM     63  F   UNL A   1      43.156  26.143  34.960  1.00  0.00    -0.206 F 
ATOM     64  C   UNL A   1      46.771  26.345  34.825  1.00  0.00     0.006 A 
ENDBRANCH  40  57
ENDBRANCH  14  15
ENDBRANCH   7   9
ENDBRANCH   4   5
ENDBRANCH   3   4
ENDBRANCH   2   3
ENDBRANCH   1   2
BRANCH   1  65
ATOM     65  C   UNL A   1      31.425  28.280  27.115  1.00  0.00     0.021 C 
BRANCH  65  66
ATOM     66  C   UNL A   1      31.750  27.256  26.030  1.00  0.00     0.116 C 
BRANCH  66  67
ATOM     67  N   UNL A   1      30.812  27.318  24.930  1.00  0.00    -0.354 N 
ATOM     68  C   UNL A   1      31.044  27.472  23.591  1.00  0.00     0.244 C 
ATOM     69  H   UNL A   1      29.864  27.235  25.183  1.00  0.00     0.163 HD
ATOM     70  O   UNL A   1      30.062  27.628  22.862  1.00  0.00    -0.273 OA
BRANCH  68  71
ATOM     71  C   UNL A   1      32.490  27.571  23.053  1.00  0.00     0.197 C 
BRANCH  71  72
ATOM     72  N   UNL A   1      32.642  26.847  21.781  1.00  0.00    -0.340 N 
ATOM     73  C   UNL A   1      33.119  25.606  21.487  1.00  0.00     0.244 C 
ATOM     74  H   UNL A   1      32.344  27.357  20.993  1.00  0.00     0.164 HD
ATOM     75  O   UNL A   1      32.984  25.235  20.314  1.00  0.00    -0.273 OA
BRANCH  73  76
ATOM     76  C   UNL A   1      33.611  24.594  22.548  1.00  0.00     0.181 C 
BRANCH  76  77
ATOM     77  N   UNL A   1      33.903  25.225  23.835  1.00  0.00    -0.339 N 
ATOM     78  C   UNL A   1      34.526  24.720  24.943  1.00  0.00     0.251 C 
ATOM     79  H   UNL A   1      33.606  26.160  23.915  1.00  0.00     0.164 HD
ATOM     80  O   UNL A   1      34.590  25.373  25.981  1.00  0.00    -0.269 OA
BRANCH  78  81
ATOM     81  C   UNL A   1      35.137  23.382  24.884  1.00  0.00     0.040 A 
ATOM     82  C   UNL A   1      34.490  22.286  25.468  1.00  0.00     0.017 A 
ATOM     83  C   UNL A   1      36.364  23.227  24.233  1.00  0.00     0.017 A 
ATOM     84  C   UNL A   1      35.117  21.042  25.470  1.00  0.00     0.040 A 
ATOM     85  C   UNL A   1      36.981  21.979  24.231  1.00  0.00     0.040 A 
ATOM     86  C   UNL A   1      36.360  20.902  24.860  1.00  0.00     0.123 A 
ATOM     87  F   UNL A   1      36.969  19.710  24.880  1.00  0.00    -0.207 F 
ENDBRANCH  78  81
ENDBRANCH  76  77
BRANCH  76  88
ATOM     88  C   UNL A   1      32.620  23.425  22.653  1.00  0.00     0.101 C 
BRANCH  88  89
ATOM     89  S   UNL A   1      31.021  23.846  23.421  1.00  0.00    -0.177 SA
ATOM     90  H   UNL A   1      30.127  24.180  22.453  1.00  0.00     0.102 HD
ENDBRANCH  88  89
ENDBRANCH  76  88
ENDBRANCH  73  76
ENDBRANCH  71  72
BRANCH  71  91
ATOM     91  C   UNL A   1      32.862  29.055  22.881  1.00  0.00     0.191 C 
BRANCH  91  92
ATOM     92  O   UNL A   1      34.046  29.333  23.623  1.00  0.00    -0.394 OA
ATOM     93  H   UNL A   1      34.217  30.287  23.615  1.00  0.00     0.210 HD
ENDBRANCH  91  92
ENDBRANCH  71  91
ENDBRANCH  68  71
ENDBRANCH  66  67
ENDBRANCH  65  66
ENDBRANCH   1  65
TORSDOF 21
ENDMDL
