MODEL 1
REMARK VINA RESULT:     -12.3      0.000      0.000
REMARK SMILES CC1(C)Oc2ccc(NC(=O)[C@H]3CC=CC[C@@H]3C(=O)NCCCCCCNC(=O)c3ccc(-c4c5nc(c(-c6c(F)cccc6F)c6ccc([nH]6)c(-c6c(F)cccc6F)c6nc(c(-c7c(F)cccc7F)c7ccc4[nH]7)C=C6)C=C5)cc3)cc2NC1=O
REMARK SMILES IDX 23 1 22 2 21 3 20 4 18 5 19 6 17 8 12 9 13 10 14 11 16 12
REMARK SMILES IDX 15 13 10 14 9 15 11 17 8 18 1 19 2 20 3 21 4 22 87 23 5 24
REMARK SMILES IDX 86 25 88 26 6 27 85 28 7 30 84 31 24 32 25 33 26 34 27 35
REMARK SMILES IDX 28 36 29 38 30 39 31 40 83 41 32 42 82 43 33 44 34 45 35 46
REMARK SMILES IDX 76 47 36 48 81 49 75 50 77 51 37 52 80 53 74 54 73 55 38 57
REMARK SMILES IDX 64 58 47 59 63 60 48 61 51 62 62 63 78 64 49 65 50 66 61 68
REMARK SMILES IDX 79 69 52 70 39 71 40 72 45 73 41 74 42 75 44 76 46 77 43 78
REMARK SMILES IDX 65 79 66 80 71 81 67 82 68 83 70 84 72 85 69 86 53 87 54 88
REMARK SMILES IDX 59 89 55 90 56 91 58 92 60 93 57 94
REMARK H PARENT 20 7 9 16 86 29 27 37 77 56 51 67
REMARK Flexibility Score: inf
ROOT
ATOM      1  C   UNL A   1      35.253  23.031  23.726  1.00  0.00     0.002 C 
ENDROOT
BRANCH   1   2
ATOM      2  C   UNL A   1      34.584  23.280  22.374  1.00  0.00     0.021 C 
BRANCH   2   3
ATOM      3  C   UNL A   1      33.327  24.147  22.386  1.00  0.00     0.116 C 
BRANCH   3   4
ATOM      4  N   UNL A   1      33.536  25.577  22.435  1.00  0.00    -0.356 N 
ATOM      5  C   UNL A   1      33.524  26.405  23.535  1.00  0.00     0.224 C 
ATOM      6  O   UNL A   1      33.797  27.590  23.352  1.00  0.00    -0.275 OA
ATOM      7  H   UNL A   1      33.710  26.015  21.571  1.00  0.00     0.163 HD
BRANCH   5   8
ATOM      8  C   UNL A   1      33.165  25.836  24.929  1.00  0.00     0.095 C 
ATOM      9  C   UNL A   1      31.659  25.488  25.035  1.00  0.00     0.095 C 
ATOM     10  C   UNL A   1      30.864  26.839  25.027  1.00  0.00     0.041 C 
ATOM     11  C   UNL A   1      31.423  27.869  25.973  1.00  0.00    -0.030 C 
ATOM     12  C   UNL A   1      33.644  26.753  26.063  1.00  0.00     0.041 C 
ATOM     13  C   UNL A   1      32.670  27.816  26.455  1.00  0.00    -0.030 C 
BRANCH   9  14
ATOM     14  C   UNL A   1      31.059  24.616  26.189  1.00  0.00     0.228 C 
ATOM     15  N   UNL A   1      31.367  23.347  26.573  1.00  0.00    -0.326 N 
ATOM     16  H   UNL A   1      30.922  23.095  27.414  1.00  0.00     0.169 HD
ATOM     17  O   UNL A   1      30.133  25.095  26.870  1.00  0.00    -0.274 OA
BRANCH  15  18
ATOM     18  C   UNL A   1      32.158  22.316  26.066  1.00  0.00     0.043 A 
ATOM     19  C   UNL A   1      34.426  16.822  23.996  1.00  0.00     0.067 C 
ATOM     20  C   UNL A   1      33.328  17.818  24.373  1.00  0.00     0.182 C 
ATOM     21  C   UNL A   1      32.155  17.045  25.006  1.00  0.00     0.067 C 
ATOM     22  O   UNL A   1      33.946  18.677  25.337  1.00  0.00    -0.476 OA
ATOM     23  C   UNL A   1      32.757  18.542  23.131  1.00  0.00     0.268 C 
ATOM     24  C   UNL A   1      33.400  19.920  25.437  1.00  0.00     0.144 A 
ATOM     25  N   UNL A   1      32.113  19.725  23.425  1.00  0.00    -0.319 N 
ATOM     26  O   UNL A   1      32.753  18.075  21.996  1.00  0.00    -0.270 OA
ATOM     27  C   UNL A   1      33.964  20.762  26.376  1.00  0.00     0.051 A 
ATOM     28  C   UNL A   1      32.383  20.402  24.618  1.00  0.00     0.086 A 
ATOM     29  H   UNL A   1      31.458  20.096  22.791  1.00  0.00     0.170 HD
ATOM     30  C   UNL A   1      33.387  22.005  26.606  1.00  0.00     0.030 A 
ATOM     31  C   UNL A   1      31.725  21.588  24.952  1.00  0.00     0.056 A 
ENDBRANCH  15  18
ENDBRANCH   9  14
ENDBRANCH   5   8
ENDBRANCH   3   4
ENDBRANCH   2   3
ENDBRANCH   1   2
BRANCH   1  32
ATOM     32  C   UNL A   1      36.718  22.581  23.698  1.00  0.00     0.002 C 
BRANCH  32  33
ATOM     33  C   UNL A   1      37.035  21.201  24.281  1.00  0.00     0.021 C 
BRANCH  33  34
ATOM     34  C   UNL A   1      38.006  21.157  25.459  1.00  0.00     0.116 C 
BRANCH  34  35
ATOM     35  N   UNL A   1      38.895  20.005  25.458  1.00  0.00    -0.352 N 
ATOM     36  C   UNL A   1      40.195  19.896  25.899  1.00  0.00     0.251 C 
ATOM     37  H   UNL A   1      38.509  19.180  25.085  1.00  0.00     0.163 HD
ATOM     38  O   UNL A   1      40.806  18.839  25.753  1.00  0.00    -0.269 OA
BRANCH  36  39
ATOM     39  C   UNL A   1      40.882  21.060  26.504  1.00  0.00     0.039 A 
ATOM     40  C   UNL A   1      40.785  21.328  27.870  1.00  0.00     0.014 A 
ATOM     41  C   UNL A   1      41.622  21.916  25.679  1.00  0.00     0.014 A 
ATOM     42  C   UNL A   1      41.262  22.536  28.373  1.00  0.00     0.010 A 
ATOM     43  C   UNL A   1      42.172  23.091  26.203  1.00  0.00     0.010 A 
ATOM     44  C   UNL A   1      41.944  23.441  27.543  1.00  0.00    -0.014 A 
BRANCH  44  45
ATOM     45  C   UNL A   1      42.366  24.762  28.086  1.00  0.00     0.031 A 
ATOM     46  C   UNL A   1      41.356  25.864  28.290  1.00  0.00     0.074 A 
ATOM     47  C   UNL A   1      43.644  24.949  28.470  1.00  0.00     0.049 A 
ATOM     48  N   UNL A   1      41.532  27.071  28.772  1.00  0.00    -0.248 NA
ATOM     49  C   UNL A   1      39.966  25.575  27.902  1.00  0.00     0.031 C 
ATOM     50  C   UNL A   1      44.716  23.960  28.350  1.00  0.00     0.029 A 
ATOM     51  N   UNL A   1      44.252  26.027  29.064  1.00  0.00    -0.354 N 
ATOM     52  C   UNL A   1      40.282  27.680  28.744  1.00  0.00     0.074 A 
ATOM     53  C   UNL A   1      39.364  26.728  28.156  1.00  0.00     0.031 C 
ATOM     54  C   UNL A   1      45.836  24.456  28.898  1.00  0.00     0.029 A 
ATOM     55  C   UNL A   1      45.579  25.818  29.353  1.00  0.00     0.049 A 
ATOM     56  H   UNL A   1      43.782  26.868  29.265  1.00  0.00     0.167 HD
ATOM     57  C   UNL A   1      39.924  28.911  29.186  1.00  0.00     0.037 A 
ATOM     58  C   UNL A   1      46.491  26.638  29.909  1.00  0.00     0.037 A 
ATOM     59  C   UNL A   1      40.832  29.861  29.776  1.00  0.00     0.049 A 
ATOM     60  C   UNL A   1      46.082  28.027  30.313  1.00  0.00     0.074 A 
ATOM     61  C   UNL A   1      40.567  31.140  30.235  1.00  0.00     0.029 A 
ATOM     62  N   UNL A   1      42.182  29.633  29.992  1.00  0.00    -0.354 N 
ATOM     63  N   UNL A   1      44.898  28.586  30.274  1.00  0.00    -0.248 NA
ATOM     64  C   UNL A   1      47.144  28.900  30.831  1.00  0.00     0.031 C 
ATOM     65  C   UNL A   1      41.763  31.697  30.700  1.00  0.00     0.029 A 
ATOM     66  C   UNL A   1      42.765  30.750  30.569  1.00  0.00     0.049 A 
ATOM     67  H   UNL A   1      42.657  28.800  29.769  1.00  0.00     0.167 HD
ATOM     68  C   UNL A   1      45.068  29.867  30.786  1.00  0.00     0.074 A 
ATOM     69  C   UNL A   1      46.464  29.990  31.150  1.00  0.00     0.031 C 
ATOM     70  C   UNL A   1      44.152  30.854  30.937  1.00  0.00     0.037 A 
BRANCH  57  71
ATOM     71  C   UNL A   1      38.481  29.300  29.049  1.00  0.00     0.057 A 
ATOM     72  C   UNL A   1      37.957  29.700  27.812  1.00  0.00     0.134 A 
ATOM     73  C   UNL A   1      37.616  29.316  30.151  1.00  0.00     0.134 A 
ATOM     74  F   UNL A   1      38.732  29.716  26.718  1.00  0.00    -0.206 F 
ATOM     75  C   UNL A   1      36.627  30.104  27.679  1.00  0.00     0.040 A 
ATOM     76  C   UNL A   1      36.279  29.695  30.026  1.00  0.00     0.040 A 
ATOM     77  F   UNL A   1      38.052  28.931  31.361  1.00  0.00    -0.206 F 
ATOM     78  C   UNL A   1      35.782  30.096  28.787  1.00  0.00     0.006 A 
ENDBRANCH  57  71
BRANCH  58  79
ATOM     79  C   UNL A   1      47.893  26.186  30.103  1.00  0.00     0.057 A 
ATOM     80  C   UNL A   1      48.332  25.683  31.332  1.00  0.00     0.134 A 
ATOM     81  C   UNL A   1      48.809  26.195  29.044  1.00  0.00     0.134 A 
ATOM     82  F   UNL A   1      47.504  25.648  32.387  1.00  0.00    -0.206 F 
ATOM     83  C   UNL A   1      49.631  25.202  31.503  1.00  0.00     0.040 A 
ATOM     84  C   UNL A   1      50.102  25.691  29.193  1.00  0.00     0.040 A 
ATOM     85  F   UNL A   1      48.440  26.646  27.836  1.00  0.00    -0.206 F 
ATOM     86  C   UNL A   1      50.516  25.194  30.427  1.00  0.00     0.006 A 
ENDBRANCH  58  79
BRANCH  70  87
ATOM     87  C   UNL A   1      44.631  32.133  31.558  1.00  0.00     0.057 A 
ATOM     88  C   UNL A   1      45.127  33.171  30.759  1.00  0.00     0.134 A 
ATOM     89  C   UNL A   1      44.602  32.339  32.943  1.00  0.00     0.134 A 
ATOM     90  F   UNL A   1      45.188  33.035  29.426  1.00  0.00    -0.206 F 
ATOM     91  C   UNL A   1      45.570  34.371  31.315  1.00  0.00     0.040 A 
ATOM     92  C   UNL A   1      45.017  33.546  33.509  1.00  0.00     0.040 A 
ATOM     93  F   UNL A   1      44.123  31.390  33.762  1.00  0.00    -0.206 F 
ATOM     94  C   UNL A   1      45.507  34.565  32.693  1.00  0.00     0.006 A 
ENDBRANCH  70  87
ENDBRANCH  44  45
ENDBRANCH  36  39
ENDBRANCH  34  35
ENDBRANCH  33  34
ENDBRANCH  32  33
ENDBRANCH   1  32
TORSDOF 15
ENDMDL
MODEL 2
REMARK VINA RESULT:     -12.3      1.834      7.443
REMARK SMILES CC1(C)Oc2ccc(NC(=O)[C@H]3CC=CC[C@@H]3C(=O)NCCCCCCNC(=O)c3ccc(-c4c5nc(c(-c6c(F)cccc6F)c6ccc([nH]6)c(-c6c(F)cccc6F)c6nc(c(-c7c(F)cccc7F)c7ccc4[nH]7)C=C6)C=C5)cc3)cc2NC1=O
REMARK SMILES IDX 23 1 22 2 21 3 20 4 18 5 19 6 17 8 12 9 13 10 14 11 16 12
REMARK SMILES IDX 15 13 10 14 9 15 11 17 8 18 1 19 2 20 3 21 4 22 87 23 5 24
REMARK SMILES IDX 86 25 88 26 6 27 85 28 7 30 84 31 24 32 25 33 26 34 27 35
REMARK SMILES IDX 28 36 29 38 30 39 31 40 83 41 32 42 82 43 33 44 34 45 35 46
REMARK SMILES IDX 76 47 36 48 81 49 75 50 77 51 37 52 80 53 74 54 73 55 38 57
REMARK SMILES IDX 64 58 47 59 63 60 48 61 51 62 62 63 78 64 49 65 50 66 61 68
REMARK SMILES IDX 79 69 52 70 39 71 40 72 45 73 41 74 42 75 44 76 46 77 43 78
REMARK SMILES IDX 65 79 66 80 71 81 67 82 68 83 70 84 72 85 69 86 53 87 54 88
REMARK SMILES IDX 59 89 55 90 56 91 58 92 60 93 57 94
REMARK H PARENT 20 7 9 16 86 29 27 37 77 56 51 67
REMARK Flexibility Score: inf
ROOT
ATOM      1  C   UNL A   1      34.807  21.180  24.479  1.00  0.00     0.002 C 
ENDROOT
BRANCH   1   2
ATOM      2  C   UNL A   1      33.526  20.429  24.847  1.00  0.00     0.021 C 
BRANCH   2   3
ATOM      3  C   UNL A   1      32.249  21.261  24.924  1.00  0.00     0.116 C 
BRANCH   3   4
ATOM      4  N   UNL A   1      31.993  21.927  26.183  1.00  0.00    -0.356 N 
ATOM      5  C   UNL A   1      31.739  23.261  26.408  1.00  0.00     0.224 C 
ATOM      6  O   UNL A   1      31.481  23.599  27.562  1.00  0.00    -0.275 OA
ATOM      7  H   UNL A   1      32.003  21.351  26.982  1.00  0.00     0.163 HD
BRANCH   5   8
ATOM      8  C   UNL A   1      31.798  24.269  25.235  1.00  0.00     0.095 C 
ATOM      9  C   UNL A   1      33.145  24.186  24.475  1.00  0.00     0.095 C 
ATOM     10  C   UNL A   1      34.257  24.742  25.429  1.00  0.00     0.041 C 
ATOM     11  C   UNL A   1      33.889  26.049  26.081  1.00  0.00    -0.030 C 
ATOM     12  C   UNL A   1      31.459  25.696  25.688  1.00  0.00     0.041 C 
ATOM     13  C   UNL A   1      32.628  26.486  26.178  1.00  0.00    -0.030 C 
BRANCH   9  14
ATOM     14  C   UNL A   1      33.381  24.843  23.073  1.00  0.00     0.228 C 
ATOM     15  N   UNL A   1      32.941  26.035  22.584  1.00  0.00    -0.326 N 
ATOM     16  H   UNL A   1      33.349  26.254  21.716  1.00  0.00     0.169 HD
ATOM     17  O   UNL A   1      34.036  24.208  22.226  1.00  0.00    -0.274 OA
BRANCH  15  18
ATOM     18  C   UNL A   1      32.052  27.021  23.013  1.00  0.00     0.043 A 
ATOM     19  C   UNL A   1      27.562  31.409  23.458  1.00  0.00     0.067 C 
ATOM     20  C   UNL A   1      28.283  30.219  22.823  1.00  0.00     0.182 C 
ATOM     21  C   UNL A   1      28.195  30.347  21.290  1.00  0.00     0.067 C 
ATOM     22  O   UNL A   1      29.638  30.350  23.264  1.00  0.00    -0.476 OA
ATOM     23  C   UNL A   1      27.609  28.876  23.191  1.00  0.00     0.268 C 
ATOM     24  C   UNL A   1      30.351  29.191  23.294  1.00  0.00     0.144 A 
ATOM     25  N   UNL A   1      28.431  27.780  23.034  1.00  0.00    -0.319 N 
ATOM     26  O   UNL A   1      26.422  28.750  23.478  1.00  0.00    -0.270 OA
ATOM     27  C   UNL A   1      31.669  29.293  23.696  1.00  0.00     0.051 A 
ATOM     28  C   UNL A   1      29.820  27.933  23.023  1.00  0.00     0.086 A 
ATOM     29  H   UNL A   1      28.038  26.884  22.929  1.00  0.00     0.170 HD
ATOM     30  C   UNL A   1      32.483  28.167  23.645  1.00  0.00     0.030 A 
ATOM     31  C   UNL A   1      30.675  26.843  22.838  1.00  0.00     0.056 A 
ENDBRANCH  15  18
ENDBRANCH   9  14
ENDBRANCH   5   8
ENDBRANCH   3   4
ENDBRANCH   2   3
ENDBRANCH   1   2
BRANCH   1  32
ATOM     32  C   UNL A   1      35.988  21.044  25.447  1.00  0.00     0.002 C 
BRANCH  32  33
ATOM     33  C   UNL A   1      37.277  20.431  24.894  1.00  0.00     0.021 C 
BRANCH  33  34
ATOM     34  C   UNL A   1      38.569  20.745  25.645  1.00  0.00     0.116 C 
BRANCH  34  35
ATOM     35  N   UNL A   1      39.580  19.703  25.557  1.00  0.00    -0.352 N 
ATOM     36  C   UNL A   1      40.903  19.725  25.938  1.00  0.00     0.251 C 
ATOM     37  H   UNL A   1      39.272  18.853  25.166  1.00  0.00     0.163 HD
ATOM     38  O   UNL A   1      41.621  18.751  25.721  1.00  0.00    -0.269 OA
BRANCH  36  39
ATOM     39  C   UNL A   1      41.484  20.936  26.563  1.00  0.00     0.039 A 
ATOM     40  C   UNL A   1      41.421  21.140  27.942  1.00  0.00     0.014 A 
ATOM     41  C   UNL A   1      42.084  21.900  25.745  1.00  0.00     0.014 A 
ATOM     42  C   UNL A   1      41.783  22.374  28.476  1.00  0.00     0.010 A 
ATOM     43  C   UNL A   1      42.523  23.110  26.296  1.00  0.00     0.010 A 
ATOM     44  C   UNL A   1      42.320  23.381  27.657  1.00  0.00    -0.014 A 
BRANCH  44  45
ATOM     45  C   UNL A   1      42.616  24.720  28.239  1.00  0.00     0.031 A 
ATOM     46  C   UNL A   1      44.032  25.110  28.583  1.00  0.00     0.074 A 
ATOM     47  C   UNL A   1      41.622  25.618  28.386  1.00  0.00     0.049 A 
ATOM     48  N   UNL A   1      44.485  26.238  29.075  1.00  0.00    -0.248 NA
ATOM     49  C   UNL A   1      45.078  24.103  28.344  1.00  0.00     0.031 C 
ATOM     50  C   UNL A   1      40.213  25.379  28.071  1.00  0.00     0.029 A 
ATOM     51  N   UNL A   1      41.649  26.922  28.815  1.00  0.00    -0.354 N 
ATOM     52  C   UNL A   1      45.860  26.075  29.204  1.00  0.00     0.074 A 
ATOM     53  C   UNL A   1      46.163  24.724  28.782  1.00  0.00     0.031 C 
ATOM     54  C   UNL A   1      39.520  26.511  28.269  1.00  0.00     0.029 A 
ATOM     55  C   UNL A   1      40.421  27.536  28.781  1.00  0.00     0.049 A 
ATOM     56  H   UNL A   1      42.471  27.374  29.116  1.00  0.00     0.167 HD
ATOM     57  C   UNL A   1      46.790  26.972  29.615  1.00  0.00     0.037 A 
ATOM     58  C   UNL A   1      40.059  28.783  29.138  1.00  0.00     0.037 A 
ATOM     59  C   UNL A   1      46.494  28.318  30.033  1.00  0.00     0.049 A 
ATOM     60  C   UNL A   1      41.100  29.729  29.669  1.00  0.00     0.074 A 
ATOM     61  C   UNL A   1      47.366  29.294  30.486  1.00  0.00     0.029 A 
ATOM     62  N   UNL A   1      45.228  28.881  30.043  1.00  0.00    -0.354 N 
ATOM     63  N   UNL A   1      42.394  29.554  29.788  1.00  0.00    -0.248 NA
ATOM     64  C   UNL A   1      40.625  31.043  30.123  1.00  0.00     0.031 C 
ATOM     65  C   UNL A   1      46.623  30.437  30.800  1.00  0.00     0.029 A 
ATOM     66  C   UNL A   1      45.293  30.186  30.503  1.00  0.00     0.049 A 
ATOM     67  H   UNL A   1      44.403  28.421  29.765  1.00  0.00     0.167 HD
ATOM     68  C   UNL A   1      42.889  30.745  30.306  1.00  0.00     0.074 A 
ATOM     69  C   UNL A   1      41.760  31.639  30.454  1.00  0.00     0.031 C 
ATOM     70  C   UNL A   1      44.163  31.068  30.634  1.00  0.00     0.037 A 
BRANCH  57  71
ATOM     71  C   UNL A   1      48.222  26.522  29.632  1.00  0.00     0.057 A 
ATOM     72  C   UNL A   1      49.057  26.737  28.527  1.00  0.00     0.134 A 
ATOM     73  C   UNL A   1      48.766  25.842  30.729  1.00  0.00     0.134 A 
ATOM     74  F   UNL A   1      48.598  27.375  27.440  1.00  0.00    -0.206 F 
ATOM     75  C   UNL A   1      50.379  26.288  28.514  1.00  0.00     0.040 A 
ATOM     76  C   UNL A   1      50.093  25.410  30.737  1.00  0.00     0.040 A 
ATOM     77  F   UNL A   1      48.023  25.617  31.824  1.00  0.00    -0.206 F 
ATOM     78  C   UNL A   1      50.902  25.628  29.624  1.00  0.00     0.006 A 
ENDBRANCH  57  71
BRANCH  58  79
ATOM     79  C   UNL A   1      38.642  29.217  29.030  1.00  0.00     0.057 A 
ATOM     80  C   UNL A   1      38.104  29.652  27.814  1.00  0.00     0.134 A 
ATOM     81  C   UNL A   1      37.779  29.152  30.131  1.00  0.00     0.134 A 
ATOM     82  F   UNL A   1      38.879  29.739  26.721  1.00  0.00    -0.206 F 
ATOM     83  C   UNL A   1      36.760  30.004  27.693  1.00  0.00     0.040 A 
ATOM     84  C   UNL A   1      36.426  29.473  30.018  1.00  0.00     0.040 A 
ATOM     85  F   UNL A   1      38.232  28.723  31.318  1.00  0.00    -0.206 F 
ATOM     86  C   UNL A   1      35.914  29.903  28.796  1.00  0.00     0.006 A 
ENDBRANCH  58  79
BRANCH  70  87
ATOM     87  C   UNL A   1      44.399  32.458  31.146  1.00  0.00     0.057 A 
ATOM     88  C   UNL A   1      44.668  33.508  30.258  1.00  0.00     0.134 A 
ATOM     89  C   UNL A   1      44.359  32.760  32.513  1.00  0.00     0.134 A 
ATOM     90  F   UNL A   1      44.726  33.285  28.937  1.00  0.00    -0.206 F 
ATOM     91  C   UNL A   1      44.883  34.810  30.712  1.00  0.00     0.040 A 
ATOM     92  C   UNL A   1      44.546  34.064  32.977  1.00  0.00     0.040 A 
ATOM     93  F   UNL A   1      44.090  31.803  33.413  1.00  0.00    -0.206 F 
ATOM     94  C   UNL A   1      44.813  35.092  32.075  1.00  0.00     0.006 A 
ENDBRANCH  70  87
ENDBRANCH  44  45
ENDBRANCH  36  39
ENDBRANCH  34  35
ENDBRANCH  33  34
ENDBRANCH  32  33
ENDBRANCH   1  32
TORSDOF 15
ENDMDL
MODEL 3
REMARK VINA RESULT:     -12.2      0.460      5.977
REMARK SMILES CC1(C)Oc2ccc(NC(=O)[C@H]3CC=CC[C@@H]3C(=O)NCCCCCCNC(=O)c3ccc(-c4c5nc(c(-c6c(F)cccc6F)c6ccc([nH]6)c(-c6c(F)cccc6F)c6nc(c(-c7c(F)cccc7F)c7ccc4[nH]7)C=C6)C=C5)cc3)cc2NC1=O
REMARK SMILES IDX 23 1 22 2 21 3 20 4 18 5 19 6 17 8 12 9 13 10 14 11 16 12
REMARK SMILES IDX 15 13 10 14 9 15 11 17 8 18 1 19 2 20 3 21 4 22 87 23 5 24
REMARK SMILES IDX 86 25 88 26 6 27 85 28 7 30 84 31 24 32 25 33 26 34 27 35
REMARK SMILES IDX 28 36 29 38 30 39 31 40 83 41 32 42 82 43 33 44 34 45 35 46
REMARK SMILES IDX 76 47 36 48 81 49 75 50 77 51 37 52 80 53 74 54 73 55 38 57
REMARK SMILES IDX 64 58 47 59 63 60 48 61 51 62 62 63 78 64 49 65 50 66 61 68
REMARK SMILES IDX 79 69 52 70 39 71 40 72 45 73 41 74 42 75 44 76 46 77 43 78
REMARK SMILES IDX 65 79 66 80 71 81 67 82 68 83 70 84 72 85 69 86 53 87 54 88
REMARK SMILES IDX 59 89 55 90 56 91 58 92 60 93 57 94
REMARK H PARENT 20 7 9 16 86 29 27 37 77 56 51 67
REMARK Flexibility Score: inf
ROOT
ATOM      1  C   UNL A   1      35.230  22.968  23.727  1.00  0.00     0.002 C 
ENDROOT
BRANCH   1   2
ATOM      2  C   UNL A   1      34.558  23.244  22.381  1.00  0.00     0.021 C 
BRANCH   2   3
ATOM      3  C   UNL A   1      33.329  24.150  22.406  1.00  0.00     0.116 C 
BRANCH   3   4
ATOM      4  N   UNL A   1      33.584  25.571  22.478  1.00  0.00    -0.356 N 
ATOM      5  C   UNL A   1      33.577  26.386  23.588  1.00  0.00     0.224 C 
ATOM      6  O   UNL A   1      33.891  27.564  23.425  1.00  0.00    -0.275 OA
ATOM      7  H   UNL A   1      33.789  26.014  21.622  1.00  0.00     0.163 HD
BRANCH   5   8
ATOM      8  C   UNL A   1      33.171  25.812  24.967  1.00  0.00     0.095 C 
ATOM      9  C   UNL A   1      31.673  25.421  25.006  1.00  0.00     0.095 C 
ATOM     10  C   UNL A   1      30.840  26.749  24.956  1.00  0.00     0.041 C 
ATOM     11  C   UNL A   1      31.326  27.798  25.921  1.00  0.00    -0.030 C 
ATOM     12  C   UNL A   1      33.572  26.747  26.117  1.00  0.00     0.041 C 
ATOM     13  C   UNL A   1      32.551  27.783  26.459  1.00  0.00    -0.030 C 
BRANCH   9  14
ATOM     14  C   UNL A   1      31.046  24.537  26.137  1.00  0.00     0.228 C 
ATOM     15  N   UNL A   1      31.348  23.265  26.517  1.00  0.00    -0.326 N 
ATOM     16  H   UNL A   1      30.883  23.005  27.344  1.00  0.00     0.169 HD
ATOM     17  O   UNL A   1      30.102  25.007  26.798  1.00  0.00    -0.274 OA
BRANCH  15  18
ATOM     18  C   UNL A   1      32.155  22.241  26.020  1.00  0.00     0.043 A 
ATOM     19  C   UNL A   1      34.556  16.737  24.138  1.00  0.00     0.067 C 
ATOM     20  C   UNL A   1      33.436  17.703  24.527  1.00  0.00     0.182 C 
ATOM     21  C   UNL A   1      32.346  16.919  25.284  1.00  0.00     0.067 C 
ATOM     22  O   UNL A   1      34.071  18.649  25.394  1.00  0.00    -0.476 OA
ATOM     23  C   UNL A   1      32.751  18.320  23.285  1.00  0.00     0.268 C 
ATOM     24  C   UNL A   1      33.472  19.869  25.455  1.00  0.00     0.144 A 
ATOM     25  N   UNL A   1      32.069  19.489  23.550  1.00  0.00    -0.319 N 
ATOM     26  O   UNL A   1      32.697  17.782  22.183  1.00  0.00    -0.270 OA
ATOM     27  C   UNL A   1      34.053  20.795  26.301  1.00  0.00     0.051 A 
ATOM     28  C   UNL A   1      32.382  20.252  24.679  1.00  0.00     0.086 A 
ATOM     29  H   UNL A   1      31.357  19.788  22.941  1.00  0.00     0.170 HD
ATOM     30  C   UNL A   1      33.430  22.022  26.494  1.00  0.00     0.030 A 
ATOM     31  C   UNL A   1      31.688  21.425  24.985  1.00  0.00     0.056 A 
ENDBRANCH  15  18
ENDBRANCH   9  14
ENDBRANCH   5   8
ENDBRANCH   3   4
ENDBRANCH   2   3
ENDBRANCH   1   2
BRANCH   1  32
ATOM     32  C   UNL A   1      36.712  22.581  23.691  1.00  0.00     0.002 C 
BRANCH  32  33
ATOM     33  C   UNL A   1      37.097  21.237  24.316  1.00  0.00     0.021 C 
BRANCH  33  34
ATOM     34  C   UNL A   1      38.131  21.270  25.440  1.00  0.00     0.116 C 
BRANCH  34  35
ATOM     35  N   UNL A   1      39.029  20.125  25.459  1.00  0.00    -0.352 N 
ATOM     36  C   UNL A   1      40.318  20.026  25.934  1.00  0.00     0.251 C 
ATOM     37  H   UNL A   1      38.659  19.298  25.075  1.00  0.00     0.163 HD
ATOM     38  O   UNL A   1      40.941  18.974  25.802  1.00  0.00    -0.269 OA
BRANCH  36  39
ATOM     39  C   UNL A   1      40.980  21.194  26.559  1.00  0.00     0.039 A 
ATOM     40  C   UNL A   1      40.904  21.419  27.934  1.00  0.00     0.014 A 
ATOM     41  C   UNL A   1      41.673  22.097  25.744  1.00  0.00     0.014 A 
ATOM     42  C   UNL A   1      41.352  22.627  28.462  1.00  0.00     0.010 A 
ATOM     43  C   UNL A   1      42.196  23.274  26.291  1.00  0.00     0.010 A 
ATOM     44  C   UNL A   1      41.987  23.578  27.645  1.00  0.00    -0.014 A 
BRANCH  44  45
ATOM     45  C   UNL A   1      42.377  24.896  28.218  1.00  0.00     0.031 A 
ATOM     46  C   UNL A   1      43.826  25.218  28.482  1.00  0.00     0.074 A 
ATOM     47  C   UNL A   1      41.434  25.836  28.431  1.00  0.00     0.049 A 
ATOM     48  N   UNL A   1      44.358  26.320  28.954  1.00  0.00    -0.248 NA
ATOM     49  C   UNL A   1      44.810  24.168  28.174  1.00  0.00     0.031 C 
ATOM     50  C   UNL A   1      40.000  25.663  28.198  1.00  0.00     0.029 A 
ATOM     51  N   UNL A   1      41.546  27.133  28.867  1.00  0.00    -0.354 N 
ATOM     52  C   UNL A   1      45.729  26.094  29.001  1.00  0.00     0.074 A 
ATOM     53  C   UNL A   1      45.946  24.735  28.551  1.00  0.00     0.031 C 
ATOM     54  C   UNL A   1      39.372  26.823  28.444  1.00  0.00     0.029 A 
ATOM     55  C   UNL A   1      40.347  27.802  28.911  1.00  0.00     0.049 A 
ATOM     56  H   UNL A   1      42.403  27.544  29.123  1.00  0.00     0.167 HD
ATOM     57  C   UNL A   1      46.721  26.943  29.364  1.00  0.00     0.037 A 
ATOM     58  C   UNL A   1      40.064  29.060  29.298  1.00  0.00     0.037 A 
ATOM     59  C   UNL A   1      46.512  28.298  29.809  1.00  0.00     0.049 A 
ATOM     60  C   UNL A   1      41.176  29.952  29.774  1.00  0.00     0.074 A 
ATOM     61  C   UNL A   1      47.452  29.228  30.217  1.00  0.00     0.029 A 
ATOM     62  N   UNL A   1      45.275  28.917  29.898  1.00  0.00    -0.354 N 
ATOM     63  N   UNL A   1      42.465  29.719  29.815  1.00  0.00    -0.248 NA
ATOM     64  C   UNL A   1      40.788  31.282  30.266  1.00  0.00     0.031 C 
ATOM     65  C   UNL A   1      46.782  30.400  30.583  1.00  0.00     0.029 A 
ATOM     66  C   UNL A   1      45.427  30.213  30.364  1.00  0.00     0.049 A 
ATOM     67  H   UNL A   1      44.416  28.497  29.666  1.00  0.00     0.167 HD
ATOM     68  C   UNL A   1      43.043  30.881  30.312  1.00  0.00     0.074 A 
ATOM     69  C   UNL A   1      41.966  31.823  30.534  1.00  0.00     0.031 C 
ATOM     70  C   UNL A   1      44.348  31.142  30.568  1.00  0.00     0.037 A 
BRANCH  57  71
ATOM     71  C   UNL A   1      48.130  26.430  29.293  1.00  0.00     0.057 A 
ATOM     72  C   UNL A   1      48.889  26.570  28.123  1.00  0.00     0.134 A 
ATOM     73  C   UNL A   1      48.725  25.763  30.372  1.00  0.00     0.134 A 
ATOM     74  F   UNL A   1      48.379  27.191  27.050  1.00  0.00    -0.206 F 
ATOM     75  C   UNL A   1      50.187  26.061  28.030  1.00  0.00     0.040 A 
ATOM     76  C   UNL A   1      50.029  25.271  30.299  1.00  0.00     0.040 A 
ATOM     77  F   UNL A   1      48.056  25.608  31.526  1.00  0.00    -0.206 F 
ATOM     78  C   UNL A   1      50.762  25.415  29.123  1.00  0.00     0.006 A 
ENDBRANCH  57  71
BRANCH  58  79
ATOM     79  C   UNL A   1      38.664  29.559  29.277  1.00  0.00     0.057 A 
ATOM     80  C   UNL A   1      38.049  29.953  28.083  1.00  0.00     0.134 A 
ATOM     81  C   UNL A   1      37.892  29.597  30.444  1.00  0.00     0.134 A 
ATOM     82  F   UNL A   1      38.735  29.941  26.930  1.00  0.00    -0.206 F 
ATOM     83  C   UNL A   1      36.717  30.365  28.049  1.00  0.00     0.040 A 
ATOM     84  C   UNL A   1      36.550  29.979  30.420  1.00  0.00     0.040 A 
ATOM     85  F   UNL A   1      38.420  29.211  31.615  1.00  0.00    -0.206 F 
ATOM     86  C   UNL A   1      35.960  30.367  29.219  1.00  0.00     0.006 A 
ENDBRANCH  58  79
BRANCH  70  87
ATOM     87  C   UNL A   1      44.676  32.516  31.076  1.00  0.00     0.057 A 
ATOM     88  C   UNL A   1      44.717  32.776  32.451  1.00  0.00     0.134 A 
ATOM     89  C   UNL A   1      44.952  33.579  30.206  1.00  0.00     0.134 A 
ATOM     90  F   UNL A   1      44.456  31.803  33.336  1.00  0.00    -0.206 F 
ATOM     91  C   UNL A   1      45.028  34.044  32.944  1.00  0.00     0.040 A 
ATOM     92  C   UNL A   1      45.291  34.845  30.689  1.00  0.00     0.040 A 
ATOM     93  F   UNL A   1      44.946  33.391  28.878  1.00  0.00    -0.206 F 
ATOM     94  C   UNL A   1      45.325  35.080  32.062  1.00  0.00     0.006 A 
ENDBRANCH  70  87
ENDBRANCH  44  45
ENDBRANCH  36  39
ENDBRANCH  34  35
ENDBRANCH  33  34
ENDBRANCH  32  33
ENDBRANCH   1  32
TORSDOF 15
ENDMDL
