MODEL 1
REMARK VINA RESULT:     -11.4      0.000      0.000
REMARK SMILES COc1ncccc1C[C@H](C(=O)NCCCCCCNC(=O)c1ccc(-c2c3nc(c(-c4c(F)cccc4F)c4ccc([nH]4)c(-c4c(F)cccc4F)c4nc(c(-c5c(F)cccc5F)c5ccc2[nH]5)C=C4)C=C3)cc1)c1ccc(F)cc1
REMARK SMILES IDX 16 1 15 2 14 3 13 4 11 5 12 6 10 8 9 9 8 10 3 11 4 12 5 13
REMARK SMILES IDX 7 14 6 15 2 16 1 17 77 18 78 19 83 20 79 21 82 22 80 23
REMARK SMILES IDX 81 24 17 25 18 26 19 27 20 28 21 29 22 31 23 32 24 33 76 34
REMARK SMILES IDX 25 35 75 36 26 37 27 38 28 39 69 40 29 41 74 42 68 43 70 44
REMARK SMILES IDX 30 45 73 46 67 47 66 48 31 50 57 51 40 52 56 53 41 54 44 55
REMARK SMILES IDX 55 56 71 57 42 58 43 59 54 61 72 62 45 63 32 64 33 65 38 66
REMARK SMILES IDX 34 67 35 68 37 69 39 70 36 71 58 72 59 73 64 74 60 75 61 76
REMARK SMILES IDX 63 77 65 78 62 79 46 80 47 81 52 82 48 83 49 84 51 85 53 86
REMARK SMILES IDX 50 87
REMARK H PARENT 13 7 20 30 70 49 44 60
REMARK Flexibility Score: inf
ROOT
ATOM      1  C   UNL A   1      32.181  29.921  27.080  1.00  0.00     0.002 C 
ENDROOT
BRANCH   1   2
ATOM      2  C   UNL A   1      32.318  28.470  26.635  1.00  0.00     0.021 C 
BRANCH   2   3
ATOM      3  C   UNL A   1      33.702  28.071  26.152  1.00  0.00     0.116 C 
BRANCH   3   4
ATOM      4  N   UNL A   1      34.086  28.633  24.898  1.00  0.00    -0.356 N 
ATOM      5  C   UNL A   1      33.848  28.170  23.646  1.00  0.00     0.227 C 
ATOM      6  O   UNL A   1      34.488  28.754  22.760  1.00  0.00    -0.274 OA
ATOM      7  H   UNL A   1      34.595  29.474  24.948  1.00  0.00     0.163 HD
BRANCH   5   8
ATOM      8  C   UNL A   1      32.893  26.977  23.278  1.00  0.00     0.113 C 
BRANCH   8   9
ATOM      9  C   UNL A   1      32.824  25.646  24.122  1.00  0.00     0.059 C 
BRANCH   9  10
ATOM     10  C   UNL A   1      34.088  24.781  24.153  1.00  0.00     0.015 A 
ATOM     11  C   UNL A   1      34.486  24.018  23.053  1.00  0.00     0.216 A 
ATOM     12  N   UNL A   1      35.633  23.301  22.973  1.00  0.00    -0.222 NA
ATOM     13  C   UNL A   1      36.423  23.293  24.066  1.00  0.00     0.115 A 
ATOM     14  C   UNL A   1      34.895  24.640  25.290  1.00  0.00     0.011 A 
ATOM     15  C   UNL A   1      36.086  23.918  25.248  1.00  0.00     0.021 A 
BRANCH  11  16
ATOM     16  O   UNL A   1      33.536  23.717  22.111  1.00  0.00    -0.481 OA
ATOM     17  C   UNL A   1      32.874  22.505  22.419  1.00  0.00     0.280 C 
ENDBRANCH  11  16
ENDBRANCH   9  10
ENDBRANCH   8   9
BRANCH   8  18
ATOM     18  C   UNL A   1      31.467  27.571  23.244  1.00  0.00    -0.035 A 
ATOM     19  C   UNL A   1      30.372  26.804  23.686  1.00  0.00     0.007 A 
ATOM     20  C   UNL A   1      31.232  28.871  22.771  1.00  0.00     0.007 A 
ATOM     21  C   UNL A   1      29.070  27.286  23.559  1.00  0.00     0.039 A 
ATOM     22  C   UNL A   1      29.926  29.338  22.612  1.00  0.00     0.039 A 
ATOM     23  C   UNL A   1      28.858  28.536  22.991  1.00  0.00     0.123 A 
ATOM     24  F   UNL A   1      27.605  28.971  22.803  1.00  0.00    -0.207 F 
ENDBRANCH   8  18
ENDBRANCH   5   8
ENDBRANCH   3   4
ENDBRANCH   2   3
ENDBRANCH   1   2
BRANCH   1  25
ATOM     25  C   UNL A   1      31.427  30.834  26.111  1.00  0.00     0.002 C 
BRANCH  25  26
ATOM     26  C   UNL A   1      31.328  32.305  26.523  1.00  0.00     0.021 C 
BRANCH  26  27
ATOM     27  C   UNL A   1      32.561  32.871  27.218  1.00  0.00     0.116 C 
BRANCH  27  28
ATOM     28  N   UNL A   1      32.360  34.230  27.690  1.00  0.00    -0.352 N 
ATOM     29  C   UNL A   1      33.041  34.931  28.652  1.00  0.00     0.251 C 
ATOM     30  H   UNL A   1      31.625  34.720  27.254  1.00  0.00     0.163 HD
ATOM     31  O   UNL A   1      32.622  36.012  29.042  1.00  0.00    -0.269 OA
BRANCH  29  32
ATOM     32  C   UNL A   1      34.274  34.362  29.236  1.00  0.00     0.039 A 
ATOM     33  C   UNL A   1      34.203  33.743  30.487  1.00  0.00     0.014 A 
ATOM     34  C   UNL A   1      35.493  34.438  28.556  1.00  0.00     0.014 A 
ATOM     35  C   UNL A   1      35.342  33.144  31.025  1.00  0.00     0.010 A 
ATOM     36  C   UNL A   1      36.608  33.775  29.060  1.00  0.00     0.010 A 
ATOM     37  C   UNL A   1      36.545  33.123  30.300  1.00  0.00    -0.014 A 
BRANCH  37  38
ATOM     38  C   UNL A   1      37.743  32.417  30.819  1.00  0.00     0.031 A 
ATOM     39  C   UNL A   1      38.483  32.956  32.011  1.00  0.00     0.074 A 
ATOM     40  C   UNL A   1      38.201  31.324  30.176  1.00  0.00     0.049 A 
ATOM     41  N   UNL A   1      39.585  32.519  32.566  1.00  0.00    -0.248 NA
ATOM     42  C   UNL A   1      37.926  34.159  32.648  1.00  0.00     0.031 C 
ATOM     43  C   UNL A   1      37.596  30.728  28.984  1.00  0.00     0.029 A 
ATOM     44  N   UNL A   1      39.288  30.526  30.431  1.00  0.00    -0.354 N 
ATOM     45  C   UNL A   1      39.858  33.399  33.607  1.00  0.00     0.074 A 
ATOM     46  C   UNL A   1      38.838  34.425  33.571  1.00  0.00     0.031 C 
ATOM     47  C   UNL A   1      38.305  29.646  28.625  1.00  0.00     0.029 A 
ATOM     48  C   UNL A   1      39.439  29.497  29.532  1.00  0.00     0.049 A 
ATOM     49  H   UNL A   1      39.902  30.675  31.185  1.00  0.00     0.167 HD
ATOM     50  C   UNL A   1      40.854  33.343  34.523  1.00  0.00     0.037 A 
ATOM     51  C   UNL A   1      40.389  28.548  29.442  1.00  0.00     0.037 A 
ATOM     52  C   UNL A   1      41.856  32.309  34.565  1.00  0.00     0.049 A 
ATOM     53  C   UNL A   1      41.499  28.523  30.458  1.00  0.00     0.074 A 
ATOM     54  C   UNL A   1      42.871  32.133  35.489  1.00  0.00     0.029 A 
ATOM     55  N   UNL A   1      41.971  31.281  33.642  1.00  0.00    -0.354 N 
ATOM     56  N   UNL A   1      41.704  29.320  31.478  1.00  0.00    -0.248 NA
ATOM     57  C   UNL A   1      42.506  27.463  30.312  1.00  0.00     0.031 C 
ATOM     58  C   UNL A   1      43.636  31.031  35.091  1.00  0.00     0.029 A 
ATOM     59  C   UNL A   1      43.060  30.485  33.956  1.00  0.00     0.049 A 
ATOM     60  H   UNL A   1      41.368  31.140  32.876  1.00  0.00     0.167 HD
ATOM     61  C   UNL A   1      42.844  28.841  32.112  1.00  0.00     0.074 A 
ATOM     62  C   UNL A   1      43.276  27.675  31.370  1.00  0.00     0.031 C 
ATOM     63  C   UNL A   1      43.474  29.322  33.211  1.00  0.00     0.037 A 
BRANCH  50  64
ATOM     64  C   UNL A   1      40.911  34.433  35.555  1.00  0.00     0.057 A 
ATOM     65  C   UNL A   1      40.251  34.323  36.787  1.00  0.00     0.134 A 
ATOM     66  C   UNL A   1      41.665  35.591  35.330  1.00  0.00     0.134 A 
ATOM     67  F   UNL A   1      39.502  33.245  37.063  1.00  0.00    -0.206 F 
ATOM     68  C   UNL A   1      40.318  35.336  37.745  1.00  0.00     0.040 A 
ATOM     69  C   UNL A   1      41.764  36.597  36.292  1.00  0.00     0.040 A 
ATOM     70  F   UNL A   1      42.328  35.761  34.176  1.00  0.00    -0.206 F 
ATOM     71  C   UNL A   1      41.082  36.475  37.501  1.00  0.00     0.006 A 
ENDBRANCH  50  64
BRANCH  51  72
ATOM     72  C   UNL A   1      40.329  27.533  28.359  1.00  0.00     0.057 A 
ATOM     73  C   UNL A   1      39.625  26.335  28.529  1.00  0.00     0.134 A 
ATOM     74  C   UNL A   1      40.982  27.728  27.136  1.00  0.00     0.134 A 
ATOM     75  F   UNL A   1      38.994  26.081  29.685  1.00  0.00    -0.206 F 
ATOM     76  C   UNL A   1      39.591  25.357  27.534  1.00  0.00     0.040 A 
ATOM     77  C   UNL A   1      40.932  26.772  26.120  1.00  0.00     0.040 A 
ATOM     78  F   UNL A   1      41.665  28.859  26.905  1.00  0.00    -0.206 F 
ATOM     79  C   UNL A   1      40.242  25.578  26.322  1.00  0.00     0.006 A 
ENDBRANCH  51  72
BRANCH  63  80
ATOM     80  C   UNL A   1      44.676  28.568  33.703  1.00  0.00     0.057 A 
ATOM     81  C   UNL A   1      44.566  27.495  34.597  1.00  0.00     0.134 A 
ATOM     82  C   UNL A   1      45.958  28.896  33.241  1.00  0.00     0.134 A 
ATOM     83  F   UNL A   1      43.370  27.139  35.086  1.00  0.00    -0.206 F 
ATOM     84  C   UNL A   1      45.691  26.790  35.031  1.00  0.00     0.040 A 
ATOM     85  C   UNL A   1      47.085  28.179  33.644  1.00  0.00     0.040 A 
ATOM     86  F   UNL A   1      46.134  29.906  32.376  1.00  0.00    -0.206 F 
ATOM     87  C   UNL A   1      46.953  27.127  34.547  1.00  0.00     0.006 A 
ENDBRANCH  63  80
ENDBRANCH  37  38
ENDBRANCH  29  32
ENDBRANCH  27  28
ENDBRANCH  26  27
ENDBRANCH  25  26
ENDBRANCH   1  25
TORSDOF 17
ENDMDL
MODEL 2
REMARK VINA RESULT:     -11.3      4.652      9.798
REMARK SMILES COc1ncccc1C[C@H](C(=O)NCCCCCCNC(=O)c1ccc(-c2c3nc(c(-c4c(F)cccc4F)c4ccc([nH]4)c(-c4c(F)cccc4F)c4nc(c(-c5c(F)cccc5F)c5ccc2[nH]5)C=C4)C=C3)cc1)c1ccc(F)cc1
REMARK SMILES IDX 16 1 15 2 14 3 13 4 11 5 12 6 10 8 9 9 8 10 3 11 4 12 5 13
REMARK SMILES IDX 7 14 6 15 2 16 1 17 77 18 78 19 83 20 79 21 82 22 80 23
REMARK SMILES IDX 81 24 17 25 18 26 19 27 20 28 21 29 22 31 23 32 24 33 76 34
REMARK SMILES IDX 25 35 75 36 26 37 27 38 28 39 69 40 29 41 74 42 68 43 70 44
REMARK SMILES IDX 30 45 73 46 67 47 66 48 31 50 57 51 40 52 56 53 41 54 44 55
REMARK SMILES IDX 55 56 71 57 42 58 43 59 54 61 72 62 45 63 32 64 33 65 38 66
REMARK SMILES IDX 34 67 35 68 37 69 39 70 36 71 58 72 59 73 64 74 60 75 61 76
REMARK SMILES IDX 63 77 65 78 62 79 46 80 47 81 52 82 48 83 49 84 51 85 53 86
REMARK SMILES IDX 50 87
REMARK H PARENT 13 7 20 30 70 49 44 60
REMARK Flexibility Score: inf
ROOT
ATOM      1  C   UNL A   1      36.868  21.771  24.260  1.00  0.00     0.002 C 
ENDROOT
BRANCH   1   2
ATOM      2  C   UNL A   1      37.400  22.883  25.156  1.00  0.00     0.021 C 
BRANCH   2   3
ATOM      3  C   UNL A   1      36.339  23.721  25.846  1.00  0.00     0.116 C 
BRANCH   3   4
ATOM      4  N   UNL A   1      35.569  23.027  26.827  1.00  0.00    -0.356 N 
ATOM      5  C   UNL A   1      34.227  23.034  27.022  1.00  0.00     0.227 C 
ATOM      6  O   UNL A   1      33.867  22.505  28.083  1.00  0.00    -0.274 OA
ATOM      7  H   UNL A   1      36.084  22.463  27.449  1.00  0.00     0.163 HD
BRANCH   5   8
ATOM      8  C   UNL A   1      33.166  23.673  26.054  1.00  0.00     0.113 C 
BRANCH   8   9
ATOM      9  C   UNL A   1      33.381  25.070  25.352  1.00  0.00     0.059 C 
BRANCH   9  10
ATOM     10  C   UNL A   1      32.868  26.305  26.101  1.00  0.00     0.015 A 
ATOM     11  C   UNL A   1      31.534  26.425  26.497  1.00  0.00     0.216 A 
ATOM     12  N   UNL A   1      31.027  27.441  27.236  1.00  0.00    -0.222 NA
ATOM     13  C   UNL A   1      31.878  28.433  27.571  1.00  0.00     0.115 A 
ATOM     14  C   UNL A   1      33.670  27.418  26.384  1.00  0.00     0.011 A 
ATOM     15  C   UNL A   1      33.189  28.481  27.148  1.00  0.00     0.021 A 
BRANCH  11  16
ATOM     16  O   UNL A   1      30.607  25.643  25.856  1.00  0.00    -0.481 OA
ATOM     17  C   UNL A   1      30.148  26.261  24.669  1.00  0.00     0.280 C 
ENDBRANCH  11  16
ENDBRANCH   9  10
ENDBRANCH   8   9
BRANCH   8  18
ATOM     18  C   UNL A   1      32.930  22.632  24.937  1.00  0.00    -0.035 A 
ATOM     19  C   UNL A   1      32.586  23.055  23.639  1.00  0.00     0.007 A 
ATOM     20  C   UNL A   1      33.046  21.257  25.189  1.00  0.00     0.007 A 
ATOM     21  C   UNL A   1      32.264  22.126  22.651  1.00  0.00     0.039 A 
ATOM     22  C   UNL A   1      32.689  20.328  24.209  1.00  0.00     0.039 A 
ATOM     23  C   UNL A   1      32.285  20.771  22.956  1.00  0.00     0.123 A 
ATOM     24  F   UNL A   1      31.908  19.880  22.030  1.00  0.00    -0.207 F 
ENDBRANCH   8  18
ENDBRANCH   5   8
ENDBRANCH   3   4
ENDBRANCH   2   3
ENDBRANCH   1   2
BRANCH   1  25
ATOM     25  C   UNL A   1      36.725  20.403  24.931  1.00  0.00     0.002 C 
BRANCH  25  26
ATOM     26  C   UNL A   1      37.973  19.516  24.906  1.00  0.00     0.021 C 
BRANCH  26  27
ATOM     27  C   UNL A   1      39.111  19.969  25.814  1.00  0.00     0.116 C 
BRANCH  27  28
ATOM     28  N   UNL A   1      40.184  18.993  25.890  1.00  0.00    -0.352 N 
ATOM     29  C   UNL A   1      41.530  19.186  26.072  1.00  0.00     0.251 C 
ATOM     30  H   UNL A   1      39.903  18.054  25.797  1.00  0.00     0.163 HD
ATOM     31  O   UNL A   1      42.312  18.254  25.938  1.00  0.00    -0.269 OA
BRANCH  29  32
ATOM     32  C   UNL A   1      42.037  20.533  26.408  1.00  0.00     0.039 A 
ATOM     33  C   UNL A   1      42.371  21.405  25.369  1.00  0.00     0.014 A 
ATOM     34  C   UNL A   1      42.183  20.934  27.739  1.00  0.00     0.014 A 
ATOM     35  C   UNL A   1      42.790  22.702  25.665  1.00  0.00     0.010 A 
ATOM     36  C   UNL A   1      42.528  22.251  28.030  1.00  0.00     0.010 A 
ATOM     37  C   UNL A   1      42.837  23.147  26.996  1.00  0.00    -0.014 A 
BRANCH  37  38
ATOM     38  C   UNL A   1      43.198  24.549  27.325  1.00  0.00     0.031 A 
ATOM     39  C   UNL A   1      44.637  24.986  27.305  1.00  0.00     0.074 A 
ATOM     40  C   UNL A   1      42.235  25.412  27.704  1.00  0.00     0.049 A 
ATOM     41  N   UNL A   1      45.153  26.144  27.628  1.00  0.00    -0.248 NA
ATOM     42  C   UNL A   1      45.628  23.981  26.893  1.00  0.00     0.031 C 
ATOM     43  C   UNL A   1      40.809  25.098  27.805  1.00  0.00     0.029 A 
ATOM     44  N   UNL A   1      42.312  26.729  28.086  1.00  0.00    -0.354 N 
ATOM     45  C   UNL A   1      46.526  26.003  27.468  1.00  0.00     0.074 A 
ATOM     46  C   UNL A   1      46.767  24.631  27.075  1.00  0.00     0.031 C 
ATOM     47  C   UNL A   1      40.143  26.196  28.197  1.00  0.00     0.029 A 
ATOM     48  C   UNL A   1      41.097  27.278  28.418  1.00  0.00     0.049 A 
ATOM     49  H   UNL A   1      43.157  27.232  28.118  1.00  0.00     0.167 HD
ATOM     50  C   UNL A   1      47.495  26.938  27.614  1.00  0.00     0.037 A 
ATOM     51  C   UNL A   1      40.788  28.510  28.863  1.00  0.00     0.037 A 
ATOM     52  C   UNL A   1      47.249  28.306  27.988  1.00  0.00     0.049 A 
ATOM     53  C   UNL A   1      41.887  29.523  29.040  1.00  0.00     0.074 A 
ATOM     54  C   UNL A   1      48.157  29.344  28.106  1.00  0.00     0.029 A 
ATOM     55  N   UNL A   1      46.004  28.826  28.310  1.00  0.00    -0.354 N 
ATOM     56  N   UNL A   1      43.172  29.395  28.818  1.00  0.00    -0.248 NA
ATOM     57  C   UNL A   1      41.490  30.852  29.524  1.00  0.00     0.031 C 
ATOM     58  C   UNL A   1      47.471  30.476  28.554  1.00  0.00     0.029 A 
ATOM     59  C   UNL A   1      46.125  30.161  28.657  1.00  0.00     0.049 A 
ATOM     60  H   UNL A   1      45.159  28.320  28.296  1.00  0.00     0.167 HD
ATOM     61  C   UNL A   1      43.733  30.634  29.106  1.00  0.00     0.074 A 
ATOM     62  C   UNL A   1      42.644  31.502  29.504  1.00  0.00     0.031 C 
ATOM     63  C   UNL A   1      45.031  31.017  29.045  1.00  0.00     0.037 A 
BRANCH  50  64
ATOM     64  C   UNL A   1      48.915  26.511  27.370  1.00  0.00     0.057 A 
ATOM     65  C   UNL A   1      49.732  26.031  28.402  1.00  0.00     0.134 A 
ATOM     66  C   UNL A   1      49.459  26.545  26.080  1.00  0.00     0.134 A 
ATOM     67  F   UNL A   1      49.278  25.983  29.664  1.00  0.00    -0.206 F 
ATOM     68  C   UNL A   1      51.047  25.626  28.165  1.00  0.00     0.040 A 
ATOM     69  C   UNL A   1      50.762  26.114  25.826  1.00  0.00     0.040 A 
ATOM     70  F   UNL A   1      48.731  26.987  25.043  1.00  0.00    -0.206 F 
ATOM     71  C   UNL A   1      51.563  25.661  26.871  1.00  0.00     0.006 A 
ENDBRANCH  50  64
BRANCH  51  72
ATOM     72  C   UNL A   1      39.376  28.864  29.159  1.00  0.00     0.057 A 
ATOM     73  C   UNL A   1      38.840  28.684  30.440  1.00  0.00     0.134 A 
ATOM     74  C   UNL A   1      38.527  29.378  28.172  1.00  0.00     0.134 A 
ATOM     75  F   UNL A   1      39.597  28.178  31.424  1.00  0.00    -0.206 F 
ATOM     76  C   UNL A   1      37.505  28.978  30.723  1.00  0.00     0.040 A 
ATOM     77  C   UNL A   1      37.199  29.706  28.448  1.00  0.00     0.040 A 
ATOM     78  F   UNL A   1      38.982  29.586  26.927  1.00  0.00    -0.206 F 
ATOM     79  C   UNL A   1      36.682  29.497  29.725  1.00  0.00     0.006 A 
ENDBRANCH  51  72
BRANCH  63  80
ATOM     80  C   UNL A   1      45.346  32.447  29.379  1.00  0.00     0.057 A 
ATOM     81  C   UNL A   1      45.715  32.844  30.670  1.00  0.00     0.134 A 
ATOM     82  C   UNL A   1      45.317  33.432  28.382  1.00  0.00     0.134 A 
ATOM     83  F   UNL A   1      45.748  31.953  31.671  1.00  0.00    -0.206 F 
ATOM     84  C   UNL A   1      46.024  34.174  30.963  1.00  0.00     0.040 A 
ATOM     85  C   UNL A   1      45.654  34.758  28.657  1.00  0.00     0.040 A 
ATOM     86  F   UNL A   1      44.982  33.118  27.122  1.00  0.00    -0.206 F 
ATOM     87  C   UNL A   1      46.002  35.133  29.952  1.00  0.00     0.006 A 
ENDBRANCH  63  80
ENDBRANCH  37  38
ENDBRANCH  29  32
ENDBRANCH  27  28
ENDBRANCH  26  27
ENDBRANCH  25  26
ENDBRANCH   1  25
TORSDOF 17
ENDMDL
MODEL 3
REMARK VINA RESULT:     -11.3      0.916      6.110
REMARK SMILES COc1ncccc1C[C@H](C(=O)NCCCCCCNC(=O)c1ccc(-c2c3nc(c(-c4c(F)cccc4F)c4ccc([nH]4)c(-c4c(F)cccc4F)c4nc(c(-c5c(F)cccc5F)c5ccc2[nH]5)C=C4)C=C3)cc1)c1ccc(F)cc1
REMARK SMILES IDX 16 1 15 2 14 3 13 4 11 5 12 6 10 8 9 9 8 10 3 11 4 12 5 13
REMARK SMILES IDX 7 14 6 15 2 16 1 17 77 18 78 19 83 20 79 21 82 22 80 23
REMARK SMILES IDX 81 24 17 25 18 26 19 27 20 28 21 29 22 31 23 32 24 33 76 34
REMARK SMILES IDX 25 35 75 36 26 37 27 38 28 39 69 40 29 41 74 42 68 43 70 44
REMARK SMILES IDX 30 45 73 46 67 47 66 48 31 50 57 51 40 52 56 53 41 54 44 55
REMARK SMILES IDX 55 56 71 57 42 58 43 59 54 61 72 62 45 63 32 64 33 65 38 66
REMARK SMILES IDX 34 67 35 68 37 69 39 70 36 71 58 72 59 73 64 74 60 75 61 76
REMARK SMILES IDX 63 77 65 78 62 79 46 80 47 81 52 82 48 83 49 84 51 85 53 86
REMARK SMILES IDX 50 87
REMARK H PARENT 13 7 20 30 70 49 44 60
REMARK Flexibility Score: inf
ROOT
ATOM      1  C   UNL A   1      32.164  29.956  27.006  1.00  0.00     0.002 C 
ENDROOT
BRANCH   1   2
ATOM      2  C   UNL A   1      32.253  28.492  26.593  1.00  0.00     0.021 C 
BRANCH   2   3
ATOM      3  C   UNL A   1      33.622  28.036  26.119  1.00  0.00     0.116 C 
BRANCH   3   4
ATOM      4  N   UNL A   1      34.050  28.604  24.882  1.00  0.00    -0.356 N 
ATOM      5  C   UNL A   1      33.823  28.168  23.618  1.00  0.00     0.227 C 
ATOM      6  O   UNL A   1      34.499  28.746  22.755  1.00  0.00    -0.274 OA
ATOM      7  H   UNL A   1      34.583  29.429  24.956  1.00  0.00     0.163 HD
BRANCH   5   8
ATOM      8  C   UNL A   1      32.840  27.011  23.213  1.00  0.00     0.113 C 
BRANCH   8   9
ATOM      9  C   UNL A   1      32.737  25.656  24.015  1.00  0.00     0.059 C 
BRANCH   9  10
ATOM     10  C   UNL A   1      34.020  24.826  24.135  1.00  0.00     0.015 A 
ATOM     11  C   UNL A   1      34.500  24.052  23.076  1.00  0.00     0.216 A 
ATOM     12  N   UNL A   1      35.667  23.365  23.077  1.00  0.00    -0.222 NA
ATOM     13  C   UNL A   1      36.393  23.400  24.213  1.00  0.00     0.115 A 
ATOM     14  C   UNL A   1      34.763  24.730  25.320  1.00  0.00     0.011 A 
ATOM     15  C   UNL A   1      35.973  24.040  25.361  1.00  0.00     0.021 A 
BRANCH  11  16
ATOM     16  O   UNL A   1      33.612  23.707  22.089  1.00  0.00    -0.481 OA
ATOM     17  C   UNL A   1      32.853  22.571  22.455  1.00  0.00     0.280 C 
ENDBRANCH  11  16
ENDBRANCH   9  10
ENDBRANCH   8   9
BRANCH   8  18
ATOM     18  C   UNL A   1      31.428  27.641  23.197  1.00  0.00    -0.035 A 
ATOM     19  C   UNL A   1      30.310  26.877  23.584  1.00  0.00     0.007 A 
ATOM     20  C   UNL A   1      31.231  28.970  22.794  1.00  0.00     0.007 A 
ATOM     21  C   UNL A   1      29.022  27.397  23.470  1.00  0.00     0.039 A 
ATOM     22  C   UNL A   1      29.938  29.477  22.648  1.00  0.00     0.039 A 
ATOM     23  C   UNL A   1      28.846  28.681  22.970  1.00  0.00     0.123 A 
ATOM     24  F   UNL A   1      27.607  29.156  22.793  1.00  0.00    -0.207 F 
ENDBRANCH   8  18
ENDBRANCH   5   8
ENDBRANCH   3   4
ENDBRANCH   2   3
ENDBRANCH   1   2
BRANCH   1  25
ATOM     25  C   UNL A   1      31.245  30.824  26.143  1.00  0.00     0.002 C 
BRANCH  25  26
ATOM     26  C   UNL A   1      31.224  32.315  26.486  1.00  0.00     0.021 C 
BRANCH  26  27
ATOM     27  C   UNL A   1      32.574  32.916  26.861  1.00  0.00     0.116 C 
BRANCH  27  28
ATOM     28  N   UNL A   1      32.445  34.192  27.543  1.00  0.00    -0.352 N 
ATOM     29  C   UNL A   1      33.130  34.676  28.629  1.00  0.00     0.251 C 
ATOM     30  H   UNL A   1      31.766  34.800  27.170  1.00  0.00     0.163 HD
ATOM     31  O   UNL A   1      32.769  35.708  29.178  1.00  0.00    -0.269 OA
BRANCH  29  32
ATOM     32  C   UNL A   1      34.294  33.929  29.151  1.00  0.00     0.039 A 
ATOM     33  C   UNL A   1      35.577  34.336  28.778  1.00  0.00     0.014 A 
ATOM     34  C   UNL A   1      34.122  32.835  30.004  1.00  0.00     0.014 A 
ATOM     35  C   UNL A   1      36.689  33.685  29.312  1.00  0.00     0.010 A 
ATOM     36  C   UNL A   1      35.232  32.236  30.593  1.00  0.00     0.010 A 
ATOM     37  C   UNL A   1      36.527  32.654  30.251  1.00  0.00    -0.014 A 
BRANCH  37  38
ATOM     38  C   UNL A   1      37.699  32.008  30.893  1.00  0.00     0.031 A 
ATOM     39  C   UNL A   1      38.452  30.922  30.176  1.00  0.00     0.074 A 
ATOM     40  C   UNL A   1      38.045  32.355  32.148  1.00  0.00     0.049 A 
ATOM     41  N   UNL A   1      39.455  30.194  30.599  1.00  0.00    -0.248 NA
ATOM     42  C   UNL A   1      38.004  30.592  28.815  1.00  0.00     0.031 C 
ATOM     43  C   UNL A   1      37.368  33.363  32.964  1.00  0.00     0.029 A 
ATOM     44  N   UNL A   1      39.049  31.891  32.961  1.00  0.00    -0.354 N 
ATOM     45  C   UNL A   1      39.748  29.316  29.562  1.00  0.00     0.074 A 
ATOM     46  C   UNL A   1      38.782  29.564  28.514  1.00  0.00     0.031 C 
ATOM     47  C   UNL A   1      37.988  33.459  34.151  1.00  0.00     0.029 A 
ATOM     48  C   UNL A   1      39.078  32.489  34.198  1.00  0.00     0.049 A 
ATOM     49  H   UNL A   1      39.688  31.194  32.685  1.00  0.00     0.167 HD
ATOM     50  C   UNL A   1      40.746  28.404  29.483  1.00  0.00     0.037 A 
ATOM     51  C   UNL A   1      39.883  32.273  35.254  1.00  0.00     0.037 A 
ATOM     52  C   UNL A   1      41.715  28.174  30.522  1.00  0.00     0.049 A 
ATOM     53  C   UNL A   1      40.968  31.236  35.149  1.00  0.00     0.074 A 
ATOM     54  C   UNL A   1      42.799  27.313  30.514  1.00  0.00     0.029 A 
ATOM     55  N   UNL A   1      41.715  28.805  31.757  1.00  0.00    -0.354 N 
ATOM     56  N   UNL A   1      41.277  30.463  34.137  1.00  0.00    -0.248 NA
ATOM     57  C   UNL A   1      41.820  31.046  36.332  1.00  0.00     0.031 C 
ATOM     58  C   UNL A   1      43.420  27.381  31.765  1.00  0.00     0.029 A 
ATOM     59  C   UNL A   1      42.761  28.329  32.531  1.00  0.00     0.049 A 
ATOM     60  H   UNL A   1      41.066  29.489  32.043  1.00  0.00     0.167 HD
ATOM     61  C   UNL A   1      42.375  29.717  34.549  1.00  0.00     0.074 A 
ATOM     62  C   UNL A   1      42.687  30.143  35.897  1.00  0.00     0.031 C 
ATOM     63  C   UNL A   1      43.064  28.768  33.870  1.00  0.00     0.037 A 
BRANCH  50  64
ATOM     64  C   UNL A   1      40.837  27.582  28.229  1.00  0.00     0.057 A 
ATOM     65  C   UNL A   1      40.157  26.365  28.089  1.00  0.00     0.134 A 
ATOM     66  C   UNL A   1      41.585  28.032  27.133  1.00  0.00     0.134 A 
ATOM     67  F   UNL A   1      39.433  25.869  29.103  1.00  0.00    -0.206 F 
ATOM     68  C   UNL A   1      40.240  25.612  26.916  1.00  0.00     0.040 A 
ATOM     69  C   UNL A   1      41.650  27.303  25.945  1.00  0.00     0.040 A 
ATOM     70  F   UNL A   1      42.256  29.192  27.195  1.00  0.00    -0.206 F 
ATOM     71  C   UNL A   1      40.982  26.086  25.836  1.00  0.00     0.006 A 
ENDBRANCH  50  64
BRANCH  51  72
ATOM     72  C   UNL A   1      39.708  33.062  36.500  1.00  0.00     0.057 A 
ATOM     73  C   UNL A   1      38.808  32.655  37.493  1.00  0.00     0.134 A 
ATOM     74  C   UNL A   1      40.423  34.245  36.725  1.00  0.00     0.134 A 
ATOM     75  F   UNL A   1      38.080  31.541  37.328  1.00  0.00    -0.206 F 
ATOM     76  C   UNL A   1      38.607  33.407  38.652  1.00  0.00     0.040 A 
ATOM     77  C   UNL A   1      40.254  34.991  37.893  1.00  0.00     0.040 A 
ATOM     78  F   UNL A   1      41.308  34.685  35.819  1.00  0.00    -0.206 F 
ATOM     79  C   UNL A   1      39.337  34.576  38.857  1.00  0.00     0.006 A 
ENDBRANCH  51  72
BRANCH  63  80
ATOM     80  C   UNL A   1      44.247  28.149  34.558  1.00  0.00     0.057 A 
ATOM     81  C   UNL A   1      45.527  28.713  34.487  1.00  0.00     0.134 A 
ATOM     82  C   UNL A   1      44.091  26.994  35.337  1.00  0.00     0.134 A 
ATOM     83  F   UNL A   1      45.746  29.810  33.747  1.00  0.00    -0.206 F 
ATOM     84  C   UNL A   1      46.614  28.138  35.147  1.00  0.00     0.040 A 
ATOM     85  C   UNL A   1      45.165  26.429  36.027  1.00  0.00     0.040 A 
ATOM     86  F   UNL A   1      42.891  26.409  35.457  1.00  0.00    -0.206 F 
ATOM     87  C   UNL A   1      46.432  26.998  35.927  1.00  0.00     0.006 A 
ENDBRANCH  63  80
ENDBRANCH  37  38
ENDBRANCH  29  32
ENDBRANCH  27  28
ENDBRANCH  26  27
ENDBRANCH  25  26
ENDBRANCH   1  25
TORSDOF 17
ENDMDL
