MODEL 1
REMARK VINA RESULT:     -11.8      0.000      0.000
REMARK SMILES CCCCc1ncc(C[N@H+]2C[C@@H]3c4ccccc4OC[C@]3(C(=O)NCCCCCCNC(=O)c3ccc(-c4c5nc(c(-c6c(F)cccc6F)c6ccc([nH]6)c(-c6c(F)cccc6F)c6nc(c(-c7c(F)cccc7F)c7ccc4[nH]7)C=C6)C=C5)cc3)C2)[nH]1
REMARK SMILES IDX 26 1 25 2 24 3 22 4 23 5 21 7 10 8 11 9 88 10 12 12 13 13
REMARK SMILES IDX 20 14 14 15 18 16 19 17 15 18 17 19 16 20 9 21 8 22 5 23
REMARK SMILES IDX 6 24 89 25 7 26 4 28 3 29 2 30 1 31 27 32 28 33 29 34 30 35
REMARK SMILES IDX 31 36 32 37 33 39 34 40 35 41 87 42 36 43 86 44 37 45 38 46
REMARK SMILES IDX 39 47 80 48 40 49 85 50 79 51 81 52 41 53 84 54 78 55 77 56
REMARK SMILES IDX 42 58 68 59 51 60 67 61 52 62 55 63 66 64 82 65 53 66 54 67
REMARK SMILES IDX 65 69 83 70 56 71 43 72 44 73 49 74 45 75 46 76 48 77 50 78
REMARK SMILES IDX 47 79 69 80 70 81 75 82 71 83 72 84 74 85 76 86 73 87 57 88
REMARK SMILES IDX 58 89 63 90 59 91 60 92 62 93 64 94 61 95
REMARK H PARENT 24 6 10 11 89 27 31 38 81 57 55 68
REMARK Flexibility Score: inf
ROOT
ATOM      1  C   UNL A   1      36.881  23.813  25.355  1.00  0.00     0.021 C 
ENDROOT
BRANCH   1   2
ATOM      2  C   UNL A   1      35.410  24.219  25.251  1.00  0.00     0.116 C 
BRANCH   2   3
ATOM      3  N   UNL A   1      34.640  23.709  24.106  1.00  0.00    -0.355 N 
ATOM      4  C   UNL A   1      33.642  24.222  23.302  1.00  0.00     0.236 C 
ATOM      5  O   UNL A   1      33.593  23.776  22.155  1.00  0.00    -0.274 OA
ATOM      6  H   UNL A   1      34.895  22.792  23.855  1.00  0.00     0.163 HD
BRANCH   4   7
ATOM      7  C   UNL A   1      32.499  25.105  23.842  1.00  0.00     0.144 C 
ATOM      8  N   UNL A   1      30.645  24.194  25.198  1.00  0.00    -0.328 N 
ATOM      9  C   UNL A   1      31.227  25.270  25.959  1.00  0.00     0.272 C 
ATOM     10  C   UNL A   1      31.244  24.236  23.875  1.00  0.00     0.284 C 
ATOM     11  H   UNL A   1      29.639  24.347  25.114  1.00  0.00     0.348 HD
ATOM     12  C   UNL A   1      32.594  25.603  25.314  1.00  0.00     0.103 C 
ATOM     13  C   UNL A   1      32.733  27.095  25.524  1.00  0.00     0.004 A 
ATOM     14  C   UNL A   1      32.623  26.292  22.861  1.00  0.00     0.253 C 
ATOM     15  C   UNL A   1      32.820  27.619  26.830  1.00  0.00     0.008 A 
ATOM     16  C   UNL A   1      32.514  27.978  24.473  1.00  0.00     0.123 A 
ATOM     17  O   UNL A   1      32.078  27.544  23.252  1.00  0.00    -0.492 OA
ATOM     18  C   UNL A   1      32.722  28.992  27.058  1.00  0.00     0.001 A 
ATOM     19  C   UNL A   1      32.519  29.357  24.685  1.00  0.00     0.047 A 
ATOM     20  C   UNL A   1      32.616  29.866  25.980  1.00  0.00     0.004 A 
BRANCH   8  21
ATOM     21  C   UNL A   1      30.580  22.884  25.855  1.00  0.00     0.319 C 
BRANCH  21  22
ATOM     22  C   UNL A   1      31.823  22.059  25.851  1.00  0.00     0.090 A 
ATOM     23  C   UNL A   1      33.357  20.530  25.326  1.00  0.00     0.106 A 
ATOM     24  N   UNL A   1      33.837  21.170  26.373  1.00  0.00    -0.241 NA
ATOM     25  N   UNL A   1      32.120  21.031  24.986  1.00  0.00    -0.341 N 
ATOM     26  C   UNL A   1      32.907  22.111  26.701  1.00  0.00     0.140 A 
ATOM     27  H   UNL A   1      31.548  20.711  24.252  1.00  0.00     0.168 HD
BRANCH  23  28
ATOM     28  C   UNL A   1      34.107  19.481  24.569  1.00  0.00     0.075 C 
BRANCH  28  29
ATOM     29  C   UNL A   1      33.586  18.048  24.689  1.00  0.00     0.008 C 
BRANCH  29  30
ATOM     30  C   UNL A   1      33.144  17.368  23.389  1.00  0.00    -0.003 C 
ATOM     31  C   UNL A   1      32.375  18.286  22.453  1.00  0.00     0.004 C 
ENDBRANCH  29  30
ENDBRANCH  28  29
ENDBRANCH  23  28
ENDBRANCH  21  22
ENDBRANCH   8  21
ENDBRANCH   4   7
ENDBRANCH   2   3
ENDBRANCH   1   2
BRANCH   1  32
ATOM     32  C   UNL A   1      37.120  22.343  25.726  1.00  0.00     0.002 C 
BRANCH  32  33
ATOM     33  C   UNL A   1      37.235  21.357  24.554  1.00  0.00     0.002 C 
BRANCH  33  34
ATOM     34  C   UNL A   1      38.082  20.109  24.808  1.00  0.00     0.021 C 
BRANCH  34  35
ATOM     35  C   UNL A   1      39.041  20.219  25.985  1.00  0.00     0.116 C 
BRANCH  35  36
ATOM     36  N   UNL A   1      40.168  19.306  25.865  1.00  0.00    -0.352 N 
ATOM     37  C   UNL A   1      41.511  19.550  26.015  1.00  0.00     0.251 C 
ATOM     38  H   UNL A   1      39.932  18.377  25.642  1.00  0.00     0.163 HD
ATOM     39  O   UNL A   1      42.336  18.703  25.678  1.00  0.00    -0.269 OA
BRANCH  37  40
ATOM     40  C   UNL A   1      41.963  20.845  26.565  1.00  0.00     0.039 A 
ATOM     41  C   UNL A   1      41.984  21.053  27.944  1.00  0.00     0.014 A 
ATOM     42  C   UNL A   1      42.356  21.867  25.696  1.00  0.00     0.014 A 
ATOM     43  C   UNL A   1      42.216  22.327  28.443  1.00  0.00     0.010 A 
ATOM     44  C   UNL A   1      42.699  23.122  26.211  1.00  0.00     0.010 A 
ATOM     45  C   UNL A   1      42.585  23.377  27.586  1.00  0.00    -0.014 A 
BRANCH  45  46
ATOM     46  C   UNL A   1      42.865  24.713  28.174  1.00  0.00     0.031 A 
ATOM     47  C   UNL A   1      44.269  25.150  28.491  1.00  0.00     0.074 A 
ATOM     48  C   UNL A   1      41.838  25.566  28.351  1.00  0.00     0.049 A 
ATOM     49  N   UNL A   1      44.692  26.311  28.927  1.00  0.00    -0.248 NA
ATOM     50  C   UNL A   1      45.337  24.157  28.303  1.00  0.00     0.031 C 
ATOM     51  C   UNL A   1      40.429  25.256  28.091  1.00  0.00     0.029 A 
ATOM     52  N   UNL A   1      41.818  26.877  28.754  1.00  0.00    -0.354 N 
ATOM     53  C   UNL A   1      46.068  26.186  29.079  1.00  0.00     0.074 A 
ATOM     54  C   UNL A   1      46.404  24.822  28.726  1.00  0.00     0.031 C 
ATOM     55  C   UNL A   1      39.694  26.361  28.273  1.00  0.00     0.029 A 
ATOM     56  C   UNL A   1      40.565  27.437  28.729  1.00  0.00     0.049 A 
ATOM     57  H   UNL A   1      42.624  27.368  29.035  1.00  0.00     0.167 HD
ATOM     58  C   UNL A   1      46.970  27.121  29.463  1.00  0.00     0.037 A 
ATOM     59  C   UNL A   1      40.156  28.677  29.049  1.00  0.00     0.037 A 
ATOM     60  C   UNL A   1      46.632  28.479  29.814  1.00  0.00     0.049 A 
ATOM     61  C   UNL A   1      41.172  29.681  29.512  1.00  0.00     0.074 A 
ATOM     62  C   UNL A   1      47.474  29.510  30.192  1.00  0.00     0.029 A 
ATOM     63  N   UNL A   1      45.342  28.992  29.839  1.00  0.00    -0.354 N 
ATOM     64  N   UNL A   1      42.472  29.556  29.616  1.00  0.00    -0.248 NA
ATOM     65  C   UNL A   1      40.658  30.998  29.905  1.00  0.00     0.031 C 
ATOM     66  C   UNL A   1      46.690  30.630  30.497  1.00  0.00     0.029 A 
ATOM     67  C   UNL A   1      45.364  30.316  30.253  1.00  0.00     0.049 A 
ATOM     68  H   UNL A   1      44.531  28.489  29.597  1.00  0.00     0.167 HD
ATOM     69  C   UNL A   1      42.935  30.780  30.077  1.00  0.00     0.074 A 
ATOM     70  C   UNL A   1      41.776  31.644  30.194  1.00  0.00     0.031 C 
ATOM     71  C   UNL A   1      44.201  31.156  30.386  1.00  0.00     0.037 A 
BRANCH  58  72
ATOM     72  C   UNL A   1      48.410  26.697  29.551  1.00  0.00     0.057 A 
ATOM     73  C   UNL A   1      48.923  26.149  30.735  1.00  0.00     0.134 A 
ATOM     74  C   UNL A   1      49.296  26.840  28.474  1.00  0.00     0.134 A 
ATOM     75  F   UNL A   1      48.135  25.990  31.809  1.00  0.00    -0.206 F 
ATOM     76  C   UNL A   1      50.257  25.755  30.842  1.00  0.00     0.040 A 
ATOM     77  C   UNL A   1      50.626  26.422  28.560  1.00  0.00     0.040 A 
ATOM     78  F   UNL A   1      48.870  27.344  27.305  1.00  0.00    -0.206 F 
ATOM     79  C   UNL A   1      51.112  25.884  29.749  1.00  0.00     0.006 A 
ENDBRANCH  58  72
BRANCH  59  80
ATOM     80  C   UNL A   1      38.718  29.036  28.958  1.00  0.00     0.057 A 
ATOM     81  C   UNL A   1      37.873  28.944  30.071  1.00  0.00     0.134 A 
ATOM     82  C   UNL A   1      38.159  29.496  27.759  1.00  0.00     0.134 A 
ATOM     83  F   UNL A   1      38.345  28.504  31.246  1.00  0.00    -0.206 F 
ATOM     84  C   UNL A   1      36.524  29.290  29.994  1.00  0.00     0.040 A 
ATOM     85  C   UNL A   1      36.818  29.875  27.678  1.00  0.00     0.040 A 
ATOM     86  F   UNL A   1      38.922  29.621  26.664  1.00  0.00    -0.206 F 
ATOM     87  C   UNL A   1      35.996  29.767  28.797  1.00  0.00     0.006 A 
ENDBRANCH  59  80
BRANCH  71  88
ATOM     88  C   UNL A   1      44.382  32.569  30.861  1.00  0.00     0.057 A 
ATOM     89  C   UNL A   1      44.377  32.871  32.228  1.00  0.00     0.134 A 
ATOM     90  C   UNL A   1      44.593  33.629  29.967  1.00  0.00     0.134 A 
ATOM     91  F   UNL A   1      44.173  31.908  33.139  1.00  0.00    -0.206 F 
ATOM     92  C   UNL A   1      44.590  34.170  32.690  1.00  0.00     0.040 A 
ATOM     93  C   UNL A   1      44.841  34.926  30.418  1.00  0.00     0.040 A 
ATOM     94  F   UNL A   1      44.626  33.406  28.645  1.00  0.00    -0.206 F 
ATOM     95  C   UNL A   1      44.838  35.200  31.785  1.00  0.00     0.006 A 
ENDBRANCH  71  88
ENDBRANCH  45  46
ENDBRANCH  37  40
ENDBRANCH  35  36
ENDBRANCH  34  35
ENDBRANCH  33  34
ENDBRANCH  32  33
ENDBRANCH   1  32
TORSDOF 18
ENDMDL
MODEL 2
REMARK VINA RESULT:     -11.7      3.544      9.137
REMARK SMILES CCCCc1ncc(C[N@H+]2C[C@@H]3c4ccccc4OC[C@]3(C(=O)NCCCCCCNC(=O)c3ccc(-c4c5nc(c(-c6c(F)cccc6F)c6ccc([nH]6)c(-c6c(F)cccc6F)c6nc(c(-c7c(F)cccc7F)c7ccc4[nH]7)C=C6)C=C5)cc3)C2)[nH]1
REMARK SMILES IDX 26 1 25 2 24 3 22 4 23 5 21 7 10 8 11 9 88 10 12 12 13 13
REMARK SMILES IDX 20 14 14 15 18 16 19 17 15 18 17 19 16 20 9 21 8 22 5 23
REMARK SMILES IDX 6 24 89 25 7 26 4 28 3 29 2 30 1 31 27 32 28 33 29 34 30 35
REMARK SMILES IDX 31 36 32 37 33 39 34 40 35 41 87 42 36 43 86 44 37 45 38 46
REMARK SMILES IDX 39 47 80 48 40 49 85 50 79 51 81 52 41 53 84 54 78 55 77 56
REMARK SMILES IDX 42 58 68 59 51 60 67 61 52 62 55 63 66 64 82 65 53 66 54 67
REMARK SMILES IDX 65 69 83 70 56 71 43 72 44 73 49 74 45 75 46 76 48 77 50 78
REMARK SMILES IDX 47 79 69 80 70 81 75 82 71 83 72 84 74 85 76 86 73 87 57 88
REMARK SMILES IDX 58 89 63 90 59 91 60 92 62 93 64 94 61 95
REMARK H PARENT 24 6 10 11 89 27 31 38 81 57 55 68
REMARK Flexibility Score: inf
ROOT
ATOM      1  C   UNL A   1      33.160  28.579  27.180  1.00  0.00     0.021 C 
ENDROOT
BRANCH   1   2
ATOM      2  C   UNL A   1      33.228  27.269  26.393  1.00  0.00     0.116 C 
BRANCH   2   3
ATOM      3  N   UNL A   1      32.182  26.266  26.643  1.00  0.00    -0.355 N 
ATOM      4  C   UNL A   1      32.087  24.900  26.469  1.00  0.00     0.236 C 
ATOM      5  O   UNL A   1      31.326  24.312  27.239  1.00  0.00    -0.274 OA
ATOM      6  H   UNL A   1      31.362  26.659  27.020  1.00  0.00     0.163 HD
BRANCH   4   7
ATOM      7  C   UNL A   1      32.682  24.164  25.253  1.00  0.00     0.144 C 
ATOM      8  N   UNL A   1      32.948  25.245  23.046  1.00  0.00    -0.328 N 
ATOM      9  C   UNL A   1      34.242  24.734  23.418  1.00  0.00     0.272 C 
ATOM     10  C   UNL A   1      31.994  24.726  24.012  1.00  0.00     0.284 C 
ATOM     11  H   UNL A   1      32.704  24.899  22.118  1.00  0.00     0.348 HD
ATOM     12  C   UNL A   1      34.188  24.392  24.926  1.00  0.00     0.103 C 
ATOM     13  C   UNL A   1      35.105  23.196  25.054  1.00  0.00     0.004 A 
ATOM     14  C   UNL A   1      32.444  22.707  25.708  1.00  0.00     0.253 C 
ATOM     15  C   UNL A   1      36.480  23.327  24.771  1.00  0.00     0.008 A 
ATOM     16  C   UNL A   1      34.579  21.916  25.190  1.00  0.00     0.123 A 
ATOM     17  O   UNL A   1      33.234  21.683  25.120  1.00  0.00    -0.492 OA
ATOM     18  C   UNL A   1      37.298  22.202  24.662  1.00  0.00     0.001 A 
ATOM     19  C   UNL A   1      35.412  20.796  25.186  1.00  0.00     0.047 A 
ATOM     20  C   UNL A   1      36.773  20.938  24.914  1.00  0.00     0.004 A 
BRANCH   8  21
ATOM     21  C   UNL A   1      32.868  26.677  22.740  1.00  0.00     0.319 C 
BRANCH  21  22
ATOM     22  C   UNL A   1      31.528  27.322  22.846  1.00  0.00     0.090 A 
ATOM     23  C   UNL A   1      29.820  28.729  22.581  1.00  0.00     0.106 A 
ATOM     24  N   UNL A   1      29.400  27.818  23.436  1.00  0.00    -0.241 NA
ATOM     25  N   UNL A   1      31.121  28.472  22.210  1.00  0.00    -0.341 N 
ATOM     26  C   UNL A   1      30.438  26.949  23.603  1.00  0.00     0.140 A 
ATOM     27  H   UNL A   1      31.665  29.016  21.596  1.00  0.00     0.168 HD
BRANCH  23  28
ATOM     28  C   UNL A   1      28.958  29.819  22.029  1.00  0.00     0.075 C 
BRANCH  28  29
ATOM     29  C   UNL A   1      27.660  30.111  22.783  1.00  0.00     0.008 C 
BRANCH  29  30
ATOM     30  C   UNL A   1      27.606  31.421  23.577  1.00  0.00    -0.003 C 
ATOM     31  C   UNL A   1      28.710  32.400  23.210  1.00  0.00     0.004 C 
ENDBRANCH  29  30
ENDBRANCH  28  29
ENDBRANCH  23  28
ENDBRANCH  21  22
ENDBRANCH   8  21
ENDBRANCH   4   7
ENDBRANCH   2   3
ENDBRANCH   1   2
BRANCH   1  32
ATOM     32  C   UNL A   1      31.806  29.299  27.120  1.00  0.00     0.002 C 
BRANCH  32  33
ATOM     33  C   UNL A   1      31.661  30.386  26.045  1.00  0.00     0.002 C 
BRANCH  33  34
ATOM     34  C   UNL A   1      31.465  31.814  26.557  1.00  0.00     0.021 C 
BRANCH  34  35
ATOM     35  C   UNL A   1      32.671  32.405  27.271  1.00  0.00     0.116 C 
BRANCH  35  36
ATOM     36  N   UNL A   1      32.445  33.781  27.688  1.00  0.00    -0.352 N 
ATOM     37  C   UNL A   1      33.139  34.546  28.593  1.00  0.00     0.251 C 
ATOM     38  H   UNL A   1      31.680  34.229  27.259  1.00  0.00     0.163 HD
ATOM     39  O   UNL A   1      32.684  35.624  28.971  1.00  0.00    -0.269 OA
BRANCH  37  40
ATOM     40  C   UNL A   1      34.428  34.060  29.127  1.00  0.00     0.039 A 
ATOM     41  C   UNL A   1      35.618  34.340  28.454  1.00  0.00     0.014 A 
ATOM     42  C   UNL A   1      34.450  33.303  30.302  1.00  0.00     0.014 A 
ATOM     43  C   UNL A   1      36.793  33.716  28.847  1.00  0.00     0.010 A 
ATOM     44  C   UNL A   1      35.657  32.766  30.760  1.00  0.00     0.010 A 
ATOM     45  C   UNL A   1      36.832  32.928  30.011  1.00  0.00    -0.014 A 
BRANCH  45  46
ATOM     46  C   UNL A   1      38.125  32.315  30.414  1.00  0.00     0.031 A 
ATOM     47  C   UNL A   1      38.954  32.898  31.525  1.00  0.00     0.074 A 
ATOM     48  C   UNL A   1      38.512  31.173  29.813  1.00  0.00     0.049 A 
ATOM     49  N   UNL A   1      40.060  32.439  32.056  1.00  0.00    -0.248 NA
ATOM     50  C   UNL A   1      38.488  34.162  32.115  1.00  0.00     0.031 C 
ATOM     51  C   UNL A   1      37.799  30.515  28.714  1.00  0.00     0.029 A 
ATOM     52  N   UNL A   1      39.575  30.343  30.061  1.00  0.00    -0.354 N 
ATOM     53  C   UNL A   1      40.431  33.361  33.028  1.00  0.00     0.074 A 
ATOM     54  C   UNL A   1      39.452  34.427  32.988  1.00  0.00     0.031 C 
ATOM     55  C   UNL A   1      38.402  29.353  28.431  1.00  0.00     0.029 A 
ATOM     56  C   UNL A   1      39.582  29.216  29.277  1.00  0.00     0.049 A 
ATOM     57  H   UNL A   1      40.265  30.537  30.735  1.00  0.00     0.167 HD
ATOM     58  C   UNL A   1      41.481  33.318  33.884  1.00  0.00     0.037 A 
ATOM     59  C   UNL A   1      40.447  28.188  29.233  1.00  0.00     0.037 A 
ATOM     60  C   UNL A   1      42.454  32.255  33.923  1.00  0.00     0.049 A 
ATOM     61  C   UNL A   1      41.624  28.188  30.165  1.00  0.00     0.074 A 
ATOM     62  C   UNL A   1      43.539  32.105  34.769  1.00  0.00     0.029 A 
ATOM     63  N   UNL A   1      42.465  31.161  33.069  1.00  0.00    -0.354 N 
ATOM     64  N   UNL A   1      41.940  29.050  31.101  1.00  0.00    -0.248 NA
ATOM     65  C   UNL A   1      42.567  27.072  30.027  1.00  0.00     0.031 C 
ATOM     66  C   UNL A   1      44.236  30.951  34.391  1.00  0.00     0.029 A 
ATOM     67  C   UNL A   1      43.554  30.348  33.349  1.00  0.00     0.049 A 
ATOM     68  H   UNL A   1      41.797  30.987  32.367  1.00  0.00     0.167 HD
ATOM     69  C   UNL A   1      43.111  28.575  31.673  1.00  0.00     0.074 A 
ATOM     70  C   UNL A   1      43.426  27.329  31.001  1.00  0.00     0.031 C 
ATOM     71  C   UNL A   1      43.866  29.123  32.657  1.00  0.00     0.037 A 
BRANCH  58  72
ATOM     72  C   UNL A   1      41.644  34.473  34.834  1.00  0.00     0.057 A 
ATOM     73  C   UNL A   1      42.410  35.590  34.474  1.00  0.00     0.134 A 
ATOM     74  C   UNL A   1      41.059  34.479  36.108  1.00  0.00     0.134 A 
ATOM     75  F   UNL A   1      43.006  35.650  33.274  1.00  0.00    -0.206 F 
ATOM     76  C   UNL A   1      42.583  36.670  35.342  1.00  0.00     0.040 A 
ATOM     77  C   UNL A   1      41.200  35.567  36.973  1.00  0.00     0.040 A 
ATOM     78  F   UNL A   1      40.301  33.449  36.513  1.00  0.00    -0.206 F 
ATOM     79  C   UNL A   1      41.969  36.664  36.593  1.00  0.00     0.006 A 
ENDBRANCH  58  72
BRANCH  59  80
ATOM     80  C   UNL A   1      40.243  27.082  28.264  1.00  0.00     0.057 A 
ATOM     81  C   UNL A   1      39.470  25.962  28.590  1.00  0.00     0.134 A 
ATOM     82  C   UNL A   1      40.802  27.129  26.980  1.00  0.00     0.134 A 
ATOM     83  F   UNL A   1      38.913  25.854  29.805  1.00  0.00    -0.206 F 
ATOM     84  C   UNL A   1      39.265  24.924  27.681  1.00  0.00     0.040 A 
ATOM     85  C   UNL A   1      40.578  26.113  26.050  1.00  0.00     0.040 A 
ATOM     86  F   UNL A   1      41.538  28.184  26.603  1.00  0.00    -0.206 F 
ATOM     87  C   UNL A   1      39.812  25.004  26.402  1.00  0.00     0.006 A 
ENDBRANCH  59  80
BRANCH  71  88
ATOM     88  C   UNL A   1      45.092  28.356  33.066  1.00  0.00     0.057 A 
ATOM     89  C   UNL A   1      46.333  28.624  32.477  1.00  0.00     0.134 A 
ATOM     90  C   UNL A   1      45.050  27.373  34.065  1.00  0.00     0.134 A 
ATOM     91  F   UNL A   1      46.445  29.546  31.509  1.00  0.00    -0.206 F 
ATOM     92  C   UNL A   1      47.491  27.955  32.876  1.00  0.00     0.040 A 
ATOM     93  C   UNL A   1      46.206  26.721  34.496  1.00  0.00     0.040 A 
ATOM     94  F   UNL A   1      43.896  27.079  34.682  1.00  0.00    -0.206 F 
ATOM     95  C   UNL A   1      47.432  27.011  33.899  1.00  0.00     0.006 A 
ENDBRANCH  71  88
ENDBRANCH  45  46
ENDBRANCH  37  40
ENDBRANCH  35  36
ENDBRANCH  34  35
ENDBRANCH  33  34
ENDBRANCH  32  33
ENDBRANCH   1  32
TORSDOF 18
ENDMDL
MODEL 3
REMARK VINA RESULT:     -11.6      3.496      8.353
REMARK SMILES CCCCc1ncc(C[N@H+]2C[C@@H]3c4ccccc4OC[C@]3(C(=O)NCCCCCCNC(=O)c3ccc(-c4c5nc(c(-c6c(F)cccc6F)c6ccc([nH]6)c(-c6c(F)cccc6F)c6nc(c(-c7c(F)cccc7F)c7ccc4[nH]7)C=C6)C=C5)cc3)C2)[nH]1
REMARK SMILES IDX 26 1 25 2 24 3 22 4 23 5 21 7 10 8 11 9 88 10 12 12 13 13
REMARK SMILES IDX 20 14 14 15 18 16 19 17 15 18 17 19 16 20 9 21 8 22 5 23
REMARK SMILES IDX 6 24 89 25 7 26 4 28 3 29 2 30 1 31 27 32 28 33 29 34 30 35
REMARK SMILES IDX 31 36 32 37 33 39 34 40 35 41 87 42 36 43 86 44 37 45 38 46
REMARK SMILES IDX 39 47 80 48 40 49 85 50 79 51 81 52 41 53 84 54 78 55 77 56
REMARK SMILES IDX 42 58 68 59 51 60 67 61 52 62 55 63 66 64 82 65 53 66 54 67
REMARK SMILES IDX 65 69 83 70 56 71 43 72 44 73 49 74 45 75 46 76 48 77 50 78
REMARK SMILES IDX 47 79 69 80 70 81 75 82 71 83 72 84 74 85 76 86 73 87 57 88
REMARK SMILES IDX 58 89 63 90 59 91 60 92 62 93 64 94 61 95
REMARK H PARENT 24 6 10 11 89 27 31 38 81 57 55 68
REMARK Flexibility Score: inf
ROOT
ATOM      1  C   UNL A   1      33.319  28.684  27.011  1.00  0.00     0.021 C 
ENDROOT
BRANCH   1   2
ATOM      2  C   UNL A   1      32.547  27.401  26.704  1.00  0.00     0.116 C 
BRANCH   2   3
ATOM      3  N   UNL A   1      33.307  26.254  26.186  1.00  0.00    -0.355 N 
ATOM      4  C   UNL A   1      33.720  25.850  24.932  1.00  0.00     0.236 C 
ATOM      5  O   UNL A   1      34.747  25.170  24.898  1.00  0.00    -0.274 OA
ATOM      6  H   UNL A   1      33.584  25.630  26.896  1.00  0.00     0.163 HD
BRANCH   4   7
ATOM      7  C   UNL A   1      32.852  26.009  23.668  1.00  0.00     0.144 C 
ATOM      8  N   UNL A   1      31.919  24.073  22.447  1.00  0.00    -0.328 N 
ATOM      9  C   UNL A   1      30.812  24.936  22.767  1.00  0.00     0.272 C 
ATOM     10  C   UNL A   1      33.134  24.800  22.781  1.00  0.00     0.284 C 
ATOM     11  H   UNL A   1      31.914  23.876  21.446  1.00  0.00     0.348 HD
ATOM     12  C   UNL A   1      31.304  25.944  23.833  1.00  0.00     0.103 C 
ATOM     13  C   UNL A   1      30.529  27.204  23.518  1.00  0.00     0.004 A 
ATOM     14  C   UNL A   1      33.290  27.429  23.247  1.00  0.00     0.253 C 
ATOM     15  C   UNL A   1      29.125  27.219  23.641  1.00  0.00     0.008 A 
ATOM     16  C   UNL A   1      31.145  28.264  22.862  1.00  0.00     0.123 A 
ATOM     17  O   UNL A   1      32.427  28.173  22.399  1.00  0.00    -0.492 OA
ATOM     18  C   UNL A   1      28.374  28.285  23.145  1.00  0.00     0.001 A 
ATOM     19  C   UNL A   1      30.408  29.380  22.459  1.00  0.00     0.047 A 
ATOM     20  C   UNL A   1      29.020  29.388  22.594  1.00  0.00     0.004 A 
BRANCH   8  21
ATOM     21  C   UNL A   1      31.829  22.685  22.912  1.00  0.00     0.319 C 
BRANCH  21  22
ATOM     22  C   UNL A   1      32.551  22.341  24.170  1.00  0.00     0.090 A 
ATOM     23  C   UNL A   1      34.145  21.749  25.611  1.00  0.00     0.106 A 
ATOM     24  N   UNL A   1      33.050  21.892  26.331  1.00  0.00    -0.241 NA
ATOM     25  N   UNL A   1      33.879  21.998  24.283  1.00  0.00    -0.341 N 
ATOM     26  C   UNL A   1      32.068  22.257  25.458  1.00  0.00     0.140 A 
ATOM     27  H   UNL A   1      34.525  21.940  23.543  1.00  0.00     0.168 HD
BRANCH  23  28
ATOM     28  C   UNL A   1      35.494  21.459  26.188  1.00  0.00     0.075 C 
BRANCH  28  29
ATOM     29  C   UNL A   1      36.620  22.423  25.811  1.00  0.00     0.008 C 
BRANCH  29  30
ATOM     30  C   UNL A   1      37.830  21.819  25.092  1.00  0.00    -0.003 C 
ATOM     31  C   UNL A   1      39.051  21.660  25.983  1.00  0.00     0.004 C 
ENDBRANCH  29  30
ENDBRANCH  28  29
ENDBRANCH  23  28
ENDBRANCH  21  22
ENDBRANCH   8  21
ENDBRANCH   4   7
ENDBRANCH   2   3
ENDBRANCH   1   2
BRANCH   1  32
ATOM     32  C   UNL A   1      33.068  29.840  26.034  1.00  0.00     0.002 C 
BRANCH  32  33
ATOM     33  C   UNL A   1      31.629  30.374  25.968  1.00  0.00     0.002 C 
BRANCH  33  34
ATOM     34  C   UNL A   1      31.408  31.779  26.531  1.00  0.00     0.021 C 
BRANCH  34  35
ATOM     35  C   UNL A   1      32.622  32.389  27.216  1.00  0.00     0.116 C 
BRANCH  35  36
ATOM     36  N   UNL A   1      32.408  33.781  27.580  1.00  0.00    -0.352 N 
ATOM     37  C   UNL A   1      33.089  34.565  28.479  1.00  0.00     0.251 C 
ATOM     38  H   UNL A   1      31.665  34.227  27.113  1.00  0.00     0.163 HD
ATOM     39  O   UNL A   1      32.642  35.662  28.807  1.00  0.00    -0.269 OA
BRANCH  37  40
ATOM     40  C   UNL A   1      34.353  34.075  29.068  1.00  0.00     0.039 A 
ATOM     41  C   UNL A   1      35.576  34.430  28.498  1.00  0.00     0.014 A 
ATOM     42  C   UNL A   1      34.317  33.241  30.189  1.00  0.00     0.014 A 
ATOM     43  C   UNL A   1      36.740  33.809  28.930  1.00  0.00     0.010 A 
ATOM     44  C   UNL A   1      35.506  32.704  30.693  1.00  0.00     0.010 A 
ATOM     45  C   UNL A   1      36.723  32.946  30.039  1.00  0.00    -0.014 A 
BRANCH  45  46
ATOM     46  C   UNL A   1      38.003  32.339  30.489  1.00  0.00     0.031 A 
ATOM     47  C   UNL A   1      38.757  32.888  31.669  1.00  0.00     0.074 A 
ATOM     48  C   UNL A   1      38.446  31.231  29.864  1.00  0.00     0.049 A 
ATOM     49  N   UNL A   1      39.841  32.427  32.242  1.00  0.00    -0.248 NA
ATOM     50  C   UNL A   1      38.234  34.118  32.283  1.00  0.00     0.031 C 
ATOM     51  C   UNL A   1      37.810  30.608  28.699  1.00  0.00     0.029 A 
ATOM     52  N   UNL A   1      39.510  30.409  30.137  1.00  0.00    -0.354 N 
ATOM     53  C   UNL A   1      40.138  33.312  33.272  1.00  0.00     0.074 A 
ATOM     54  C   UNL A   1      39.142  34.362  33.220  1.00  0.00     0.031 C 
ATOM     55  C   UNL A   1      38.451  29.470  28.403  1.00  0.00     0.029 A 
ATOM     56  C   UNL A   1      39.584  29.317  29.309  1.00  0.00     0.049 A 
ATOM     57  H   UNL A   1      40.157  30.586  30.857  1.00  0.00     0.167 HD
ATOM     58  C   UNL A   1      41.139  33.251  34.184  1.00  0.00     0.037 A 
ATOM     59  C   UNL A   1      40.471  28.308  29.271  1.00  0.00     0.037 A 
ATOM     60  C   UNL A   1      42.130  32.205  34.233  1.00  0.00     0.049 A 
ATOM     61  C   UNL A   1      41.593  28.288  30.268  1.00  0.00     0.074 A 
ATOM     62  C   UNL A   1      43.168  32.039  35.132  1.00  0.00     0.029 A 
ATOM     63  N   UNL A   1      42.210  31.149  33.336  1.00  0.00    -0.354 N 
ATOM     64  N   UNL A   1      41.838  29.115  31.255  1.00  0.00    -0.248 NA
ATOM     65  C   UNL A   1      42.564  27.196  30.138  1.00  0.00     0.031 C 
ATOM     66  C   UNL A   1      43.908  30.914  34.747  1.00  0.00     0.029 A 
ATOM     67  C   UNL A   1      43.297  30.344  33.643  1.00  0.00     0.049 A 
ATOM     68  H   UNL A   1      41.586  30.993  32.590  1.00  0.00     0.167 HD
ATOM     69  C   UNL A   1      42.985  28.637  31.872  1.00  0.00     0.074 A 
ATOM     70  C   UNL A   1      43.362  27.427  31.169  1.00  0.00     0.031 C 
ATOM     71  C   UNL A   1      43.673  29.156  32.921  1.00  0.00     0.037 A 
BRANCH  58  72
ATOM     72  C   UNL A   1      41.226  34.367  35.188  1.00  0.00     0.057 A 
ATOM     73  C   UNL A   1      40.565  34.272  36.421  1.00  0.00     0.134 A 
ATOM     74  C   UNL A   1      41.948  35.542  34.937  1.00  0.00     0.134 A 
ATOM     75  F   UNL A   1      39.847  33.180  36.727  1.00  0.00    -0.206 F 
ATOM     76  C   UNL A   1      40.624  35.298  37.365  1.00  0.00     0.040 A 
ATOM     77  C   UNL A   1      42.039  36.563  35.886  1.00  0.00     0.040 A 
ATOM     78  F   UNL A   1      42.617  35.696  33.783  1.00  0.00    -0.206 F 
ATOM     79  C   UNL A   1      41.370  36.445  37.102  1.00  0.00     0.006 A 
ENDBRANCH  58  72
BRANCH  59  80
ATOM     80  C   UNL A   1      40.343  27.241  28.247  1.00  0.00     0.057 A 
ATOM     81  C   UNL A   1      39.580  26.091  28.484  1.00  0.00     0.134 A 
ATOM     82  C   UNL A   1      40.967  27.355  26.998  1.00  0.00     0.134 A 
ATOM     83  F   UNL A   1      38.963  25.919  29.662  1.00  0.00    -0.206 F 
ATOM     84  C   UNL A   1      39.447  25.090  27.522  1.00  0.00     0.040 A 
ATOM     85  C   UNL A   1      40.817  26.375  26.015  1.00  0.00     0.040 A 
ATOM     86  F   UNL A   1      41.698  28.440  26.706  1.00  0.00    -0.206 F 
ATOM     87  C   UNL A   1      40.059  25.236  26.279  1.00  0.00     0.006 A 
ENDBRANCH  59  80
BRANCH  71  88
ATOM     88  C   UNL A   1      44.888  28.393  33.366  1.00  0.00     0.057 A 
ATOM     89  C   UNL A   1      44.778  27.343  34.284  1.00  0.00     0.134 A 
ATOM     90  C   UNL A   1      46.166  28.679  32.861  1.00  0.00     0.134 A 
ATOM     91  F   UNL A   1      43.589  27.022  34.814  1.00  0.00    -0.206 F 
ATOM     92  C   UNL A   1      45.889  26.594  34.674  1.00  0.00     0.040 A 
ATOM     93  C   UNL A   1      47.278  27.915  33.217  1.00  0.00     0.040 A 
ATOM     94  F   UNL A   1      46.338  29.661  31.964  1.00  0.00    -0.206 F 
ATOM     95  C   UNL A   1      47.141  26.869  34.128  1.00  0.00     0.006 A 
ENDBRANCH  71  88
ENDBRANCH  45  46
ENDBRANCH  37  40
ENDBRANCH  35  36
ENDBRANCH  34  35
ENDBRANCH  33  34
ENDBRANCH  32  33
ENDBRANCH   1  32
TORSDOF 18
ENDMDL
