MODEL 1
REMARK VINA RESULT:     -12.3      0.000      0.000
REMARK SMILES Cc1ccc(NC(=O)C[C@@H]2C[NH2+]CCO2)c(C(=O)NCCCCCCNC(=O)c2ccc(-c3c4nc(c(-c5c(F)cccc5F)c5ccc([nH]5)c(-c5c(F)cccc5F)c5nc(c(-c6c(F)cccc6F)c6ccc3[nH]6)C=C5)C=C4)cc2)c1
REMARK SMILES IDX 22 1 21 2 20 3 19 4 17 5 18 6 16 8 1 9 2 10 3 11 83 12 4 13
REMARK SMILES IDX 5 14 6 15 7 16 8 18 9 19 10 20 11 21 15 22 12 23 14 24 13 25
REMARK SMILES IDX 23 28 24 29 25 30 26 31 27 32 28 34 29 35 30 36 82 37 31 38
REMARK SMILES IDX 81 39 32 40 33 41 34 42 75 43 35 44 80 45 74 46 76 47 36 48
REMARK SMILES IDX 79 49 73 50 72 51 37 53 63 54 46 55 62 56 47 57 50 58 61 59
REMARK SMILES IDX 77 60 48 61 49 62 60 64 78 65 51 66 38 67 39 68 44 69 40 70
REMARK SMILES IDX 41 71 43 72 45 73 42 74 64 75 65 76 70 77 66 78 67 79 69 80
REMARK SMILES IDX 71 81 68 82 52 83 53 84 58 85 54 86 55 87 57 88 59 89 56 90
REMARK H PARENT 19 7 6 17 12 26 12 27 26 33 76 52 50 63
REMARK Flexibility Score: inf
ROOT
ATOM      1  C   UNL A   1      37.041  22.951  24.625  1.00  0.00     0.002 C 
ENDROOT
BRANCH   1   2
ATOM      2  C   UNL A   1      35.593  23.233  25.058  1.00  0.00     0.021 C 
BRANCH   2   3
ATOM      3  C   UNL A   1      34.775  21.976  25.366  1.00  0.00     0.116 C 
BRANCH   3   4
ATOM      4  N   UNL A   1      34.062  21.532  24.184  1.00  0.00    -0.352 N 
ATOM      5  C   UNL A   1      32.836  21.852  23.657  1.00  0.00     0.253 C 
ATOM      6  O   UNL A   1      32.571  21.375  22.553  1.00  0.00    -0.269 OA
ATOM      7  H   UNL A   1      34.558  20.868  23.652  1.00  0.00     0.163 HD
BRANCH   5   8
ATOM      8  C   UNL A   1      31.885  22.804  24.312  1.00  0.00     0.063 A 
ATOM      9  C   UNL A   1      29.576  22.941  27.352  1.00  0.00     0.044 C 
ATOM     10  C   UNL A   1      30.371  23.359  26.152  1.00  0.00    -0.050 A 
ATOM     11  C   UNL A   1      30.304  24.670  25.684  1.00  0.00     0.005 A 
ATOM     12  C   UNL A   1      31.151  22.431  25.450  1.00  0.00     0.019 A 
ATOM     13  C   UNL A   1      30.934  25.023  24.489  1.00  0.00     0.027 A 
ATOM     14  C   UNL A   1      31.645  24.077  23.743  1.00  0.00     0.054 A 
BRANCH  14  15
ATOM     15  N   UNL A   1      32.053  24.329  22.411  1.00  0.00    -0.325 N 
ATOM     16  C   UNL A   1      32.926  25.246  21.890  1.00  0.00     0.227 C 
ATOM     17  H   UNL A   1      31.636  23.741  21.741  1.00  0.00     0.169 HD
ATOM     18  O   UNL A   1      33.044  25.307  20.660  1.00  0.00    -0.275 OA
BRANCH  16  19
ATOM     19  C   UNL A   1      33.738  26.196  22.746  1.00  0.00     0.138 C 
BRANCH  19  20
ATOM     20  C   UNL A   1      33.213  27.637  22.870  1.00  0.00     0.182 C 
ATOM     21  C   UNL A   1      33.705  28.224  24.222  1.00  0.00     0.293 C 
ATOM     22  O   UNL A   1      31.785  27.688  22.787  1.00  0.00    -0.366 OA
ATOM     23  N   UNL A   1      33.151  29.554  24.537  1.00  0.00    -0.342 N 
ATOM     24  C   UNL A   1      31.253  28.986  23.050  1.00  0.00     0.222 C 
ATOM     25  C   UNL A   1      31.684  29.478  24.434  1.00  0.00     0.289 C 
ATOM     26  H   UNL A   1      33.510  30.243  23.875  1.00  0.00     0.346 HD
ATOM     27  H   UNL A   1      33.424  29.834  25.478  1.00  0.00     0.346 HD
ENDBRANCH  19  20
ENDBRANCH  16  19
ENDBRANCH  14  15
ENDBRANCH   5   8
ENDBRANCH   3   4
ENDBRANCH   2   3
ENDBRANCH   1   2
BRANCH   1  28
ATOM     28  C   UNL A   1      37.590  21.552  24.957  1.00  0.00     0.002 C 
BRANCH  28  29
ATOM     29  C   UNL A   1      38.920  21.517  25.716  1.00  0.00     0.021 C 
BRANCH  29  30
ATOM     30  C   UNL A   1      39.256  22.823  26.428  1.00  0.00     0.116 C 
BRANCH  30  31
ATOM     31  N   UNL A   1      40.680  23.141  26.426  1.00  0.00    -0.352 N 
ATOM     32  C   UNL A   1      41.302  24.368  26.579  1.00  0.00     0.251 C 
ATOM     33  H   UNL A   1      41.284  22.375  26.298  1.00  0.00     0.163 HD
ATOM     34  O   UNL A   1      42.519  24.453  26.557  1.00  0.00    -0.269 OA
BRANCH  32  35
ATOM     35  C   UNL A   1      40.476  25.555  26.906  1.00  0.00     0.039 A 
ATOM     36  C   UNL A   1      40.792  26.759  26.267  1.00  0.00     0.014 A 
ATOM     37  C   UNL A   1      39.580  25.536  27.973  1.00  0.00     0.014 A 
ATOM     38  C   UNL A   1      40.425  27.960  26.867  1.00  0.00     0.010 A 
ATOM     39  C   UNL A   1      39.281  26.726  28.612  1.00  0.00     0.010 A 
ATOM     40  C   UNL A   1      39.776  27.930  28.103  1.00  0.00    -0.014 A 
BRANCH  40  41
ATOM     41  C   UNL A   1      39.758  29.082  29.000  1.00  0.00     0.031 A 
ATOM     42  C   UNL A   1      38.701  30.108  28.926  1.00  0.00     0.074 A 
ATOM     43  C   UNL A   1      40.726  29.211  29.936  1.00  0.00     0.049 A 
ATOM     44  N   UNL A   1      38.886  31.339  29.271  1.00  0.00    -0.248 NA
ATOM     45  C   UNL A   1      37.356  29.833  28.437  1.00  0.00     0.031 C 
ATOM     46  C   UNL A   1      40.772  30.172  31.035  1.00  0.00     0.029 A 
ATOM     47  N   UNL A   1      41.997  28.623  29.935  1.00  0.00    -0.354 N 
ATOM     48  C   UNL A   1      37.660  31.950  29.293  1.00  0.00     0.074 A 
ATOM     49  C   UNL A   1      36.743  30.991  28.713  1.00  0.00     0.031 C 
ATOM     50  C   UNL A   1      42.050  30.340  31.405  1.00  0.00     0.029 A 
ATOM     51  C   UNL A   1      42.877  29.582  30.482  1.00  0.00     0.049 A 
ATOM     52  H   UNL A   1      42.231  27.720  29.615  1.00  0.00     0.167 HD
ATOM     53  C   UNL A   1      37.508  33.160  29.898  1.00  0.00     0.037 A 
ATOM     54  C   UNL A   1      43.911  30.082  29.750  1.00  0.00     0.037 A 
ATOM     55  C   UNL A   1      38.752  33.674  30.456  1.00  0.00     0.049 A 
ATOM     56  C   UNL A   1      43.846  31.573  29.491  1.00  0.00     0.074 A 
ATOM     57  C   UNL A   1      39.309  33.702  31.724  1.00  0.00     0.029 A 
ATOM     58  N   UNL A   1      39.770  34.024  29.589  1.00  0.00    -0.354 N 
ATOM     59  N   UNL A   1      42.891  32.358  29.908  1.00  0.00    -0.248 NA
ATOM     60  C   UNL A   1      44.809  32.276  28.640  1.00  0.00     0.031 C 
ATOM     61  C   UNL A   1      40.677  34.077  31.604  1.00  0.00     0.029 A 
ATOM     62  C   UNL A   1      40.948  34.279  30.264  1.00  0.00     0.049 A 
ATOM     63  H   UNL A   1      39.669  34.084  28.612  1.00  0.00     0.167 HD
ATOM     64  C   UNL A   1      43.046  33.598  29.342  1.00  0.00     0.074 A 
ATOM     65  C   UNL A   1      44.269  33.504  28.569  1.00  0.00     0.031 C 
ATOM     66  C   UNL A   1      42.136  34.601  29.497  1.00  0.00     0.037 A 
BRANCH  53  67
ATOM     67  C   UNL A   1      36.153  33.750  30.153  1.00  0.00     0.057 A 
ATOM     68  C   UNL A   1      35.346  34.215  29.101  1.00  0.00     0.134 A 
ATOM     69  C   UNL A   1      35.613  33.912  31.440  1.00  0.00     0.134 A 
ATOM     70  F   UNL A   1      35.708  34.070  27.820  1.00  0.00    -0.206 F 
ATOM     71  C   UNL A   1      34.134  34.879  29.320  1.00  0.00     0.040 A 
ATOM     72  C   UNL A   1      34.428  34.619  31.677  1.00  0.00     0.040 A 
ATOM     73  F   UNL A   1      36.218  33.384  32.515  1.00  0.00    -0.206 F 
ATOM     74  C   UNL A   1      33.688  35.116  30.612  1.00  0.00     0.006 A 
ENDBRANCH  53  67
BRANCH  54  75
ATOM     75  C   UNL A   1      44.503  29.083  28.825  1.00  0.00     0.057 A 
ATOM     76  C   UNL A   1      45.358  28.098  29.351  1.00  0.00     0.134 A 
ATOM     77  C   UNL A   1      43.990  28.865  27.544  1.00  0.00     0.134 A 
ATOM     78  F   UNL A   1      45.883  28.245  30.578  1.00  0.00    -0.206 F 
ATOM     79  C   UNL A   1      45.608  26.902  28.677  1.00  0.00     0.040 A 
ATOM     80  C   UNL A   1      44.244  27.676  26.854  1.00  0.00     0.040 A 
ATOM     81  F   UNL A   1      43.149  29.748  26.986  1.00  0.00    -0.206 F 
ATOM     82  C   UNL A   1      45.022  26.676  27.435  1.00  0.00     0.006 A 
ENDBRANCH  54  75
BRANCH  66  83
ATOM     83  C   UNL A   1      42.298  35.972  28.908  1.00  0.00     0.057 A 
ATOM     84  C   UNL A   1      41.774  36.319  27.656  1.00  0.00     0.134 A 
ATOM     85  C   UNL A   1      43.103  36.950  29.526  1.00  0.00     0.134 A 
ATOM     86  F   UNL A   1      41.044  35.446  26.947  1.00  0.00    -0.206 F 
ATOM     87  C   UNL A   1      42.001  37.572  27.073  1.00  0.00     0.040 A 
ATOM     88  C   UNL A   1      43.376  38.186  28.934  1.00  0.00     0.040 A 
ATOM     89  F   UNL A   1      43.640  36.755  30.738  1.00  0.00    -0.206 F 
ATOM     90  C   UNL A   1      42.815  38.505  27.706  1.00  0.00     0.006 A 
ENDBRANCH  66  83
ENDBRANCH  40  41
ENDBRANCH  32  35
ENDBRANCH  30  31
ENDBRANCH  29  30
ENDBRANCH  28  29
ENDBRANCH   1  28
TORSDOF 16
ENDMDL
MODEL 2
REMARK VINA RESULT:     -12.2      1.643      3.420
REMARK SMILES Cc1ccc(NC(=O)C[C@@H]2C[NH2+]CCO2)c(C(=O)NCCCCCCNC(=O)c2ccc(-c3c4nc(c(-c5c(F)cccc5F)c5ccc([nH]5)c(-c5c(F)cccc5F)c5nc(c(-c6c(F)cccc6F)c6ccc3[nH]6)C=C5)C=C4)cc2)c1
REMARK SMILES IDX 22 1 21 2 20 3 19 4 17 5 18 6 16 8 1 9 2 10 3 11 83 12 4 13
REMARK SMILES IDX 5 14 6 15 7 16 8 18 9 19 10 20 11 21 15 22 12 23 14 24 13 25
REMARK SMILES IDX 23 28 24 29 25 30 26 31 27 32 28 34 29 35 30 36 82 37 31 38
REMARK SMILES IDX 81 39 32 40 33 41 34 42 75 43 35 44 80 45 74 46 76 47 36 48
REMARK SMILES IDX 79 49 73 50 72 51 37 53 63 54 46 55 62 56 47 57 50 58 61 59
REMARK SMILES IDX 77 60 48 61 49 62 60 64 78 65 51 66 38 67 39 68 44 69 40 70
REMARK SMILES IDX 41 71 43 72 45 73 42 74 64 75 65 76 70 77 66 78 67 79 69 80
REMARK SMILES IDX 71 81 68 82 52 83 53 84 58 85 54 86 55 87 57 88 59 89 56 90
REMARK H PARENT 19 7 6 17 12 26 12 27 26 33 76 52 50 63
REMARK Flexibility Score: inf
ROOT
ATOM      1  C   UNL A   1      35.251  23.860  24.299  1.00  0.00     0.002 C 
ENDROOT
BRANCH   1   2
ATOM      2  C   UNL A   1      34.924  24.883  25.398  1.00  0.00     0.021 C 
BRANCH   2   3
ATOM      3  C   UNL A   1      33.918  25.957  24.976  1.00  0.00     0.116 C 
BRANCH   3   4
ATOM      4  N   UNL A   1      33.336  26.594  26.141  1.00  0.00    -0.352 N 
ATOM      5  C   UNL A   1      32.112  27.169  26.379  1.00  0.00     0.253 C 
ATOM      6  O   UNL A   1      31.887  27.522  27.538  1.00  0.00    -0.269 OA
ATOM      7  H   UNL A   1      33.940  26.619  26.919  1.00  0.00     0.163 HD
BRANCH   5   8
ATOM      8  C   UNL A   1      31.046  27.289  25.336  1.00  0.00     0.063 A 
ATOM      9  C   UNL A   1      29.869  29.774  22.685  1.00  0.00     0.044 C 
ATOM     10  C   UNL A   1      30.015  28.517  23.488  1.00  0.00    -0.050 A 
ATOM     11  C   UNL A   1      29.217  27.409  23.214  1.00  0.00     0.005 A 
ATOM     12  C   UNL A   1      30.913  28.453  24.561  1.00  0.00     0.019 A 
ATOM     13  C   UNL A   1      29.256  26.290  24.049  1.00  0.00     0.027 A 
ATOM     14  C   UNL A   1      30.093  26.257  25.169  1.00  0.00     0.054 A 
BRANCH  14  15
ATOM     15  N   UNL A   1      29.955  25.270  26.176  1.00  0.00    -0.325 N 
ATOM     16  C   UNL A   1      30.484  24.013  26.289  1.00  0.00     0.227 C 
ATOM     17  H   UNL A   1      29.377  25.536  26.927  1.00  0.00     0.169 HD
ATOM     18  O   UNL A   1      30.132  23.317  27.250  1.00  0.00    -0.275 OA
BRANCH  16  19
ATOM     19  C   UNL A   1      31.461  23.432  25.289  1.00  0.00     0.138 C 
BRANCH  19  20
ATOM     20  C   UNL A   1      31.780  21.933  25.423  1.00  0.00     0.182 C 
ATOM     21  C   UNL A   1      32.978  21.772  26.400  1.00  0.00     0.293 C 
ATOM     22  O   UNL A   1      32.079  21.341  24.156  1.00  0.00    -0.366 OA
ATOM     23  N   UNL A   1      33.484  20.391  26.508  1.00  0.00    -0.342 N 
ATOM     24  C   UNL A   1      32.528  19.990  24.258  1.00  0.00     0.222 C 
ATOM     25  C   UNL A   1      33.769  19.897  25.150  1.00  0.00     0.289 C 
ATOM     26  H   UNL A   1      32.781  19.799  26.952  1.00  0.00     0.346 HD
ATOM     27  H   UNL A   1      34.331  20.371  27.075  1.00  0.00     0.346 HD
ENDBRANCH  19  20
ENDBRANCH  16  19
ENDBRANCH  14  15
ENDBRANCH   5   8
ENDBRANCH   3   4
ENDBRANCH   2   3
ENDBRANCH   1   2
BRANCH   1  28
ATOM     28  C   UNL A   1      36.479  22.965  24.547  1.00  0.00     0.002 C 
BRANCH  28  29
ATOM     29  C   UNL A   1      37.727  23.674  25.082  1.00  0.00     0.021 C 
BRANCH  29  30
ATOM     30  C   UNL A   1      38.411  22.935  26.227  1.00  0.00     0.116 C 
BRANCH  30  31
ATOM     31  N   UNL A   1      39.864  23.055  26.217  1.00  0.00    -0.352 N 
ATOM     32  C   UNL A   1      40.654  24.139  26.559  1.00  0.00     0.251 C 
ATOM     33  H   UNL A   1      40.353  22.252  25.925  1.00  0.00     0.163 HD
ATOM     34  O   UNL A   1      41.871  24.064  26.497  1.00  0.00    -0.269 OA
BRANCH  32  35
ATOM     35  C   UNL A   1      40.009  25.345  27.130  1.00  0.00     0.039 A 
ATOM     36  C   UNL A   1      40.255  26.570  26.502  1.00  0.00     0.014 A 
ATOM     37  C   UNL A   1      39.380  25.303  28.374  1.00  0.00     0.014 A 
ATOM     38  C   UNL A   1      40.119  27.746  27.233  1.00  0.00     0.010 A 
ATOM     39  C   UNL A   1      39.317  26.461  29.127  1.00  0.00     0.010 A 
ATOM     40  C   UNL A   1      39.767  27.668  28.583  1.00  0.00    -0.014 A 
BRANCH  40  41
ATOM     41  C   UNL A   1      40.033  28.755  29.520  1.00  0.00     0.031 A 
ATOM     42  C   UNL A   1      39.011  29.765  29.850  1.00  0.00     0.074 A 
ATOM     43  C   UNL A   1      41.245  28.836  30.117  1.00  0.00     0.049 A 
ATOM     44  N   UNL A   1      39.299  30.973  30.206  1.00  0.00    -0.248 NA
ATOM     45  C   UNL A   1      37.579  29.501  29.784  1.00  0.00     0.031 C 
ATOM     46  C   UNL A   1      41.634  29.720  31.213  1.00  0.00     0.029 A 
ATOM     47  N   UNL A   1      42.450  28.271  29.681  1.00  0.00    -0.354 N 
ATOM     48  C   UNL A   1      38.143  31.559  30.650  1.00  0.00     0.074 A 
ATOM     49  C   UNL A   1      37.087  30.627  30.317  1.00  0.00     0.031 C 
ATOM     50  C   UNL A   1      42.965  29.885  31.180  1.00  0.00     0.029 A 
ATOM     51  C   UNL A   1      43.461  29.206  29.995  1.00  0.00     0.049 A 
ATOM     52  H   UNL A   1      42.569  27.397  29.242  1.00  0.00     0.167 HD
ATOM     53  C   UNL A   1      38.193  32.722  31.357  1.00  0.00     0.037 A 
ATOM     54  C   UNL A   1      44.220  29.774  29.016  1.00  0.00     0.037 A 
ATOM     55  C   UNL A   1      39.550  33.218  31.537  1.00  0.00     0.049 A 
ATOM     56  C   UNL A   1      44.084  31.277  28.895  1.00  0.00     0.074 A 
ATOM     57  C   UNL A   1      40.474  33.169  32.569  1.00  0.00     0.029 A 
ATOM     58  N   UNL A   1      40.251  33.645  30.425  1.00  0.00    -0.354 N 
ATOM     59  N   UNL A   1      43.310  32.015  29.643  1.00  0.00    -0.248 NA
ATOM     60  C   UNL A   1      44.739  32.054  27.840  1.00  0.00     0.031 C 
ATOM     61  C   UNL A   1      41.739  33.575  32.058  1.00  0.00     0.029 A 
ATOM     62  C   UNL A   1      41.582  33.873  30.718  1.00  0.00     0.049 A 
ATOM     63  H   UNL A   1      39.852  33.770  29.534  1.00  0.00     0.167 HD
ATOM     64  C   UNL A   1      43.287  33.293  29.145  1.00  0.00     0.074 A 
ATOM     65  C   UNL A   1      44.210  33.274  28.027  1.00  0.00     0.031 C 
ATOM     66  C   UNL A   1      42.475  34.267  29.645  1.00  0.00     0.037 A 
BRANCH  53  67
ATOM     67  C   UNL A   1      36.987  33.269  32.060  1.00  0.00     0.057 A 
ATOM     68  C   UNL A   1      35.975  33.949  31.360  1.00  0.00     0.134 A 
ATOM     69  C   UNL A   1      36.796  33.177  33.449  1.00  0.00     0.134 A 
ATOM     70  F   UNL A   1      35.996  34.060  30.026  1.00  0.00    -0.206 F 
ATOM     71  C   UNL A   1      34.903  34.575  32.006  1.00  0.00     0.040 A 
ATOM     72  C   UNL A   1      35.757  33.841  34.114  1.00  0.00     0.040 A 
ATOM     73  F   UNL A   1      37.614  32.434  34.211  1.00  0.00    -0.206 F 
ATOM     74  C   UNL A   1      34.810  34.553  33.391  1.00  0.00     0.006 A 
ENDBRANCH  53  67
BRANCH  54  75
ATOM     75  C   UNL A   1      44.490  28.850  27.885  1.00  0.00     0.057 A 
ATOM     76  C   UNL A   1      45.409  27.803  28.073  1.00  0.00     0.134 A 
ATOM     77  C   UNL A   1      43.639  28.763  26.781  1.00  0.00     0.134 A 
ATOM     78  F   UNL A   1      46.254  27.825  29.116  1.00  0.00    -0.206 F 
ATOM     79  C   UNL A   1      45.410  26.668  27.260  1.00  0.00     0.040 A 
ATOM     80  C   UNL A   1      43.640  27.637  25.952  1.00  0.00     0.040 A 
ATOM     81  F   UNL A   1      42.720  29.711  26.550  1.00  0.00    -0.206 F 
ATOM     82  C   UNL A   1      44.499  26.570  26.213  1.00  0.00     0.006 A 
ENDBRANCH  54  75
BRANCH  66  83
ATOM     83  C   UNL A   1      42.453  35.678  29.133  1.00  0.00     0.057 A 
ATOM     84  C   UNL A   1      41.640  36.078  28.064  1.00  0.00     0.134 A 
ATOM     85  C   UNL A   1      43.349  36.653  29.616  1.00  0.00     0.134 A 
ATOM     86  F   UNL A   1      40.792  35.217  27.483  1.00  0.00    -0.206 F 
ATOM     87  C   UNL A   1      41.686  37.374  27.535  1.00  0.00     0.040 A 
ATOM     88  C   UNL A   1      43.438  37.934  29.067  1.00  0.00     0.040 A 
ATOM     89  F   UNL A   1      44.161  36.407  30.654  1.00  0.00    -0.206 F 
ATOM     90  C   UNL A   1      42.597  38.302  28.027  1.00  0.00     0.006 A 
ENDBRANCH  66  83
ENDBRANCH  40  41
ENDBRANCH  32  35
ENDBRANCH  30  31
ENDBRANCH  29  30
ENDBRANCH  28  29
ENDBRANCH   1  28
TORSDOF 16
ENDMDL
MODEL 3
REMARK VINA RESULT:     -12.2      1.300      3.170
REMARK SMILES Cc1ccc(NC(=O)C[C@@H]2C[NH2+]CCO2)c(C(=O)NCCCCCCNC(=O)c2ccc(-c3c4nc(c(-c5c(F)cccc5F)c5ccc([nH]5)c(-c5c(F)cccc5F)c5nc(c(-c6c(F)cccc6F)c6ccc3[nH]6)C=C5)C=C4)cc2)c1
REMARK SMILES IDX 22 1 21 2 20 3 19 4 17 5 18 6 16 8 1 9 2 10 3 11 83 12 4 13
REMARK SMILES IDX 5 14 6 15 7 16 8 18 9 19 10 20 11 21 15 22 12 23 14 24 13 25
REMARK SMILES IDX 23 28 24 29 25 30 26 31 27 32 28 34 29 35 30 36 82 37 31 38
REMARK SMILES IDX 81 39 32 40 33 41 34 42 75 43 35 44 80 45 74 46 76 47 36 48
REMARK SMILES IDX 79 49 73 50 72 51 37 53 63 54 46 55 62 56 47 57 50 58 61 59
REMARK SMILES IDX 77 60 48 61 49 62 60 64 78 65 51 66 38 67 39 68 44 69 40 70
REMARK SMILES IDX 41 71 43 72 45 73 42 74 64 75 65 76 70 77 66 78 67 79 69 80
REMARK SMILES IDX 71 81 68 82 52 83 53 84 58 85 54 86 55 87 57 88 59 89 56 90
REMARK H PARENT 19 7 6 17 12 26 12 27 26 33 76 52 50 63
REMARK Flexibility Score: inf
ROOT
ATOM      1  C   UNL A   1      37.598  23.631  25.919  1.00  0.00     0.002 C 
ENDROOT
BRANCH   1   2
ATOM      2  C   UNL A   1      36.146  24.023  25.603  1.00  0.00     0.021 C 
BRANCH   2   3
ATOM      3  C   UNL A   1      35.450  23.098  24.600  1.00  0.00     0.116 C 
BRANCH   3   4
ATOM      4  N   UNL A   1      35.059  23.837  23.416  1.00  0.00    -0.352 N 
ATOM      5  C   UNL A   1      33.969  24.616  23.118  1.00  0.00     0.253 C 
ATOM      6  O   UNL A   1      33.997  25.211  22.039  1.00  0.00    -0.269 OA
ATOM      7  H   UNL A   1      35.705  23.765  22.676  1.00  0.00     0.163 HD
BRANCH   5   8
ATOM      8  C   UNL A   1      32.834  24.836  24.068  1.00  0.00     0.063 A 
ATOM      9  C   UNL A   1      31.862  27.202  26.904  1.00  0.00     0.044 C 
ATOM     10  C   UNL A   1      31.779  26.144  25.846  1.00  0.00    -0.050 A 
ATOM     11  C   UNL A   1      30.608  25.410  25.674  1.00  0.00     0.005 A 
ATOM     12  C   UNL A   1      32.890  25.838  25.050  1.00  0.00     0.019 A 
ATOM     13  C   UNL A   1      30.576  24.334  24.784  1.00  0.00     0.027 A 
ATOM     14  C   UNL A   1      31.711  23.974  24.049  1.00  0.00     0.054 A 
BRANCH  14  15
ATOM     15  N   UNL A   1      31.795  22.741  23.359  1.00  0.00    -0.325 N 
ATOM     16  C   UNL A   1      32.074  21.475  23.799  1.00  0.00     0.227 C 
ATOM     17  H   UNL A   1      31.623  22.805  22.392  1.00  0.00     0.169 HD
ATOM     18  O   UNL A   1      32.163  20.571  22.958  1.00  0.00    -0.275 OA
BRANCH  16  19
ATOM     19  C   UNL A   1      32.292  21.135  25.258  1.00  0.00     0.138 C 
BRANCH  19  20
ATOM     20  C   UNL A   1      32.995  19.799  25.560  1.00  0.00     0.182 C 
ATOM     21  C   UNL A   1      34.279  19.714  24.691  1.00  0.00     0.293 C 
ATOM     22  O   UNL A   1      32.137  18.683  25.307  1.00  0.00    -0.366 OA
ATOM     23  N   UNL A   1      34.975  18.416  24.773  1.00  0.00    -0.342 N 
ATOM     24  C   UNL A   1      32.801  17.425  25.429  1.00  0.00     0.222 C 
ATOM     25  C   UNL A   1      34.000  17.351  24.479  1.00  0.00     0.289 C 
ATOM     26  H   UNL A   1      35.357  18.287  25.710  1.00  0.00     0.346 HD
ATOM     27  H   UNL A   1      35.742  18.385  24.102  1.00  0.00     0.346 HD
ENDBRANCH  19  20
ENDBRANCH  16  19
ENDBRANCH  14  15
ENDBRANCH   5   8
ENDBRANCH   3   4
ENDBRANCH   2   3
ENDBRANCH   1   2
BRANCH   1  28
ATOM     28  C   UNL A   1      38.028  22.215  25.493  1.00  0.00     0.002 C 
BRANCH  28  29
ATOM     29  C   UNL A   1      39.320  21.688  26.126  1.00  0.00     0.021 C 
BRANCH  29  30
ATOM     30  C   UNL A   1      39.953  22.652  27.124  1.00  0.00     0.116 C 
BRANCH  30  31
ATOM     31  N   UNL A   1      41.253  23.163  26.701  1.00  0.00    -0.352 N 
ATOM     32  C   UNL A   1      41.663  24.473  26.530  1.00  0.00     0.251 C 
ATOM     33  H   UNL A   1      41.934  22.478  26.510  1.00  0.00     0.163 HD
ATOM     34  O   UNL A   1      42.803  24.724  26.172  1.00  0.00    -0.269 OA
BRANCH  32  35
ATOM     35  C   UNL A   1      40.744  25.570  26.918  1.00  0.00     0.039 A 
ATOM     36  C   UNL A   1      40.860  26.784  26.234  1.00  0.00     0.014 A 
ATOM     37  C   UNL A   1      39.962  25.479  28.069  1.00  0.00     0.014 A 
ATOM     38  C   UNL A   1      40.420  27.952  26.849  1.00  0.00     0.010 A 
ATOM     39  C   UNL A   1      39.594  26.644  28.716  1.00  0.00     0.010 A 
ATOM     40  C   UNL A   1      39.900  27.882  28.143  1.00  0.00    -0.014 A 
BRANCH  40  41
ATOM     41  C   UNL A   1      39.838  29.048  29.020  1.00  0.00     0.031 A 
ATOM     42  C   UNL A   1      38.772  30.059  28.895  1.00  0.00     0.074 A 
ATOM     43  C   UNL A   1      40.773  29.203  29.986  1.00  0.00     0.049 A 
ATOM     44  N   UNL A   1      38.931  31.298  29.226  1.00  0.00    -0.248 NA
ATOM     45  C   UNL A   1      37.448  29.760  28.367  1.00  0.00     0.031 C 
ATOM     46  C   UNL A   1      40.771  30.182  31.071  1.00  0.00     0.029 A 
ATOM     47  N   UNL A   1      42.050  28.631  30.037  1.00  0.00    -0.354 N 
ATOM     48  C   UNL A   1      37.697  31.894  29.198  1.00  0.00     0.074 A 
ATOM     49  C   UNL A   1      36.812  30.915  28.603  1.00  0.00     0.031 C 
ATOM     50  C   UNL A   1      42.034  30.371  31.480  1.00  0.00     0.029 A 
ATOM     51  C   UNL A   1      42.900  29.610  30.597  1.00  0.00     0.049 A 
ATOM     52  H   UNL A   1      42.305  27.726  29.739  1.00  0.00     0.167 HD
ATOM     53  C   UNL A   1      37.511  33.111  29.779  1.00  0.00     0.037 A 
ATOM     54  C   UNL A   1      43.952  30.111  29.892  1.00  0.00     0.037 A 
ATOM     55  C   UNL A   1      38.729  33.649  30.369  1.00  0.00     0.049 A 
ATOM     56  C   UNL A   1      43.878  31.596  29.607  1.00  0.00     0.074 A 
ATOM     57  C   UNL A   1      39.244  33.704  31.654  1.00  0.00     0.029 A 
ATOM     58  N   UNL A   1      39.772  33.998  29.531  1.00  0.00    -0.354 N 
ATOM     59  N   UNL A   1      42.900  32.376  29.980  1.00  0.00    -0.248 NA
ATOM     60  C   UNL A   1      44.860  32.298  28.777  1.00  0.00     0.031 C 
ATOM     61  C   UNL A   1      40.611  34.094  31.574  1.00  0.00     0.029 A 
ATOM     62  C   UNL A   1      40.923  34.278  30.241  1.00  0.00     0.049 A 
ATOM     63  H   UNL A   1      39.702  34.042  28.551  1.00  0.00     0.167 HD
ATOM     64  C   UNL A   1      43.059  33.609  29.399  1.00  0.00     0.074 A 
ATOM     65  C   UNL A   1      44.308  33.518  28.669  1.00  0.00     0.031 C 
ATOM     66  C   UNL A   1      42.133  34.603  29.508  1.00  0.00     0.037 A 
BRANCH  53  67
ATOM     67  C   UNL A   1      36.142  33.688  29.979  1.00  0.00     0.057 A 
ATOM     68  C   UNL A   1      35.364  34.125  28.893  1.00  0.00     0.134 A 
ATOM     69  C   UNL A   1      35.558  33.864  31.245  1.00  0.00     0.134 A 
ATOM     70  F   UNL A   1      35.769  33.964  27.627  1.00  0.00    -0.206 F 
ATOM     71  C   UNL A   1      34.138  34.778  29.061  1.00  0.00     0.040 A 
ATOM     72  C   UNL A   1      34.357  34.561  31.430  1.00  0.00     0.040 A 
ATOM     73  F   UNL A   1      36.134  33.362  32.348  1.00  0.00    -0.206 F 
ATOM     74  C   UNL A   1      33.646  35.031  30.334  1.00  0.00     0.006 A 
ENDBRANCH  53  67
BRANCH  54  75
ATOM     75  C   UNL A   1      44.586  29.104  29.003  1.00  0.00     0.057 A 
ATOM     76  C   UNL A   1      45.473  28.169  29.565  1.00  0.00     0.134 A 
ATOM     77  C   UNL A   1      44.090  28.827  27.727  1.00  0.00     0.134 A 
ATOM     78  F   UNL A   1      45.984  28.375  30.790  1.00  0.00    -0.206 F 
ATOM     79  C   UNL A   1      45.770  26.962  28.932  1.00  0.00     0.040 A 
ATOM     80  C   UNL A   1      44.392  27.626  27.078  1.00  0.00     0.040 A 
ATOM     81  F   UNL A   1      43.221  29.659  27.136  1.00  0.00    -0.206 F 
ATOM     82  C   UNL A   1      45.202  26.675  27.695  1.00  0.00     0.006 A 
ENDBRANCH  54  75
BRANCH  66  83
ATOM     83  C   UNL A   1      42.298  35.966  28.903  1.00  0.00     0.057 A 
ATOM     84  C   UNL A   1      41.804  36.290  27.632  1.00  0.00     0.134 A 
ATOM     85  C   UNL A   1      43.077  36.961  29.527  1.00  0.00     0.134 A 
ATOM     86  F   UNL A   1      41.101  35.399  26.918  1.00  0.00    -0.206 F 
ATOM     87  C   UNL A   1      42.035  37.536  27.037  1.00  0.00     0.040 A 
ATOM     88  C   UNL A   1      43.354  38.190  28.924  1.00  0.00     0.040 A 
ATOM     89  F   UNL A   1      43.584  36.789  30.756  1.00  0.00    -0.206 F 
ATOM     90  C   UNL A   1      42.824  38.486  27.677  1.00  0.00     0.006 A 
ENDBRANCH  66  83
ENDBRANCH  40  41
ENDBRANCH  32  35
ENDBRANCH  30  31
ENDBRANCH  29  30
ENDBRANCH  28  29
ENDBRANCH   1  28
TORSDOF 16
ENDMDL
