MODEL 1
REMARK VINA RESULT:     -11.8      0.000      0.000
REMARK SMILES Cc1ccc(C)c(/C=C2\SC(=S)N(CC(=O)NCCCCCCNC(=O)c3ccc(-c4c5nc(c(-c6c(F)cccc6F)c6ccc([nH]6)c(-c6c(F)cccc6F)c6nc(c(-c7c(F)cccc7F)c7ccc4[nH]7)C=C6)C=C5)cc3)C2=O)c1
REMARK SMILES IDX 20 1 19 2 18 3 17 4 15 5 16 6 14 8 13 9 8 10 9 11 10 12
REMARK SMILES IDX 81 13 11 14 82 15 12 16 7 17 1 18 2 19 3 20 83 21 4 22 5 23
REMARK SMILES IDX 6 24 21 25 22 26 23 27 24 28 25 29 26 31 27 32 28 33 80 34
REMARK SMILES IDX 29 35 79 36 30 37 31 38 32 39 73 40 33 41 78 42 72 43 74 44
REMARK SMILES IDX 34 45 77 46 71 47 70 48 35 50 61 51 44 52 60 53 45 54 48 55
REMARK SMILES IDX 59 56 75 57 46 58 47 59 58 61 76 62 49 63 36 64 37 65 42 66
REMARK SMILES IDX 38 67 39 68 41 69 43 70 40 71 62 72 63 73 68 74 64 75 65 76
REMARK SMILES IDX 67 77 69 78 66 79 50 80 51 81 56 82 52 83 53 84 55 85 57 86
REMARK SMILES IDX 54 87
REMARK H PARENT 17 7 24 30 74 49 48 60
REMARK Flexibility Score: inf
ROOT
ATOM      1  C   UNL A   1      34.684  20.556  24.708  1.00  0.00     0.002 C 
ENDROOT
BRANCH   1   2
ATOM      2  C   UNL A   1      33.348  20.262  25.393  1.00  0.00     0.021 C 
BRANCH   2   3
ATOM      3  C   UNL A   1      32.232  21.228  25.005  1.00  0.00     0.116 C 
BRANCH   3   4
ATOM      4  N   UNL A   1      31.634  21.859  26.161  1.00  0.00    -0.355 N 
ATOM      5  C   UNL A   1      30.950  23.030  26.296  1.00  0.00     0.240 C 
ATOM      6  O   UNL A   1      30.304  23.176  27.337  1.00  0.00    -0.273 OA
ATOM      7  H   UNL A   1      31.740  21.354  27.000  1.00  0.00     0.163 HD
BRANCH   5   8
ATOM      8  C   UNL A   1      30.809  24.045  25.153  1.00  0.00     0.227 C 
BRANCH   8   9
ATOM      9  N   UNL A   1      31.672  25.218  25.258  1.00  0.00    -0.283 N 
ATOM     10  C   UNL A   1      32.152  28.361  26.943  1.00  0.00     0.029 C 
ATOM     11  C   UNL A   1      32.264  27.323  26.110  1.00  0.00     0.081 C 
ATOM     12  S   UNL A   1      33.559  26.953  25.050  1.00  0.00    -0.054 SA
ATOM     13  C   UNL A   1      31.240  26.249  26.078  1.00  0.00     0.266 C 
ATOM     14  C   UNL A   1      32.814  25.452  24.524  1.00  0.00     0.148 C 
ATOM     15  O   UNL A   1      30.197  26.287  26.700  1.00  0.00    -0.268 OA
ATOM     16  S   UNL A   1      33.482  24.520  23.313  1.00  0.00    -0.052 S 
BRANCH  10  17
ATOM     17  C   UNL A   1      33.205  29.353  27.171  1.00  0.00    -0.021 A 
ATOM     18  C   UNL A   1      36.880  29.451  28.148  1.00  0.00     0.044 C 
ATOM     19  C   UNL A   1      35.517  29.881  27.698  1.00  0.00    -0.051 A 
ATOM     20  C   UNL A   1      35.241  31.238  27.499  1.00  0.00     0.004 A 
ATOM     21  C   UNL A   1      34.504  28.939  27.482  1.00  0.00     0.011 A 
ATOM     22  C   UNL A   1      33.942  31.657  27.216  1.00  0.00     0.004 A 
ATOM     23  C   UNL A   1      32.903  30.723  27.112  1.00  0.00    -0.044 A 
ATOM     24  C   UNL A   1      31.486  31.197  26.957  1.00  0.00     0.045 C 
ENDBRANCH  10  17
ENDBRANCH   8   9
ENDBRANCH   5   8
ENDBRANCH   3   4
ENDBRANCH   2   3
ENDBRANCH   1   2
BRANCH   1  25
ATOM     25  C   UNL A   1      35.792  21.162  25.585  1.00  0.00     0.002 C 
BRANCH  25  26
ATOM     26  C   UNL A   1      36.071  22.673  25.495  1.00  0.00     0.021 C 
BRANCH  26  27
ATOM     27  C   UNL A   1      37.523  23.140  25.605  1.00  0.00     0.116 C 
BRANCH  27  28
ATOM     28  N   UNL A   1      38.417  22.126  26.180  1.00  0.00    -0.352 N 
ATOM     29  C   UNL A   1      39.657  22.207  26.793  1.00  0.00     0.251 C 
ATOM     30  H   UNL A   1      38.066  21.209  26.118  1.00  0.00     0.163 HD
ATOM     31  O   UNL A   1      40.367  21.210  26.849  1.00  0.00    -0.269 OA
BRANCH  29  32
ATOM     32  C   UNL A   1      40.126  23.470  27.407  1.00  0.00     0.039 A 
ATOM     33  C   UNL A   1      41.434  23.662  27.865  1.00  0.00     0.014 A 
ATOM     34  C   UNL A   1      39.208  24.492  27.568  1.00  0.00     0.014 A 
ATOM     35  C   UNL A   1      41.761  24.874  28.485  1.00  0.00     0.010 A 
ATOM     36  C   UNL A   1      39.588  25.753  27.905  1.00  0.00     0.010 A 
ATOM     37  C   UNL A   1      40.811  25.908  28.514  1.00  0.00    -0.014 A 
BRANCH  37  38
ATOM     38  C   UNL A   1      41.065  27.234  29.051  1.00  0.00     0.031 A 
ATOM     39  C   UNL A   1      42.212  27.888  28.399  1.00  0.00     0.074 A 
ATOM     40  C   UNL A   1      40.206  27.883  29.873  1.00  0.00     0.049 A 
ATOM     41  N   UNL A   1      43.377  28.065  28.916  1.00  0.00    -0.248 NA
ATOM     42  C   UNL A   1      42.134  28.185  26.961  1.00  0.00     0.031 C 
ATOM     43  C   UNL A   1      38.917  27.413  30.396  1.00  0.00     0.029 A 
ATOM     44  N   UNL A   1      40.275  29.155  30.366  1.00  0.00    -0.354 N 
ATOM     45  C   UNL A   1      44.112  28.725  27.943  1.00  0.00     0.074 A 
ATOM     46  C   UNL A   1      43.396  28.543  26.709  1.00  0.00     0.031 C 
ATOM     47  C   UNL A   1      38.271  28.432  31.008  1.00  0.00     0.029 A 
ATOM     48  C   UNL A   1      39.117  29.612  31.014  1.00  0.00     0.049 A 
ATOM     49  H   UNL A   1      41.082  29.712  30.276  1.00  0.00     0.167 HD
ATOM     50  C   UNL A   1      45.065  29.623  28.305  1.00  0.00     0.037 A 
ATOM     51  C   UNL A   1      38.901  30.872  31.489  1.00  0.00     0.037 A 
ATOM     52  C   UNL A   1      45.385  29.487  29.709  1.00  0.00     0.049 A 
ATOM     53  C   UNL A   1      40.259  31.425  31.728  1.00  0.00     0.074 A 
ATOM     54  C   UNL A   1      45.899  28.486  30.509  1.00  0.00     0.029 A 
ATOM     55  N   UNL A   1      44.772  30.380  30.555  1.00  0.00    -0.354 N 
ATOM     56  N   UNL A   1      41.041  31.001  32.680  1.00  0.00    -0.248 NA
ATOM     57  C   UNL A   1      40.919  32.196  30.683  1.00  0.00     0.031 C 
ATOM     58  C   UNL A   1      45.235  28.622  31.765  1.00  0.00     0.029 A 
ATOM     59  C   UNL A   1      44.388  29.728  31.698  1.00  0.00     0.049 A 
ATOM     60  H   UNL A   1      44.632  31.337  30.371  1.00  0.00     0.167 HD
ATOM     61  C   UNL A   1      42.312  31.047  32.133  1.00  0.00     0.074 A 
ATOM     62  C   UNL A   1      42.196  31.939  30.983  1.00  0.00     0.031 C 
ATOM     63  C   UNL A   1      43.247  30.121  32.494  1.00  0.00     0.037 A 
BRANCH  50  64
ATOM     64  C   UNL A   1      45.364  30.892  27.540  1.00  0.00     0.057 A 
ATOM     65  C   UNL A   1      46.673  31.095  27.066  1.00  0.00     0.134 A 
ATOM     66  C   UNL A   1      44.535  32.033  27.499  1.00  0.00     0.134 A 
ATOM     67  F   UNL A   1      47.565  30.092  27.058  1.00  0.00    -0.206 F 
ATOM     68  C   UNL A   1      47.144  32.352  26.670  1.00  0.00     0.040 A 
ATOM     69  C   UNL A   1      44.979  33.281  27.053  1.00  0.00     0.040 A 
ATOM     70  F   UNL A   1      43.287  32.046  27.978  1.00  0.00    -0.206 F 
ATOM     71  C   UNL A   1      46.297  33.452  26.670  1.00  0.00     0.006 A 
ENDBRANCH  50  64
BRANCH  51  72
ATOM     72  C   UNL A   1      37.680  31.722  31.672  1.00  0.00     0.057 A 
ATOM     73  C   UNL A   1      37.111  32.386  30.563  1.00  0.00     0.134 A 
ATOM     74  C   UNL A   1      36.877  31.722  32.820  1.00  0.00     0.134 A 
ATOM     75  F   UNL A   1      37.793  32.519  29.415  1.00  0.00    -0.206 F 
ATOM     76  C   UNL A   1      35.801  32.886  30.557  1.00  0.00     0.040 A 
ATOM     77  C   UNL A   1      35.556  32.204  32.826  1.00  0.00     0.040 A 
ATOM     78  F   UNL A   1      37.318  31.230  33.981  1.00  0.00    -0.206 F 
ATOM     79  C   UNL A   1      35.001  32.756  31.681  1.00  0.00     0.006 A 
ENDBRANCH  51  72
BRANCH  63  80
ATOM     80  C   UNL A   1      42.940  29.302  33.720  1.00  0.00     0.057 A 
ATOM     81  C   UNL A   1      42.290  28.058  33.700  1.00  0.00     0.134 A 
ATOM     82  C   UNL A   1      43.383  29.760  34.962  1.00  0.00     0.134 A 
ATOM     83  F   UNL A   1      41.914  27.491  32.549  1.00  0.00    -0.206 F 
ATOM     84  C   UNL A   1      42.042  27.332  34.868  1.00  0.00     0.040 A 
ATOM     85  C   UNL A   1      43.174  29.030  36.134  1.00  0.00     0.040 A 
ATOM     86  F   UNL A   1      44.058  30.917  35.053  1.00  0.00    -0.206 F 
ATOM     87  C   UNL A   1      42.487  27.818  36.092  1.00  0.00     0.006 A 
ENDBRANCH  63  80
ENDBRANCH  37  38
ENDBRANCH  29  32
ENDBRANCH  27  28
ENDBRANCH  26  27
ENDBRANCH  25  26
ENDBRANCH   1  25
TORSDOF 15
ENDMDL
MODEL 2
REMARK VINA RESULT:     -11.6      2.489      3.852
REMARK SMILES Cc1ccc(C)c(/C=C2\SC(=S)N(CC(=O)NCCCCCCNC(=O)c3ccc(-c4c5nc(c(-c6c(F)cccc6F)c6ccc([nH]6)c(-c6c(F)cccc6F)c6nc(c(-c7c(F)cccc7F)c7ccc4[nH]7)C=C6)C=C5)cc3)C2=O)c1
REMARK SMILES IDX 20 1 19 2 18 3 17 4 15 5 16 6 14 8 13 9 8 10 9 11 10 12
REMARK SMILES IDX 81 13 11 14 82 15 12 16 7 17 1 18 2 19 3 20 83 21 4 22 5 23
REMARK SMILES IDX 6 24 21 25 22 26 23 27 24 28 25 29 26 31 27 32 28 33 80 34
REMARK SMILES IDX 29 35 79 36 30 37 31 38 32 39 73 40 33 41 78 42 72 43 74 44
REMARK SMILES IDX 34 45 77 46 71 47 70 48 35 50 61 51 44 52 60 53 45 54 48 55
REMARK SMILES IDX 59 56 75 57 46 58 47 59 58 61 76 62 49 63 36 64 37 65 42 66
REMARK SMILES IDX 38 67 39 68 41 69 43 70 40 71 62 72 63 73 68 74 64 75 65 76
REMARK SMILES IDX 67 77 69 78 66 79 50 80 51 81 56 82 52 83 53 84 55 85 57 86
REMARK SMILES IDX 54 87
REMARK H PARENT 17 7 24 30 74 49 48 60
REMARK Flexibility Score: inf
ROOT
ATOM      1  C   UNL A   1      40.452  21.834  26.539  1.00  0.00     0.002 C 
ENDROOT
BRANCH   1   2
ATOM      2  C   UNL A   1      39.207  21.236  25.883  1.00  0.00     0.021 C 
BRANCH   2   3
ATOM      3  C   UNL A   1      38.037  22.210  25.781  1.00  0.00     0.116 C 
BRANCH   3   4
ATOM      4  N   UNL A   1      36.767  21.561  26.031  1.00  0.00    -0.355 N 
ATOM      5  C   UNL A   1      35.623  21.505  25.293  1.00  0.00     0.240 C 
ATOM      6  O   UNL A   1      34.802  20.641  25.612  1.00  0.00    -0.273 OA
ATOM      7  H   UNL A   1      36.722  21.073  26.885  1.00  0.00     0.163 HD
BRANCH   5   8
ATOM      8  C   UNL A   1      35.422  22.323  24.009  1.00  0.00     0.227 C 
BRANCH   8   9
ATOM      9  N   UNL A   1      34.443  23.401  24.110  1.00  0.00    -0.283 N 
ATOM     10  C   UNL A   1      33.869  26.733  25.342  1.00  0.00     0.029 C 
ATOM     11  C   UNL A   1      33.711  25.518  24.810  1.00  0.00     0.081 C 
ATOM     12  S   UNL A   1      32.379  24.923  23.910  1.00  0.00    -0.054 SA
ATOM     13  C   UNL A   1      34.794  24.505  24.872  1.00  0.00     0.266 C 
ATOM     14  C   UNL A   1      33.155  23.373  23.623  1.00  0.00     0.148 C 
ATOM     15  O   UNL A   1      35.829  24.655  25.489  1.00  0.00    -0.268 OA
ATOM     16  S   UNL A   1      32.359  22.125  22.854  1.00  0.00    -0.052 S 
BRANCH  10  17
ATOM     17  C   UNL A   1      32.931  27.842  25.156  1.00  0.00    -0.021 A 
ATOM     18  C   UNL A   1      30.594  29.196  22.478  1.00  0.00     0.044 C 
ATOM     19  C   UNL A   1      31.296  29.007  23.789  1.00  0.00    -0.051 A 
ATOM     20  C   UNL A   1      31.063  29.895  24.843  1.00  0.00     0.004 A 
ATOM     21  C   UNL A   1      32.196  27.950  23.972  1.00  0.00     0.011 A 
ATOM     22  C   UNL A   1      31.813  29.808  26.015  1.00  0.00     0.004 A 
ATOM     23  C   UNL A   1      32.796  28.820  26.155  1.00  0.00    -0.044 A 
ATOM     24  C   UNL A   1      33.697  28.830  27.356  1.00  0.00     0.045 C 
ENDBRANCH  10  17
ENDBRANCH   8   9
ENDBRANCH   5   8
ENDBRANCH   3   4
ENDBRANCH   2   3
ENDBRANCH   1   2
BRANCH   1  25
ATOM     25  C   UNL A   1      41.135  20.989  27.627  1.00  0.00     0.002 C 
BRANCH  25  26
ATOM     26  C   UNL A   1      42.050  19.827  27.203  1.00  0.00     0.021 C 
BRANCH  26  27
ATOM     27  C   UNL A   1      42.260  19.590  25.706  1.00  0.00     0.116 C 
BRANCH  27  28
ATOM     28  N   UNL A   1      43.667  19.694  25.295  1.00  0.00    -0.352 N 
ATOM     29  C   UNL A   1      44.477  20.775  24.989  1.00  0.00     0.251 C 
ATOM     30  H   UNL A   1      44.123  18.825  25.223  1.00  0.00     0.163 HD
ATOM     31  O   UNL A   1      45.487  20.599  24.318  1.00  0.00    -0.269 OA
BRANCH  29  32
ATOM     32  C   UNL A   1      44.159  22.134  25.483  1.00  0.00     0.039 A 
ATOM     33  C   UNL A   1      43.381  23.049  24.766  1.00  0.00     0.014 A 
ATOM     34  C   UNL A   1      44.696  22.524  26.696  1.00  0.00     0.014 A 
ATOM     35  C   UNL A   1      43.188  24.331  25.295  1.00  0.00     0.010 A 
ATOM     36  C   UNL A   1      44.284  23.651  27.336  1.00  0.00     0.010 A 
ATOM     37  C   UNL A   1      43.668  24.622  26.582  1.00  0.00    -0.014 A 
BRANCH  37  38
ATOM     38  C   UNL A   1      43.454  25.886  27.266  1.00  0.00     0.031 A 
ATOM     39  C   UNL A   1      44.461  26.895  26.899  1.00  0.00     0.074 A 
ATOM     40  C   UNL A   1      42.329  26.175  27.963  1.00  0.00     0.049 A 
ATOM     41  N   UNL A   1      45.434  27.298  27.640  1.00  0.00    -0.248 NA
ATOM     42  C   UNL A   1      44.532  27.349  25.502  1.00  0.00     0.031 C 
ATOM     43  C   UNL A   1      41.157  25.322  28.192  1.00  0.00     0.029 A 
ATOM     44  N   UNL A   1      41.962  27.345  28.565  1.00  0.00    -0.354 N 
ATOM     45  C   UNL A   1      46.100  28.249  26.881  1.00  0.00     0.074 A 
ATOM     46  C   UNL A   1      45.668  28.051  25.523  1.00  0.00     0.031 C 
ATOM     47  C   UNL A   1      40.163  26.049  28.755  1.00  0.00     0.029 A 
ATOM     48  C   UNL A   1      40.635  27.396  29.019  1.00  0.00     0.049 A 
ATOM     49  H   UNL A   1      42.585  28.099  28.675  1.00  0.00     0.167 HD
ATOM     50  C   UNL A   1      46.696  29.308  27.490  1.00  0.00     0.037 A 
ATOM     51  C   UNL A   1      40.004  28.484  29.549  1.00  0.00     0.037 A 
ATOM     52  C   UNL A   1      46.814  29.075  28.913  1.00  0.00     0.049 A 
ATOM     53  C   UNL A   1      41.099  29.333  30.085  1.00  0.00     0.074 A 
ATOM     54  C   UNL A   1      47.452  28.145  29.709  1.00  0.00     0.029 A 
ATOM     55  N   UNL A   1      45.851  29.659  29.700  1.00  0.00    -0.354 N 
ATOM     56  N   UNL A   1      41.807  29.005  31.128  1.00  0.00    -0.248 NA
ATOM     57  C   UNL A   1      41.674  30.381  29.252  1.00  0.00     0.031 C 
ATOM     58  C   UNL A   1      46.586  27.937  30.824  1.00  0.00     0.029 A 
ATOM     59  C   UNL A   1      45.487  28.785  30.691  1.00  0.00     0.049 A 
ATOM     60  H   UNL A   1      45.480  30.562  29.573  1.00  0.00     0.167 HD
ATOM     61  C   UNL A   1      43.084  29.451  30.836  1.00  0.00     0.074 A 
ATOM     62  C   UNL A   1      42.908  30.426  29.764  1.00  0.00     0.031 C 
ATOM     63  C   UNL A   1      44.170  28.760  31.288  1.00  0.00     0.037 A 
BRANCH  50  64
ATOM     64  C   UNL A   1      46.747  30.700  26.904  1.00  0.00     0.057 A 
ATOM     65  C   UNL A   1      47.972  31.391  26.926  1.00  0.00     0.134 A 
ATOM     66  C   UNL A   1      45.623  31.496  26.595  1.00  0.00     0.134 A 
ATOM     67  F   UNL A   1      49.117  30.752  27.214  1.00  0.00    -0.206 F 
ATOM     68  C   UNL A   1      48.058  32.776  26.745  1.00  0.00     0.040 A 
ATOM     69  C   UNL A   1      45.705  32.870  26.358  1.00  0.00     0.040 A 
ATOM     70  F   UNL A   1      44.371  31.026  26.604  1.00  0.00    -0.206 F 
ATOM     71  C   UNL A   1      46.921  33.522  26.468  1.00  0.00     0.006 A 
ENDBRANCH  50  64
BRANCH  51  72
ATOM     72  C   UNL A   1      38.582  28.956  29.569  1.00  0.00     0.057 A 
ATOM     73  C   UNL A   1      37.846  28.926  30.774  1.00  0.00     0.134 A 
ATOM     74  C   UNL A   1      37.970  29.678  28.535  1.00  0.00     0.134 A 
ATOM     75  F   UNL A   1      38.279  28.220  31.829  1.00  0.00    -0.206 F 
ATOM     76  C   UNL A   1      36.671  29.666  30.974  1.00  0.00     0.040 A 
ATOM     77  C   UNL A   1      36.802  30.437  28.725  1.00  0.00     0.040 A 
ATOM     78  F   UNL A   1      38.486  29.709  27.304  1.00  0.00    -0.206 F 
ATOM     79  C   UNL A   1      36.167  30.462  29.957  1.00  0.00     0.006 A 
ENDBRANCH  51  72
BRANCH  63  80
ATOM     80  C   UNL A   1      43.913  27.735  32.361  1.00  0.00     0.057 A 
ATOM     81  C   UNL A   1      43.802  26.355  32.129  1.00  0.00     0.134 A 
ATOM     82  C   UNL A   1      43.846  28.157  33.690  1.00  0.00     0.134 A 
ATOM     83  F   UNL A   1      43.948  25.845  30.902  1.00  0.00    -0.206 F 
ATOM     84  C   UNL A   1      43.576  25.445  33.165  1.00  0.00     0.040 A 
ATOM     85  C   UNL A   1      43.657  27.255  34.740  1.00  0.00     0.040 A 
ATOM     86  F   UNL A   1      43.996  29.455  33.994  1.00  0.00    -0.206 F 
ATOM     87  C   UNL A   1      43.505  25.895  34.478  1.00  0.00     0.006 A 
ENDBRANCH  63  80
ENDBRANCH  37  38
ENDBRANCH  29  32
ENDBRANCH  27  28
ENDBRANCH  26  27
ENDBRANCH  25  26
ENDBRANCH   1  25
TORSDOF 15
ENDMDL
MODEL 3
REMARK VINA RESULT:     -11.5      2.330      3.634
REMARK SMILES Cc1ccc(C)c(/C=C2\SC(=S)N(CC(=O)NCCCCCCNC(=O)c3ccc(-c4c5nc(c(-c6c(F)cccc6F)c6ccc([nH]6)c(-c6c(F)cccc6F)c6nc(c(-c7c(F)cccc7F)c7ccc4[nH]7)C=C6)C=C5)cc3)C2=O)c1
REMARK SMILES IDX 20 1 19 2 18 3 17 4 15 5 16 6 14 8 13 9 8 10 9 11 10 12
REMARK SMILES IDX 81 13 11 14 82 15 12 16 7 17 1 18 2 19 3 20 83 21 4 22 5 23
REMARK SMILES IDX 6 24 21 25 22 26 23 27 24 28 25 29 26 31 27 32 28 33 80 34
REMARK SMILES IDX 29 35 79 36 30 37 31 38 32 39 73 40 33 41 78 42 72 43 74 44
REMARK SMILES IDX 34 45 77 46 71 47 70 48 35 50 61 51 44 52 60 53 45 54 48 55
REMARK SMILES IDX 59 56 75 57 46 58 47 59 58 61 76 62 49 63 36 64 37 65 42 66
REMARK SMILES IDX 38 67 39 68 41 69 43 70 40 71 62 72 63 73 68 74 64 75 65 76
REMARK SMILES IDX 67 77 69 78 66 79 50 80 51 81 56 82 52 83 53 84 55 85 57 86
REMARK SMILES IDX 54 87
REMARK H PARENT 17 7 24 30 74 49 48 60
REMARK Flexibility Score: inf
ROOT
ATOM      1  C   UNL A   1      37.484  23.605  26.028  1.00  0.00     0.002 C 
ENDROOT
BRANCH   1   2
ATOM      2  C   UNL A   1      36.854  22.376  25.369  1.00  0.00     0.021 C 
BRANCH   2   3
ATOM      3  C   UNL A   1      35.514  22.658  24.695  1.00  0.00     0.116 C 
BRANCH   3   4
ATOM      4  N   UNL A   1      34.530  23.155  25.633  1.00  0.00    -0.355 N 
ATOM      5  C   UNL A   1      33.955  24.382  25.769  1.00  0.00     0.240 C 
ATOM      6  O   UNL A   1      32.937  24.441  26.465  1.00  0.00    -0.273 OA
ATOM      7  H   UNL A   1      34.220  22.487  26.287  1.00  0.00     0.163 HD
BRANCH   5   8
ATOM      8  C   UNL A   1      34.408  25.606  24.961  1.00  0.00     0.227 C 
BRANCH   8   9
ATOM      9  N   UNL A   1      33.384  26.626  24.755  1.00  0.00    -0.283 N 
ATOM     10  C   UNL A   1      30.661  27.661  22.643  1.00  0.00     0.029 C 
ATOM     11  C   UNL A   1      31.607  27.616  23.585  1.00  0.00     0.081 C 
ATOM     12  S   UNL A   1      31.785  28.632  24.954  1.00  0.00    -0.054 SA
ATOM     13  C   UNL A   1      32.631  26.542  23.594  1.00  0.00     0.266 C 
ATOM     14  C   UNL A   1      33.177  27.736  25.544  1.00  0.00     0.148 C 
ATOM     15  O   UNL A   1      32.757  25.716  22.713  1.00  0.00    -0.268 OA
ATOM     16  S   UNL A   1      34.040  28.240  26.880  1.00  0.00    -0.052 S 
BRANCH  10  17
ATOM     17  C   UNL A   1      29.510  28.567  22.674  1.00  0.00    -0.021 A 
ATOM     18  C   UNL A   1      28.696  32.189  21.841  1.00  0.00     0.044 C 
ATOM     19  C   UNL A   1      28.540  30.749  22.230  1.00  0.00    -0.051 A 
ATOM     20  C   UNL A   1      27.292  30.264  22.631  1.00  0.00     0.004 A 
ATOM     21  C   UNL A   1      29.636  29.879  22.206  1.00  0.00     0.011 A 
ATOM     22  C   UNL A   1      27.167  28.966  23.125  1.00  0.00     0.004 A 
ATOM     23  C   UNL A   1      28.288  28.129  23.209  1.00  0.00    -0.044 A 
ATOM     24  C   UNL A   1      28.171  26.791  23.879  1.00  0.00     0.045 C 
ENDBRANCH  10  17
ENDBRANCH   8   9
ENDBRANCH   5   8
ENDBRANCH   3   4
ENDBRANCH   2   3
ENDBRANCH   1   2
BRANCH   1  25
ATOM     25  C   UNL A   1      38.888  23.426  26.628  1.00  0.00     0.002 C 
BRANCH  25  26
ATOM     26  C   UNL A   1      39.585  22.061  26.499  1.00  0.00     0.021 C 
BRANCH  26  27
ATOM     27  C   UNL A   1      40.924  21.870  27.215  1.00  0.00     0.116 C 
BRANCH  27  28
ATOM     28  N   UNL A   1      42.084  22.125  26.352  1.00  0.00    -0.352 N 
ATOM     29  C   UNL A   1      42.607  23.284  25.801  1.00  0.00     0.251 C 
ATOM     30  H   UNL A   1      42.590  21.314  26.119  1.00  0.00     0.163 HD
ATOM     31  O   UNL A   1      43.344  23.207  24.825  1.00  0.00    -0.269 OA
BRANCH  29  32
ATOM     32  C   UNL A   1      42.314  24.611  26.389  1.00  0.00     0.039 A 
ATOM     33  C   UNL A   1      41.525  25.575  25.754  1.00  0.00     0.014 A 
ATOM     34  C   UNL A   1      42.886  24.919  27.610  1.00  0.00     0.014 A 
ATOM     35  C   UNL A   1      41.357  26.822  26.368  1.00  0.00     0.010 A 
ATOM     36  C   UNL A   1      42.501  26.005  28.331  1.00  0.00     0.010 A 
ATOM     37  C   UNL A   1      41.874  27.027  27.657  1.00  0.00    -0.014 A 
BRANCH  37  38
ATOM     38  C   UNL A   1      41.689  28.245  28.427  1.00  0.00     0.031 A 
ATOM     39  C   UNL A   1      42.740  29.240  28.155  1.00  0.00     0.074 A 
ATOM     40  C   UNL A   1      40.558  28.526  29.117  1.00  0.00     0.049 A 
ATOM     41  N   UNL A   1      43.709  29.552  28.944  1.00  0.00    -0.248 NA
ATOM     42  C   UNL A   1      42.862  29.789  26.796  1.00  0.00     0.031 C 
ATOM     43  C   UNL A   1      39.351  27.704  29.259  1.00  0.00     0.029 A 
ATOM     44  N   UNL A   1      40.219  29.663  29.795  1.00  0.00    -0.354 N 
ATOM     45  C   UNL A   1      44.427  30.528  28.270  1.00  0.00     0.074 A 
ATOM     46  C   UNL A   1      44.021  30.445  26.893  1.00  0.00     0.031 C 
ATOM     47  C   UNL A   1      38.370  28.426  29.852  1.00  0.00     0.029 A 
ATOM     48  C   UNL A   1      38.884  29.732  30.222  1.00  0.00     0.049 A 
ATOM     49  H   UNL A   1      40.866  30.384  29.973  1.00  0.00     0.167 HD
ATOM     50  C   UNL A   1      45.045  31.518  28.968  1.00  0.00     0.037 A 
ATOM     51  C   UNL A   1      38.280  30.802  30.816  1.00  0.00     0.037 A 
ATOM     52  C   UNL A   1      45.120  31.180  30.372  1.00  0.00     0.049 A 
ATOM     53  C   UNL A   1      39.391  31.569  31.435  1.00  0.00     0.074 A 
ATOM     54  C   UNL A   1      45.705  30.172  31.112  1.00  0.00     0.029 A 
ATOM     55  N   UNL A   1      44.160  31.742  31.178  1.00  0.00    -0.354 N 
ATOM     56  N   UNL A   1      40.061  31.140  32.467  1.00  0.00    -0.248 NA
ATOM     57  C   UNL A   1      40.025  32.651  30.693  1.00  0.00     0.031 C 
ATOM     58  C   UNL A   1      44.805  29.917  32.191  1.00  0.00     0.029 A 
ATOM     59  C   UNL A   1      43.741  30.813  32.095  1.00  0.00     0.049 A 
ATOM     60  H   UNL A   1      43.825  32.665  31.109  1.00  0.00     0.167 HD
ATOM     61  C   UNL A   1      41.360  31.557  32.236  1.00  0.00     0.074 A 
ATOM     62  C   UNL A   1      41.246  32.612  31.234  1.00  0.00     0.031 C 
ATOM     63  C   UNL A   1      42.410  30.795  32.660  1.00  0.00     0.037 A 
BRANCH  50  64
ATOM     64  C   UNL A   1      45.161  32.946  28.485  1.00  0.00     0.057 A 
ATOM     65  C   UNL A   1      43.979  33.680  28.282  1.00  0.00     0.134 A 
ATOM     66  C   UNL A   1      46.324  33.530  27.941  1.00  0.00     0.134 A 
ATOM     67  F   UNL A   1      42.801  33.231  28.743  1.00  0.00    -0.206 F 
ATOM     68  C   UNL A   1      43.944  34.854  27.520  1.00  0.00     0.040 A 
ATOM     69  C   UNL A   1      46.309  34.731  27.226  1.00  0.00     0.040 A 
ATOM     70  F   UNL A   1      47.522  32.937  27.972  1.00  0.00    -0.206 F 
ATOM     71  C   UNL A   1      45.112  35.379  26.982  1.00  0.00     0.006 A 
ENDBRANCH  50  64
BRANCH  51  72
ATOM     72  C   UNL A   1      36.876  31.324  30.839  1.00  0.00     0.057 A 
ATOM     73  C   UNL A   1      36.232  31.562  32.073  1.00  0.00     0.134 A 
ATOM     74  C   UNL A   1      36.206  31.852  29.727  1.00  0.00     0.134 A 
ATOM     75  F   UNL A   1      36.725  31.062  33.216  1.00  0.00    -0.206 F 
ATOM     76  C   UNL A   1      35.094  32.373  32.202  1.00  0.00     0.040 A 
ATOM     77  C   UNL A   1      35.075  32.680  29.841  1.00  0.00     0.040 A 
ATOM     78  F   UNL A   1      36.629  31.620  28.481  1.00  0.00    -0.206 F 
ATOM     79  C   UNL A   1      34.536  32.972  31.084  1.00  0.00     0.006 A 
ENDBRANCH  51  72
BRANCH  63  80
ATOM     80  C   UNL A   1      42.090  29.707  33.651  1.00  0.00     0.057 A 
ATOM     81  C   UNL A   1      41.817  28.374  33.304  1.00  0.00     0.134 A 
ATOM     82  C   UNL A   1      42.130  30.006  35.014  1.00  0.00     0.134 A 
ATOM     83  F   UNL A   1      41.849  27.970  32.030  1.00  0.00    -0.206 F 
ATOM     84  C   UNL A   1      41.539  27.400  34.265  1.00  0.00     0.040 A 
ATOM     85  C   UNL A   1      41.890  29.034  35.988  1.00  0.00     0.040 A 
ATOM     86  F   UNL A   1      42.437  31.247  35.423  1.00  0.00    -0.206 F 
ATOM     87  C   UNL A   1      41.577  27.729  35.615  1.00  0.00     0.006 A 
ENDBRANCH  63  80
ENDBRANCH  37  38
ENDBRANCH  29  32
ENDBRANCH  27  28
ENDBRANCH  26  27
ENDBRANCH  25  26
ENDBRANCH   1  25
TORSDOF 15
ENDMDL
