MODEL 1
REMARK VINA RESULT:     -11.3      0.000      0.000
REMARK SMILES O=C(C[NH+]1CC[NH+](Cc2cc(Cl)ccc2[N+](=O)[O-])CC1)NCCCCCCNC(=O)c1ccc(-c2c3nc(c(-c4c(F)cccc4F)c4ccc([nH]4)c(-c4c(F)cccc4F)c4nc(c(-c5c(F)cccc5F)c5ccc2[nH]5)C=C4)C=C3)cc1
REMARK SMILES IDX 23 1 22 2 21 3 1 4 2 5 3 7 4 8 5 9 20 10 6 12 19 13 7 14
REMARK SMILES IDX 8 16 9 17 10 18 15 19 11 20 14 21 12 22 13 23 16 24 17 25
REMARK SMILES IDX 18 26 24 27 25 28 26 29 27 30 28 31 29 32 30 34 31 35 32 36
REMARK SMILES IDX 84 37 33 38 83 39 34 40 35 41 36 42 77 43 37 44 82 45 76 46
REMARK SMILES IDX 78 47 38 48 81 49 75 50 74 51 39 53 65 54 48 55 64 56 49 57
REMARK SMILES IDX 52 58 63 59 79 60 50 61 51 62 62 64 80 65 53 66 40 67 41 68
REMARK SMILES IDX 46 69 42 70 43 71 45 72 47 73 44 74 66 75 67 76 72 77 68 78
REMARK SMILES IDX 69 79 71 80 73 81 70 82 54 83 55 84 60 85 56 86 57 87 59 88
REMARK SMILES IDX 61 89 58 90
REMARK H PARENT 21 6 4 11 7 15 28 33 78 52 52 63
REMARK Flexibility Score: inf
ROOT
ATOM      1  C   UNL A   1      36.917  23.317  24.938  1.00  0.00     0.021 C 
ENDROOT
BRANCH   1   2
ATOM      2  C   UNL A   1      35.621  23.538  25.713  1.00  0.00     0.116 C 
BRANCH   2   3
ATOM      3  N   UNL A   1      34.569  22.647  25.269  1.00  0.00    -0.351 N 
ATOM      4  O   UNL A   1      34.319  21.585  27.286  1.00  0.00    -0.269 OA
ATOM      5  C   UNL A   1      33.929  21.791  26.141  1.00  0.00     0.275 C 
ATOM      6  H   UNL A   1      34.304  22.654  24.322  1.00  0.00     0.163 HD
BRANCH   5   7
ATOM      7  C   UNL A   1      32.642  21.188  25.568  1.00  0.00     0.363 C 
BRANCH   7   8
ATOM      8  N   UNL A   1      31.427  22.011  25.749  1.00  0.00    -0.318 N 
ATOM      9  C   UNL A   1      31.345  22.859  26.942  1.00  0.00     0.325 C 
ATOM     10  C   UNL A   1      31.013  22.752  24.552  1.00  0.00     0.325 C 
ATOM     11  H   UNL A   1      30.748  21.270  25.922  1.00  0.00     0.348 HD
ATOM     12  C   UNL A   1      31.953  24.278  26.796  1.00  0.00     0.324 C 
ATOM     13  C   UNL A   1      31.701  24.124  24.372  1.00  0.00     0.324 C 
ATOM     14  N   UNL A   1      31.686  25.002  25.547  1.00  0.00    -0.322 N 
ATOM     15  H   UNL A   1      32.495  25.610  25.412  1.00  0.00     0.348 HD
BRANCH  14  16
ATOM     16  C   UNL A   1      30.629  26.021  25.604  1.00  0.00     0.306 C 
BRANCH  16  17
ATOM     17  C   UNL A   1      31.071  27.444  25.319  1.00  0.00     0.085 A 
ATOM     18  C   UNL A   1      31.975  28.007  26.252  1.00  0.00     0.037 A 
ATOM     19  C   UNL A   1      30.584  28.288  24.297  1.00  0.00     0.278 A 
ATOM     20  C   UNL A   1      32.235  29.375  26.289  1.00  0.00     0.042 A 
ATOM     21  C   UNL A   1      30.870  29.671  24.336  1.00  0.00     0.088 A 
ATOM     22  Cl  UNL A   1      33.203  30.022  27.554  1.00  0.00    -0.084 Cl
ATOM     23  C   UNL A   1      31.658  30.215  25.351  1.00  0.00     0.027 A 
BRANCH  19  24
ATOM     24  N   UNL A   1      29.791  27.814  23.140  1.00  0.00     0.063 N 
ATOM     25  O   UNL A   1      30.415  27.435  22.139  1.00  0.00    -0.258 OA
ATOM     26  O   UNL A   1      28.559  27.795  23.219  1.00  0.00    -0.258 OA
ENDBRANCH  19  24
ENDBRANCH  16  17
ENDBRANCH  14  16
ENDBRANCH   7   8
ENDBRANCH   5   7
ENDBRANCH   2   3
ENDBRANCH   1   2
BRANCH   1  27
ATOM     27  C   UNL A   1      37.741  22.095  25.374  1.00  0.00     0.002 C 
BRANCH  27  28
ATOM     28  C   UNL A   1      37.370  20.759  24.722  1.00  0.00     0.002 C 
BRANCH  28  29
ATOM     29  C   UNL A   1      38.323  19.597  24.991  1.00  0.00     0.021 C 
BRANCH  29  30
ATOM     30  C   UNL A   1      39.453  19.892  25.968  1.00  0.00     0.116 C 
BRANCH  30  31
ATOM     31  N   UNL A   1      40.497  18.880  25.953  1.00  0.00    -0.352 N 
ATOM     32  C   UNL A   1      41.854  19.032  26.095  1.00  0.00     0.251 C 
ATOM     33  H   UNL A   1      40.187  17.955  25.824  1.00  0.00     0.163 HD
ATOM     34  O   UNL A   1      42.603  18.073  25.920  1.00  0.00    -0.269 OA
BRANCH  32  35
ATOM     35  C   UNL A   1      42.425  20.360  26.420  1.00  0.00     0.039 A 
ATOM     36  C   UNL A   1      43.092  21.065  25.416  1.00  0.00     0.014 A 
ATOM     37  C   UNL A   1      42.303  20.914  27.698  1.00  0.00     0.014 A 
ATOM     38  C   UNL A   1      43.577  22.348  25.675  1.00  0.00     0.010 A 
ATOM     39  C   UNL A   1      42.712  22.226  27.930  1.00  0.00     0.010 A 
ATOM     40  C   UNL A   1      43.356  22.957  26.922  1.00  0.00    -0.014 A 
BRANCH  40  41
ATOM     41  C   UNL A   1      43.774  24.363  27.164  1.00  0.00     0.031 A 
ATOM     42  C   UNL A   1      42.776  25.401  27.602  1.00  0.00     0.074 A 
ATOM     43  C   UNL A   1      45.057  24.716  26.953  1.00  0.00     0.049 A 
ATOM     44  N   UNL A   1      42.970  26.664  27.888  1.00  0.00    -0.248 NA
ATOM     45  C   UNL A   1      41.374  24.971  27.708  1.00  0.00     0.031 C 
ATOM     46  C   UNL A   1      46.111  23.820  26.471  1.00  0.00     0.029 A 
ATOM     47  N   UNL A   1      45.696  25.918  27.122  1.00  0.00    -0.354 N 
ATOM     48  C   UNL A   1      41.717  27.179  28.197  1.00  0.00     0.074 A 
ATOM     49  C   UNL A   1      40.764  26.108  28.007  1.00  0.00     0.031 C 
ATOM     50  C   UNL A   1      47.273  24.490  26.433  1.00  0.00     0.029 A 
ATOM     51  C   UNL A   1      47.042  25.869  26.848  1.00  0.00     0.049 A 
ATOM     52  H   UNL A   1      45.235  26.738  27.412  1.00  0.00     0.167 HD
ATOM     53  C   UNL A   1      41.392  28.426  28.621  1.00  0.00     0.037 A 
ATOM     54  C   UNL A   1      47.985  26.825  26.930  1.00  0.00     0.037 A 
ATOM     55  C   UNL A   1      42.347  29.487  28.821  1.00  0.00     0.049 A 
ATOM     56  C   UNL A   1      47.598  28.201  27.395  1.00  0.00     0.074 A 
ATOM     57  C   UNL A   1      42.129  30.760  29.319  1.00  0.00     0.029 A 
ATOM     58  N   UNL A   1      43.698  29.404  28.518  1.00  0.00    -0.354 N 
ATOM     59  N   UNL A   1      46.426  28.649  27.776  1.00  0.00    -0.248 NA
ATOM     60  C   UNL A   1      48.672  29.202  27.450  1.00  0.00     0.031 C 
ATOM     61  C   UNL A   1      43.334  31.468  29.257  1.00  0.00     0.029 A 
ATOM     62  C   UNL A   1      44.319  30.616  28.783  1.00  0.00     0.049 A 
ATOM     63  H   UNL A   1      44.150  28.603  28.166  1.00  0.00     0.167 HD
ATOM     64  C   UNL A   1      46.626  29.974  28.140  1.00  0.00     0.074 A 
ATOM     65  C   UNL A   1      48.036  30.248  27.957  1.00  0.00     0.031 C 
ATOM     66  C   UNL A   1      45.722  30.883  28.586  1.00  0.00     0.037 A 
BRANCH  53  67
ATOM     67  C   UNL A   1      39.939  28.710  28.884  1.00  0.00     0.057 A 
ATOM     68  C   UNL A   1      39.358  28.520  30.146  1.00  0.00     0.134 A 
ATOM     69  C   UNL A   1      39.113  29.201  27.865  1.00  0.00     0.134 A 
ATOM     70  F   UNL A   1      40.088  28.044  31.166  1.00  0.00    -0.206 F 
ATOM     71  C   UNL A   1      38.003  28.772  30.373  1.00  0.00     0.040 A 
ATOM     72  C   UNL A   1      37.765  29.488  28.089  1.00  0.00     0.040 A 
ATOM     73  F   UNL A   1      39.603  29.416  26.634  1.00  0.00    -0.206 F 
ATOM     74  C   UNL A   1      37.204  29.263  29.343  1.00  0.00     0.006 A 
ENDBRANCH  53  67
BRANCH  54  75
ATOM     75  C   UNL A   1      49.399  26.506  26.606  1.00  0.00     0.057 A 
ATOM     76  C   UNL A   1      49.924  26.770  25.335  1.00  0.00     0.134 A 
ATOM     77  C   UNL A   1      50.256  25.926  27.550  1.00  0.00     0.134 A 
ATOM     78  F   UNL A   1      49.147  27.307  24.383  1.00  0.00    -0.206 F 
ATOM     79  C   UNL A   1      51.242  26.451  25.007  1.00  0.00     0.040 A 
ATOM     80  C   UNL A   1      51.585  25.628  27.243  1.00  0.00     0.040 A 
ATOM     81  F   UNL A   1      49.817  25.654  28.787  1.00  0.00    -0.206 F 
ATOM     82  C   UNL A   1      52.079  25.884  25.965  1.00  0.00     0.006 A 
ENDBRANCH  54  75
BRANCH  66  83
ATOM     83  C   UNL A   1      46.245  32.250  28.929  1.00  0.00     0.057 A 
ATOM     84  C   UNL A   1      46.719  32.566  30.209  1.00  0.00     0.134 A 
ATOM     85  C   UNL A   1      46.273  33.266  27.963  1.00  0.00     0.134 A 
ATOM     86  F   UNL A   1      46.710  31.644  31.184  1.00  0.00    -0.206 F 
ATOM     87  C   UNL A   1      47.161  33.851  30.529  1.00  0.00     0.040 A 
ATOM     88  C   UNL A   1      46.745  34.545  28.262  1.00  0.00     0.040 A 
ATOM     89  F   UNL A   1      45.845  33.032  26.713  1.00  0.00    -0.206 F 
ATOM     90  C   UNL A   1      47.179  34.844  29.551  1.00  0.00     0.006 A 
ENDBRANCH  66  83
ENDBRANCH  40  41
ENDBRANCH  32  35
ENDBRANCH  30  31
ENDBRANCH  29  30
ENDBRANCH  28  29
ENDBRANCH  27  28
ENDBRANCH   1  27
TORSDOF 17
ENDMDL
MODEL 2
REMARK VINA RESULT:     -11.2      0.667      6.097
REMARK SMILES O=C(C[NH+]1CC[NH+](Cc2cc(Cl)ccc2[N+](=O)[O-])CC1)NCCCCCCNC(=O)c1ccc(-c2c3nc(c(-c4c(F)cccc4F)c4ccc([nH]4)c(-c4c(F)cccc4F)c4nc(c(-c5c(F)cccc5F)c5ccc2[nH]5)C=C4)C=C3)cc1
REMARK SMILES IDX 23 1 22 2 21 3 1 4 2 5 3 7 4 8 5 9 20 10 6 12 19 13 7 14
REMARK SMILES IDX 8 16 9 17 10 18 15 19 11 20 14 21 12 22 13 23 16 24 17 25
REMARK SMILES IDX 18 26 24 27 25 28 26 29 27 30 28 31 29 32 30 34 31 35 32 36
REMARK SMILES IDX 84 37 33 38 83 39 34 40 35 41 36 42 77 43 37 44 82 45 76 46
REMARK SMILES IDX 78 47 38 48 81 49 75 50 74 51 39 53 65 54 48 55 64 56 49 57
REMARK SMILES IDX 52 58 63 59 79 60 50 61 51 62 62 64 80 65 53 66 40 67 41 68
REMARK SMILES IDX 46 69 42 70 43 71 45 72 47 73 44 74 66 75 67 76 72 77 68 78
REMARK SMILES IDX 69 79 71 80 73 81 70 82 54 83 55 84 60 85 56 86 57 87 59 88
REMARK SMILES IDX 61 89 58 90
REMARK H PARENT 21 6 4 11 7 15 28 33 78 52 52 63
REMARK Flexibility Score: inf
ROOT
ATOM      1  C   UNL A   1      36.977  22.804  24.000  1.00  0.00     0.021 C 
ENDROOT
BRANCH   1   2
ATOM      2  C   UNL A   1      35.650  23.505  24.273  1.00  0.00     0.116 C 
BRANCH   2   3
ATOM      3  N   UNL A   1      34.522  22.727  23.806  1.00  0.00    -0.351 N 
ATOM      4  O   UNL A   1      34.037  21.801  25.847  1.00  0.00    -0.269 OA
ATOM      5  C   UNL A   1      33.737  21.997  24.673  1.00  0.00     0.275 C 
ATOM      6  H   UNL A   1      34.311  22.719  22.845  1.00  0.00     0.163 HD
BRANCH   5   7
ATOM      7  C   UNL A   1      32.419  21.525  24.051  1.00  0.00     0.363 C 
BRANCH   7   8
ATOM      8  N   UNL A   1      31.247  22.379  24.336  1.00  0.00    -0.318 N 
ATOM      9  C   UNL A   1      30.889  22.605  25.740  1.00  0.00     0.325 C 
ATOM     10  C   UNL A   1      31.215  23.637  23.581  1.00  0.00     0.325 C 
ATOM     11  H   UNL A   1      30.507  21.771  23.985  1.00  0.00     0.348 HD
ATOM     12  C   UNL A   1      31.589  23.808  26.424  1.00  0.00     0.324 C 
ATOM     13  C   UNL A   1      31.999  24.800  24.230  1.00  0.00     0.324 C 
ATOM     14  N   UNL A   1      31.713  25.048  25.647  1.00  0.00    -0.322 N 
ATOM     15  H   UNL A   1      32.559  25.499  25.995  1.00  0.00     0.348 HD
BRANCH  14  16
ATOM     16  C   UNL A   1      30.736  26.102  25.954  1.00  0.00     0.306 C 
BRANCH  16  17
ATOM     17  C   UNL A   1      31.121  27.503  25.516  1.00  0.00     0.085 A 
ATOM     18  C   UNL A   1      31.965  28.216  26.401  1.00  0.00     0.037 A 
ATOM     19  C   UNL A   1      30.632  28.195  24.386  1.00  0.00     0.278 A 
ATOM     20  C   UNL A   1      32.158  29.591  26.283  1.00  0.00     0.042 A 
ATOM     21  C   UNL A   1      30.851  29.586  24.269  1.00  0.00     0.088 A 
ATOM     22  Cl  UNL A   1      33.050  30.429  27.490  1.00  0.00    -0.084 Cl
ATOM     23  C   UNL A   1      31.577  30.285  25.235  1.00  0.00     0.027 A 
BRANCH  19  24
ATOM     24  N   UNL A   1      29.904  27.549  23.271  1.00  0.00     0.063 N 
ATOM     25  O   UNL A   1      28.705  27.293  23.446  1.00  0.00    -0.258 OA
ATOM     26  O   UNL A   1      30.501  27.312  22.217  1.00  0.00    -0.258 OA
ENDBRANCH  19  24
ENDBRANCH  16  17
ENDBRANCH  14  16
ENDBRANCH   7   8
ENDBRANCH   5   7
ENDBRANCH   2   3
ENDBRANCH   1   2
BRANCH   1  27
ATOM     27  C   UNL A   1      37.453  21.848  25.105  1.00  0.00     0.002 C 
BRANCH  27  28
ATOM     28  C   UNL A   1      37.054  20.377  24.948  1.00  0.00     0.002 C 
BRANCH  28  29
ATOM     29  C   UNL A   1      38.195  19.364  25.026  1.00  0.00     0.021 C 
BRANCH  29  30
ATOM     30  C   UNL A   1      39.435  19.833  25.774  1.00  0.00     0.116 C 
BRANCH  30  31
ATOM     31  N   UNL A   1      40.493  18.836  25.804  1.00  0.00    -0.352 N 
ATOM     32  C   UNL A   1      41.833  19.002  26.048  1.00  0.00     0.251 C 
ATOM     33  H   UNL A   1      40.207  17.912  25.623  1.00  0.00     0.163 HD
ATOM     34  O   UNL A   1      42.608  18.058  25.898  1.00  0.00    -0.269 OA
BRANCH  32  35
ATOM     35  C   UNL A   1      42.359  20.325  26.456  1.00  0.00     0.039 A 
ATOM     36  C   UNL A   1      42.982  21.122  25.493  1.00  0.00     0.014 A 
ATOM     37  C   UNL A   1      42.237  20.786  27.770  1.00  0.00     0.014 A 
ATOM     38  C   UNL A   1      43.422  22.404  25.832  1.00  0.00     0.010 A 
ATOM     39  C   UNL A   1      42.599  22.094  28.086  1.00  0.00     0.010 A 
ATOM     40  C   UNL A   1      43.198  22.916  27.122  1.00  0.00    -0.014 A 
BRANCH  40  41
ATOM     41  C   UNL A   1      43.566  24.319  27.453  1.00  0.00     0.031 A 
ATOM     42  C   UNL A   1      44.994  24.784  27.363  1.00  0.00     0.074 A 
ATOM     43  C   UNL A   1      42.610  25.170  27.873  1.00  0.00     0.049 A 
ATOM     44  N   UNL A   1      45.489  25.977  27.583  1.00  0.00    -0.248 NA
ATOM     45  C   UNL A   1      46.001  23.774  27.003  1.00  0.00     0.031 C 
ATOM     46  C   UNL A   1      41.198  24.829  28.061  1.00  0.00     0.029 A 
ATOM     47  N   UNL A   1      42.677  26.498  28.211  1.00  0.00    -0.354 N 
ATOM     48  C   UNL A   1      46.862  25.857  27.399  1.00  0.00     0.074 A 
ATOM     49  C   UNL A   1      47.126  24.465  27.106  1.00  0.00     0.031 C 
ATOM     50  C   UNL A   1      40.526  25.929  28.430  1.00  0.00     0.029 A 
ATOM     51  C   UNL A   1      41.460  27.043  28.543  1.00  0.00     0.049 A 
ATOM     52  H   UNL A   1      43.517  27.012  28.215  1.00  0.00     0.167 HD
ATOM     53  C   UNL A   1      47.812  26.822  27.447  1.00  0.00     0.037 A 
ATOM     54  C   UNL A   1      41.133  28.301  28.893  1.00  0.00     0.037 A 
ATOM     55  C   UNL A   1      47.543  28.210  27.728  1.00  0.00     0.049 A 
ATOM     56  C   UNL A   1      42.207  29.351  28.947  1.00  0.00     0.074 A 
ATOM     57  C   UNL A   1      48.425  29.277  27.726  1.00  0.00     0.029 A 
ATOM     58  N   UNL A   1      46.301  28.722  28.075  1.00  0.00    -0.354 N 
ATOM     59  N   UNL A   1      43.486  29.245  28.677  1.00  0.00    -0.248 NA
ATOM     60  C   UNL A   1      41.786  30.701  29.348  1.00  0.00     0.031 C 
ATOM     61  C   UNL A   1      47.731  30.421  28.134  1.00  0.00     0.029 A 
ATOM     62  C   UNL A   1      46.401  30.082  28.327  1.00  0.00     0.049 A 
ATOM     63  H   UNL A   1      45.471  28.196  28.134  1.00  0.00     0.167 HD
ATOM     64  C   UNL A   1      44.017  30.517  28.849  1.00  0.00     0.074 A 
ATOM     65  C   UNL A   1      42.916  31.381  29.223  1.00  0.00     0.031 C 
ATOM     66  C   UNL A   1      45.302  30.932  28.710  1.00  0.00     0.037 A 
BRANCH  53  67
ATOM     67  C   UNL A   1      49.236  26.403  27.205  1.00  0.00     0.057 A 
ATOM     68  C   UNL A   1      50.098  26.050  28.253  1.00  0.00     0.134 A 
ATOM     69  C   UNL A   1      49.748  26.332  25.903  1.00  0.00     0.134 A 
ATOM     70  F   UNL A   1      49.679  26.103  29.527  1.00  0.00    -0.206 F 
ATOM     71  C   UNL A   1      51.424  25.679  28.017  1.00  0.00     0.040 A 
ATOM     72  C   UNL A   1      51.061  25.931  25.652  1.00  0.00     0.040 A 
ATOM     73  F   UNL A   1      48.977  26.648  24.851  1.00  0.00    -0.206 F 
ATOM     74  C   UNL A   1      51.907  25.613  26.712  1.00  0.00     0.006 A 
ENDBRANCH  53  67
BRANCH  54  75
ATOM     75  C   UNL A   1      39.717  28.651  29.175  1.00  0.00     0.057 A 
ATOM     76  C   UNL A   1      39.174  28.474  30.454  1.00  0.00     0.134 A 
ATOM     77  C   UNL A   1      38.874  29.161  28.181  1.00  0.00     0.134 A 
ATOM     78  F   UNL A   1      39.927  27.971  31.443  1.00  0.00    -0.206 F 
ATOM     79  C   UNL A   1      37.839  28.773  30.729  1.00  0.00     0.040 A 
ATOM     80  C   UNL A   1      37.544  29.491  28.450  1.00  0.00     0.040 A 
ATOM     81  F   UNL A   1      39.335  29.360  26.938  1.00  0.00    -0.206 F 
ATOM     82  C   UNL A   1      37.021  29.289  29.726  1.00  0.00     0.006 A 
ENDBRANCH  54  75
BRANCH  66  83
ATOM     83  C   UNL A   1      45.573  32.392  28.941  1.00  0.00     0.057 A 
ATOM     84  C   UNL A   1      46.057  32.875  30.164  1.00  0.00     0.134 A 
ATOM     85  C   UNL A   1      45.347  33.329  27.923  1.00  0.00     0.134 A 
ATOM     86  F   UNL A   1      46.284  32.035  31.186  1.00  0.00    -0.206 F 
ATOM     87  C   UNL A   1      46.264  34.238  30.382  1.00  0.00     0.040 A 
ATOM     88  C   UNL A   1      45.584  34.691  28.118  1.00  0.00     0.040 A 
ATOM     89  F   UNL A   1      44.896  32.937  26.722  1.00  0.00    -0.206 F 
ATOM     90  C   UNL A   1      46.031  35.151  29.355  1.00  0.00     0.006 A 
ENDBRANCH  66  83
ENDBRANCH  40  41
ENDBRANCH  32  35
ENDBRANCH  30  31
ENDBRANCH  29  30
ENDBRANCH  28  29
ENDBRANCH  27  28
ENDBRANCH   1  27
TORSDOF 17
ENDMDL
MODEL 3
REMARK VINA RESULT:     -11.1      2.085      6.797
REMARK SMILES O=C(C[NH+]1CC[NH+](Cc2cc(Cl)ccc2[N+](=O)[O-])CC1)NCCCCCCNC(=O)c1ccc(-c2c3nc(c(-c4c(F)cccc4F)c4ccc([nH]4)c(-c4c(F)cccc4F)c4nc(c(-c5c(F)cccc5F)c5ccc2[nH]5)C=C4)C=C3)cc1
REMARK SMILES IDX 23 1 22 2 21 3 1 4 2 5 3 7 4 8 5 9 20 10 6 12 19 13 7 14
REMARK SMILES IDX 8 16 9 17 10 18 15 19 11 20 14 21 12 22 13 23 16 24 17 25
REMARK SMILES IDX 18 26 24 27 25 28 26 29 27 30 28 31 29 32 30 34 31 35 32 36
REMARK SMILES IDX 84 37 33 38 83 39 34 40 35 41 36 42 77 43 37 44 82 45 76 46
REMARK SMILES IDX 78 47 38 48 81 49 75 50 74 51 39 53 65 54 48 55 64 56 49 57
REMARK SMILES IDX 52 58 63 59 79 60 50 61 51 62 62 64 80 65 53 66 40 67 41 68
REMARK SMILES IDX 46 69 42 70 43 71 45 72 47 73 44 74 66 75 67 76 72 77 68 78
REMARK SMILES IDX 69 79 71 80 73 81 70 82 54 83 55 84 60 85 56 86 57 87 59 88
REMARK SMILES IDX 61 89 58 90
REMARK H PARENT 21 6 4 11 7 15 28 33 78 52 52 63
REMARK Flexibility Score: inf
ROOT
ATOM      1  C   UNL A   1      40.628  22.138  25.995  1.00  0.00     0.021 C 
ENDROOT
BRANCH   1   2
ATOM      2  C   UNL A   1      39.345  21.332  26.176  1.00  0.00     0.116 C 
BRANCH   2   3
ATOM      3  N   UNL A   1      38.236  21.911  25.447  1.00  0.00    -0.351 N 
ATOM      4  O   UNL A   1      38.036  23.760  26.788  1.00  0.00    -0.269 OA
ATOM      5  C   UNL A   1      37.727  23.151  25.769  1.00  0.00     0.275 C 
ATOM      6  H   UNL A   1      37.837  21.406  24.702  1.00  0.00     0.163 HD
BRANCH   5   7
ATOM      7  C   UNL A   1      36.801  23.727  24.692  1.00  0.00     0.363 C 
BRANCH   7   8
ATOM      8  N   UNL A   1      35.422  24.018  25.138  1.00  0.00    -0.318 N 
ATOM      9  C   UNL A   1      34.548  24.758  24.222  1.00  0.00     0.325 C 
ATOM     10  C   UNL A   1      34.717  22.870  25.719  1.00  0.00     0.325 C 
ATOM     11  H   UNL A   1      35.624  24.686  25.883  1.00  0.00     0.348 HD
ATOM     12  C   UNL A   1      33.747  23.890  23.216  1.00  0.00     0.324 C 
ATOM     13  C   UNL A   1      34.005  21.962  24.692  1.00  0.00     0.324 C 
ATOM     14  N   UNL A   1      33.146  22.650  23.722  1.00  0.00    -0.322 N 
ATOM     15  H   UNL A   1      33.122  22.018  22.921  1.00  0.00     0.348 HD
BRANCH  14  16
ATOM     16  C   UNL A   1      31.710  22.706  24.027  1.00  0.00     0.306 C 
BRANCH  16  17
ATOM     17  C   UNL A   1      31.174  24.069  24.424  1.00  0.00     0.085 A 
ATOM     18  C   UNL A   1      30.975  24.986  23.364  1.00  0.00     0.037 A 
ATOM     19  C   UNL A   1      30.971  24.543  25.738  1.00  0.00     0.278 A 
ATOM     20  C   UNL A   1      30.775  26.345  23.596  1.00  0.00     0.042 A 
ATOM     21  C   UNL A   1      30.751  25.921  25.959  1.00  0.00     0.088 A 
ATOM     22  Cl  UNL A   1      30.716  27.433  22.267  1.00  0.00    -0.084 Cl
ATOM     23  C   UNL A   1      30.694  26.821  24.894  1.00  0.00     0.027 A 
BRANCH  19  24
ATOM     24  N   UNL A   1      30.949  23.675  26.937  1.00  0.00     0.063 N 
ATOM     25  O   UNL A   1      29.843  23.288  27.339  1.00  0.00    -0.258 OA
ATOM     26  O   UNL A   1      32.015  23.357  27.472  1.00  0.00    -0.258 OA
ENDBRANCH  19  24
ENDBRANCH  16  17
ENDBRANCH  14  16
ENDBRANCH   7   8
ENDBRANCH   5   7
ENDBRANCH   2   3
ENDBRANCH   1   2
BRANCH   1  27
ATOM     27  C   UNL A   1      41.809  21.698  26.874  1.00  0.00     0.002 C 
BRANCH  27  28
ATOM     28  C   UNL A   1      41.931  20.194  27.142  1.00  0.00     0.002 C 
BRANCH  28  29
ATOM     29  C   UNL A   1      42.276  19.326  25.934  1.00  0.00     0.021 C 
BRANCH  29  30
ATOM     30  C   UNL A   1      43.630  18.634  25.992  1.00  0.00     0.116 C 
BRANCH  30  31
ATOM     31  N   UNL A   1      44.319  18.620  24.712  1.00  0.00    -0.352 N 
ATOM     32  C   UNL A   1      44.844  19.669  23.999  1.00  0.00     0.251 C 
ATOM     33  H   UNL A   1      44.424  17.733  24.298  1.00  0.00     0.163 HD
ATOM     34  O   UNL A   1      45.276  19.486  22.862  1.00  0.00    -0.269 OA
BRANCH  32  35
ATOM     35  C   UNL A   1      44.858  21.032  24.578  1.00  0.00     0.039 A 
ATOM     36  C   UNL A   1      45.464  21.223  25.822  1.00  0.00     0.014 A 
ATOM     37  C   UNL A   1      44.288  22.117  23.907  1.00  0.00     0.014 A 
ATOM     38  C   UNL A   1      45.555  22.509  26.359  1.00  0.00     0.010 A 
ATOM     39  C   UNL A   1      44.454  23.409  24.402  1.00  0.00     0.010 A 
ATOM     40  C   UNL A   1      45.087  23.619  25.635  1.00  0.00    -0.014 A 
BRANCH  40  41
ATOM     41  C   UNL A   1      45.282  24.999  26.154  1.00  0.00     0.031 A 
ATOM     42  C   UNL A   1      46.633  25.659  26.102  1.00  0.00     0.074 A 
ATOM     43  C   UNL A   1      44.240  25.649  26.708  1.00  0.00     0.049 A 
ATOM     44  N   UNL A   1      46.978  26.866  26.479  1.00  0.00    -0.248 NA
ATOM     45  C   UNL A   1      47.747  24.852  25.583  1.00  0.00     0.031 C 
ATOM     46  C   UNL A   1      42.893  25.100  26.874  1.00  0.00     0.029 A 
ATOM     47  N   UNL A   1      44.147  26.915  27.230  1.00  0.00    -0.354 N 
ATOM     48  C   UNL A   1      48.346  26.957  26.253  1.00  0.00     0.074 A 
ATOM     49  C   UNL A   1      48.777  25.667  25.761  1.00  0.00     0.031 C 
ATOM     50  C   UNL A   1      42.098  26.039  27.408  1.00  0.00     0.029 A 
ATOM     51  C   UNL A   1      42.884  27.242  27.659  1.00  0.00     0.049 A 
ATOM     52  H   UNL A   1      44.913  27.531  27.290  1.00  0.00     0.167 HD
ATOM     53  C   UNL A   1      49.164  28.025  26.419  1.00  0.00     0.037 A 
ATOM     54  C   UNL A   1      42.409  28.384  28.189  1.00  0.00     0.037 A 
ATOM     55  C   UNL A   1      48.728  29.312  26.898  1.00  0.00     0.049 A 
ATOM     56  C   UNL A   1      43.340  29.551  28.371  1.00  0.00     0.074 A 
ATOM     57  C   UNL A   1      49.464  30.478  27.030  1.00  0.00     0.029 A 
ATOM     58  N   UNL A   1      47.445  29.601  27.338  1.00  0.00    -0.354 N 
ATOM     59  N   UNL A   1      44.610  29.655  28.064  1.00  0.00    -0.248 NA
ATOM     60  C   UNL A   1      42.763  30.764  28.967  1.00  0.00     0.031 C 
ATOM     61  C   UNL A   1      48.643  31.451  27.610  1.00  0.00     0.029 A 
ATOM     62  C   UNL A   1      47.377  30.914  27.778  1.00  0.00     0.049 A 
ATOM     63  H   UNL A   1      46.692  28.965  27.339  1.00  0.00     0.167 HD
ATOM     64  C   UNL A   1      44.978  30.950  28.404  1.00  0.00     0.074 A 
ATOM     65  C   UNL A   1      43.790  31.600  28.917  1.00  0.00     0.031 C 
ATOM     66  C   UNL A   1      46.192  31.549  28.300  1.00  0.00     0.037 A 
BRANCH  53  67
ATOM     67  C   UNL A   1      50.620  27.837  26.093  1.00  0.00     0.057 A 
ATOM     68  C   UNL A   1      51.109  27.929  24.782  1.00  0.00     0.134 A 
ATOM     69  C   UNL A   1      51.552  27.582  27.108  1.00  0.00     0.134 A 
ATOM     70  F   UNL A   1      50.272  28.162  23.759  1.00  0.00    -0.206 F 
ATOM     71  C   UNL A   1      52.460  27.736  24.489  1.00  0.00     0.040 A 
ATOM     72  C   UNL A   1      52.911  27.421  26.831  1.00  0.00     0.040 A 
ATOM     73  F   UNL A   1      51.158  27.490  28.387  1.00  0.00    -0.206 F 
ATOM     74  C   UNL A   1      53.367  27.487  25.517  1.00  0.00     0.006 A 
ENDBRANCH  53  67
BRANCH  54  75
ATOM     75  C   UNL A   1      40.972  28.499  28.546  1.00  0.00     0.057 A 
ATOM     76  C   UNL A   1      40.525  28.195  29.838  1.00  0.00     0.134 A 
ATOM     77  C   UNL A   1      40.013  28.907  27.611  1.00  0.00     0.134 A 
ATOM     78  F   UNL A   1      41.393  27.780  30.772  1.00  0.00    -0.206 F 
ATOM     79  C   UNL A   1      39.175  28.273  30.181  1.00  0.00     0.040 A 
ATOM     80  C   UNL A   1      38.663  29.016  27.950  1.00  0.00     0.040 A 
ATOM     81  F   UNL A   1      40.378  29.220  26.359  1.00  0.00    -0.206 F 
ATOM     82  C   UNL A   1      38.240  28.690  29.237  1.00  0.00     0.006 A 
ENDBRANCH  54  75
BRANCH  66  83
ATOM     83  C   UNL A   1      46.281  32.987  28.729  1.00  0.00     0.057 A 
ATOM     84  C   UNL A   1      46.595  33.352  30.045  1.00  0.00     0.134 A 
ATOM     85  C   UNL A   1      46.048  34.021  27.812  1.00  0.00     0.134 A 
ATOM     86  F   UNL A   1      46.819  32.413  30.977  1.00  0.00    -0.206 F 
ATOM     87  C   UNL A   1      46.632  34.689  30.444  1.00  0.00     0.040 A 
ATOM     88  C   UNL A   1      46.115  35.362  28.191  1.00  0.00     0.040 A 
ATOM     89  F   UNL A   1      45.753  33.745  26.532  1.00  0.00    -0.206 F 
ATOM     90  C   UNL A   1      46.395  35.700  29.513  1.00  0.00     0.006 A 
ENDBRANCH  66  83
ENDBRANCH  40  41
ENDBRANCH  32  35
ENDBRANCH  30  31
ENDBRANCH  29  30
ENDBRANCH  28  29
ENDBRANCH  27  28
ENDBRANCH   1  27
TORSDOF 17
ENDMDL
