MODEL 1
REMARK VINA RESULT:     -12.8      0.000      0.000
REMARK SMILES Cc1ncc(CC(=O)N2CCc3c(c(C(=O)NCCCCCCNC(=O)c4ccc(-c5c6nc(c(-c7c(F)cccc7F)c7ccc([nH]7)c(-c7c(F)cccc7F)c7nc(c(-c8c(F)cccc8F)c8ccc5[nH]8)C=C7)C=C6)cc4)nn3CC3CC3)C2)c(=O)[nH]1
REMARK SMILES IDX 20 1 19 2 18 3 17 4 15 5 16 6 14 8 9 9 10 10 87 11 11 12
REMARK SMILES IDX 13 13 12 14 82 15 81 16 7 17 8 18 6 19 5 20 1 21 2 22 3 23
REMARK SMILES IDX 90 24 4 25 88 26 89 28 83 29 84 30 85 31 86 32 21 33 22 34
REMARK SMILES IDX 23 35 24 36 25 37 26 39 27 40 28 41 80 42 29 43 79 44 30 45
REMARK SMILES IDX 31 46 32 47 73 48 33 49 78 50 72 51 74 52 34 53 77 54 71 55
REMARK SMILES IDX 70 56 35 58 61 59 44 60 60 61 45 62 48 63 59 64 75 65 46 66
REMARK SMILES IDX 47 67 58 69 76 70 49 71 36 72 37 73 42 74 38 75 39 76 41 77
REMARK SMILES IDX 43 78 40 79 62 80 63 81 68 82 64 83 65 84 67 85 69 86 66 87
REMARK SMILES IDX 50 88 51 89 56 90 52 91 53 92 55 93 57 94 54 95
REMARK H PARENT 17 7 90 27 24 38 74 57 48 68
REMARK Flexibility Score: inf
ROOT
ATOM      1  C   UNL A   1      39.890  21.838  26.389  1.00  0.00     0.002 C 
ENDROOT
BRANCH   1   2
ATOM      2  C   UNL A   1      39.096  23.140  26.519  1.00  0.00     0.021 C 
BRANCH   2   3
ATOM      3  C   UNL A   1      37.640  23.055  26.066  1.00  0.00     0.116 C 
BRANCH   3   4
ATOM      4  N   UNL A   1      37.501  23.152  24.621  1.00  0.00    -0.351 N 
ATOM      5  C   UNL A   1      36.477  22.772  23.776  1.00  0.00     0.272 C 
ATOM      6  O   UNL A   1      36.642  22.977  22.570  1.00  0.00    -0.267 OA
ATOM      7  H   UNL A   1      38.272  23.560  24.166  1.00  0.00     0.163 HD
BRANCH   5   8
ATOM      8  C   UNL A   1      35.252  22.116  24.275  1.00  0.00     0.155 A 
ATOM      9  N   UNL A   1      32.206  24.249  25.058  1.00  0.00    -0.338 N 
ATOM     10  C   UNL A   1      31.256  23.214  24.618  1.00  0.00     0.126 C 
ATOM     11  C   UNL A   1      33.546  24.171  24.424  1.00  0.00     0.159 C 
ATOM     12  C   UNL A   1      31.688  21.824  25.113  1.00  0.00     0.078 C 
ATOM     13  C   UNL A   1      33.989  22.736  24.514  1.00  0.00     0.026 A 
ATOM     14  C   UNL A   1      33.139  21.692  24.831  1.00  0.00     0.046 A 
ATOM     15  N   UNL A   1      33.887  20.563  24.850  1.00  0.00    -0.268 N 
ATOM     16  N   UNL A   1      35.178  20.807  24.583  1.00  0.00    -0.167 NA
BRANCH   9  17
ATOM     17  C   UNL A   1      31.973  25.258  25.976  1.00  0.00     0.227 C 
ATOM     18  O   UNL A   1      31.250  25.053  26.958  1.00  0.00    -0.275 OA
BRANCH  17  19
ATOM     19  C   UNL A   1      32.352  26.718  25.647  1.00  0.00     0.143 C 
BRANCH  19  20
ATOM     20  C   UNL A   1      31.433  27.575  24.848  1.00  0.00     0.045 A 
ATOM     21  C   UNL A   1      29.159  29.948  22.190  1.00  0.00     0.087 C 
ATOM     22  C   UNL A   1      29.897  29.090  23.173  1.00  0.00     0.105 A 
ATOM     23  N   UNL A   1      29.545  27.862  23.378  1.00  0.00    -0.243 NA
ATOM     24  N   UNL A   1      30.958  29.680  23.798  1.00  0.00    -0.311 N 
ATOM     25  C   UNL A   1      30.317  27.136  24.244  1.00  0.00     0.123 A 
ATOM     26  C   UNL A   1      31.762  29.004  24.671  1.00  0.00     0.254 A 
ATOM     27  H   UNL A   1      31.150  30.628  23.614  1.00  0.00     0.171 HD
ATOM     28  O   UNL A   1      32.713  29.535  25.229  1.00  0.00    -0.269 OA
ENDBRANCH  19  20
ENDBRANCH  17  19
ENDBRANCH   9  17
BRANCH  15  29
ATOM     29  C   UNL A   1      33.461  19.203  25.148  1.00  0.00     0.148 C 
BRANCH  29  30
ATOM     30  C   UNL A   1      34.011  18.146  24.225  1.00  0.00     0.011 C 
ATOM     31  C   UNL A   1      33.565  16.697  24.200  1.00  0.00     0.006 C 
ATOM     32  C   UNL A   1      33.147  17.625  23.098  1.00  0.00     0.006 C 
ENDBRANCH  29  30
ENDBRANCH  15  29
ENDBRANCH   5   8
ENDBRANCH   3   4
ENDBRANCH   2   3
ENDBRANCH   1   2
BRANCH   1  33
ATOM     33  C   UNL A   1      40.879  21.531  27.526  1.00  0.00     0.002 C 
BRANCH  33  34
ATOM     34  C   UNL A   1      41.912  20.424  27.269  1.00  0.00     0.021 C 
BRANCH  34  35
ATOM     35  C   UNL A   1      41.981  19.957  25.824  1.00  0.00     0.116 C 
BRANCH  35  36
ATOM     36  N   UNL A   1      43.349  19.694  25.369  1.00  0.00    -0.352 N 
ATOM     37  C   UNL A   1      44.305  20.612  24.982  1.00  0.00     0.251 C 
ATOM     38  H   UNL A   1      43.619  18.748  25.335  1.00  0.00     0.163 HD
ATOM     39  O   UNL A   1      45.257  20.277  24.274  1.00  0.00    -0.269 OA
BRANCH  37  40
ATOM     40  C   UNL A   1      44.182  22.004  25.442  1.00  0.00     0.039 A 
ATOM     41  C   UNL A   1      43.284  22.904  24.860  1.00  0.00     0.014 A 
ATOM     42  C   UNL A   1      44.992  22.397  26.504  1.00  0.00     0.014 A 
ATOM     43  C   UNL A   1      43.163  24.178  25.409  1.00  0.00     0.010 A 
ATOM     44  C   UNL A   1      44.736  23.570  27.156  1.00  0.00     0.010 A 
ATOM     45  C   UNL A   1      43.885  24.496  26.571  1.00  0.00    -0.014 A 
BRANCH  45  46
ATOM     46  C   UNL A   1      43.677  25.750  27.283  1.00  0.00     0.031 A 
ATOM     47  C   UNL A   1      44.638  26.816  26.903  1.00  0.00     0.074 A 
ATOM     48  C   UNL A   1      42.567  25.991  28.016  1.00  0.00     0.049 A 
ATOM     49  N   UNL A   1      45.556  27.341  27.643  1.00  0.00    -0.248 NA
ATOM     50  C   UNL A   1      44.704  27.234  25.491  1.00  0.00     0.031 C 
ATOM     51  C   UNL A   1      41.396  25.126  28.207  1.00  0.00     0.029 A 
ATOM     52  N   UNL A   1      42.194  27.129  28.661  1.00  0.00    -0.354 N 
ATOM     53  C   UNL A   1      46.151  28.328  26.866  1.00  0.00     0.074 A 
ATOM     54  C   UNL A   1      45.747  28.069  25.509  1.00  0.00     0.031 C 
ATOM     55  C   UNL A   1      40.367  25.850  28.701  1.00  0.00     0.029 A 
ATOM     56  C   UNL A   1      40.847  27.182  29.016  1.00  0.00     0.049 A 
ATOM     57  H   UNL A   1      42.826  27.858  28.863  1.00  0.00     0.167 HD
ATOM     58  C   UNL A   1      46.683  29.438  27.449  1.00  0.00     0.037 A 
ATOM     59  C   UNL A   1      40.178  28.261  29.498  1.00  0.00     0.037 A 
ATOM     60  C   UNL A   1      46.892  29.224  28.863  1.00  0.00     0.049 A 
ATOM     61  C   UNL A   1      41.198  29.207  30.021  1.00  0.00     0.074 A 
ATOM     62  C   UNL A   1      47.583  28.286  29.608  1.00  0.00     0.029 A 
ATOM     63  N   UNL A   1      46.003  29.805  29.735  1.00  0.00    -0.354 N 
ATOM     64  N   UNL A   1      41.929  28.965  31.074  1.00  0.00    -0.248 NA
ATOM     65  C   UNL A   1      41.748  30.177  29.085  1.00  0.00     0.031 C 
ATOM     66  C   UNL A   1      46.729  27.998  30.714  1.00  0.00     0.029 A 
ATOM     67  C   UNL A   1      45.623  28.844  30.635  1.00  0.00     0.049 A 
ATOM     68  H   UNL A   1      45.695  30.741  29.717  1.00  0.00     0.167 HD
ATOM     69  C   UNL A   1      43.202  29.386  30.718  1.00  0.00     0.074 A 
ATOM     70  C   UNL A   1      43.016  30.186  29.508  1.00  0.00     0.031 C 
ATOM     71  C   UNL A   1      44.315  28.797  31.246  1.00  0.00     0.037 A 
BRANCH  58  72
ATOM     72  C   UNL A   1      46.613  30.826  26.854  1.00  0.00     0.057 A 
ATOM     73  C   UNL A   1      47.771  31.627  26.873  1.00  0.00     0.134 A 
ATOM     74  C   UNL A   1      45.419  31.515  26.558  1.00  0.00     0.134 A 
ATOM     75  F   UNL A   1      48.973  31.095  27.143  1.00  0.00    -0.206 F 
ATOM     76  C   UNL A   1      47.727  33.017  26.712  1.00  0.00     0.040 A 
ATOM     77  C   UNL A   1      45.371  32.895  26.345  1.00  0.00     0.040 A 
ATOM     78  F   UNL A   1      44.221  30.923  26.559  1.00  0.00    -0.206 F 
ATOM     79  C   UNL A   1      46.521  33.657  26.460  1.00  0.00     0.006 A 
ENDBRANCH  58  72
BRANCH  59  80
ATOM     80  C   UNL A   1      38.767  28.663  29.277  1.00  0.00     0.057 A 
ATOM     81  C   UNL A   1      37.848  28.717  30.338  1.00  0.00     0.134 A 
ATOM     82  C   UNL A   1      38.351  29.272  28.079  1.00  0.00     0.134 A 
ATOM     83  F   UNL A   1      38.163  28.204  31.537  1.00  0.00    -0.206 F 
ATOM     84  C   UNL A   1      36.606  29.359  30.222  1.00  0.00     0.040 A 
ATOM     85  C   UNL A   1      37.112  29.910  27.949  1.00  0.00     0.040 A 
ATOM     86  F   UNL A   1      39.170  29.348  27.021  1.00  0.00    -0.206 F 
ATOM     87  C   UNL A   1      36.240  29.969  29.027  1.00  0.00     0.006 A 
ENDBRANCH  59  80
BRANCH  71  88
ATOM     88  C   UNL A   1      44.146  27.846  32.401  1.00  0.00     0.057 A 
ATOM     89  C   UNL A   1      44.021  26.454  32.274  1.00  0.00     0.134 A 
ATOM     90  C   UNL A   1      44.288  28.348  33.700  1.00  0.00     0.134 A 
ATOM     91  F   UNL A   1      43.979  25.865  31.073  1.00  0.00    -0.206 F 
ATOM     92  C   UNL A   1      44.001  25.608  33.389  1.00  0.00     0.040 A 
ATOM     93  C   UNL A   1      44.305  27.513  34.818  1.00  0.00     0.040 A 
ATOM     94  F   UNL A   1      44.468  29.664  33.899  1.00  0.00    -0.206 F 
ATOM     95  C   UNL A   1      44.151  26.138  34.666  1.00  0.00     0.006 A 
ENDBRANCH  71  88
ENDBRANCH  45  46
ENDBRANCH  37  40
ENDBRANCH  35  36
ENDBRANCH  34  35
ENDBRANCH  33  34
ENDBRANCH   1  33
TORSDOF 18
ENDMDL
MODEL 2
REMARK VINA RESULT:     -12.3      1.812      2.259
REMARK SMILES Cc1ncc(CC(=O)N2CCc3c(c(C(=O)NCCCCCCNC(=O)c4ccc(-c5c6nc(c(-c7c(F)cccc7F)c7ccc([nH]7)c(-c7c(F)cccc7F)c7nc(c(-c8c(F)cccc8F)c8ccc5[nH]8)C=C7)C=C6)cc4)nn3CC3CC3)C2)c(=O)[nH]1
REMARK SMILES IDX 20 1 19 2 18 3 17 4 15 5 16 6 14 8 9 9 10 10 87 11 11 12
REMARK SMILES IDX 13 13 12 14 82 15 81 16 7 17 8 18 6 19 5 20 1 21 2 22 3 23
REMARK SMILES IDX 90 24 4 25 88 26 89 28 83 29 84 30 85 31 86 32 21 33 22 34
REMARK SMILES IDX 23 35 24 36 25 37 26 39 27 40 28 41 80 42 29 43 79 44 30 45
REMARK SMILES IDX 31 46 32 47 73 48 33 49 78 50 72 51 74 52 34 53 77 54 71 55
REMARK SMILES IDX 70 56 35 58 61 59 44 60 60 61 45 62 48 63 59 64 75 65 46 66
REMARK SMILES IDX 47 67 58 69 76 70 49 71 36 72 37 73 42 74 38 75 39 76 41 77
REMARK SMILES IDX 43 78 40 79 62 80 63 81 68 82 64 83 65 84 67 85 69 86 66 87
REMARK SMILES IDX 50 88 51 89 56 90 52 91 53 92 55 93 57 94 54 95
REMARK H PARENT 17 7 90 27 24 38 74 57 48 68
REMARK Flexibility Score: inf
ROOT
ATOM      1  C   UNL A   1      40.501  20.552  26.157  1.00  0.00     0.002 C 
ENDROOT
BRANCH   1   2
ATOM      2  C   UNL A   1      39.279  19.725  25.754  1.00  0.00     0.021 C 
BRANCH   2   3
ATOM      3  C   UNL A   1      38.165  20.513  25.067  1.00  0.00     0.116 C 
BRANCH   3   4
ATOM      4  N   UNL A   1      38.033  21.863  25.593  1.00  0.00    -0.351 N 
ATOM      5  C   UNL A   1      36.931  22.679  25.745  1.00  0.00     0.272 C 
ATOM      6  O   UNL A   1      37.125  23.799  26.226  1.00  0.00    -0.267 OA
ATOM      7  H   UNL A   1      38.880  22.264  25.895  1.00  0.00     0.163 HD
BRANCH   5   8
ATOM      8  C   UNL A   1      35.580  22.258  25.323  1.00  0.00     0.155 A 
ATOM      9  N   UNL A   1      33.805  24.218  22.594  1.00  0.00    -0.338 N 
ATOM     10  C   UNL A   1      33.150  23.023  22.036  1.00  0.00     0.126 C 
ATOM     11  C   UNL A   1      35.075  23.951  23.315  1.00  0.00     0.159 C 
ATOM     12  C   UNL A   1      32.619  22.113  23.155  1.00  0.00     0.078 C 
ATOM     13  C   UNL A   1      34.814  22.800  24.248  1.00  0.00     0.026 A 
ATOM     14  C   UNL A   1      33.699  21.986  24.164  1.00  0.00     0.046 A 
ATOM     15  N   UNL A   1      33.786  21.090  25.176  1.00  0.00    -0.268 N 
ATOM     16  N   UNL A   1      34.879  21.279  25.928  1.00  0.00    -0.167 NA
BRANCH   9  17
ATOM     17  C   UNL A   1      33.363  25.527  22.510  1.00  0.00     0.227 C 
ATOM     18  O   UNL A   1      33.828  26.289  21.654  1.00  0.00    -0.275 OA
BRANCH  17  19
ATOM     19  C   UNL A   1      32.520  26.143  23.647  1.00  0.00     0.143 C 
BRANCH  19  20
ATOM     20  C   UNL A   1      33.104  27.176  24.545  1.00  0.00     0.045 A 
ATOM     21  C   UNL A   1      34.277  30.221  27.232  1.00  0.00     0.087 C 
ATOM     22  C   UNL A   1      33.934  29.107  26.290  1.00  0.00     0.105 A 
ATOM     23  N   UNL A   1      34.016  27.871  26.664  1.00  0.00    -0.243 NA
ATOM     24  N   UNL A   1      33.512  29.487  25.048  1.00  0.00    -0.311 N 
ATOM     25  C   UNL A   1      33.620  26.925  25.758  1.00  0.00     0.123 A 
ATOM     26  C   UNL A   1      33.106  28.587  24.105  1.00  0.00     0.254 A 
ATOM     27  H   UNL A   1      33.502  30.445  24.823  1.00  0.00     0.171 HD
ATOM     28  O   UNL A   1      32.727  28.930  22.993  1.00  0.00    -0.269 OA
ENDBRANCH  19  20
ENDBRANCH  17  19
ENDBRANCH   9  17
BRANCH  15  29
ATOM     29  C   UNL A   1      32.849  20.030  25.526  1.00  0.00     0.148 C 
BRANCH  29  30
ATOM     30  C   UNL A   1      33.260  18.646  25.095  1.00  0.00     0.011 C 
ATOM     31  C   UNL A   1      32.659  17.358  25.619  1.00  0.00     0.006 C 
ATOM     32  C   UNL A   1      32.321  17.830  24.236  1.00  0.00     0.006 C 
ENDBRANCH  29  30
ENDBRANCH  15  29
ENDBRANCH   5   8
ENDBRANCH   3   4
ENDBRANCH   2   3
ENDBRANCH   1   2
BRANCH   1  33
ATOM     33  C   UNL A   1      41.637  19.786  26.856  1.00  0.00     0.002 C 
BRANCH  33  34
ATOM     34  C   UNL A   1      42.276  18.627  26.077  1.00  0.00     0.021 C 
BRANCH  34  35
ATOM     35  C   UNL A   1      43.789  18.548  26.204  1.00  0.00     0.116 C 
BRANCH  35  36
ATOM     36  N   UNL A   1      44.476  18.595  24.911  1.00  0.00    -0.352 N 
ATOM     37  C   UNL A   1      44.664  19.688  24.090  1.00  0.00     0.251 C 
ATOM     38  H   UNL A   1      44.850  17.743  24.588  1.00  0.00     0.163 HD
ATOM     39  O   UNL A   1      44.906  19.547  22.889  1.00  0.00    -0.269 OA
BRANCH  37  40
ATOM     40  C   UNL A   1      44.586  21.037  24.672  1.00  0.00     0.039 A 
ATOM     41  C   UNL A   1      43.520  21.902  24.407  1.00  0.00     0.014 A 
ATOM     42  C   UNL A   1      45.618  21.423  25.522  1.00  0.00     0.014 A 
ATOM     43  C   UNL A   1      43.474  23.128  25.066  1.00  0.00     0.010 A 
ATOM     44  C   UNL A   1      45.475  22.533  26.307  1.00  0.00     0.010 A 
ATOM     45  C   UNL A   1      44.451  23.427  26.030  1.00  0.00    -0.014 A 
BRANCH  45  46
ATOM     46  C   UNL A   1      44.363  24.616  26.866  1.00  0.00     0.031 A 
ATOM     47  C   UNL A   1      45.465  25.587  26.638  1.00  0.00     0.074 A 
ATOM     48  C   UNL A   1      43.257  24.919  27.582  1.00  0.00     0.049 A 
ATOM     49  N   UNL A   1      46.403  25.911  27.463  1.00  0.00    -0.248 NA
ATOM     50  C   UNL A   1      45.649  26.138  25.284  1.00  0.00     0.031 C 
ATOM     51  C   UNL A   1      41.982  24.194  27.637  1.00  0.00     0.029 A 
ATOM     52  N   UNL A   1      42.996  26.022  28.335  1.00  0.00    -0.354 N 
ATOM     53  C   UNL A   1      47.151  26.891  26.819  1.00  0.00     0.074 A 
ATOM     54  C   UNL A   1      46.784  26.827  25.429  1.00  0.00     0.031 C 
ATOM     55  C   UNL A   1      41.027  24.986  28.172  1.00  0.00     0.029 A 
ATOM     56  C   UNL A   1      41.649  26.207  28.647  1.00  0.00     0.049 A 
ATOM     57  H   UNL A   1      43.701  26.640  28.636  1.00  0.00     0.167 HD
ATOM     58  C   UNL A   1      47.786  27.858  27.538  1.00  0.00     0.037 A 
ATOM     59  C   UNL A   1      41.095  27.306  29.220  1.00  0.00     0.037 A 
ATOM     60  C   UNL A   1      47.899  27.473  28.926  1.00  0.00     0.049 A 
ATOM     61  C   UNL A   1      42.196  28.056  29.878  1.00  0.00     0.074 A 
ATOM     62  C   UNL A   1      48.434  26.383  29.588  1.00  0.00     0.029 A 
ATOM     63  N   UNL A   1      47.046  28.069  29.825  1.00  0.00    -0.354 N 
ATOM     64  N   UNL A   1      42.841  27.616  30.923  1.00  0.00    -0.248 NA
ATOM     65  C   UNL A   1      42.905  29.041  29.072  1.00  0.00     0.031 C 
ATOM     66  C   UNL A   1      47.499  26.093  30.626  1.00  0.00     0.029 A 
ATOM     67  C   UNL A   1      46.509  27.075  30.601  1.00  0.00     0.049 A 
ATOM     68  H   UNL A   1      46.857  29.033  29.898  1.00  0.00     0.167 HD
ATOM     69  C   UNL A   1      44.172  27.907  30.659  1.00  0.00     0.074 A 
ATOM     70  C   UNL A   1      44.143  28.846  29.538  1.00  0.00     0.031 C 
ATOM     71  C   UNL A   1      45.178  27.130  31.158  1.00  0.00     0.037 A 
BRANCH  58  72
ATOM     72  C   UNL A   1      47.914  29.298  27.096  1.00  0.00     0.057 A 
ATOM     73  C   UNL A   1      49.157  29.942  27.248  1.00  0.00     0.134 A 
ATOM     74  C   UNL A   1      46.829  30.157  26.830  1.00  0.00     0.134 A 
ATOM     75  F   UNL A   1      50.270  29.239  27.507  1.00  0.00    -0.206 F 
ATOM     76  C   UNL A   1      49.288  31.336  27.238  1.00  0.00     0.040 A 
ATOM     77  C   UNL A   1      46.958  31.547  26.766  1.00  0.00     0.040 A 
ATOM     78  F   UNL A   1      45.569  29.722  26.718  1.00  0.00    -0.206 F 
ATOM     79  C   UNL A   1      48.182  32.144  27.010  1.00  0.00     0.006 A 
ENDBRANCH  58  72
BRANCH  59  80
ATOM     80  C   UNL A   1      39.756  27.904  28.995  1.00  0.00     0.057 A 
ATOM     81  C   UNL A   1      38.801  27.963  30.023  1.00  0.00     0.134 A 
ATOM     82  C   UNL A   1      39.475  28.682  27.857  1.00  0.00     0.134 A 
ATOM     83  F   UNL A   1      38.992  27.293  31.169  1.00  0.00    -0.206 F 
ATOM     84  C   UNL A   1      37.653  28.766  29.935  1.00  0.00     0.040 A 
ATOM     85  C   UNL A   1      38.330  29.481  27.754  1.00  0.00     0.040 A 
ATOM     86  F   UNL A   1      40.347  28.764  26.842  1.00  0.00    -0.206 F 
ATOM     87  C   UNL A   1      37.421  29.538  28.802  1.00  0.00     0.006 A 
ENDBRANCH  59  80
BRANCH  71  88
ATOM     88  C   UNL A   1      44.839  26.093  32.196  1.00  0.00     0.057 A 
ATOM     89  C   UNL A   1      44.530  24.754  31.912  1.00  0.00     0.134 A 
ATOM     90  C   UNL A   1      45.000  26.428  33.545  1.00  0.00     0.134 A 
ATOM     91  F   UNL A   1      44.452  24.309  30.652  1.00  0.00    -0.206 F 
ATOM     92  C   UNL A   1      44.355  23.804  32.925  1.00  0.00     0.040 A 
ATOM     93  C   UNL A   1      44.863  25.483  34.564  1.00  0.00     0.040 A 
ATOM     94  F   UNL A   1      45.351  27.677  33.893  1.00  0.00    -0.206 F 
ATOM     95  C   UNL A   1      44.529  24.168  34.256  1.00  0.00     0.006 A 
ENDBRANCH  71  88
ENDBRANCH  45  46
ENDBRANCH  37  40
ENDBRANCH  35  36
ENDBRANCH  34  35
ENDBRANCH  33  34
ENDBRANCH   1  33
TORSDOF 18
ENDMDL
MODEL 3
REMARK VINA RESULT:     -12.0      1.739      4.642
REMARK SMILES Cc1ncc(CC(=O)N2CCc3c(c(C(=O)NCCCCCCNC(=O)c4ccc(-c5c6nc(c(-c7c(F)cccc7F)c7ccc([nH]7)c(-c7c(F)cccc7F)c7nc(c(-c8c(F)cccc8F)c8ccc5[nH]8)C=C7)C=C6)cc4)nn3CC3CC3)C2)c(=O)[nH]1
REMARK SMILES IDX 20 1 19 2 18 3 17 4 15 5 16 6 14 8 9 9 10 10 87 11 11 12
REMARK SMILES IDX 13 13 12 14 82 15 81 16 7 17 8 18 6 19 5 20 1 21 2 22 3 23
REMARK SMILES IDX 90 24 4 25 88 26 89 28 83 29 84 30 85 31 86 32 21 33 22 34
REMARK SMILES IDX 23 35 24 36 25 37 26 39 27 40 28 41 80 42 29 43 79 44 30 45
REMARK SMILES IDX 31 46 32 47 73 48 33 49 78 50 72 51 74 52 34 53 77 54 71 55
REMARK SMILES IDX 70 56 35 58 61 59 44 60 60 61 45 62 48 63 59 64 75 65 46 66
REMARK SMILES IDX 47 67 58 69 76 70 49 71 36 72 37 73 42 74 38 75 39 76 41 77
REMARK SMILES IDX 43 78 40 79 62 80 63 81 68 82 64 83 65 84 67 85 69 86 66 87
REMARK SMILES IDX 50 88 51 89 56 90 52 91 53 92 55 93 57 94 54 95
REMARK H PARENT 17 7 90 27 24 38 74 57 48 68
REMARK Flexibility Score: inf
ROOT
ATOM      1  C   UNL A   1      39.681  22.297  26.747  1.00  0.00     0.002 C 
ENDROOT
BRANCH   1   2
ATOM      2  C   UNL A   1      38.969  23.646  26.869  1.00  0.00     0.021 C 
BRANCH   2   3
ATOM      3  C   UNL A   1      37.579  23.701  26.238  1.00  0.00     0.116 C 
BRANCH   3   4
ATOM      4  N   UNL A   1      37.609  23.451  24.806  1.00  0.00    -0.351 N 
ATOM      5  C   UNL A   1      36.617  23.518  23.847  1.00  0.00     0.272 C 
ATOM      6  O   UNL A   1      36.939  23.242  22.688  1.00  0.00    -0.267 OA
ATOM      7  H   UNL A   1      38.492  23.189  24.458  1.00  0.00     0.163 HD
BRANCH   5   8
ATOM      8  C   UNL A   1      35.223  23.868  24.186  1.00  0.00     0.155 A 
ATOM      9  N   UNL A   1      32.554  21.168  24.032  1.00  0.00    -0.338 N 
ATOM     10  C   UNL A   1      31.804  21.717  25.175  1.00  0.00     0.126 C 
ATOM     11  C   UNL A   1      34.002  21.494  24.025  1.00  0.00     0.159 C 
ATOM     12  C   UNL A   1      31.718  23.249  25.090  1.00  0.00     0.078 C 
ATOM     13  C   UNL A   1      34.119  22.970  24.290  1.00  0.00     0.026 A 
ATOM     14  C   UNL A   1      33.078  23.746  24.765  1.00  0.00     0.046 A 
ATOM     15  N   UNL A   1      33.537  25.018  24.849  1.00  0.00    -0.268 N 
ATOM     16  N   UNL A   1      34.809  25.125  24.440  1.00  0.00    -0.167 NA
BRANCH   9  17
ATOM     17  C   UNL A   1      32.051  20.398  22.998  1.00  0.00     0.227 C 
ATOM     18  O   UNL A   1      31.548  20.940  22.006  1.00  0.00    -0.275 OA
BRANCH  17  19
ATOM     19  C   UNL A   1      31.833  18.882  23.184  1.00  0.00     0.143 C 
BRANCH  19  20
ATOM     20  C   UNL A   1      32.917  18.025  23.740  1.00  0.00     0.045 A 
ATOM     21  C   UNL A   1      35.632  15.230  25.377  1.00  0.00     0.087 C 
ATOM     22  C   UNL A   1      34.732  16.257  24.758  1.00  0.00     0.105 A 
ATOM     23  N   UNL A   1      34.697  16.423  23.476  1.00  0.00    -0.243 NA
ATOM     24  N   UNL A   1      33.951  16.964  25.627  1.00  0.00    -0.311 N 
ATOM     25  C   UNL A   1      33.797  17.337  22.997  1.00  0.00     0.123 A 
ATOM     26  C   UNL A   1      33.037  17.887  25.205  1.00  0.00     0.254 A 
ATOM     27  H   UNL A   1      34.051  16.803  26.593  1.00  0.00     0.171 HD
ATOM     28  O   UNL A   1      32.337  18.518  25.986  1.00  0.00    -0.269 OA
ENDBRANCH  19  20
ENDBRANCH  17  19
ENDBRANCH   9  17
BRANCH  15  29
ATOM     29  C   UNL A   1      32.819  26.210  25.278  1.00  0.00     0.148 C 
BRANCH  29  30
ATOM     30  C   UNL A   1      33.622  27.171  26.116  1.00  0.00     0.011 C 
ATOM     31  C   UNL A   1      33.740  28.660  25.858  1.00  0.00     0.006 C 
ATOM     32  C   UNL A   1      32.901  28.165  26.999  1.00  0.00     0.006 C 
ENDBRANCH  29  30
ENDBRANCH  15  29
ENDBRANCH   5   8
ENDBRANCH   3   4
ENDBRANCH   2   3
ENDBRANCH   1   2
BRANCH   1  33
ATOM     33  C   UNL A   1      40.801  22.026  27.765  1.00  0.00     0.002 C 
BRANCH  33  34
ATOM     34  C   UNL A   1      41.673  20.785  27.526  1.00  0.00     0.021 C 
BRANCH  34  35
ATOM     35  C   UNL A   1      41.649  20.270  26.095  1.00  0.00     0.116 C 
BRANCH  35  36
ATOM     36  N   UNL A   1      42.980  19.939  25.581  1.00  0.00    -0.352 N 
ATOM     37  C   UNL A   1      43.957  20.807  25.137  1.00  0.00     0.251 C 
ATOM     38  H   UNL A   1      43.205  18.981  25.547  1.00  0.00     0.163 HD
ATOM     39  O   UNL A   1      44.859  20.421  24.390  1.00  0.00    -0.269 OA
BRANCH  37  40
ATOM     40  C   UNL A   1      43.920  22.209  25.582  1.00  0.00     0.039 A 
ATOM     41  C   UNL A   1      43.074  23.154  24.995  1.00  0.00     0.014 A 
ATOM     42  C   UNL A   1      44.758  22.564  26.636  1.00  0.00     0.014 A 
ATOM     43  C   UNL A   1      43.032  24.439  25.531  1.00  0.00     0.010 A 
ATOM     44  C   UNL A   1      44.576  23.758  27.277  1.00  0.00     0.010 A 
ATOM     45  C   UNL A   1      43.778  24.726  26.686  1.00  0.00    -0.014 A 
BRANCH  45  46
ATOM     46  C   UNL A   1      43.648  25.997  27.386  1.00  0.00     0.031 A 
ATOM     47  C   UNL A   1      44.683  26.993  27.005  1.00  0.00     0.074 A 
ATOM     48  C   UNL A   1      42.551  26.319  28.107  1.00  0.00     0.049 A 
ATOM     49  N   UNL A   1      45.627  27.462  27.750  1.00  0.00    -0.248 NA
ATOM     50  C   UNL A   1      44.788  27.394  25.591  1.00  0.00     0.031 C 
ATOM     51  C   UNL A   1      41.323  25.536  28.295  1.00  0.00     0.029 A 
ATOM     52  N   UNL A   1      42.251  27.485  28.739  1.00  0.00    -0.354 N 
ATOM     53  C   UNL A   1      46.294  28.400  26.969  1.00  0.00     0.074 A 
ATOM     54  C   UNL A   1      45.884  28.156  25.611  1.00  0.00     0.031 C 
ATOM     55  C   UNL A   1      40.342  26.331  28.774  1.00  0.00     0.029 A 
ATOM     56  C   UNL A   1      40.907  27.631  29.083  1.00  0.00     0.049 A 
ATOM     57  H   UNL A   1      42.928  28.172  28.940  1.00  0.00     0.167 HD
ATOM     58  C   UNL A   1      46.895  29.477  27.547  1.00  0.00     0.037 A 
ATOM     59  C   UNL A   1      40.309  28.757  29.549  1.00  0.00     0.037 A 
ATOM     60  C   UNL A   1      47.077  29.261  28.964  1.00  0.00     0.049 A 
ATOM     61  C   UNL A   1      41.386  29.638  30.073  1.00  0.00     0.074 A 
ATOM     62  C   UNL A   1      47.697  28.286  29.724  1.00  0.00     0.029 A 
ATOM     63  N   UNL A   1      46.222  29.909  29.824  1.00  0.00    -0.354 N 
ATOM     64  N   UNL A   1      42.090  29.357  31.135  1.00  0.00    -0.248 NA
ATOM     65  C   UNL A   1      42.007  30.560  29.134  1.00  0.00     0.031 C 
ATOM     66  C   UNL A   1      46.817  28.066  30.825  1.00  0.00     0.029 A 
ATOM     67  C   UNL A   1      45.771  28.984  30.728  1.00  0.00     0.049 A 
ATOM     68  H   UNL A   1      45.978  30.864  29.795  1.00  0.00     0.167 HD
ATOM     69  C   UNL A   1      43.391  29.687  30.786  1.00  0.00     0.074 A 
ATOM     70  C   UNL A   1      43.269  30.488  29.568  1.00  0.00     0.031 C 
ATOM     71  C   UNL A   1      44.458  29.030  31.329  1.00  0.00     0.037 A 
BRANCH  58  72
ATOM     72  C   UNL A   1      46.923  30.861  26.940  1.00  0.00     0.057 A 
ATOM     73  C   UNL A   1      48.129  31.587  26.972  1.00  0.00     0.134 A 
ATOM     74  C   UNL A   1      45.780  31.622  26.619  1.00  0.00     0.134 A 
ATOM     75  F   UNL A   1      49.290  30.981  27.266  1.00  0.00    -0.206 F 
ATOM     76  C   UNL A   1      48.176  32.975  26.799  1.00  0.00     0.040 A 
ATOM     77  C   UNL A   1      45.824  33.000  26.394  1.00  0.00     0.040 A 
ATOM     78  F   UNL A   1      44.546  31.107  26.605  1.00  0.00    -0.206 F 
ATOM     79  C   UNL A   1      47.017  33.689  26.522  1.00  0.00     0.006 A 
ENDBRANCH  58  72
BRANCH  59  80
ATOM     80  C   UNL A   1      38.929  29.251  29.312  1.00  0.00     0.057 A 
ATOM     81  C   UNL A   1      38.463  29.516  28.014  1.00  0.00     0.134 A 
ATOM     82  C   UNL A   1      37.946  29.207  30.317  1.00  0.00     0.134 A 
ATOM     83  F   UNL A   1      39.312  29.537  26.977  1.00  0.00    -0.206 F 
ATOM     84  C   UNL A   1      37.101  29.702  27.731  1.00  0.00     0.040 A 
ATOM     85  C   UNL A   1      36.585  29.397  30.048  1.00  0.00     0.040 A 
ATOM     86  F   UNL A   1      38.260  28.889  31.581  1.00  0.00    -0.206 F 
ATOM     87  C   UNL A   1      36.155  29.629  28.748  1.00  0.00     0.006 A 
ENDBRANCH  59  80
BRANCH  71  88
ATOM     88  C   UNL A   1      44.216  28.103  32.490  1.00  0.00     0.057 A 
ATOM     89  C   UNL A   1      43.966  26.727  32.372  1.00  0.00     0.134 A 
ATOM     90  C   UNL A   1      44.415  28.596  33.785  1.00  0.00     0.134 A 
ATOM     91  F   UNL A   1      43.860  26.139  31.174  1.00  0.00    -0.206 F 
ATOM     92  C   UNL A   1      43.882  25.891  33.491  1.00  0.00     0.040 A 
ATOM     93  C   UNL A   1      44.368  27.767  34.908  1.00  0.00     0.040 A 
ATOM     94  F   UNL A   1      44.713  29.891  33.975  1.00  0.00    -0.206 F 
ATOM     95  C   UNL A   1      44.091  26.411  34.764  1.00  0.00     0.006 A 
ENDBRANCH  71  88
ENDBRANCH  45  46
ENDBRANCH  37  40
ENDBRANCH  35  36
ENDBRANCH  34  35
ENDBRANCH  33  34
ENDBRANCH   1  33
TORSDOF 18
ENDMDL
