MODEL 1
REMARK VINA RESULT:     -11.6      0.000      0.000
REMARK SMILES C[C@H]1C[C@H]1C(=O)Nc1cc(C(F)(F)F)ccc1C(=O)NCCCCCCNC(=O)c1ccc(-c2c3nc(c(-c4c(F)cccc4F)c4ccc([nH]4)c(-c4c(F)cccc4F)c4nc(c(-c5c(F)cccc5F)c5ccc2[nH]5)C=C4)C=C3)cc1
REMARK SMILES IDX 23 1 22 2 21 3 20 4 18 5 19 6 17 8 8 9 9 10 10 11 16 12
REMARK SMILES IDX 15 13 7 14 5 15 6 16 4 18 1 19 2 20 3 21 11 22 12 23 13 24
REMARK SMILES IDX 14 25 24 26 25 27 26 28 27 29 28 30 29 32 30 33 31 34 83 35
REMARK SMILES IDX 32 36 82 37 33 38 34 39 35 40 76 41 36 42 81 43 75 44 77 45
REMARK SMILES IDX 37 46 80 47 74 48 73 49 38 51 64 52 47 53 63 54 48 55 51 56
REMARK SMILES IDX 62 57 78 58 49 59 50 60 61 62 79 63 52 64 39 65 40 66 45 67
REMARK SMILES IDX 41 68 42 69 44 70 46 71 43 72 65 73 66 74 71 75 67 76 68 77
REMARK SMILES IDX 70 78 72 79 69 80 53 81 54 82 59 83 55 84 56 85 58 86 60 87
REMARK SMILES IDX 57 88
REMARK H PARENT 20 7 7 17 27 31 77 50 51 61
REMARK Flexibility Score: inf
ROOT
ATOM      1  C   UNL A   1      32.481  25.526  25.829  1.00  0.00     0.002 C 
ENDROOT
BRANCH   1   2
ATOM      2  C   UNL A   1      31.467  24.575  25.173  1.00  0.00     0.021 C 
BRANCH   2   3
ATOM      3  C   UNL A   1      31.383  24.669  23.652  1.00  0.00     0.116 C 
BRANCH   3   4
ATOM      4  N   UNL A   1      31.296  23.382  23.007  1.00  0.00    -0.352 N 
ATOM      5  C   UNL A   1      32.181  22.342  22.913  1.00  0.00     0.253 C 
ATOM      6  O   UNL A   1      31.857  21.429  22.146  1.00  0.00    -0.269 OA
ATOM      7  H   UNL A   1      30.440  23.221  22.548  1.00  0.00     0.163 HD
BRANCH   5   8
ATOM      8  C   UNL A   1      33.517  22.263  23.584  1.00  0.00     0.063 A 
ATOM      9  C   UNL A   1      33.938  21.465  24.653  1.00  0.00     0.054 A 
ATOM     10  C   UNL A   1      35.138  21.814  25.325  1.00  0.00     0.040 A 
ATOM     11  C   UNL A   1      36.011  22.808  24.858  1.00  0.00     0.058 A 
ATOM     12  C   UNL A   1      34.440  23.215  23.076  1.00  0.00     0.016 A 
ATOM     13  C   UNL A   1      35.671  23.474  23.686  1.00  0.00     0.014 A 
BRANCH   9  14
ATOM     14  N   UNL A   1      33.295  20.385  25.259  1.00  0.00    -0.325 N 
ATOM     15  C   UNL A   1      33.208  19.030  25.116  1.00  0.00     0.227 C 
ATOM     16  O   UNL A   1      32.299  18.518  25.783  1.00  0.00    -0.274 OA
ATOM     17  H   UNL A   1      32.740  20.689  26.012  1.00  0.00     0.169 HD
BRANCH  15  18
ATOM     18  C   UNL A   1      34.134  18.077  24.464  1.00  0.00     0.082 C 
ATOM     19  C   UNL A   1      33.923  15.459  25.096  1.00  0.00     0.008 C 
ATOM     20  C   UNL A   1      34.436  16.613  24.341  1.00  0.00    -0.001 C 
ATOM     21  C   UNL A   1      33.604  17.273  23.288  1.00  0.00     0.018 C 
ENDBRANCH  15  18
ENDBRANCH   9  14
BRANCH  11  22
ATOM     22  C   UNL A   1      37.254  23.170  25.634  1.00  0.00     0.416 C 
ATOM     23  F   UNL A   1      38.031  22.081  25.886  1.00  0.00    -0.166 F 
ATOM     24  F   UNL A   1      38.053  24.054  24.975  1.00  0.00    -0.166 F 
ATOM     25  F   UNL A   1      36.990  23.734  26.845  1.00  0.00    -0.166 F 
ENDBRANCH  11  22
ENDBRANCH   5   8
ENDBRANCH   3   4
ENDBRANCH   2   3
ENDBRANCH   1   2
BRANCH   1  26
ATOM     26  C   UNL A   1      31.929  26.797  26.491  1.00  0.00     0.002 C 
BRANCH  26  27
ATOM     27  C   UNL A   1      32.673  28.104  26.211  1.00  0.00     0.021 C 
BRANCH  27  28
ATOM     28  C   UNL A   1      33.753  28.494  27.211  1.00  0.00     0.116 C 
BRANCH  28  29
ATOM     29  N   UNL A   1      33.650  29.860  27.690  1.00  0.00    -0.352 N 
ATOM     30  C   UNL A   1      34.610  30.639  28.294  1.00  0.00     0.251 C 
ATOM     31  H   UNL A   1      32.772  30.288  27.566  1.00  0.00     0.163 HD
ATOM     32  O   UNL A   1      34.335  31.758  28.697  1.00  0.00    -0.269 OA
BRANCH  30  33
ATOM     33  C   UNL A   1      35.978  30.100  28.489  1.00  0.00     0.039 A 
ATOM     34  C   UNL A   1      36.878  30.161  27.421  1.00  0.00     0.014 A 
ATOM     35  C   UNL A   1      36.375  29.542  29.706  1.00  0.00     0.014 A 
ATOM     36  C   UNL A   1      38.193  29.717  27.592  1.00  0.00     0.010 A 
ATOM     37  C   UNL A   1      37.701  29.161  29.896  1.00  0.00     0.010 A 
ATOM     38  C   UNL A   1      38.623  29.242  28.840  1.00  0.00    -0.014 A 
BRANCH  38  39
ATOM     39  C   UNL A   1      40.022  28.798  29.064  1.00  0.00     0.031 A 
ATOM     40  C   UNL A   1      41.026  29.760  29.640  1.00  0.00     0.074 A 
ATOM     41  C   UNL A   1      40.410  27.568  28.680  1.00  0.00     0.049 A 
ATOM     42  N   UNL A   1      42.317  29.617  29.792  1.00  0.00    -0.248 NA
ATOM     43  C   UNL A   1      40.509  31.067  30.078  1.00  0.00     0.031 C 
ATOM     44  C   UNL A   1      39.541  26.553  28.082  1.00  0.00     0.029 A 
ATOM     45  N   UNL A   1      41.643  26.966  28.719  1.00  0.00    -0.354 N 
ATOM     46  C   UNL A   1      42.771  30.823  30.312  1.00  0.00     0.074 A 
ATOM     47  C   UNL A   1      41.624  31.698  30.416  1.00  0.00     0.031 C 
ATOM     48  C   UNL A   1      40.265  25.451  27.823  1.00  0.00     0.029 A 
ATOM     49  C   UNL A   1      41.654  25.694  28.198  1.00  0.00     0.049 A 
ATOM     50  H   UNL A   1      42.444  27.404  29.087  1.00  0.00     0.167 HD
ATOM     51  C   UNL A   1      44.027  31.163  30.684  1.00  0.00     0.037 A 
ATOM     52  C   UNL A   1      42.672  24.830  28.031  1.00  0.00     0.037 A 
ATOM     53  C   UNL A   1      45.158  30.277  30.620  1.00  0.00     0.049 A 
ATOM     54  C   UNL A   1      44.058  25.230  28.461  1.00  0.00     0.074 A 
ATOM     55  C   UNL A   1      46.460  30.508  31.029  1.00  0.00     0.029 A 
ATOM     56  N   UNL A   1      45.119  28.984  30.121  1.00  0.00    -0.354 N 
ATOM     57  N   UNL A   1      44.464  26.356  28.994  1.00  0.00    -0.248 NA
ATOM     58  C   UNL A   1      45.125  24.238  28.268  1.00  0.00     0.031 C 
ATOM     59  C   UNL A   1      47.217  29.367  30.746  1.00  0.00     0.029 A 
ATOM     60  C   UNL A   1      46.377  28.411  30.200  1.00  0.00     0.049 A 
ATOM     61  H   UNL A   1      44.317  28.541  29.762  1.00  0.00     0.167 HD
ATOM     62  C   UNL A   1      45.822  26.195  29.236  1.00  0.00     0.074 A 
ATOM     63  C   UNL A   1      46.171  24.862  28.793  1.00  0.00     0.031 C 
ATOM     64  C   UNL A   1      46.700  27.071  29.780  1.00  0.00     0.037 A 
BRANCH  51  65
ATOM     65  C   UNL A   1      44.245  32.555  31.199  1.00  0.00     0.057 A 
ATOM     66  C   UNL A   1      44.566  33.618  30.345  1.00  0.00     0.134 A 
ATOM     67  C   UNL A   1      44.097  32.843  32.563  1.00  0.00     0.134 A 
ATOM     68  F   UNL A   1      44.734  33.407  29.031  1.00  0.00    -0.206 F 
ATOM     69  C   UNL A   1      44.755  34.913  30.831  1.00  0.00     0.040 A 
ATOM     70  C   UNL A   1      44.258  34.139  33.056  1.00  0.00     0.040 A 
ATOM     71  F   UNL A   1      43.785  31.872  33.434  1.00  0.00    -0.206 F 
ATOM     72  C   UNL A   1      44.593  35.177  32.190  1.00  0.00     0.006 A 
ENDBRANCH  51  65
BRANCH  52  73
ATOM     73  C   UNL A   1      42.422  23.487  27.450  1.00  0.00     0.057 A 
ATOM     74  C   UNL A   1      42.443  23.289  26.064  1.00  0.00     0.134 A 
ATOM     75  C   UNL A   1      42.141  22.378  28.256  1.00  0.00     0.134 A 
ATOM     76  F   UNL A   1      42.685  24.319  25.239  1.00  0.00    -0.206 F 
ATOM     77  C   UNL A   1      42.174  22.042  25.499  1.00  0.00     0.040 A 
ATOM     78  C   UNL A   1      41.895  21.119  27.705  1.00  0.00     0.040 A 
ATOM     79  F   UNL A   1      42.112  22.500  29.590  1.00  0.00    -0.206 F 
ATOM     80  C   UNL A   1      41.903  20.951  26.322  1.00  0.00     0.006 A 
ENDBRANCH  52  73
BRANCH  64  81
ATOM     81  C   UNL A   1      48.109  26.601  29.984  1.00  0.00     0.057 A 
ATOM     82  C   UNL A   1      49.107  26.812  29.026  1.00  0.00     0.134 A 
ATOM     83  C   UNL A   1      48.480  25.981  31.184  1.00  0.00     0.134 A 
ATOM     84  F   UNL A   1      48.811  27.390  27.852  1.00  0.00    -0.206 F 
ATOM     85  C   UNL A   1      50.424  26.410  29.249  1.00  0.00     0.040 A 
ATOM     86  C   UNL A   1      49.798  25.596  31.428  1.00  0.00     0.040 A 
ATOM     87  F   UNL A   1      47.571  25.758  32.146  1.00  0.00    -0.206 F 
ATOM     88  C   UNL A   1      50.775  25.806  30.456  1.00  0.00     0.006 A 
ENDBRANCH  64  81
ENDBRANCH  38  39
ENDBRANCH  30  33
ENDBRANCH  28  29
ENDBRANCH  27  28
ENDBRANCH  26  27
ENDBRANCH   1  26
TORSDOF 16
ENDMDL
MODEL 2
REMARK VINA RESULT:     -11.6      4.056      8.766
REMARK SMILES C[C@H]1C[C@H]1C(=O)Nc1cc(C(F)(F)F)ccc1C(=O)NCCCCCCNC(=O)c1ccc(-c2c3nc(c(-c4c(F)cccc4F)c4ccc([nH]4)c(-c4c(F)cccc4F)c4nc(c(-c5c(F)cccc5F)c5ccc2[nH]5)C=C4)C=C3)cc1
REMARK SMILES IDX 23 1 22 2 21 3 20 4 18 5 19 6 17 8 8 9 9 10 10 11 16 12
REMARK SMILES IDX 15 13 7 14 5 15 6 16 4 18 1 19 2 20 3 21 11 22 12 23 13 24
REMARK SMILES IDX 14 25 24 26 25 27 26 28 27 29 28 30 29 32 30 33 31 34 83 35
REMARK SMILES IDX 32 36 82 37 33 38 34 39 35 40 76 41 36 42 81 43 75 44 77 45
REMARK SMILES IDX 37 46 80 47 74 48 73 49 38 51 64 52 47 53 63 54 48 55 51 56
REMARK SMILES IDX 62 57 78 58 49 59 50 60 61 62 79 63 52 64 39 65 40 66 45 67
REMARK SMILES IDX 41 68 42 69 44 70 46 71 43 72 65 73 66 74 71 75 67 76 68 77
REMARK SMILES IDX 70 78 72 79 69 80 53 81 54 82 59 83 55 84 56 85 58 86 60 87
REMARK SMILES IDX 57 88
REMARK H PARENT 20 7 7 17 27 31 77 50 51 61
REMARK Flexibility Score: inf
ROOT
ATOM      1  C   UNL A   1      34.230  24.107  23.144  1.00  0.00     0.002 C 
ENDROOT
BRANCH   1   2
ATOM      2  C   UNL A   1      32.942  23.657  22.437  1.00  0.00     0.021 C 
BRANCH   2   3
ATOM      3  C   UNL A   1      31.839  24.709  22.372  1.00  0.00     0.116 C 
BRANCH   3   4
ATOM      4  N   UNL A   1      31.214  24.958  23.648  1.00  0.00    -0.352 N 
ATOM      5  C   UNL A   1      30.476  26.010  24.118  1.00  0.00     0.253 C 
ATOM      6  O   UNL A   1      30.214  25.985  25.325  1.00  0.00    -0.269 OA
ATOM      7  H   UNL A   1      31.341  24.234  24.303  1.00  0.00     0.163 HD
BRANCH   5   8
ATOM      8  C   UNL A   1      30.043  27.203  23.324  1.00  0.00     0.063 A 
ATOM      9  C   UNL A   1      30.801  28.099  22.563  1.00  0.00     0.054 A 
ATOM     10  C   UNL A   1      30.214  29.335  22.190  1.00  0.00     0.040 A 
ATOM     11  C   UNL A   1      28.856  29.623  22.390  1.00  0.00     0.058 A 
ATOM     12  C   UNL A   1      28.655  27.471  23.457  1.00  0.00     0.016 A 
ATOM     13  C   UNL A   1      28.065  28.648  22.986  1.00  0.00     0.014 A 
BRANCH   9  14
ATOM     14  N   UNL A   1      32.138  28.016  22.170  1.00  0.00    -0.325 N 
ATOM     15  C   UNL A   1      33.374  28.320  22.664  1.00  0.00     0.227 C 
ATOM     16  O   UNL A   1      34.274  28.261  21.816  1.00  0.00    -0.274 OA
ATOM     17  H   UNL A   1      32.212  27.621  21.271  1.00  0.00     0.169 HD
BRANCH  15  18
ATOM     18  C   UNL A   1      33.825  28.505  24.060  1.00  0.00     0.082 C 
ATOM     19  C   UNL A   1      31.953  28.959  25.956  1.00  0.00     0.008 C 
ATOM     20  C   UNL A   1      33.311  28.689  25.459  1.00  0.00    -0.001 C 
ATOM     21  C   UNL A   1      33.704  27.319  25.003  1.00  0.00     0.018 C 
ENDBRANCH  15  18
ENDBRANCH   9  14
BRANCH  11  22
ATOM     22  C   UNL A   1      28.289  30.970  22.013  1.00  0.00     0.416 C 
ATOM     23  F   UNL A   1      27.670  30.940  20.801  1.00  0.00    -0.166 F 
ATOM     24  F   UNL A   1      27.357  31.421  22.897  1.00  0.00    -0.166 F 
ATOM     25  F   UNL A   1      29.231  31.949  21.931  1.00  0.00    -0.166 F 
ENDBRANCH  11  22
ENDBRANCH   5   8
ENDBRANCH   3   4
ENDBRANCH   2   3
ENDBRANCH   1   2
BRANCH   1  26
ATOM     26  C   UNL A   1      35.226  23.014  23.559  1.00  0.00     0.002 C 
BRANCH  26  27
ATOM     27  C   UNL A   1      35.726  23.043  25.005  1.00  0.00     0.021 C 
BRANCH  27  28
ATOM     28  C   UNL A   1      37.063  23.732  25.243  1.00  0.00     0.116 C 
BRANCH  28  29
ATOM     29  N   UNL A   1      38.174  22.816  25.423  1.00  0.00    -0.352 N 
ATOM     30  C   UNL A   1      39.357  23.016  26.097  1.00  0.00     0.251 C 
ATOM     31  H   UNL A   1      38.068  21.931  25.005  1.00  0.00     0.163 HD
ATOM     32  O   UNL A   1      40.222  22.153  26.098  1.00  0.00    -0.269 OA
BRANCH  30  33
ATOM     33  C   UNL A   1      39.598  24.302  26.795  1.00  0.00     0.039 A 
ATOM     34  C   UNL A   1      39.080  24.469  28.084  1.00  0.00     0.014 A 
ATOM     35  C   UNL A   1      40.324  25.332  26.195  1.00  0.00     0.014 A 
ATOM     36  C   UNL A   1      39.341  25.645  28.792  1.00  0.00     0.010 A 
ATOM     37  C   UNL A   1      40.639  26.476  26.924  1.00  0.00     0.010 A 
ATOM     38  C   UNL A   1      40.148  26.646  28.229  1.00  0.00    -0.014 A 
BRANCH  38  39
ATOM     39  C   UNL A   1      40.475  27.891  28.970  1.00  0.00     0.031 A 
ATOM     40  C   UNL A   1      41.796  28.011  29.679  1.00  0.00     0.074 A 
ATOM     41  C   UNL A   1      39.561  28.874  29.073  1.00  0.00     0.049 A 
ATOM     42  N   UNL A   1      42.221  28.951  30.485  1.00  0.00    -0.248 NA
ATOM     43  C   UNL A   1      42.755  26.913  29.476  1.00  0.00     0.031 C 
ATOM     44  C   UNL A   1      38.233  28.866  28.458  1.00  0.00     0.029 A 
ATOM     45  N   UNL A   1      39.604  30.067  29.750  1.00  0.00    -0.354 N 
ATOM     46  C   UNL A   1      43.480  28.543  30.907  1.00  0.00     0.074 A 
ATOM     47  C   UNL A   1      43.735  27.255  30.299  1.00  0.00     0.031 C 
ATOM     48  C   UNL A   1      37.594  30.004  28.774  1.00  0.00     0.029 A 
ATOM     49  C   UNL A   1      38.449  30.804  29.646  1.00  0.00     0.049 A 
ATOM     50  H   UNL A   1      40.390  30.367  30.262  1.00  0.00     0.167 HD
ATOM     51  C   UNL A   1      44.351  29.191  31.716  1.00  0.00     0.037 A 
ATOM     52  C   UNL A   1      38.114  31.984  30.201  1.00  0.00     0.037 A 
ATOM     53  C   UNL A   1      44.112  30.490  32.286  1.00  0.00     0.049 A 
ATOM     54  C   UNL A   1      39.104  32.687  31.090  1.00  0.00     0.074 A 
ATOM     55  C   UNL A   1      44.957  31.257  33.070  1.00  0.00     0.029 A 
ATOM     56  N   UNL A   1      42.944  31.219  32.125  1.00  0.00    -0.354 N 
ATOM     57  N   UNL A   1      40.309  32.312  31.444  1.00  0.00    -0.248 NA
ATOM     58  C   UNL A   1      38.688  33.980  31.655  1.00  0.00     0.031 C 
ATOM     59  C   UNL A   1      44.287  32.435  33.412  1.00  0.00     0.029 A 
ATOM     60  C   UNL A   1      43.042  32.421  32.805  1.00  0.00     0.049 A 
ATOM     61  H   UNL A   1      42.161  30.925  31.606  1.00  0.00     0.167 HD
ATOM     62  C   UNL A   1      40.809  33.336  32.238  1.00  0.00     0.074 A 
ATOM     63  C   UNL A   1      39.778  34.350  32.313  1.00  0.00     0.031 C 
ATOM     64  C   UNL A   1      42.016  33.431  32.846  1.00  0.00     0.037 A 
BRANCH  51  65
ATOM     65  C   UNL A   1      45.647  28.505  32.032  1.00  0.00     0.057 A 
ATOM     66  C   UNL A   1      46.790  28.684  31.241  1.00  0.00     0.134 A 
ATOM     67  C   UNL A   1      45.764  27.683  33.160  1.00  0.00     0.134 A 
ATOM     68  F   UNL A   1      46.741  29.449  30.141  1.00  0.00    -0.206 F 
ATOM     69  C   UNL A   1      47.996  28.053  31.549  1.00  0.00     0.040 A 
ATOM     70  C   UNL A   1      46.971  27.067  33.492  1.00  0.00     0.040 A 
ATOM     71  F   UNL A   1      44.709  27.473  33.963  1.00  0.00    -0.206 F 
ATOM     72  C   UNL A   1      48.091  27.247  32.682  1.00  0.00     0.006 A 
ENDBRANCH  51  65
BRANCH  52  73
ATOM     73  C   UNL A   1      36.790  32.592  29.919  1.00  0.00     0.057 A 
ATOM     74  C   UNL A   1      35.676  32.286  30.710  1.00  0.00     0.134 A 
ATOM     75  C   UNL A   1      36.600  33.474  28.850  1.00  0.00     0.134 A 
ATOM     76  F   UNL A   1      35.792  31.430  31.736  1.00  0.00    -0.206 F 
ATOM     77  C   UNL A   1      34.416  32.821  30.436  1.00  0.00     0.040 A 
ATOM     78  C   UNL A   1      35.351  34.035  28.580  1.00  0.00     0.040 A 
ATOM     79  F   UNL A   1      37.628  33.811  28.058  1.00  0.00    -0.206 F 
ATOM     80  C   UNL A   1      34.252  33.702  29.370  1.00  0.00     0.006 A 
ENDBRANCH  52  73
BRANCH  64  81
ATOM     81  C   UNL A   1      42.314  34.694  33.597  1.00  0.00     0.057 A 
ATOM     82  C   UNL A   1      42.895  35.805  32.976  1.00  0.00     0.134 A 
ATOM     83  C   UNL A   1      41.957  34.815  34.946  1.00  0.00     0.134 A 
ATOM     84  F   UNL A   1      43.269  35.747  31.689  1.00  0.00    -0.206 F 
ATOM     85  C   UNL A   1      43.124  36.991  33.676  1.00  0.00     0.040 A 
ATOM     86  C   UNL A   1      42.160  36.002  35.649  1.00  0.00     0.040 A 
ATOM     87  F   UNL A   1      41.388  33.788  35.595  1.00  0.00    -0.206 F 
ATOM     88  C   UNL A   1      42.749  37.094  35.015  1.00  0.00     0.006 A 
ENDBRANCH  64  81
ENDBRANCH  38  39
ENDBRANCH  30  33
ENDBRANCH  28  29
ENDBRANCH  27  28
ENDBRANCH  26  27
ENDBRANCH   1  26
TORSDOF 16
ENDMDL
MODEL 3
REMARK VINA RESULT:     -11.5      4.646      8.376
REMARK SMILES C[C@H]1C[C@H]1C(=O)Nc1cc(C(F)(F)F)ccc1C(=O)NCCCCCCNC(=O)c1ccc(-c2c3nc(c(-c4c(F)cccc4F)c4ccc([nH]4)c(-c4c(F)cccc4F)c4nc(c(-c5c(F)cccc5F)c5ccc2[nH]5)C=C4)C=C3)cc1
REMARK SMILES IDX 23 1 22 2 21 3 20 4 18 5 19 6 17 8 8 9 9 10 10 11 16 12
REMARK SMILES IDX 15 13 7 14 5 15 6 16 4 18 1 19 2 20 3 21 11 22 12 23 13 24
REMARK SMILES IDX 14 25 24 26 25 27 26 28 27 29 28 30 29 32 30 33 31 34 83 35
REMARK SMILES IDX 32 36 82 37 33 38 34 39 35 40 76 41 36 42 81 43 75 44 77 45
REMARK SMILES IDX 37 46 80 47 74 48 73 49 38 51 64 52 47 53 63 54 48 55 51 56
REMARK SMILES IDX 62 57 78 58 49 59 50 60 61 62 79 63 52 64 39 65 40 66 45 67
REMARK SMILES IDX 41 68 42 69 44 70 46 71 43 72 65 73 66 74 71 75 67 76 68 77
REMARK SMILES IDX 70 78 72 79 69 80 53 81 54 82 59 83 55 84 56 85 58 86 60 87
REMARK SMILES IDX 57 88
REMARK H PARENT 20 7 7 17 27 31 77 50 51 61
REMARK Flexibility Score: inf
ROOT
ATOM      1  C   UNL A   1      32.741  29.582  26.936  1.00  0.00     0.002 C 
ENDROOT
BRANCH   1   2
ATOM      2  C   UNL A   1      33.817  29.109  25.945  1.00  0.00     0.021 C 
BRANCH   2   3
ATOM      3  C   UNL A   1      33.943  27.595  25.803  1.00  0.00     0.116 C 
BRANCH   3   4
ATOM      4  N   UNL A   1      33.996  27.155  24.430  1.00  0.00    -0.352 N 
ATOM      5  C   UNL A   1      33.072  27.186  23.422  1.00  0.00     0.253 C 
ATOM      6  O   UNL A   1      33.381  26.579  22.391  1.00  0.00    -0.269 OA
ATOM      7  H   UNL A   1      34.858  26.758  24.170  1.00  0.00     0.163 HD
BRANCH   5   8
ATOM      8  C   UNL A   1      31.714  27.811  23.495  1.00  0.00     0.063 A 
ATOM      9  C   UNL A   1      30.591  27.437  24.241  1.00  0.00     0.054 A 
ATOM     10  C   UNL A   1      29.329  27.977  23.882  1.00  0.00     0.040 A 
ATOM     11  C   UNL A   1      29.182  29.004  22.937  1.00  0.00     0.058 A 
ATOM     12  C   UNL A   1      31.565  28.900  22.595  1.00  0.00     0.016 A 
ATOM     13  C   UNL A   1      30.330  29.499  22.330  1.00  0.00     0.014 A 
BRANCH   9  14
ATOM     14  N   UNL A   1      30.485  26.500  25.270  1.00  0.00    -0.325 N 
ATOM     15  C   UNL A   1      30.746  25.178  25.486  1.00  0.00     0.227 C 
ATOM     16  O   UNL A   1      30.255  24.741  26.535  1.00  0.00    -0.274 OA
ATOM     17  H   UNL A   1      30.111  26.916  26.080  1.00  0.00     0.169 HD
BRANCH  15  18
ATOM     18  C   UNL A   1      31.671  24.261  24.785  1.00  0.00     0.082 C 
ATOM     19  C   UNL A   1      31.590  21.636  25.420  1.00  0.00     0.008 C 
ATOM     20  C   UNL A   1      32.021  22.809  24.642  1.00  0.00    -0.001 C 
ATOM     21  C   UNL A   1      31.112  23.439  23.636  1.00  0.00     0.018 C 
ENDBRANCH  15  18
ENDBRANCH   9  14
BRANCH  11  22
ATOM     22  C   UNL A   1      27.812  29.514  22.560  1.00  0.00     0.416 C 
ATOM     23  F   UNL A   1      27.759  29.916  21.261  1.00  0.00    -0.166 F 
ATOM     24  F   UNL A   1      26.838  28.574  22.699  1.00  0.00    -0.166 F 
ATOM     25  F   UNL A   1      27.411  30.582  23.302  1.00  0.00    -0.166 F 
ENDBRANCH  11  22
ENDBRANCH   5   8
ENDBRANCH   3   4
ENDBRANCH   2   3
ENDBRANCH   1   2
BRANCH   1  26
ATOM     26  C   UNL A   1      31.516  30.303  26.354  1.00  0.00     0.002 C 
BRANCH  26  27
ATOM     27  C   UNL A   1      31.485  31.828  26.478  1.00  0.00     0.021 C 
BRANCH  27  28
ATOM     28  C   UNL A   1      32.648  32.468  27.225  1.00  0.00     0.116 C 
BRANCH  28  29
ATOM     29  N   UNL A   1      32.417  33.851  27.600  1.00  0.00    -0.352 N 
ATOM     30  C   UNL A   1      33.120  34.634  28.487  1.00  0.00     0.251 C 
ATOM     31  H   UNL A   1      31.652  34.289  27.161  1.00  0.00     0.163 HD
ATOM     32  O   UNL A   1      32.750  35.770  28.737  1.00  0.00    -0.269 OA
BRANCH  30  33
ATOM     33  C   UNL A   1      34.314  34.080  29.171  1.00  0.00     0.039 A 
ATOM     34  C   UNL A   1      34.123  33.222  30.259  1.00  0.00     0.014 A 
ATOM     35  C   UNL A   1      35.607  34.397  28.750  1.00  0.00     0.014 A 
ATOM     36  C   UNL A   1      35.226  32.636  30.886  1.00  0.00     0.010 A 
ATOM     37  C   UNL A   1      36.702  33.763  29.332  1.00  0.00     0.010 A 
ATOM     38  C   UNL A   1      36.523  32.878  30.408  1.00  0.00    -0.014 A 
BRANCH  38  39
ATOM     39  C   UNL A   1      37.712  32.241  31.029  1.00  0.00     0.031 A 
ATOM     40  C   UNL A   1      38.447  31.156  30.291  1.00  0.00     0.074 A 
ATOM     41  C   UNL A   1      38.083  32.578  32.278  1.00  0.00     0.049 A 
ATOM     42  N   UNL A   1      39.420  30.385  30.704  1.00  0.00    -0.248 NA
ATOM     43  C   UNL A   1      38.007  30.883  28.913  1.00  0.00     0.031 C 
ATOM     44  C   UNL A   1      37.436  33.593  33.111  1.00  0.00     0.029 A 
ATOM     45  N   UNL A   1      39.088  32.088  33.075  1.00  0.00    -0.354 N 
ATOM     46  C   UNL A   1      39.688  29.519  29.651  1.00  0.00     0.074 A 
ATOM     47  C   UNL A   1      38.751  29.833  28.595  1.00  0.00     0.031 C 
ATOM     48  C   UNL A   1      38.067  33.659  34.295  1.00  0.00     0.029 A 
ATOM     49  C   UNL A   1      39.137  32.666  34.321  1.00  0.00     0.049 A 
ATOM     50  H   UNL A   1      39.715  31.388  32.782  1.00  0.00     0.167 HD
ATOM     51  C   UNL A   1      40.639  28.559  29.568  1.00  0.00     0.037 A 
ATOM     52  C   UNL A   1      39.943  32.414  35.368  1.00  0.00     0.037 A 
ATOM     53  C   UNL A   1      41.597  28.278  30.603  1.00  0.00     0.049 A 
ATOM     54  C   UNL A   1      40.998  31.347  35.246  1.00  0.00     0.074 A 
ATOM     55  C   UNL A   1      42.638  27.365  30.589  1.00  0.00     0.029 A 
ATOM     56  N   UNL A   1      41.636  28.911  31.835  1.00  0.00    -0.354 N 
ATOM     57  N   UNL A   1      41.270  30.567  34.228  1.00  0.00    -0.248 NA
ATOM     58  C   UNL A   1      41.860  31.128  36.417  1.00  0.00     0.031 C 
ATOM     59  C   UNL A   1      43.286  27.423  31.827  1.00  0.00     0.029 A 
ATOM     60  C   UNL A   1      42.675  28.402  32.594  1.00  0.00     0.049 A 
ATOM     61  H   UNL A   1      41.016  29.618  32.127  1.00  0.00     0.167 HD
ATOM     62  C   UNL A   1      42.355  29.794  34.621  1.00  0.00     0.074 A 
ATOM     63  C   UNL A   1      42.693  30.200  35.968  1.00  0.00     0.031 C 
ATOM     64  C   UNL A   1      43.015  28.837  33.924  1.00  0.00     0.037 A 
BRANCH  51  65
ATOM     65  C   UNL A   1      40.693  27.744  28.309  1.00  0.00     0.057 A 
ATOM     66  C   UNL A   1      41.448  28.146  27.200  1.00  0.00     0.134 A 
ATOM     67  C   UNL A   1      40.011  26.524  28.219  1.00  0.00     0.134 A 
ATOM     68  F   UNL A   1      42.115  29.309  27.218  1.00  0.00    -0.206 F 
ATOM     69  C   UNL A   1      41.504  27.374  26.038  1.00  0.00     0.040 A 
ATOM     70  C   UNL A   1      40.079  25.732  27.072  1.00  0.00     0.040 A 
ATOM     71  F   UNL A   1      39.273  26.078  29.248  1.00  0.00    -0.206 F 
ATOM     72  C   UNL A   1      40.824  26.160  25.975  1.00  0.00     0.006 A 
ENDBRANCH  51  65
BRANCH  52  73
ATOM     73  C   UNL A   1      39.806  33.197  36.621  1.00  0.00     0.057 A 
ATOM     74  C   UNL A   1      38.907  32.804  37.620  1.00  0.00     0.134 A 
ATOM     75  C   UNL A   1      40.551  34.360  36.846  1.00  0.00     0.134 A 
ATOM     76  F   UNL A   1      38.150  31.709  37.453  1.00  0.00    -0.206 F 
ATOM     77  C   UNL A   1      38.739  33.549  38.788  1.00  0.00     0.040 A 
ATOM     78  C   UNL A   1      40.411  35.102  38.020  1.00  0.00     0.040 A 
ATOM     79  F   UNL A   1      41.433  34.788  35.930  1.00  0.00    -0.206 F 
ATOM     80  C   UNL A   1      39.497  34.701  38.992  1.00  0.00     0.006 A 
ENDBRANCH  52  73
BRANCH  64  81
ATOM     81  C   UNL A   1      44.205  28.203  34.580  1.00  0.00     0.057 A 
ATOM     82  C   UNL A   1      45.484  28.765  34.497  1.00  0.00     0.134 A 
ATOM     83  C   UNL A   1      44.052  27.046  35.354  1.00  0.00     0.134 A 
ATOM     84  F   UNL A   1      45.696  29.868  33.762  1.00  0.00    -0.206 F 
ATOM     85  C   UNL A   1      46.574  28.190  35.151  1.00  0.00     0.040 A 
ATOM     86  C   UNL A   1      45.130  26.474  36.031  1.00  0.00     0.040 A 
ATOM     87  F   UNL A   1      42.850  26.464  35.479  1.00  0.00    -0.206 F 
ATOM     88  C   UNL A   1      46.397  27.045  35.927  1.00  0.00     0.006 A 
ENDBRANCH  64  81
ENDBRANCH  38  39
ENDBRANCH  30  33
ENDBRANCH  28  29
ENDBRANCH  27  28
ENDBRANCH  26  27
ENDBRANCH   1  26
TORSDOF 16
ENDMDL
