MODEL 1
REMARK VINA RESULT:     -11.6      0.000      0.000
REMARK SMILES O=C(NCCCCCCNC(=O)[C@H](CO)NC(=O)[C@H](Cc1c[nH]c2ccccc12)NC(=O)c1ccc(F)cc1)c1ccc(-c2c3nc(c(-c4c(F)cccc4F)c4ccc([nH]4)c(-c4c(F)cccc4F)c4nc(c(-c5c(F)cccc5F)c5ccc2[nH]5)C=C4)C=C3)cc1
REMARK SMILES IDX 7 1 6 2 5 3 4 4 3 5 1 6 2 7 40 9 41 10 93 11 42 12 92 13
REMARK SMILES IDX 43 14 44 15 45 16 86 17 46 18 91 19 85 20 87 21 47 22 90 23
REMARK SMILES IDX 84 24 83 25 48 27 74 28 57 29 73 30 58 31 61 32 72 33 88 34
REMARK SMILES IDX 59 35 60 36 71 38 89 39 62 40 49 41 50 42 55 43 51 44 52 45
REMARK SMILES IDX 54 46 56 47 53 48 75 49 76 50 81 51 77 52 78 53 80 54 82 55
REMARK SMILES IDX 79 56 63 57 64 58 69 59 65 60 66 61 68 62 70 63 67 64 8 65
REMARK SMILES IDX 9 66 10 67 11 68 12 70 13 71 16 72 17 73 18 75 19 76 30 77
REMARK SMILES IDX 31 78 32 80 33 81 34 82 39 83 35 84 38 85 36 86 37 87 20 88
REMARK SMILES IDX 21 89 22 90 29 91 23 92 24 93 28 94 25 96 27 97 26 98 14 99
REMARK SMILES IDX 15 100
REMARK H PARENT 3 8 87 26 61 37 10 69 16 74 30 79 23 95 15 101
REMARK Flexibility Score: inf
ROOT
ATOM      1  C   UNL A   1      35.206  34.212  28.992  1.00  0.00     0.002 C 
ENDROOT
BRANCH   1   2
ATOM      2  C   UNL A   1      34.477  35.372  28.298  1.00  0.00     0.002 C 
BRANCH   2   3
ATOM      3  C   UNL A   1      33.149  35.808  28.922  1.00  0.00     0.021 C 
BRANCH   3   4
ATOM      4  C   UNL A   1      33.252  36.847  30.036  1.00  0.00     0.116 C 
BRANCH   4   5
ATOM      5  N   UNL A   1      32.364  36.546  31.143  1.00  0.00    -0.352 N 
ATOM      6  O   UNL A   1      31.534  35.380  32.876  1.00  0.00    -0.269 OA
ATOM      7  C   UNL A   1      32.495  35.623  32.151  1.00  0.00     0.251 C 
ATOM      8  H   UNL A   1      31.543  37.088  31.177  1.00  0.00     0.163 HD
BRANCH   7   9
ATOM      9  C   UNL A   1      33.774  34.907  32.377  1.00  0.00     0.039 A 
ATOM     10  C   UNL A   1      35.004  35.575  32.349  1.00  0.00     0.014 A 
ATOM     11  C   UNL A   1      33.730  33.551  32.720  1.00  0.00     0.014 A 
ATOM     12  C   UNL A   1      36.187  34.870  32.586  1.00  0.00     0.010 A 
ATOM     13  C   UNL A   1      34.911  32.858  33.007  1.00  0.00     0.010 A 
ATOM     14  C   UNL A   1      36.150  33.509  32.933  1.00  0.00    -0.014 A 
BRANCH  14  15
ATOM     15  C   UNL A   1      37.403  32.793  33.291  1.00  0.00     0.031 A 
ATOM     16  C   UNL A   1      38.117  33.073  34.583  1.00  0.00     0.074 A 
ATOM     17  C   UNL A   1      37.907  31.883  32.435  1.00  0.00     0.049 A 
ATOM     18  N   UNL A   1      39.225  32.547  35.042  1.00  0.00    -0.248 NA
ATOM     19  C   UNL A   1      37.513  34.074  35.474  1.00  0.00     0.031 C 
ATOM     20  C   UNL A   1      37.321  31.532  31.139  1.00  0.00     0.029 A 
ATOM     21  N   UNL A   1      39.018  31.084  32.525  1.00  0.00    -0.354 N 
ATOM     22  C   UNL A   1      39.459  33.157  36.267  1.00  0.00     0.074 A 
ATOM     23  C   UNL A   1      38.387  34.110  36.472  1.00  0.00     0.031 C 
ATOM     24  C   UNL A   1      38.058  30.564  30.573  1.00  0.00     0.029 A 
ATOM     25  C   UNL A   1      39.190  30.257  31.442  1.00  0.00     0.049 A 
ATOM     26  H   UNL A   1      39.634  31.102  33.293  1.00  0.00     0.167 HD
ATOM     27  C   UNL A   1      40.468  32.939  37.143  1.00  0.00     0.037 A 
ATOM     28  C   UNL A   1      40.154  29.358  31.171  1.00  0.00     0.037 A 
ATOM     29  C   UNL A   1      41.529  31.984  36.950  1.00  0.00     0.049 A 
ATOM     30  C   UNL A   1      41.272  29.149  32.148  1.00  0.00     0.074 A 
ATOM     31  C   UNL A   1      42.574  31.675  37.803  1.00  0.00     0.029 A 
ATOM     32  N   UNL A   1      41.681  31.186  35.827  1.00  0.00    -0.354 N 
ATOM     33  N   UNL A   1      41.466  29.721  33.310  1.00  0.00    -0.248 NA
ATOM     34  C   UNL A   1      42.311  28.178  31.772  1.00  0.00     0.031 C 
ATOM     35  C   UNL A   1      43.377  30.711  37.184  1.00  0.00     0.029 A 
ATOM     36  C   UNL A   1      42.812  30.398  35.959  1.00  0.00     0.049 A 
ATOM     37  H   UNL A   1      41.075  31.182  35.050  1.00  0.00     0.167 HD
ATOM     38  C   UNL A   1      42.641  29.176  33.809  1.00  0.00     0.074 A 
ATOM     39  C   UNL A   1      43.111  28.218  32.830  1.00  0.00     0.031 C 
ATOM     40  C   UNL A   1      43.272  29.451  34.976  1.00  0.00     0.037 A 
BRANCH  27  41
ATOM     41  C   UNL A   1      40.482  33.752  38.402  1.00  0.00     0.057 A 
ATOM     42  C   UNL A   1      41.289  34.891  38.509  1.00  0.00     0.134 A 
ATOM     43  C   UNL A   1      39.748  33.367  39.530  1.00  0.00     0.134 A 
ATOM     44  F   UNL A   1      42.021  35.307  37.465  1.00  0.00    -0.206 F 
ATOM     45  C   UNL A   1      41.370  35.616  39.698  1.00  0.00     0.040 A 
ATOM     46  C   UNL A   1      39.808  34.094  40.720  1.00  0.00     0.040 A 
ATOM     47  F   UNL A   1      38.950  32.290  39.486  1.00  0.00    -0.206 F 
ATOM     48  C   UNL A   1      40.627  35.219  40.808  1.00  0.00     0.006 A 
ENDBRANCH  27  41
BRANCH  28  49
ATOM     49  C   UNL A   1      40.085  28.576  29.915  1.00  0.00     0.057 A 
ATOM     50  C   UNL A   1      39.356  27.383  29.835  1.00  0.00     0.134 A 
ATOM     51  C   UNL A   1      40.783  28.988  28.774  1.00  0.00     0.134 A 
ATOM     52  F   UNL A   1      38.672  26.938  30.899  1.00  0.00    -0.206 F 
ATOM     53  C   UNL A   1      39.341  26.616  28.671  1.00  0.00     0.040 A 
ATOM     54  C   UNL A   1      40.762  28.239  27.598  1.00  0.00     0.040 A 
ATOM     55  F   UNL A   1      41.485  30.130  28.789  1.00  0.00    -0.206 F 
ATOM     56  C   UNL A   1      40.045  27.044  27.546  1.00  0.00     0.006 A 
ENDBRANCH  28  49
BRANCH  40  57
ATOM     57  C   UNL A   1      44.536  28.702  35.268  1.00  0.00     0.057 A 
ATOM     58  C   UNL A   1      45.774  29.194  34.839  1.00  0.00     0.134 A 
ATOM     59  C   UNL A   1      44.518  27.465  35.922  1.00  0.00     0.134 A 
ATOM     60  F   UNL A   1      45.855  30.372  34.201  1.00  0.00    -0.206 F 
ATOM     61  C   UNL A   1      46.953  28.475  35.041  1.00  0.00     0.040 A 
ATOM     62  C   UNL A   1      45.691  26.743  36.145  1.00  0.00     0.040 A 
ATOM     63  F   UNL A   1      43.363  26.947  36.367  1.00  0.00    -0.206 F 
ATOM     64  C   UNL A   1      46.913  27.245  35.697  1.00  0.00     0.006 A 
ENDBRANCH  40  57
ENDBRANCH  14  15
ENDBRANCH   7   9
ENDBRANCH   4   5
ENDBRANCH   3   4
ENDBRANCH   2   3
ENDBRANCH   1   2
BRANCH   1  65
ATOM     65  C   UNL A   1      35.553  33.002  28.115  1.00  0.00     0.021 C 
BRANCH  65  66
ATOM     66  C   UNL A   1      34.502  31.894  28.097  1.00  0.00     0.116 C 
BRANCH  66  67
ATOM     67  N   UNL A   1      34.883  30.775  27.262  1.00  0.00    -0.354 N 
ATOM     68  C   UNL A   1      34.129  29.699  26.872  1.00  0.00     0.244 C 
ATOM     69  H   UNL A   1      35.810  30.787  26.930  1.00  0.00     0.163 HD
ATOM     70  O   UNL A   1      34.620  28.907  26.067  1.00  0.00    -0.273 OA
BRANCH  68  71
ATOM     71  C   UNL A   1      32.681  29.568  27.383  1.00  0.00     0.197 C 
BRANCH  71  72
ATOM     72  N   UNL A   1      31.777  30.226  26.417  1.00  0.00    -0.340 N 
ATOM     73  C   UNL A   1      31.339  29.927  25.163  1.00  0.00     0.243 C 
ATOM     74  H   UNL A   1      31.408  31.073  26.757  1.00  0.00     0.164 HD
ATOM     75  O   UNL A   1      30.688  30.814  24.595  1.00  0.00    -0.273 OA
BRANCH  73  76
ATOM     76  C   UNL A   1      31.414  28.521  24.505  1.00  0.00     0.176 C 
BRANCH  76  77
ATOM     77  N   UNL A   1      30.200  28.148  23.790  1.00  0.00    -0.340 N 
ATOM     78  C   UNL A   1      29.407  27.039  23.915  1.00  0.00     0.251 C 
ATOM     79  H   UNL A   1      29.904  28.795  23.110  1.00  0.00     0.164 HD
ATOM     80  O   UNL A   1      28.267  27.062  23.454  1.00  0.00    -0.269 OA
BRANCH  78  81
ATOM     81  C   UNL A   1      29.930  25.788  24.504  1.00  0.00     0.040 A 
ATOM     82  C   UNL A   1      30.170  25.625  25.871  1.00  0.00     0.017 A 
ATOM     83  C   UNL A   1      30.220  24.747  23.609  1.00  0.00     0.017 A 
ATOM     84  C   UNL A   1      30.790  24.457  26.325  1.00  0.00     0.040 A 
ATOM     85  C   UNL A   1      30.831  23.581  24.067  1.00  0.00     0.040 A 
ATOM     86  C   UNL A   1      31.127  23.455  25.419  1.00  0.00     0.123 A 
ATOM     87  F   UNL A   1      31.745  22.350  25.855  1.00  0.00    -0.207 F 
ENDBRANCH  78  81
ENDBRANCH  76  77
BRANCH  76  88
ATOM     88  C   UNL A   1      32.722  28.466  23.672  1.00  0.00     0.072 C 
BRANCH  88  89
ATOM     89  C   UNL A   1      33.143  27.128  23.140  1.00  0.00    -0.020 A 
ATOM     90  C   UNL A   1      33.027  26.730  21.821  1.00  0.00     0.087 A 
ATOM     91  C   UNL A   1      33.759  26.038  23.835  1.00  0.00     0.003 A 
ATOM     92  N   UNL A   1      33.422  25.426  21.723  1.00  0.00    -0.361 N 
ATOM     93  C   UNL A   1      33.819  24.961  22.951  1.00  0.00     0.046 A 
ATOM     94  C   UNL A   1      34.243  25.848  25.145  1.00  0.00     0.010 A 
ATOM     95  H   UNL A   1      33.422  24.897  20.892  1.00  0.00     0.166 HD
ATOM     96  C   UNL A   1      34.245  23.683  23.335  1.00  0.00     0.026 A 
ATOM     97  C   UNL A   1      34.680  24.580  25.545  1.00  0.00     0.001 A 
ATOM     98  C   UNL A   1      34.658  23.509  24.657  1.00  0.00     0.002 A 
ENDBRANCH  88  89
ENDBRANCH  76  88
ENDBRANCH  73  76
ENDBRANCH  71  72
BRANCH  71  99
ATOM     99  C   UNL A   1      32.329  28.075  27.525  1.00  0.00     0.191 C 
BRANCH  99 100
ATOM    100  O   UNL A   1      31.260  27.869  28.449  1.00  0.00    -0.394 OA
ATOM    101  H   UNL A   1      31.140  26.919  28.599  1.00  0.00     0.210 HD
ENDBRANCH  99 100
ENDBRANCH  71  99
ENDBRANCH  68  71
ENDBRANCH  66  67
ENDBRANCH  65  66
ENDBRANCH   1  65
TORSDOF 21
ENDMDL
MODEL 2
REMARK VINA RESULT:     -11.2      5.201      9.019
REMARK SMILES O=C(NCCCCCCNC(=O)[C@H](CO)NC(=O)[C@H](Cc1c[nH]c2ccccc12)NC(=O)c1ccc(F)cc1)c1ccc(-c2c3nc(c(-c4c(F)cccc4F)c4ccc([nH]4)c(-c4c(F)cccc4F)c4nc(c(-c5c(F)cccc5F)c5ccc2[nH]5)C=C4)C=C3)cc1
REMARK SMILES IDX 7 1 6 2 5 3 4 4 3 5 1 6 2 7 40 9 41 10 93 11 42 12 92 13
REMARK SMILES IDX 43 14 44 15 45 16 86 17 46 18 91 19 85 20 87 21 47 22 90 23
REMARK SMILES IDX 84 24 83 25 48 27 74 28 57 29 73 30 58 31 61 32 72 33 88 34
REMARK SMILES IDX 59 35 60 36 71 38 89 39 62 40 49 41 50 42 55 43 51 44 52 45
REMARK SMILES IDX 54 46 56 47 53 48 75 49 76 50 81 51 77 52 78 53 80 54 82 55
REMARK SMILES IDX 79 56 63 57 64 58 69 59 65 60 66 61 68 62 70 63 67 64 8 65
REMARK SMILES IDX 9 66 10 67 11 68 12 70 13 71 16 72 17 73 18 75 19 76 30 77
REMARK SMILES IDX 31 78 32 80 33 81 34 82 39 83 35 84 38 85 36 86 37 87 20 88
REMARK SMILES IDX 21 89 22 90 29 91 23 92 24 93 28 94 25 96 27 97 26 98 14 99
REMARK SMILES IDX 15 100
REMARK H PARENT 3 8 87 26 61 37 10 69 16 74 30 79 23 95 15 101
REMARK Flexibility Score: inf
ROOT
ATOM      1  C   UNL A   1      33.606  28.297  26.422  1.00  0.00     0.002 C 
ENDROOT
BRANCH   1   2
ATOM      2  C   UNL A   1      34.741  29.141  27.019  1.00  0.00     0.002 C 
BRANCH   2   3
ATOM      3  C   UNL A   1      34.351  30.523  27.551  1.00  0.00     0.021 C 
BRANCH   3   4
ATOM      4  C   UNL A   1      35.472  31.312  28.222  1.00  0.00     0.116 C 
BRANCH   4   5
ATOM      5  N   UNL A   1      35.435  31.186  29.667  1.00  0.00    -0.352 N 
ATOM      6  O   UNL A   1      35.967  30.362  31.689  1.00  0.00    -0.269 OA
ATOM      7  C   UNL A   1      36.288  30.524  30.515  1.00  0.00     0.251 C 
ATOM      8  H   UNL A   1      34.685  31.647  30.106  1.00  0.00     0.163 HD
BRANCH   7   9
ATOM      9  C   UNL A   1      37.587  29.991  30.038  1.00  0.00     0.039 A 
ATOM     10  C   UNL A   1      37.989  30.121  28.704  1.00  0.00     0.014 A 
ATOM     11  C   UNL A   1      38.466  29.433  30.974  1.00  0.00     0.014 A 
ATOM     12  C   UNL A   1      39.230  29.624  28.295  1.00  0.00     0.010 A 
ATOM     13  C   UNL A   1      39.727  28.982  30.574  1.00  0.00     0.010 A 
ATOM     14  C   UNL A   1      40.116  29.064  29.230  1.00  0.00    -0.014 A 
BRANCH  14  15
ATOM     15  C   UNL A   1      41.477  28.638  28.808  1.00  0.00     0.031 A 
ATOM     16  C   UNL A   1      41.754  27.223  28.387  1.00  0.00     0.074 A 
ATOM     17  C   UNL A   1      42.478  29.540  28.814  1.00  0.00     0.049 A 
ATOM     18  N   UNL A   1      42.885  26.684  28.003  1.00  0.00    -0.248 NA
ATOM     19  C   UNL A   1      40.618  26.290  28.400  1.00  0.00     0.031 C 
ATOM     20  C   UNL A   1      42.347  30.941  29.219  1.00  0.00     0.029 A 
ATOM     21  N   UNL A   1      43.799  29.417  28.464  1.00  0.00    -0.354 N 
ATOM     22  C   UNL A   1      42.602  25.351  27.740  1.00  0.00     0.074 A 
ATOM     23  C   UNL A   1      41.196  25.155  28.026  1.00  0.00     0.031 C 
ATOM     24  C   UNL A   1      43.529  31.556  29.060  1.00  0.00     0.029 A 
ATOM     25  C   UNL A   1      44.510  30.585  28.586  1.00  0.00     0.049 A 
ATOM     26  H   UNL A   1      44.198  28.572  28.154  1.00  0.00     0.167 HD
ATOM     27  C   UNL A   1      43.435  24.381  27.293  1.00  0.00     0.037 A 
ATOM     28  C   UNL A   1      45.809  30.848  28.351  1.00  0.00     0.037 A 
ATOM     29  C   UNL A   1      44.831  24.573  26.994  1.00  0.00     0.049 A 
ATOM     30  C   UNL A   1      46.716  29.753  27.876  1.00  0.00     0.074 A 
ATOM     31  C   UNL A   1      45.741  23.652  26.504  1.00  0.00     0.029 A 
ATOM     32  N   UNL A   1      45.519  25.765  27.157  1.00  0.00    -0.354 N 
ATOM     33  N   UNL A   1      46.427  28.502  27.614  1.00  0.00    -0.248 NA
ATOM     34  C   UNL A   1      48.131  30.100  27.675  1.00  0.00     0.031 C 
ATOM     35  C   UNL A   1      46.987  24.278  26.399  1.00  0.00     0.029 A 
ATOM     36  C   UNL A   1      46.844  25.598  26.793  1.00  0.00     0.049 A 
ATOM     37  H   UNL A   1      45.122  26.606  27.484  1.00  0.00     0.167 HD
ATOM     38  C   UNL A   1      47.618  27.915  27.209  1.00  0.00     0.074 A 
ATOM     39  C   UNL A   1      48.632  28.948  27.247  1.00  0.00     0.031 C 
ATOM     40  C   UNL A   1      47.846  26.632  26.840  1.00  0.00     0.037 A 
BRANCH  27  41
ATOM     41  C   UNL A   1      42.862  23.010  27.098  1.00  0.00     0.057 A 
ATOM     42  C   UNL A   1      42.525  22.552  25.819  1.00  0.00     0.134 A 
ATOM     43  C   UNL A   1      42.582  22.172  28.183  1.00  0.00     0.134 A 
ATOM     44  F   UNL A   1      42.761  23.311  24.738  1.00  0.00    -0.206 F 
ATOM     45  C   UNL A   1      41.922  21.308  25.627  1.00  0.00     0.040 A 
ATOM     46  C   UNL A   1      41.995  20.918  28.003  1.00  0.00     0.040 A 
ATOM     47  F   UNL A   1      42.892  22.552  29.432  1.00  0.00    -0.206 F 
ATOM     48  C   UNL A   1      41.657  20.486  26.721  1.00  0.00     0.006 A 
ENDBRANCH  27  41
BRANCH  28  49
ATOM     49  C   UNL A   1      46.319  32.225  28.552  1.00  0.00     0.057 A 
ATOM     50  C   UNL A   1      46.363  33.149  27.502  1.00  0.00     0.134 A 
ATOM     51  C   UNL A   1      46.813  32.632  29.797  1.00  0.00     0.134 A 
ATOM     52  F   UNL A   1      45.909  32.811  26.286  1.00  0.00    -0.206 F 
ATOM     53  C   UNL A   1      46.900  34.424  27.676  1.00  0.00     0.040 A 
ATOM     54  C   UNL A   1      47.336  33.911  29.989  1.00  0.00     0.040 A 
ATOM     55  F   UNL A   1      46.781  31.793  30.843  1.00  0.00    -0.206 F 
ATOM     56  C   UNL A   1      47.387  34.809  28.924  1.00  0.00     0.006 A 
ENDBRANCH  28  49
BRANCH  40  57
ATOM     57  C   UNL A   1      49.242  26.269  26.440  1.00  0.00     0.057 A 
ATOM     58  C   UNL A   1      50.114  25.665  27.353  1.00  0.00     0.134 A 
ATOM     59  C   UNL A   1      49.740  26.571  25.167  1.00  0.00     0.134 A 
ATOM     60  F   UNL A   1      49.697  25.355  28.590  1.00  0.00    -0.206 F 
ATOM     61  C   UNL A   1      51.440  25.384  27.018  1.00  0.00     0.040 A 
ATOM     62  C   UNL A   1      51.058  26.281  24.814  1.00  0.00     0.040 A 
ATOM     63  F   UNL A   1      48.949  27.139  24.245  1.00  0.00    -0.206 F 
ATOM     64  C   UNL A   1      51.914  25.692  25.744  1.00  0.00     0.006 A 
ENDBRANCH  40  57
ENDBRANCH  14  15
ENDBRANCH   7   9
ENDBRANCH   4   5
ENDBRANCH   3   4
ENDBRANCH   2   3
ENDBRANCH   1   2
BRANCH   1  65
ATOM     65  C   UNL A   1      32.343  29.056  25.994  1.00  0.00     0.021 C 
BRANCH  65  66
ATOM     66  C   UNL A   1      31.239  28.189  25.394  1.00  0.00     0.116 C 
BRANCH  66  67
ATOM     67  N   UNL A   1      30.740  28.708  24.138  1.00  0.00    -0.354 N 
ATOM     68  C   UNL A   1      31.339  28.694  22.906  1.00  0.00     0.244 C 
ATOM     69  H   UNL A   1      29.850  29.128  24.173  1.00  0.00     0.163 HD
ATOM     70  O   UNL A   1      30.691  29.098  21.940  1.00  0.00    -0.273 OA
BRANCH  68  71
ATOM     71  C   UNL A   1      32.754  28.101  22.761  1.00  0.00     0.197 C 
BRANCH  71  72
ATOM     72  N   UNL A   1      32.798  27.271  21.539  1.00  0.00    -0.340 N 
ATOM     73  C   UNL A   1      32.831  25.933  21.294  1.00  0.00     0.243 C 
ATOM     74  H   UNL A   1      32.806  27.810  20.715  1.00  0.00     0.164 HD
ATOM     75  O   UNL A   1      33.019  25.606  20.115  1.00  0.00    -0.273 OA
BRANCH  73  76
ATOM     76  C   UNL A   1      32.449  24.830  22.321  1.00  0.00     0.176 C 
BRANCH  76  77
ATOM     77  N   UNL A   1      31.067  24.911  22.774  1.00  0.00    -0.340 N 
ATOM     78  C   UNL A   1      30.551  24.918  24.043  1.00  0.00     0.251 C 
ATOM     79  H   UNL A   1      30.397  24.970  22.054  1.00  0.00     0.164 HD
ATOM     80  O   UNL A   1      29.400  25.311  24.220  1.00  0.00    -0.269 OA
BRANCH  78  81
ATOM     81  C   UNL A   1      31.318  24.370  25.181  1.00  0.00     0.040 A 
ATOM     82  C   UNL A   1      32.557  24.875  25.587  1.00  0.00     0.017 A 
ATOM     83  C   UNL A   1      30.758  23.266  25.841  1.00  0.00     0.017 A 
ATOM     84  C   UNL A   1      33.274  24.213  26.587  1.00  0.00     0.040 A 
ATOM     85  C   UNL A   1      31.473  22.614  26.844  1.00  0.00     0.040 A 
ATOM     86  C   UNL A   1      32.733  23.083  27.195  1.00  0.00     0.123 A 
ATOM     87  F   UNL A   1      33.436  22.437  28.134  1.00  0.00    -0.207 F 
ENDBRANCH  78  81
ENDBRANCH  76  77
BRANCH  76  88
ATOM     88  C   UNL A   1      32.874  23.465  21.718  1.00  0.00     0.072 C 
BRANCH  88  89
ATOM     89  C   UNL A   1      33.024  22.311  22.664  1.00  0.00    -0.020 A 
ATOM     90  C   UNL A   1      32.142  21.250  22.763  1.00  0.00     0.087 A 
ATOM     91  C   UNL A   1      34.075  22.047  23.602  1.00  0.00     0.003 A 
ATOM     92  N   UNL A   1      32.545  20.442  23.788  1.00  0.00    -0.361 N 
ATOM     93  C   UNL A   1      33.692  20.939  24.356  1.00  0.00     0.046 A 
ATOM     94  C   UNL A   1      35.303  22.665  23.909  1.00  0.00     0.010 A 
ATOM     95  H   UNL A   1      32.081  19.623  24.077  1.00  0.00     0.166 HD
ATOM     96  C   UNL A   1      34.423  20.477  25.457  1.00  0.00     0.026 A 
ATOM     97  C   UNL A   1      36.053  22.213  25.001  1.00  0.00     0.001 A 
ATOM     98  C   UNL A   1      35.604  21.149  25.777  1.00  0.00     0.002 A 
ENDBRANCH  88  89
ENDBRANCH  76  88
ENDBRANCH  73  76
ENDBRANCH  71  72
BRANCH  71  99
ATOM     99  C   UNL A   1      33.777  29.250  22.673  1.00  0.00     0.191 C 
BRANCH  99 100
ATOM    100  O   UNL A   1      35.005  28.916  23.322  1.00  0.00    -0.394 OA
ATOM    101  H   UNL A   1      34.824  28.633  24.231  1.00  0.00     0.210 HD
ENDBRANCH  99 100
ENDBRANCH  71  99
ENDBRANCH  68  71
ENDBRANCH  66  67
ENDBRANCH  65  66
ENDBRANCH   1  65
TORSDOF 21
ENDMDL
MODEL 3
REMARK VINA RESULT:     -11.2      5.345      9.087
REMARK SMILES O=C(NCCCCCCNC(=O)[C@H](CO)NC(=O)[C@H](Cc1c[nH]c2ccccc12)NC(=O)c1ccc(F)cc1)c1ccc(-c2c3nc(c(-c4c(F)cccc4F)c4ccc([nH]4)c(-c4c(F)cccc4F)c4nc(c(-c5c(F)cccc5F)c5ccc2[nH]5)C=C4)C=C3)cc1
REMARK SMILES IDX 7 1 6 2 5 3 4 4 3 5 1 6 2 7 40 9 41 10 93 11 42 12 92 13
REMARK SMILES IDX 43 14 44 15 45 16 86 17 46 18 91 19 85 20 87 21 47 22 90 23
REMARK SMILES IDX 84 24 83 25 48 27 74 28 57 29 73 30 58 31 61 32 72 33 88 34
REMARK SMILES IDX 59 35 60 36 71 38 89 39 62 40 49 41 50 42 55 43 51 44 52 45
REMARK SMILES IDX 54 46 56 47 53 48 75 49 76 50 81 51 77 52 78 53 80 54 82 55
REMARK SMILES IDX 79 56 63 57 64 58 69 59 65 60 66 61 68 62 70 63 67 64 8 65
REMARK SMILES IDX 9 66 10 67 11 68 12 70 13 71 16 72 17 73 18 75 19 76 30 77
REMARK SMILES IDX 31 78 32 80 33 81 34 82 39 83 35 84 38 85 36 86 37 87 20 88
REMARK SMILES IDX 21 89 22 90 29 91 23 92 24 93 28 94 25 96 27 97 26 98 14 99
REMARK SMILES IDX 15 100
REMARK H PARENT 3 8 87 26 61 37 10 69 16 74 30 79 23 95 15 101
REMARK Flexibility Score: inf
ROOT
ATOM      1  C   UNL A   1      31.523  29.673  26.690  1.00  0.00     0.002 C 
ENDROOT
BRANCH   1   2
ATOM      2  C   UNL A   1      32.724  30.515  27.146  1.00  0.00     0.002 C 
BRANCH   2   3
ATOM      3  C   UNL A   1      34.029  29.755  27.394  1.00  0.00     0.021 C 
BRANCH   3   4
ATOM      4  C   UNL A   1      35.230  30.615  27.780  1.00  0.00     0.116 C 
BRANCH   4   5
ATOM      5  N   UNL A   1      35.275  30.876  29.207  1.00  0.00    -0.352 N 
ATOM      6  O   UNL A   1      35.981  30.665  31.331  1.00  0.00    -0.269 OA
ATOM      7  C   UNL A   1      36.228  30.534  30.135  1.00  0.00     0.251 C 
ATOM      8  H   UNL A   1      34.504  31.374  29.564  1.00  0.00     0.163 HD
BRANCH   7   9
ATOM      9  C   UNL A   1      37.549  30.003  29.720  1.00  0.00     0.039 A 
ATOM     10  C   UNL A   1      37.983  30.068  28.392  1.00  0.00     0.014 A 
ATOM     11  C   UNL A   1      38.413  29.514  30.707  1.00  0.00     0.014 A 
ATOM     12  C   UNL A   1      39.243  29.574  28.042  1.00  0.00     0.010 A 
ATOM     13  C   UNL A   1      39.693  29.067  30.365  1.00  0.00     0.010 A 
ATOM     14  C   UNL A   1      40.115  29.083  29.028  1.00  0.00    -0.014 A 
BRANCH  14  15
ATOM     15  C   UNL A   1      41.494  28.662  28.665  1.00  0.00     0.031 A 
ATOM     16  C   UNL A   1      41.794  27.247  28.260  1.00  0.00     0.074 A 
ATOM     17  C   UNL A   1      42.490  29.568  28.708  1.00  0.00     0.049 A 
ATOM     18  N   UNL A   1      42.942  26.712  27.926  1.00  0.00    -0.248 NA
ATOM     19  C   UNL A   1      40.663  26.309  28.230  1.00  0.00     0.031 C 
ATOM     20  C   UNL A   1      42.335  30.970  29.103  1.00  0.00     0.029 A 
ATOM     21  N   UNL A   1      43.824  29.450  28.414  1.00  0.00    -0.354 N 
ATOM     22  C   UNL A   1      42.677  25.376  27.656  1.00  0.00     0.074 A 
ATOM     23  C   UNL A   1      41.260  25.175  27.885  1.00  0.00     0.031 C 
ATOM     24  C   UNL A   1      43.520  31.590  28.991  1.00  0.00     0.029 A 
ATOM     25  C   UNL A   1      44.525  30.622  28.561  1.00  0.00     0.049 A 
ATOM     26  H   UNL A   1      44.240  28.606  28.124  1.00  0.00     0.167 HD
ATOM     27  C   UNL A   1      43.532  24.409  27.248  1.00  0.00     0.037 A 
ATOM     28  C   UNL A   1      45.831  30.891  28.378  1.00  0.00     0.037 A 
ATOM     29  C   UNL A   1      44.938  24.606  27.006  1.00  0.00     0.049 A 
ATOM     30  C   UNL A   1      46.762  29.798  27.946  1.00  0.00     0.074 A 
ATOM     31  C   UNL A   1      45.871  23.687  26.558  1.00  0.00     0.029 A 
ATOM     32  N   UNL A   1      45.613  25.802  27.193  1.00  0.00    -0.354 N 
ATOM     33  N   UNL A   1      46.489  28.545  27.677  1.00  0.00    -0.248 NA
ATOM     34  C   UNL A   1      48.182  30.151  27.802  1.00  0.00     0.031 C 
ATOM     35  C   UNL A   1      47.118  24.318  26.502  1.00  0.00     0.029 A 
ATOM     36  C   UNL A   1      46.953  25.639  26.885  1.00  0.00     0.049 A 
ATOM     37  H   UNL A   1      45.200  26.642  27.500  1.00  0.00     0.167 HD
ATOM     38  C   UNL A   1      47.699  27.961  27.323  1.00  0.00     0.074 A 
ATOM     39  C   UNL A   1      48.705  28.999  27.400  1.00  0.00     0.031 C 
ATOM     40  C   UNL A   1      47.947  26.678  26.969  1.00  0.00     0.037 A 
BRANCH  27  41
ATOM     41  C   UNL A   1      42.973  23.034  27.034  1.00  0.00     0.057 A 
ATOM     42  C   UNL A   1      42.730  22.185  28.121  1.00  0.00     0.134 A 
ATOM     43  C   UNL A   1      42.742  22.529  25.750  1.00  0.00     0.134 A 
ATOM     44  F   UNL A   1      42.939  22.608  29.376  1.00  0.00    -0.206 F 
ATOM     45  C   UNL A   1      42.281  20.877  27.936  1.00  0.00     0.040 A 
ATOM     46  C   UNL A   1      42.276  21.228  25.552  1.00  0.00     0.040 A 
ATOM     47  F   UNL A   1      42.948  23.298  24.670  1.00  0.00    -0.206 F 
ATOM     48  C   UNL A   1      42.051  20.395  26.648  1.00  0.00     0.006 A 
ENDBRANCH  27  41
BRANCH  28  49
ATOM     49  C   UNL A   1      46.326  32.270  28.596  1.00  0.00     0.057 A 
ATOM     50  C   UNL A   1      46.377  33.201  27.552  1.00  0.00     0.134 A 
ATOM     51  C   UNL A   1      46.798  32.674  29.850  1.00  0.00     0.134 A 
ATOM     52  F   UNL A   1      45.943  32.867  26.328  1.00  0.00    -0.206 F 
ATOM     53  C   UNL A   1      46.900  34.480  27.741  1.00  0.00     0.040 A 
ATOM     54  C   UNL A   1      47.308  33.956  30.057  1.00  0.00     0.040 A 
ATOM     55  F   UNL A   1      46.759  31.828  30.890  1.00  0.00    -0.206 F 
ATOM     56  C   UNL A   1      47.366  34.861  28.999  1.00  0.00     0.006 A 
ENDBRANCH  28  49
BRANCH  40  57
ATOM     57  C   UNL A   1      49.361  26.320  26.629  1.00  0.00     0.057 A 
ATOM     58  C   UNL A   1      49.855  26.512  25.333  1.00  0.00     0.134 A 
ATOM     59  C   UNL A   1      50.213  25.731  27.570  1.00  0.00     0.134 A 
ATOM     60  F   UNL A   1      49.085  27.067  24.385  1.00  0.00    -0.206 F 
ATOM     61  C   UNL A   1      51.148  26.120  24.981  1.00  0.00     0.040 A 
ATOM     62  C   UNL A   1      51.513  25.349  27.235  1.00  0.00     0.040 A 
ATOM     63  F   UNL A   1      49.800  25.532  28.831  1.00  0.00    -0.206 F 
ATOM     64  C   UNL A   1      51.980  25.536  25.935  1.00  0.00     0.006 A 
ENDBRANCH  40  57
ENDBRANCH  14  15
ENDBRANCH   7   9
ENDBRANCH   4   5
ENDBRANCH   3   4
ENDBRANCH   2   3
ENDBRANCH   1   2
BRANCH   1  65
ATOM     65  C   UNL A   1      31.522  28.200  27.116  1.00  0.00     0.021 C 
BRANCH  65  66
ATOM     66  C   UNL A   1      31.737  27.199  25.983  1.00  0.00     0.116 C 
BRANCH  66  67
ATOM     67  N   UNL A   1      30.501  26.809  25.338  1.00  0.00    -0.354 N 
ATOM     68  C   UNL A   1      30.103  27.023  24.044  1.00  0.00     0.244 C 
ATOM     69  H   UNL A   1      29.858  26.325  25.906  1.00  0.00     0.163 HD
ATOM     70  O   UNL A   1      29.047  26.511  23.669  1.00  0.00    -0.273 OA
BRANCH  68  71
ATOM     71  C   UNL A   1      31.022  27.814  23.093  1.00  0.00     0.197 C 
BRANCH  71  72
ATOM     72  N   UNL A   1      31.215  27.027  21.857  1.00  0.00    -0.340 N 
ATOM     73  C   UNL A   1      31.949  25.929  21.529  1.00  0.00     0.243 C 
ATOM     74  H   UNL A   1      30.695  27.378  21.099  1.00  0.00     0.164 HD
ATOM     75  O   UNL A   1      31.974  25.638  20.326  1.00  0.00    -0.273 OA
BRANCH  73  76
ATOM     76  C   UNL A   1      32.557  24.927  22.550  1.00  0.00     0.176 C 
BRANCH  76  77
ATOM     77  N   UNL A   1      32.453  23.535  22.131  1.00  0.00    -0.340 N 
ATOM     78  C   UNL A   1      32.073  22.425  22.839  1.00  0.00     0.251 C 
ATOM     79  H   UNL A   1      32.693  23.365  21.192  1.00  0.00     0.164 HD
ATOM     80  O   UNL A   1      31.745  21.409  22.230  1.00  0.00    -0.269 OA
BRANCH  78  81
ATOM     81  C   UNL A   1      32.146  22.400  24.315  1.00  0.00     0.040 A 
ATOM     82  C   UNL A   1      31.372  23.223  25.137  1.00  0.00     0.017 A 
ATOM     83  C   UNL A   1      33.076  21.515  24.881  1.00  0.00     0.017 A 
ATOM     84  C   UNL A   1      31.600  23.228  26.516  1.00  0.00     0.040 A 
ATOM     85  C   UNL A   1      33.295  21.517  26.258  1.00  0.00     0.040 A 
ATOM     86  C   UNL A   1      32.567  22.387  27.061  1.00  0.00     0.123 A 
ATOM     87  F   UNL A   1      32.801  22.415  28.379  1.00  0.00    -0.207 F 
ENDBRANCH  78  81
ENDBRANCH  76  77
BRANCH  76  88
ATOM     88  C   UNL A   1      33.991  25.416  22.884  1.00  0.00     0.072 C 
BRANCH  88  89
ATOM     89  C   UNL A   1      34.639  24.857  24.116  1.00  0.00    -0.020 A 
ATOM     90  C   UNL A   1      34.396  25.296  25.405  1.00  0.00     0.087 A 
ATOM     91  C   UNL A   1      35.576  23.780  24.230  1.00  0.00     0.003 A 
ATOM     92  N   UNL A   1      35.227  24.626  26.258  1.00  0.00    -0.361 N 
ATOM     93  C   UNL A   1      36.000  23.734  25.557  1.00  0.00     0.046 A 
ATOM     94  C   UNL A   1      36.134  22.856  23.324  1.00  0.00     0.010 A 
ATOM     95  H   UNL A   1      35.265  24.762  27.232  1.00  0.00     0.166 HD
ATOM     96  C   UNL A   1      37.019  22.883  26.003  1.00  0.00     0.026 A 
ATOM     97  C   UNL A   1      37.148  21.991  23.752  1.00  0.00     0.001 A 
ATOM     98  C   UNL A   1      37.599  22.023  25.068  1.00  0.00     0.002 A 
ENDBRANCH  88  89
ENDBRANCH  76  88
ENDBRANCH  73  76
ENDBRANCH  71  72
BRANCH  71  99
ATOM     99  C   UNL A   1      30.369  29.172  22.775  1.00  0.00     0.191 C 
BRANCH  99 100
ATOM    100  O   UNL A   1      30.840  29.708  21.537  1.00  0.00    -0.394 OA
ATOM    101  H   UNL A   1      31.803  29.811  21.575  1.00  0.00     0.210 HD
ENDBRANCH  99 100
ENDBRANCH  71  99
ENDBRANCH  68  71
ENDBRANCH  66  67
ENDBRANCH  65  66
ENDBRANCH   1  65
TORSDOF 21
ENDMDL
