MODEL 1
REMARK VINA RESULT:     -11.6      0.000      0.000
REMARK SMILES C[C@H]1[C@H](C(=O)NCCCCCCNC(=O)c2ccc(-c3c4nc(c(-c5c(F)cccc5F)c5ccc([nH]5)c(-c5c(F)cccc5F)c5nc(c(-c6c(F)cccc6F)c6ccc3[nH]6)C=C5)C=C4)cc2)CCN1c1nc2c(cc1C(N)=O)CCC2
REMARK SMILES IDX 9 1 8 2 7 3 6 4 4 5 5 6 3 8 1 9 2 10 72 11 70 12 71 13 73 14
REMARK SMILES IDX 74 15 78 16 75 17 77 18 76 19 84 20 82 21 83 22 79 23 80 24
REMARK SMILES IDX 81 25 10 28 11 29 12 30 13 31 14 32 15 34 16 35 17 36 69 37
REMARK SMILES IDX 18 38 68 39 19 40 20 41 21 42 62 43 22 44 67 45 61 46 63 47
REMARK SMILES IDX 23 48 66 49 60 50 59 51 24 53 50 54 33 55 49 56 34 57 37 58
REMARK SMILES IDX 48 59 64 60 35 61 36 62 47 64 65 65 38 66 25 67 26 68 31 69
REMARK SMILES IDX 27 70 28 71 30 72 32 73 29 74 51 75 52 76 57 77 53 78 54 79
REMARK SMILES IDX 56 80 58 81 55 82 39 83 40 84 45 85 41 86 42 87 44 88 46 89
REMARK SMILES IDX 43 90
REMARK H PARENT 6 7 80 26 80 27 13 33 63 52 37 63
REMARK Flexibility Score: inf
ROOT
ATOM      1  C   UNL A   1      35.798  20.697  25.076  1.00  0.00     0.002 C 
ENDROOT
BRANCH   1   2
ATOM      2  C   UNL A   1      35.147  19.352  24.748  1.00  0.00     0.021 C 
BRANCH   2   3
ATOM      3  C   UNL A   1      33.626  19.318  24.839  1.00  0.00     0.116 C 
BRANCH   3   4
ATOM      4  N   UNL A   1      32.999  20.021  23.735  1.00  0.00    -0.356 N 
ATOM      5  C   UNL A   1      32.456  21.265  23.666  1.00  0.00     0.225 C 
ATOM      6  O   UNL A   1      31.970  21.607  22.583  1.00  0.00    -0.275 OA
ATOM      7  H   UNL A   1      32.961  19.510  22.894  1.00  0.00     0.163 HD
BRANCH   5   8
ATOM      8  C   UNL A   1      32.436  22.235  24.840  1.00  0.00     0.102 C 
ATOM      9  C   UNL A   1      34.348  23.776  25.417  1.00  0.00     0.032 C 
ATOM     10  C   UNL A   1      33.115  23.589  24.526  1.00  0.00     0.093 C 
ATOM     11  N   UNL A   1      32.080  24.591  24.832  1.00  0.00    -0.352 N 
ATOM     12  C   UNL A   1      31.040  22.555  25.377  1.00  0.00     0.037 C 
ATOM     13  C   UNL A   1      31.111  24.026  25.767  1.00  0.00     0.119 C 
BRANCH  11  14
ATOM     14  C   UNL A   1      32.304  25.954  24.871  1.00  0.00     0.141 A 
ATOM     15  N   UNL A   1      32.164  26.533  26.099  1.00  0.00    -0.235 NA
ATOM     16  C   UNL A   1      32.580  26.766  23.746  1.00  0.00     0.082 A 
ATOM     17  C   UNL A   1      32.284  27.869  26.190  1.00  0.00     0.046 A 
ATOM     18  C   UNL A   1      32.652  28.168  23.874  1.00  0.00     0.023 A 
ATOM     19  C   UNL A   1      32.485  28.717  25.120  1.00  0.00    -0.025 A 
ATOM     20  C   UNL A   1      32.325  28.632  27.483  1.00  0.00     0.057 C 
ATOM     21  C   UNL A   1      32.566  30.142  25.545  1.00  0.00     0.038 C 
ATOM     22  C   UNL A   1      32.047  30.060  26.990  1.00  0.00     0.011 C 
BRANCH  16  23
ATOM     23  C   UNL A   1      32.800  26.275  22.374  1.00  0.00     0.252 C 
ATOM     24  N   UNL A   1      31.716  26.324  21.539  1.00  0.00    -0.365 N 
ATOM     25  O   UNL A   1      33.902  25.951  21.950  1.00  0.00    -0.269 OA
ATOM     26  H   UNL A   1      30.835  26.586  21.890  1.00  0.00     0.159 HD
ATOM     27  H   UNL A   1      31.817  26.097  20.585  1.00  0.00     0.159 HD
ENDBRANCH  16  23
ENDBRANCH  11  14
ENDBRANCH   5   8
ENDBRANCH   3   4
ENDBRANCH   2   3
ENDBRANCH   1   2
BRANCH   1  28
ATOM     28  C   UNL A   1      37.227  20.887  24.550  1.00  0.00     0.002 C 
BRANCH  28  29
ATOM     29  C   UNL A   1      38.189  19.710  24.747  1.00  0.00     0.021 C 
BRANCH  29  30
ATOM     30  C   UNL A   1      39.046  19.754  26.011  1.00  0.00     0.116 C 
BRANCH  30  31
ATOM     31  N   UNL A   1      40.310  19.056  25.858  1.00  0.00    -0.352 N 
ATOM     32  C   UNL A   1      41.599  19.507  25.992  1.00  0.00     0.251 C 
ATOM     33  H   UNL A   1      40.228  18.104  25.620  1.00  0.00     0.163 HD
ATOM     34  O   UNL A   1      42.533  18.781  25.661  1.00  0.00    -0.269 OA
BRANCH  32  35
ATOM     35  C   UNL A   1      41.886  20.863  26.511  1.00  0.00     0.039 A 
ATOM     36  C   UNL A   1      41.836  21.071  27.894  1.00  0.00     0.014 A 
ATOM     37  C   UNL A   1      42.147  21.939  25.657  1.00  0.00     0.014 A 
ATOM     38  C   UNL A   1      42.106  22.337  28.422  1.00  0.00     0.010 A 
ATOM     39  C   UNL A   1      42.473  23.188  26.188  1.00  0.00     0.010 A 
ATOM     40  C   UNL A   1      42.457  23.399  27.575  1.00  0.00    -0.014 A 
BRANCH  40  41
ATOM     41  C   UNL A   1      42.816  24.731  28.129  1.00  0.00     0.031 A 
ATOM     42  C   UNL A   1      41.760  25.778  28.351  1.00  0.00     0.074 A 
ATOM     43  C   UNL A   1      44.107  25.019  28.385  1.00  0.00     0.049 A 
ATOM     44  N   UNL A   1      41.894  27.013  28.766  1.00  0.00    -0.248 NA
ATOM     45  C   UNL A   1      40.373  25.393  28.048  1.00  0.00     0.031 C 
ATOM     46  C   UNL A   1      45.233  24.107  28.181  1.00  0.00     0.029 A 
ATOM     47  N   UNL A   1      44.690  26.165  28.865  1.00  0.00    -0.354 N 
ATOM     48  C   UNL A   1      40.616  27.556  28.760  1.00  0.00     0.074 A 
ATOM     49  C   UNL A   1      39.725  26.530  28.261  1.00  0.00     0.031 C 
ATOM     50  C   UNL A   1      46.368  24.722  28.549  1.00  0.00     0.029 A 
ATOM     51  C   UNL A   1      46.057  26.080  28.984  1.00  0.00     0.049 A 
ATOM     52  H   UNL A   1      44.178  26.973  29.101  1.00  0.00     0.167 HD
ATOM     53  C   UNL A   1      40.217  28.790  29.152  1.00  0.00     0.037 A 
ATOM     54  C   UNL A   1      46.957  26.994  29.393  1.00  0.00     0.037 A 
ATOM     55  C   UNL A   1      41.095  29.803  29.677  1.00  0.00     0.049 A 
ATOM     56  C   UNL A   1      46.490  28.356  29.819  1.00  0.00     0.074 A 
ATOM     57  C   UNL A   1      40.772  31.060  30.157  1.00  0.00     0.029 A 
ATOM     58  N   UNL A   1      42.471  29.673  29.792  1.00  0.00    -0.354 N 
ATOM     59  N   UNL A   1      45.270  28.836  29.857  1.00  0.00    -0.248 NA
ATOM     60  C   UNL A   1      47.524  29.304  30.261  1.00  0.00     0.031 C 
ATOM     61  C   UNL A   1      41.957  31.706  30.529  1.00  0.00     0.029 A 
ATOM     62  C   UNL A   1      43.013  30.836  30.316  1.00  0.00     0.049 A 
ATOM     63  H   UNL A   1      42.986  28.874  29.538  1.00  0.00     0.167 HD
ATOM     64  C   UNL A   1      45.388  30.130  30.348  1.00  0.00     0.074 A 
ATOM     65  C   UNL A   1      46.795  30.357  30.604  1.00  0.00     0.031 C 
ATOM     66  C   UNL A   1      44.415  31.047  30.567  1.00  0.00     0.037 A 
BRANCH  53  67
ATOM     67  C   UNL A   1      38.757  29.114  29.031  1.00  0.00     0.057 A 
ATOM     68  C   UNL A   1      37.887  29.017  30.125  1.00  0.00     0.134 A 
ATOM     69  C   UNL A   1      38.220  29.560  27.817  1.00  0.00     0.134 A 
ATOM     70  F   UNL A   1      38.337  28.585  31.314  1.00  0.00    -0.206 F 
ATOM     71  C   UNL A   1      36.532  29.328  30.010  1.00  0.00     0.040 A 
ATOM     72  C   UNL A   1      36.872  29.898  27.695  1.00  0.00     0.040 A 
ATOM     73  F   UNL A   1      38.999  29.681  26.732  1.00  0.00    -0.206 F 
ATOM     74  C   UNL A   1      36.021  29.776  28.793  1.00  0.00     0.006 A 
ENDBRANCH  53  67
BRANCH  54  75
ATOM     75  C   UNL A   1      48.397  26.641  29.438  1.00  0.00     0.057 A 
ATOM     76  C   UNL A   1      48.958  26.058  30.580  1.00  0.00     0.134 A 
ATOM     77  C   UNL A   1      49.243  26.880  28.350  1.00  0.00     0.134 A 
ATOM     78  F   UNL A   1      48.200  25.824  31.660  1.00  0.00    -0.206 F 
ATOM     79  C   UNL A   1      50.315  25.736  30.643  1.00  0.00     0.040 A 
ATOM     80  C   UNL A   1      50.597  26.544  28.392  1.00  0.00     0.040 A 
ATOM     81  F   UNL A   1      48.762  27.432  27.227  1.00  0.00    -0.206 F 
ATOM     82  C   UNL A   1      51.138  25.975  29.544  1.00  0.00     0.006 A 
ENDBRANCH  54  75
BRANCH  66  83
ATOM     83  C   UNL A   1      44.837  32.371  31.130  1.00  0.00     0.057 A 
ATOM     84  C   UNL A   1      45.159  33.455  30.303  1.00  0.00     0.134 A 
ATOM     85  C   UNL A   1      44.892  32.574  32.515  1.00  0.00     0.134 A 
ATOM     86  F   UNL A   1      45.139  33.320  28.969  1.00  0.00    -0.206 F 
ATOM     87  C   UNL A   1      45.536  34.689  30.834  1.00  0.00     0.040 A 
ATOM     88  C   UNL A   1      45.248  33.809  33.057  1.00  0.00     0.040 A 
ATOM     89  F   UNL A   1      44.592  31.578  33.361  1.00  0.00    -0.206 F 
ATOM     90  C   UNL A   1      45.576  34.870  32.216  1.00  0.00     0.006 A 
ENDBRANCH  66  83
ENDBRANCH  40  41
ENDBRANCH  32  35
ENDBRANCH  30  31
ENDBRANCH  29  30
ENDBRANCH  28  29
ENDBRANCH   1  28
TORSDOF 15
ENDMDL
MODEL 2
REMARK VINA RESULT:     -11.5      1.102      6.251
REMARK SMILES C[C@H]1[C@H](C(=O)NCCCCCCNC(=O)c2ccc(-c3c4nc(c(-c5c(F)cccc5F)c5ccc([nH]5)c(-c5c(F)cccc5F)c5nc(c(-c6c(F)cccc6F)c6ccc3[nH]6)C=C5)C=C4)cc2)CCN1c1nc2c(cc1C(N)=O)CCC2
REMARK SMILES IDX 9 1 8 2 7 3 6 4 4 5 5 6 3 8 1 9 2 10 72 11 70 12 71 13 73 14
REMARK SMILES IDX 74 15 78 16 75 17 77 18 76 19 84 20 82 21 83 22 79 23 80 24
REMARK SMILES IDX 81 25 10 28 11 29 12 30 13 31 14 32 15 34 16 35 17 36 69 37
REMARK SMILES IDX 18 38 68 39 19 40 20 41 21 42 62 43 22 44 67 45 61 46 63 47
REMARK SMILES IDX 23 48 66 49 60 50 59 51 24 53 50 54 33 55 49 56 34 57 37 58
REMARK SMILES IDX 48 59 64 60 35 61 36 62 47 64 65 65 38 66 25 67 26 68 31 69
REMARK SMILES IDX 27 70 28 71 30 72 32 73 29 74 51 75 52 76 57 77 53 78 54 79
REMARK SMILES IDX 56 80 58 81 55 82 39 83 40 84 45 85 41 86 42 87 44 88 46 89
REMARK SMILES IDX 43 90
REMARK H PARENT 6 7 80 26 80 27 13 33 63 52 37 63
REMARK Flexibility Score: inf
ROOT
ATOM      1  C   UNL A   1      36.007  21.032  24.689  1.00  0.00     0.002 C 
ENDROOT
BRANCH   1   2
ATOM      2  C   UNL A   1      35.147  21.163  25.947  1.00  0.00     0.021 C 
BRANCH   2   3
ATOM      3  C   UNL A   1      33.692  21.551  25.712  1.00  0.00     0.116 C 
BRANCH   3   4
ATOM      4  N   UNL A   1      33.100  20.806  24.618  1.00  0.00    -0.356 N 
ATOM      5  C   UNL A   1      32.583  21.226  23.432  1.00  0.00     0.225 C 
ATOM      6  O   UNL A   1      32.124  20.359  22.681  1.00  0.00    -0.275 OA
ATOM      7  H   UNL A   1      33.067  19.832  24.757  1.00  0.00     0.163 HD
BRANCH   5   8
ATOM      8  C   UNL A   1      32.561  22.686  23.000  1.00  0.00     0.102 C 
ATOM      9  C   UNL A   1      30.537  24.178  23.210  1.00  0.00     0.032 C 
ATOM     10  C   UNL A   1      31.745  23.592  23.951  1.00  0.00     0.093 C 
ATOM     11  N   UNL A   1      32.692  24.649  24.343  1.00  0.00    -0.352 N 
ATOM     12  C   UNL A   1      33.941  23.328  22.854  1.00  0.00     0.037 C 
ATOM     13  C   UNL A   1      33.748  24.759  23.340  1.00  0.00     0.119 C 
BRANCH  11  14
ATOM     14  C   UNL A   1      32.342  25.786  25.047  1.00  0.00     0.141 A 
ATOM     15  N   UNL A   1      32.867  26.952  24.569  1.00  0.00    -0.235 NA
ATOM     16  C   UNL A   1      31.571  25.804  26.233  1.00  0.00     0.082 A 
ATOM     17  C   UNL A   1      32.635  28.083  25.258  1.00  0.00     0.046 A 
ATOM     18  C   UNL A   1      31.390  27.003  26.952  1.00  0.00     0.023 A 
ATOM     19  C   UNL A   1      31.949  28.152  26.453  1.00  0.00    -0.025 A 
ATOM     20  C   UNL A   1      32.995  29.459  24.777  1.00  0.00     0.057 C 
ATOM     21  C   UNL A   1      31.868  29.546  26.971  1.00  0.00     0.038 C 
ATOM     22  C   UNL A   1      32.898  30.262  26.083  1.00  0.00     0.011 C 
BRANCH  16  23
ATOM     23  C   UNL A   1      30.909  24.633  26.836  1.00  0.00     0.252 C 
ATOM     24  N   UNL A   1      29.563  24.522  26.608  1.00  0.00    -0.365 N 
ATOM     25  O   UNL A   1      31.523  23.740  27.408  1.00  0.00    -0.269 OA
ATOM     26  H   UNL A   1      29.081  25.246  26.147  1.00  0.00     0.159 HD
ATOM     27  H   UNL A   1      29.078  23.718  26.904  1.00  0.00     0.159 HD
ENDBRANCH  16  23
ENDBRANCH  11  14
ENDBRANCH   5   8
ENDBRANCH   3   4
ENDBRANCH   2   3
ENDBRANCH   1   2
BRANCH   1  28
ATOM     28  C   UNL A   1      37.515  21.229  24.893  1.00  0.00     0.002 C 
BRANCH  28  29
ATOM     29  C   UNL A   1      38.384  19.968  24.824  1.00  0.00     0.021 C 
BRANCH  29  30
ATOM     30  C   UNL A   1      39.102  19.581  26.116  1.00  0.00     0.116 C 
BRANCH  30  31
ATOM     31  N   UNL A   1      40.398  18.972  25.878  1.00  0.00    -0.352 N 
ATOM     32  C   UNL A   1      41.659  19.509  25.937  1.00  0.00     0.251 C 
ATOM     33  H   UNL A   1      40.366  18.018  25.634  1.00  0.00     0.163 HD
ATOM     34  O   UNL A   1      42.618  18.851  25.542  1.00  0.00    -0.269 OA
BRANCH  32  35
ATOM     35  C   UNL A   1      41.885  20.878  26.453  1.00  0.00     0.039 A 
ATOM     36  C   UNL A   1      41.722  21.109  27.823  1.00  0.00     0.014 A 
ATOM     37  C   UNL A   1      42.198  21.943  25.603  1.00  0.00     0.014 A 
ATOM     38  C   UNL A   1      41.931  22.387  28.348  1.00  0.00     0.010 A 
ATOM     39  C   UNL A   1      42.463  23.206  26.135  1.00  0.00     0.010 A 
ATOM     40  C   UNL A   1      42.334  23.440  27.512  1.00  0.00    -0.014 A 
BRANCH  40  41
ATOM     41  C   UNL A   1      42.629  24.787  28.069  1.00  0.00     0.031 A 
ATOM     42  C   UNL A   1      44.018  25.141  28.521  1.00  0.00     0.074 A 
ATOM     43  C   UNL A   1      41.630  25.679  28.216  1.00  0.00     0.049 A 
ATOM     44  N   UNL A   1      44.448  26.241  29.086  1.00  0.00    -0.248 NA
ATOM     45  C   UNL A   1      45.056  24.117  28.330  1.00  0.00     0.031 C 
ATOM     46  C   UNL A   1      40.231  25.451  27.851  1.00  0.00     0.029 A 
ATOM     47  N   UNL A   1      41.638  26.955  28.721  1.00  0.00    -0.354 N 
ATOM     48  C   UNL A   1      45.800  26.037  29.333  1.00  0.00     0.074 A 
ATOM     49  C   UNL A   1      46.110  24.692  28.893  1.00  0.00     0.031 C 
ATOM     50  C   UNL A   1      39.520  26.555  28.128  1.00  0.00     0.029 A 
ATOM     51  C   UNL A   1      40.402  27.557  28.717  1.00  0.00     0.049 A 
ATOM     52  H   UNL A   1      42.451  27.399  29.055  1.00  0.00     0.167 HD
ATOM     53  C   UNL A   1      46.706  26.896  29.860  1.00  0.00     0.037 A 
ATOM     54  C   UNL A   1      40.022  28.775  29.146  1.00  0.00     0.037 A 
ATOM     55  C   UNL A   1      46.408  28.244  30.271  1.00  0.00     0.049 A 
ATOM     56  C   UNL A   1      41.044  29.708  29.730  1.00  0.00     0.074 A 
ATOM     57  C   UNL A   1      47.274  29.208  30.758  1.00  0.00     0.029 A 
ATOM     58  N   UNL A   1      45.147  28.818  30.241  1.00  0.00    -0.354 N 
ATOM     59  N   UNL A   1      42.329  29.519  29.907  1.00  0.00    -0.248 NA
ATOM     60  C   UNL A   1      40.563  31.026  30.172  1.00  0.00     0.031 C 
ATOM     61  C   UNL A   1      46.529  30.355  31.058  1.00  0.00     0.029 A 
ATOM     62  C   UNL A   1      45.207  30.116  30.721  1.00  0.00     0.049 A 
ATOM     63  H   UNL A   1      44.329  28.370  29.926  1.00  0.00     0.167 HD
ATOM     64  C   UNL A   1      42.813  30.698  30.458  1.00  0.00     0.074 A 
ATOM     65  C   UNL A   1      41.687  31.602  30.575  1.00  0.00     0.031 C 
ATOM     66  C   UNL A   1      44.079  31.005  30.832  1.00  0.00     0.037 A 
BRANCH  53  67
ATOM     67  C   UNL A   1      48.113  26.403  30.019  1.00  0.00     0.057 A 
ATOM     68  C   UNL A   1      49.069  26.561  29.006  1.00  0.00     0.134 A 
ATOM     69  C   UNL A   1      48.529  25.794  31.209  1.00  0.00     0.134 A 
ATOM     70  F   UNL A   1      48.731  27.127  27.837  1.00  0.00    -0.206 F 
ATOM     71  C   UNL A   1      50.380  26.109  29.162  1.00  0.00     0.040 A 
ATOM     72  C   UNL A   1      49.843  25.360  31.387  1.00  0.00     0.040 A 
ATOM     73  F   UNL A   1      47.666  25.617  32.221  1.00  0.00    -0.206 F 
ATOM     74  C   UNL A   1      50.772  25.512  30.358  1.00  0.00     0.006 A 
ENDBRANCH  53  67
BRANCH  54  75
ATOM     75  C   UNL A   1      38.603  29.192  29.020  1.00  0.00     0.057 A 
ATOM     76  C   UNL A   1      37.741  29.147  30.121  1.00  0.00     0.134 A 
ATOM     77  C   UNL A   1      38.078  29.640  27.803  1.00  0.00     0.134 A 
ATOM     78  F   UNL A   1      38.184  28.708  31.308  1.00  0.00    -0.206 F 
ATOM     79  C   UNL A   1      36.400  29.521  30.014  1.00  0.00     0.040 A 
ATOM     80  C   UNL A   1      36.745  30.036  27.686  1.00  0.00     0.040 A 
ATOM     81  F   UNL A   1      38.857  29.709  26.714  1.00  0.00    -0.206 F 
ATOM     82  C   UNL A   1      35.901  29.971  28.793  1.00  0.00     0.006 A 
ENDBRANCH  54  75
BRANCH  66  83
ATOM     83  C   UNL A   1      44.316  32.379  31.382  1.00  0.00     0.057 A 
ATOM     84  C   UNL A   1      44.578  33.472  30.548  1.00  0.00     0.134 A 
ATOM     85  C   UNL A   1      44.250  32.617  32.761  1.00  0.00     0.134 A 
ATOM     86  F   UNL A   1      44.668  33.306  29.220  1.00  0.00    -0.206 F 
ATOM     87  C   UNL A   1      44.784  34.752  31.067  1.00  0.00     0.040 A 
ATOM     88  C   UNL A   1      44.433  33.895  33.289  1.00  0.00     0.040 A 
ATOM     89  F   UNL A   1      43.998  31.613  33.614  1.00  0.00    -0.206 F 
ATOM     90  C   UNL A   1      44.705  34.966  32.442  1.00  0.00     0.006 A 
ENDBRANCH  66  83
ENDBRANCH  40  41
ENDBRANCH  32  35
ENDBRANCH  30  31
ENDBRANCH  29  30
ENDBRANCH  28  29
ENDBRANCH   1  28
TORSDOF 15
ENDMDL
MODEL 3
REMARK VINA RESULT:     -11.4      1.663      2.602
REMARK SMILES C[C@H]1[C@H](C(=O)NCCCCCCNC(=O)c2ccc(-c3c4nc(c(-c5c(F)cccc5F)c5ccc([nH]5)c(-c5c(F)cccc5F)c5nc(c(-c6c(F)cccc6F)c6ccc3[nH]6)C=C5)C=C4)cc2)CCN1c1nc2c(cc1C(N)=O)CCC2
REMARK SMILES IDX 9 1 8 2 7 3 6 4 4 5 5 6 3 8 1 9 2 10 72 11 70 12 71 13 73 14
REMARK SMILES IDX 74 15 78 16 75 17 77 18 76 19 84 20 82 21 83 22 79 23 80 24
REMARK SMILES IDX 81 25 10 28 11 29 12 30 13 31 14 32 15 34 16 35 17 36 69 37
REMARK SMILES IDX 18 38 68 39 19 40 20 41 21 42 62 43 22 44 67 45 61 46 63 47
REMARK SMILES IDX 23 48 66 49 60 50 59 51 24 53 50 54 33 55 49 56 34 57 37 58
REMARK SMILES IDX 48 59 64 60 35 61 36 62 47 64 65 65 38 66 25 67 26 68 31 69
REMARK SMILES IDX 27 70 28 71 30 72 32 73 29 74 51 75 52 76 57 77 53 78 54 79
REMARK SMILES IDX 56 80 58 81 55 82 39 83 40 84 45 85 41 86 42 87 44 88 46 89
REMARK SMILES IDX 43 90
REMARK H PARENT 6 7 80 26 80 27 13 33 63 52 37 63
REMARK Flexibility Score: inf
ROOT
ATOM      1  C   UNL A   1      35.465  21.091  24.985  1.00  0.00     0.002 C 
ENDROOT
BRANCH   1   2
ATOM      2  C   UNL A   1      33.973  20.890  24.712  1.00  0.00     0.021 C 
BRANCH   2   3
ATOM      3  C   UNL A   1      33.141  22.164  24.636  1.00  0.00     0.116 C 
BRANCH   3   4
ATOM      4  N   UNL A   1      33.901  23.335  25.032  1.00  0.00    -0.356 N 
ATOM      5  C   UNL A   1      33.749  24.646  24.707  1.00  0.00     0.225 C 
ATOM      6  O   UNL A   1      34.563  25.441  25.186  1.00  0.00    -0.275 OA
ATOM      7  H   UNL A   1      34.652  23.148  25.640  1.00  0.00     0.163 HD
BRANCH   5   8
ATOM      8  C   UNL A   1      32.634  25.161  23.806  1.00  0.00     0.102 C 
ATOM      9  C   UNL A   1      30.313  25.714  24.627  1.00  0.00     0.032 C 
ATOM     10  C   UNL A   1      31.748  26.234  24.483  1.00  0.00     0.093 C 
ATOM     11  N   UNL A   1      31.809  27.382  23.564  1.00  0.00    -0.352 N 
ATOM     12  C   UNL A   1      33.110  25.753  22.480  1.00  0.00     0.037 C 
ATOM     13  C   UNL A   1      32.167  26.922  22.225  1.00  0.00     0.119 C 
BRANCH  11  14
ATOM     14  C   UNL A   1      31.017  28.510  23.674  1.00  0.00     0.141 A 
ATOM     15  N   UNL A   1      30.100  28.679  22.677  1.00  0.00    -0.235 NA
ATOM     16  C   UNL A   1      31.148  29.502  24.674  1.00  0.00     0.082 A 
ATOM     17  C   UNL A   1      29.358  29.799  22.679  1.00  0.00     0.046 A 
ATOM     18  C   UNL A   1      30.384  30.685  24.616  1.00  0.00     0.023 A 
ATOM     19  C   UNL A   1      29.487  30.830  23.588  1.00  0.00    -0.025 A 
ATOM     20  C   UNL A   1      28.199  30.053  21.757  1.00  0.00     0.057 C 
ATOM     21  C   UNL A   1      28.527  31.936  23.319  1.00  0.00     0.038 C 
ATOM     22  C   UNL A   1      28.027  31.571  21.912  1.00  0.00     0.011 C 
BRANCH  16  23
ATOM     23  C   UNL A   1      32.060  29.430  25.830  1.00  0.00     0.252 C 
ATOM     24  N   UNL A   1      33.375  29.719  25.575  1.00  0.00    -0.365 N 
ATOM     25  O   UNL A   1      31.671  29.245  26.977  1.00  0.00    -0.269 OA
ATOM     26  H   UNL A   1      33.675  29.867  24.650  1.00  0.00     0.159 HD
ATOM     27  H   UNL A   1      34.019  29.780  26.318  1.00  0.00     0.159 HD
ENDBRANCH  16  23
ENDBRANCH  11  14
ENDBRANCH   5   8
ENDBRANCH   3   4
ENDBRANCH   2   3
ENDBRANCH   1   2
BRANCH   1  28
ATOM     28  C   UNL A   1      36.315  19.814  24.992  1.00  0.00     0.002 C 
BRANCH  28  29
ATOM     29  C   UNL A   1      37.790  19.973  24.607  1.00  0.00     0.021 C 
BRANCH  29  30
ATOM     30  C   UNL A   1      38.754  20.248  25.761  1.00  0.00     0.116 C 
BRANCH  30  31
ATOM     31  N   UNL A   1      39.888  19.341  25.775  1.00  0.00    -0.352 N 
ATOM     32  C   UNL A   1      41.209  19.571  26.066  1.00  0.00     0.251 C 
ATOM     33  H   UNL A   1      39.674  18.411  25.535  1.00  0.00     0.163 HD
ATOM     34  O   UNL A   1      42.038  18.688  25.862  1.00  0.00    -0.269 OA
BRANCH  32  35
ATOM     35  C   UNL A   1      41.658  20.874  26.607  1.00  0.00     0.039 A 
ATOM     36  C   UNL A   1      42.019  21.880  25.704  1.00  0.00     0.014 A 
ATOM     37  C   UNL A   1      41.780  21.098  27.981  1.00  0.00     0.014 A 
ATOM     38  C   UNL A   1      42.443  23.125  26.177  1.00  0.00     0.010 A 
ATOM     39  C   UNL A   1      42.148  22.360  28.452  1.00  0.00     0.010 A 
ATOM     40  C   UNL A   1      42.482  23.386  27.555  1.00  0.00    -0.014 A 
BRANCH  40  41
ATOM     41  C   UNL A   1      42.863  24.728  28.068  1.00  0.00     0.031 A 
ATOM     42  C   UNL A   1      41.815  25.776  28.324  1.00  0.00     0.074 A 
ATOM     43  C   UNL A   1      44.163  25.024  28.257  1.00  0.00     0.049 A 
ATOM     44  N   UNL A   1      41.964  27.018  28.711  1.00  0.00    -0.248 NA
ATOM     45  C   UNL A   1      40.417  25.381  28.094  1.00  0.00     0.031 C 
ATOM     46  C   UNL A   1      45.282  24.112  28.014  1.00  0.00     0.029 A 
ATOM     47  N   UNL A   1      44.765  26.180  28.688  1.00  0.00    -0.354 N 
ATOM     48  C   UNL A   1      40.685  27.557  28.758  1.00  0.00     0.074 A 
ATOM     49  C   UNL A   1      39.775  26.520  28.319  1.00  0.00     0.031 C 
ATOM     50  C   UNL A   1      46.432  24.737  28.316  1.00  0.00     0.029 A 
ATOM     51  C   UNL A   1      46.136  26.101  28.743  1.00  0.00     0.049 A 
ATOM     52  H   UNL A   1      44.262  26.990  28.935  1.00  0.00     0.167 HD
ATOM     53  C   UNL A   1      40.301  28.796  29.147  1.00  0.00     0.037 A 
ATOM     54  C   UNL A   1      47.051  27.024  29.092  1.00  0.00     0.037 A 
ATOM     55  C   UNL A   1      41.199  29.821  29.612  1.00  0.00     0.049 A 
ATOM     56  C   UNL A   1      46.600  28.392  29.517  1.00  0.00     0.074 A 
ATOM     57  C   UNL A   1      40.895  31.085  30.086  1.00  0.00     0.029 A 
ATOM     58  N   UNL A   1      42.580  29.697  29.662  1.00  0.00    -0.354 N 
ATOM     59  N   UNL A   1      45.382  28.869  29.606  1.00  0.00    -0.248 NA
ATOM     60  C   UNL A   1      47.651  29.350  29.892  1.00  0.00     0.031 C 
ATOM     61  C   UNL A   1      42.094  31.740  30.389  1.00  0.00     0.029 A 
ATOM     62  C   UNL A   1      43.142  30.870  30.139  1.00  0.00     0.049 A 
ATOM     63  H   UNL A   1      43.085  28.895  29.397  1.00  0.00     0.167 HD
ATOM     64  C   UNL A   1      45.519  30.172  30.068  1.00  0.00     0.074 A 
ATOM     65  C   UNL A   1      46.936  30.407  30.253  1.00  0.00     0.031 C 
ATOM     66  C   UNL A   1      44.554  31.090  30.318  1.00  0.00     0.037 A 
BRANCH  53  67
ATOM     67  C   UNL A   1      38.836  29.114  29.091  1.00  0.00     0.057 A 
ATOM     68  C   UNL A   1      38.016  29.015  30.224  1.00  0.00     0.134 A 
ATOM     69  C   UNL A   1      38.243  29.555  27.902  1.00  0.00     0.134 A 
ATOM     70  F   UNL A   1      38.521  28.587  31.391  1.00  0.00    -0.206 F 
ATOM     71  C   UNL A   1      36.656  29.321  30.169  1.00  0.00     0.040 A 
ATOM     72  C   UNL A   1      36.889  29.887  27.840  1.00  0.00     0.040 A 
ATOM     73  F   UNL A   1      38.972  29.678  26.782  1.00  0.00    -0.206 F 
ATOM     74  C   UNL A   1      36.089  29.764  28.975  1.00  0.00     0.006 A 
ENDBRANCH  53  67
BRANCH  54  75
ATOM     75  C   UNL A   1      48.494  26.677  29.073  1.00  0.00     0.057 A 
ATOM     76  C   UNL A   1      49.289  26.972  27.961  1.00  0.00     0.134 A 
ATOM     77  C   UNL A   1      49.107  26.042  30.159  1.00  0.00     0.134 A 
ATOM     78  F   UNL A   1      48.751  27.562  26.884  1.00  0.00    -0.206 F 
ATOM     79  C   UNL A   1      50.644  26.637  27.922  1.00  0.00     0.040 A 
ATOM     80  C   UNL A   1      50.465  25.719  30.142  1.00  0.00     0.040 A 
ATOM     81  F   UNL A   1      48.397  25.737  31.255  1.00  0.00    -0.206 F 
ATOM     82  C   UNL A   1      51.236  26.012  29.018  1.00  0.00     0.006 A 
ENDBRANCH  54  75
BRANCH  66  83
ATOM     83  C   UNL A   1      44.998  32.425  30.838  1.00  0.00     0.057 A 
ATOM     84  C   UNL A   1      45.264  33.498  29.979  1.00  0.00     0.134 A 
ATOM     85  C   UNL A   1      45.129  32.648  32.214  1.00  0.00     0.134 A 
ATOM     86  F   UNL A   1      45.170  33.344  28.650  1.00  0.00    -0.206 F 
ATOM     87  C   UNL A   1      45.663  34.742  30.470  1.00  0.00     0.040 A 
ATOM     88  C   UNL A   1      45.506  33.893  32.718  1.00  0.00     0.040 A 
ATOM     89  F   UNL A   1      44.884  31.662  33.090  1.00  0.00    -0.206 F 
ATOM     90  C   UNL A   1      45.779  34.944  31.845  1.00  0.00     0.006 A 
ENDBRANCH  66  83
ENDBRANCH  40  41
ENDBRANCH  32  35
ENDBRANCH  30  31
ENDBRANCH  29  30
ENDBRANCH  28  29
ENDBRANCH   1  28
TORSDOF 15
ENDMDL
