MODEL 1
REMARK VINA RESULT:     -11.7      0.000      0.000
REMARK SMILES CCOC(=O)c1c(NC(=O)/C=C/C(=O)NCCCCCCNC(=O)c2ccc(-c3c4nc(c(-c5c(F)cccc5F)c5ccc([nH]5)c(-c5c(F)cccc5F)c5nc(c(-c6c(F)cccc6F)c6ccc3[nH]6)C=C5)C=C4)cc2)sc(C)c1-c1ccc(C)c(C)c1
REMARK SMILES IDX 17 1 16 2 15 3 13 4 14 5 12 7 11 8 9 9 8 10 10 12 7 13 6 14
REMARK SMILES IDX 82 15 79 16 80 17 81 18 4 19 5 20 3 21 2 22 1 23 83 24 84 25
REMARK SMILES IDX 90 26 85 27 88 28 86 29 89 30 87 31 18 32 19 33 20 34 21 35
REMARK SMILES IDX 22 36 23 37 24 39 25 40 26 41 78 42 27 43 77 44 28 45 29 46
REMARK SMILES IDX 30 47 71 48 31 49 76 50 70 51 72 52 32 53 75 54 69 55 68 56
REMARK SMILES IDX 33 58 59 59 42 60 58 61 43 62 46 63 57 64 73 65 44 66 45 67
REMARK SMILES IDX 56 69 74 70 47 71 34 72 35 73 40 74 36 75 37 76 39 77 41 78
REMARK SMILES IDX 38 79 60 80 61 81 66 82 62 83 63 84 65 85 67 86 64 87 48 88
REMARK SMILES IDX 49 89 54 90 50 91 51 92 53 93 55 94 52 95
REMARK H PARENT 15 6 8 11 22 38 72 57 46 68
REMARK Flexibility Score: inf
ROOT
ATOM      1  C   UNL A   1      35.116  30.926  27.621  1.00  0.00     0.021 C 
ENDROOT
BRANCH   1   2
ATOM      2  C   UNL A   1      33.781  30.591  26.962  1.00  0.00     0.116 C 
BRANCH   2   3
ATOM      3  N   UNL A   1      33.161  29.476  27.646  1.00  0.00    -0.353 N 
ATOM      4  C   UNL A   1      32.083  28.760  27.227  1.00  0.00     0.244 C 
ATOM      5  O   UNL A   1      31.400  28.127  28.024  1.00  0.00    -0.270 OA
ATOM      6  H   UNL A   1      33.561  29.208  28.505  1.00  0.00     0.163 HD
BRANCH   4   7
ATOM      7  C   UNL A   1      31.762  28.746  25.788  1.00  0.00     0.077 C 
ATOM      8  C   UNL A   1      32.363  27.813  25.033  1.00  0.00     0.077 C 
BRANCH   8   9
ATOM      9  C   UNL A   1      31.890  27.521  23.676  1.00  0.00     0.249 C 
ATOM     10  N   UNL A   1      31.616  26.242  23.283  1.00  0.00    -0.313 N 
ATOM     11  H   UNL A   1      31.330  26.165  22.344  1.00  0.00     0.171 HD
ATOM     12  O   UNL A   1      31.754  28.459  22.890  1.00  0.00    -0.270 OA
BRANCH  10  13
ATOM     13  C   UNL A   1      31.666  25.030  23.958  1.00  0.00     0.111 A 
ATOM     14  C   UNL A   1      32.436  23.929  23.618  1.00  0.00     0.102 A 
ATOM     15  C   UNL A   1      32.057  22.770  24.402  1.00  0.00     0.012 A 
ATOM     16  S   UNL A   1      30.809  24.748  25.389  1.00  0.00    -0.122 S 
ATOM     17  C   UNL A   1      31.074  23.071  25.332  1.00  0.00     0.012 A 
ATOM     18  C   UNL A   1      30.296  22.203  26.265  1.00  0.00     0.057 C 
BRANCH  14  19
ATOM     19  C   UNL A   1      33.439  23.995  22.565  1.00  0.00     0.341 C 
ATOM     20  O   UNL A   1      33.339  23.343  21.529  1.00  0.00    -0.246 OA
BRANCH  19  21
ATOM     21  O   UNL A   1      34.504  24.780  22.880  1.00  0.00    -0.462 OA
BRANCH  21  22
ATOM     22  C   UNL A   1      35.412  24.245  23.854  1.00  0.00     0.230 C 
ATOM     23  C   UNL A   1      36.058  22.946  23.396  1.00  0.00     0.049 C 
ENDBRANCH  21  22
ENDBRANCH  19  21
ENDBRANCH  14  19
BRANCH  15  24
ATOM     24  C   UNL A   1      32.641  21.441  24.337  1.00  0.00    -0.016 A 
ATOM     25  C   UNL A   1      33.638  21.095  25.248  1.00  0.00     0.009 A 
ATOM     26  C   UNL A   1      32.204  20.506  23.393  1.00  0.00     0.012 A 
ATOM     27  C   UNL A   1      34.192  19.818  25.217  1.00  0.00     0.004 A 
ATOM     28  C   UNL A   1      32.747  19.210  23.360  1.00  0.00    -0.048 A 
ATOM     29  C   UNL A   1      33.754  18.864  24.284  1.00  0.00    -0.048 A 
ATOM     30  C   UNL A   1      32.228  18.234  22.342  1.00  0.00     0.044 C 
ATOM     31  C   UNL A   1      34.414  17.513  24.315  1.00  0.00     0.044 C 
ENDBRANCH  15  24
ENDBRANCH  10  13
ENDBRANCH   8   9
ENDBRANCH   4   7
ENDBRANCH   2   3
ENDBRANCH   1   2
BRANCH   1  32
ATOM     32  C   UNL A   1      35.280  32.412  27.962  1.00  0.00     0.002 C 
BRANCH  32  33
ATOM     33  C   UNL A   1      34.154  33.016  28.806  1.00  0.00     0.002 C 
BRANCH  33  34
ATOM     34  C   UNL A   1      34.518  33.317  30.261  1.00  0.00     0.021 C 
BRANCH  34  35
ATOM     35  C   UNL A   1      34.982  32.109  31.064  1.00  0.00     0.116 C 
BRANCH  35  36
ATOM     36  N   UNL A   1      35.283  32.447  32.441  1.00  0.00    -0.352 N 
ATOM     37  C   UNL A   1      36.460  32.271  33.124  1.00  0.00     0.251 C 
ATOM     38  H   UNL A   1      34.549  32.856  32.953  1.00  0.00     0.163 HD
ATOM     39  O   UNL A   1      36.516  32.455  34.335  1.00  0.00    -0.269 OA
BRANCH  37  40
ATOM     40  C   UNL A   1      37.661  31.827  32.386  1.00  0.00     0.039 A 
ATOM     41  C   UNL A   1      38.597  31.025  33.041  1.00  0.00     0.014 A 
ATOM     42  C   UNL A   1      37.849  32.190  31.049  1.00  0.00     0.014 A 
ATOM     43  C   UNL A   1      39.702  30.541  32.337  1.00  0.00     0.010 A 
ATOM     44  C   UNL A   1      38.916  31.657  30.333  1.00  0.00     0.010 A 
ATOM     45  C   UNL A   1      39.856  30.833  30.972  1.00  0.00    -0.014 A 
BRANCH  45  46
ATOM     46  C   UNL A   1      41.001  30.302  30.196  1.00  0.00     0.031 A 
ATOM     47  C   UNL A   1      42.160  31.200  29.864  1.00  0.00     0.074 A 
ATOM     48  C   UNL A   1      40.966  29.040  29.728  1.00  0.00     0.049 A 
ATOM     49  N   UNL A   1      43.206  30.959  29.117  1.00  0.00    -0.248 NA
ATOM     50  C   UNL A   1      42.123  32.559  30.427  1.00  0.00     0.031 C 
ATOM     51  C   UNL A   1      39.878  28.085  29.946  1.00  0.00     0.029 A 
ATOM     52  N   UNL A   1      41.866  28.349  28.956  1.00  0.00    -0.354 N 
ATOM     53  C   UNL A   1      43.938  32.138  29.100  1.00  0.00     0.074 A 
ATOM     54  C   UNL A   1      43.197  33.107  29.879  1.00  0.00     0.031 C 
ATOM     55  C   UNL A   1      40.180  26.929  29.332  1.00  0.00     0.029 A 
ATOM     56  C   UNL A   1      41.463  27.071  28.651  1.00  0.00     0.049 A 
ATOM     57  H   UNL A   1      42.719  28.733  28.649  1.00  0.00     0.167 HD
ATOM     58  C   UNL A   1      45.128  32.387  28.506  1.00  0.00     0.037 A 
ATOM     59  C   UNL A   1      42.059  26.127  27.900  1.00  0.00     0.037 A 
ATOM     60  C   UNL A   1      45.880  31.412  27.762  1.00  0.00     0.049 A 
ATOM     61  C   UNL A   1      43.385  26.423  27.259  1.00  0.00     0.074 A 
ATOM     62  C   UNL A   1      47.128  31.546  27.179  1.00  0.00     0.029 A 
ATOM     63  N   UNL A   1      45.452  30.119  27.502  1.00  0.00    -0.354 N 
ATOM     64  N   UNL A   1      44.095  27.524  27.302  1.00  0.00    -0.248 NA
ATOM     65  C   UNL A   1      43.997  25.344  26.469  1.00  0.00     0.031 C 
ATOM     66  C   UNL A   1      47.442  30.343  26.538  1.00  0.00     0.029 A 
ATOM     67  C   UNL A   1      46.405  29.448  26.753  1.00  0.00     0.049 A 
ATOM     68  H   UNL A   1      44.598  29.734  27.804  1.00  0.00     0.167 HD
ATOM     69  C   UNL A   1      45.244  27.265  26.567  1.00  0.00     0.074 A 
ATOM     70  C   UNL A   1      45.142  25.898  26.098  1.00  0.00     0.031 C 
ATOM     71  C   UNL A   1      46.290  28.085  26.305  1.00  0.00     0.037 A 
BRANCH  58  72
ATOM     72  C   UNL A   1      45.692  33.769  28.641  1.00  0.00     0.057 A 
ATOM     73  C   UNL A   1      45.407  34.776  27.710  1.00  0.00     0.134 A 
ATOM     74  C   UNL A   1      46.506  34.105  29.730  1.00  0.00     0.134 A 
ATOM     75  F   UNL A   1      44.644  34.515  26.638  1.00  0.00    -0.206 F 
ATOM     76  C   UNL A   1      45.932  36.063  27.843  1.00  0.00     0.040 A 
ATOM     77  C   UNL A   1      47.018  35.395  29.887  1.00  0.00     0.040 A 
ATOM     78  F   UNL A   1      46.814  33.189  30.660  1.00  0.00    -0.206 F 
ATOM     79  C   UNL A   1      46.735  36.376  28.939  1.00  0.00     0.006 A 
ENDBRANCH  58  72
BRANCH  59  80
ATOM     80  C   UNL A   1      41.414  24.802  27.730  1.00  0.00     0.057 A 
ATOM     81  C   UNL A   1      41.843  23.692  28.467  1.00  0.00     0.134 A 
ATOM     82  C   UNL A   1      40.359  24.611  26.830  1.00  0.00     0.134 A 
ATOM     83  F   UNL A   1      42.862  23.812  29.331  1.00  0.00    -0.206 F 
ATOM     84  C   UNL A   1      41.256  22.437  28.308  1.00  0.00     0.040 A 
ATOM     85  C   UNL A   1      39.749  23.365  26.674  1.00  0.00     0.040 A 
ATOM     86  F   UNL A   1      39.899  25.637  26.099  1.00  0.00    -0.206 F 
ATOM     87  C   UNL A   1      40.202  22.272  27.411  1.00  0.00     0.006 A 
ENDBRANCH  59  80
BRANCH  71  88
ATOM     88  C   UNL A   1      47.421  27.518  25.502  1.00  0.00     0.057 A 
ATOM     89  C   UNL A   1      47.480  27.659  24.110  1.00  0.00     0.134 A 
ATOM     90  C   UNL A   1      48.487  26.866  26.135  1.00  0.00     0.134 A 
ATOM     91  F   UNL A   1      46.483  28.263  23.446  1.00  0.00    -0.206 F 
ATOM     92  C   UNL A   1      48.553  27.158  23.374  1.00  0.00     0.040 A 
ATOM     93  C   UNL A   1      49.576  26.380  25.412  1.00  0.00     0.040 A 
ATOM     94  F   UNL A   1      48.492  26.705  27.467  1.00  0.00    -0.206 F 
ATOM     95  C   UNL A   1      49.609  26.523  24.025  1.00  0.00     0.006 A 
ENDBRANCH  71  88
ENDBRANCH  45  46
ENDBRANCH  37  40
ENDBRANCH  35  36
ENDBRANCH  34  35
ENDBRANCH  33  34
ENDBRANCH  32  33
ENDBRANCH   1  32
TORSDOF 19
ENDMDL
MODEL 2
REMARK VINA RESULT:     -11.6      5.599     11.877
REMARK SMILES CCOC(=O)c1c(NC(=O)/C=C/C(=O)NCCCCCCNC(=O)c2ccc(-c3c4nc(c(-c5c(F)cccc5F)c5ccc([nH]5)c(-c5c(F)cccc5F)c5nc(c(-c6c(F)cccc6F)c6ccc3[nH]6)C=C5)C=C4)cc2)sc(C)c1-c1ccc(C)c(C)c1
REMARK SMILES IDX 17 1 16 2 15 3 13 4 14 5 12 7 11 8 9 9 8 10 10 12 7 13 6 14
REMARK SMILES IDX 82 15 79 16 80 17 81 18 4 19 5 20 3 21 2 22 1 23 83 24 84 25
REMARK SMILES IDX 90 26 85 27 88 28 86 29 89 30 87 31 18 32 19 33 20 34 21 35
REMARK SMILES IDX 22 36 23 37 24 39 25 40 26 41 78 42 27 43 77 44 28 45 29 46
REMARK SMILES IDX 30 47 71 48 31 49 76 50 70 51 72 52 32 53 75 54 69 55 68 56
REMARK SMILES IDX 33 58 59 59 42 60 58 61 43 62 46 63 57 64 73 65 44 66 45 67
REMARK SMILES IDX 56 69 74 70 47 71 34 72 35 73 40 74 36 75 37 76 39 77 41 78
REMARK SMILES IDX 38 79 60 80 61 81 66 82 62 83 63 84 65 85 67 86 64 87 48 88
REMARK SMILES IDX 49 89 54 90 50 91 51 92 53 93 55 94 52 95
REMARK H PARENT 15 6 8 11 22 38 72 57 46 68
REMARK Flexibility Score: inf
ROOT
ATOM      1  C   UNL A   1      45.998  22.780  24.509  1.00  0.00     0.021 C 
ENDROOT
BRANCH   1   2
ATOM      2  C   UNL A   1      44.719  22.218  23.895  1.00  0.00     0.116 C 
BRANCH   2   3
ATOM      3  N   UNL A   1      44.962  20.887  23.383  1.00  0.00    -0.353 N 
ATOM      4  C   UNL A   1      45.067  19.741  24.108  1.00  0.00     0.244 C 
ATOM      5  O   UNL A   1      45.655  18.764  23.659  1.00  0.00    -0.270 OA
ATOM      6  H   UNL A   1      45.063  20.801  22.407  1.00  0.00     0.163 HD
BRANCH   4   7
ATOM      7  C   UNL A   1      44.441  19.691  25.442  1.00  0.00     0.077 C 
ATOM      8  C   UNL A   1      43.193  19.202  25.517  1.00  0.00     0.077 C 
BRANCH   8   9
ATOM      9  C   UNL A   1      42.605  18.830  26.809  1.00  0.00     0.249 C 
ATOM     10  N   UNL A   1      41.619  19.583  27.379  1.00  0.00    -0.313 N 
ATOM     11  H   UNL A   1      41.319  19.250  28.257  1.00  0.00     0.171 HD
ATOM     12  O   UNL A   1      43.031  17.824  27.376  1.00  0.00    -0.270 OA
BRANCH  10  13
ATOM     13  C   UNL A   1      40.959  20.728  26.956  1.00  0.00     0.111 A 
ATOM     14  C   UNL A   1      41.317  22.037  27.239  1.00  0.00     0.102 A 
ATOM     15  C   UNL A   1      40.273  22.957  26.835  1.00  0.00     0.012 A 
ATOM     16  S   UNL A   1      39.611  20.678  25.935  1.00  0.00    -0.122 S 
ATOM     17  C   UNL A   1      39.218  22.307  26.214  1.00  0.00     0.012 A 
ATOM     18  C   UNL A   1      37.890  22.803  25.741  1.00  0.00     0.057 C 
BRANCH  14  19
ATOM     19  C   UNL A   1      42.573  22.359  27.900  1.00  0.00     0.341 C 
ATOM     20  O   UNL A   1      43.659  22.176  27.358  1.00  0.00    -0.246 OA
BRANCH  19  21
ATOM     21  O   UNL A   1      42.415  22.804  29.175  1.00  0.00    -0.462 OA
BRANCH  21  22
ATOM     22  C   UNL A   1      43.153  23.984  29.525  1.00  0.00     0.230 C 
ATOM     23  C   UNL A   1      44.284  23.696  30.500  1.00  0.00     0.049 C 
ENDBRANCH  21  22
ENDBRANCH  19  21
ENDBRANCH  14  19
BRANCH  15  24
ATOM     24  C   UNL A   1      40.288  24.405  26.960  1.00  0.00    -0.016 A 
ATOM     25  C   UNL A   1      40.855  25.167  25.938  1.00  0.00     0.009 A 
ATOM     26  C   UNL A   1      39.724  25.040  28.072  1.00  0.00     0.012 A 
ATOM     27  C   UNL A   1      40.857  26.556  26.029  1.00  0.00     0.004 A 
ATOM     28  C   UNL A   1      39.708  26.442  28.168  1.00  0.00    -0.048 A 
ATOM     29  C   UNL A   1      40.284  27.208  27.133  1.00  0.00    -0.048 A 
ATOM     30  C   UNL A   1      39.072  27.077  29.372  1.00  0.00     0.044 C 
ATOM     31  C   UNL A   1      40.337  28.711  27.153  1.00  0.00     0.044 C 
ENDBRANCH  15  24
ENDBRANCH  10  13
ENDBRANCH   8   9
ENDBRANCH   4   7
ENDBRANCH   2   3
ENDBRANCH   1   2
BRANCH   1  32
ATOM     32  C   UNL A   1      45.756  23.920  25.506  1.00  0.00     0.002 C 
BRANCH  32  33
ATOM     33  C   UNL A   1      46.954  24.279  26.390  1.00  0.00     0.002 C 
BRANCH  33  34
ATOM     34  C   UNL A   1      46.605  24.799  27.785  1.00  0.00     0.021 C 
BRANCH  34  35
ATOM     35  C   UNL A   1      46.375  26.302  27.865  1.00  0.00     0.116 C 
BRANCH  35  36
ATOM     36  N   UNL A   1      45.866  26.847  26.621  1.00  0.00    -0.352 N 
ATOM     37  C   UNL A   1      44.792  27.680  26.432  1.00  0.00     0.251 C 
ATOM     38  H   UNL A   1      46.354  26.585  25.807  1.00  0.00     0.163 HD
ATOM     39  O   UNL A   1      44.381  27.926  25.303  1.00  0.00    -0.269 OA
BRANCH  37  40
ATOM     40  C   UNL A   1      44.114  28.258  27.610  1.00  0.00     0.039 A 
ATOM     41  C   UNL A   1      43.489  27.400  28.518  1.00  0.00     0.014 A 
ATOM     42  C   UNL A   1      44.112  29.640  27.823  1.00  0.00     0.014 A 
ATOM     43  C   UNL A   1      42.904  27.925  29.671  1.00  0.00     0.010 A 
ATOM     44  C   UNL A   1      43.583  30.155  29.002  1.00  0.00     0.010 A 
ATOM     45  C   UNL A   1      42.969  29.304  29.934  1.00  0.00    -0.014 A 
BRANCH  45  46
ATOM     46  C   UNL A   1      42.385  29.881  31.168  1.00  0.00     0.031 A 
ATOM     47  C   UNL A   1      41.032  30.533  31.122  1.00  0.00     0.074 A 
ATOM     48  C   UNL A   1      43.100  29.883  32.309  1.00  0.00     0.049 A 
ATOM     49  N   UNL A   1      40.393  31.180  32.062  1.00  0.00    -0.248 NA
ATOM     50  C   UNL A   1      40.315  30.472  29.838  1.00  0.00     0.031 C 
ATOM     51  C   UNL A   1      44.441  29.320  32.471  1.00  0.00     0.029 A 
ATOM     52  N   UNL A   1      42.802  30.394  33.548  1.00  0.00    -0.354 N 
ATOM     53  C   UNL A   1      39.213  31.622  31.480  1.00  0.00     0.074 A 
ATOM     54  C   UNL A   1      39.241  31.205  30.094  1.00  0.00     0.031 C 
ATOM     55  C   UNL A   1      44.846  29.505  33.738  1.00  0.00     0.029 A 
ATOM     56  C   UNL A   1      43.809  30.228  34.468  1.00  0.00     0.049 A 
ATOM     57  H   UNL A   1      41.948  30.838  33.756  1.00  0.00     0.167 HD
ATOM     58  C   UNL A   1      38.189  32.298  32.051  1.00  0.00     0.037 A 
ATOM     59  C   UNL A   1      43.887  30.623  35.752  1.00  0.00     0.037 A 
ATOM     60  C   UNL A   1      38.146  32.679  33.438  1.00  0.00     0.049 A 
ATOM     61  C   UNL A   1      42.734  31.363  36.368  1.00  0.00     0.074 A 
ATOM     62  C   UNL A   1      37.124  33.307  34.129  1.00  0.00     0.029 A 
ATOM     63  N   UNL A   1      39.172  32.467  34.345  1.00  0.00    -0.354 N 
ATOM     64  N   UNL A   1      41.598  31.722  35.821  1.00  0.00    -0.248 NA
ATOM     65  C   UNL A   1      42.870  31.749  37.780  1.00  0.00     0.031 C 
ATOM     66  C   UNL A   1      37.545  33.502  35.448  1.00  0.00     0.029 A 
ATOM     67  C   UNL A   1      38.815  32.964  35.587  1.00  0.00     0.049 A 
ATOM     68  H   UNL A   1      40.029  32.027  34.138  1.00  0.00     0.167 HD
ATOM     69  C   UNL A   1      40.875  32.353  36.825  1.00  0.00     0.074 A 
ATOM     70  C   UNL A   1      41.697  32.320  38.018  1.00  0.00     0.031 C 
ATOM     71  C   UNL A   1      39.642  32.911  36.764  1.00  0.00     0.037 A 
BRANCH  58  72
ATOM     72  C   UNL A   1      37.028  32.663  31.176  1.00  0.00     0.057 A 
ATOM     73  C   UNL A   1      35.875  31.870  31.112  1.00  0.00     0.134 A 
ATOM     74  C   UNL A   1      37.053  33.834  30.408  1.00  0.00     0.134 A 
ATOM     75  F   UNL A   1      35.794  30.730  31.814  1.00  0.00    -0.206 F 
ATOM     76  C   UNL A   1      34.796  32.216  30.298  1.00  0.00     0.040 A 
ATOM     77  C   UNL A   1      35.970  34.203  29.607  1.00  0.00     0.040 A 
ATOM     78  F   UNL A   1      38.125  34.639  30.426  1.00  0.00    -0.206 F 
ATOM     79  C   UNL A   1      34.839  33.390  29.547  1.00  0.00     0.006 A 
ENDBRANCH  58  72
BRANCH  59  80
ATOM     80  C   UNL A   1      45.098  30.308  36.550  1.00  0.00     0.057 A 
ATOM     81  C   UNL A   1      45.180  29.128  37.298  1.00  0.00     0.134 A 
ATOM     82  C   UNL A   1      46.197  31.174  36.585  1.00  0.00     0.134 A 
ATOM     83  F   UNL A   1      44.150  28.269  37.316  1.00  0.00    -0.206 F 
ATOM     84  C   UNL A   1      46.306  28.826  38.064  1.00  0.00     0.040 A 
ATOM     85  C   UNL A   1      47.338  30.875  37.332  1.00  0.00     0.040 A 
ATOM     86  F   UNL A   1      46.181  32.318  35.885  1.00  0.00    -0.206 F 
ATOM     87  C   UNL A   1      47.392  29.699  38.079  1.00  0.00     0.006 A 
ENDBRANCH  59  80
BRANCH  71  88
ATOM     88  C   UNL A   1      39.093  33.500  38.029  1.00  0.00     0.057 A 
ATOM     89  C   UNL A   1      38.209  32.789  38.849  1.00  0.00     0.134 A 
ATOM     90  C   UNL A   1      39.495  34.773  38.454  1.00  0.00     0.134 A 
ATOM     91  F   UNL A   1      37.780  31.570  38.488  1.00  0.00    -0.206 F 
ATOM     92  C   UNL A   1      37.730  33.330  40.042  1.00  0.00     0.040 A 
ATOM     93  C   UNL A   1      39.038  35.316  39.655  1.00  0.00     0.040 A 
ATOM     94  F   UNL A   1      40.345  35.501  37.715  1.00  0.00    -0.206 F 
ATOM     95  C   UNL A   1      38.150  34.594  40.452  1.00  0.00     0.006 A 
ENDBRANCH  71  88
ENDBRANCH  45  46
ENDBRANCH  37  40
ENDBRANCH  35  36
ENDBRANCH  34  35
ENDBRANCH  33  34
ENDBRANCH  32  33
ENDBRANCH   1  32
TORSDOF 19
ENDMDL
MODEL 3
REMARK VINA RESULT:     -11.5      4.692     10.216
REMARK SMILES CCOC(=O)c1c(NC(=O)/C=C/C(=O)NCCCCCCNC(=O)c2ccc(-c3c4nc(c(-c5c(F)cccc5F)c5ccc([nH]5)c(-c5c(F)cccc5F)c5nc(c(-c6c(F)cccc6F)c6ccc3[nH]6)C=C5)C=C4)cc2)sc(C)c1-c1ccc(C)c(C)c1
REMARK SMILES IDX 17 1 16 2 15 3 13 4 14 5 12 7 11 8 9 9 8 10 10 12 7 13 6 14
REMARK SMILES IDX 82 15 79 16 80 17 81 18 4 19 5 20 3 21 2 22 1 23 83 24 84 25
REMARK SMILES IDX 90 26 85 27 88 28 86 29 89 30 87 31 18 32 19 33 20 34 21 35
REMARK SMILES IDX 22 36 23 37 24 39 25 40 26 41 78 42 27 43 77 44 28 45 29 46
REMARK SMILES IDX 30 47 71 48 31 49 76 50 70 51 72 52 32 53 75 54 69 55 68 56
REMARK SMILES IDX 33 58 59 59 42 60 58 61 43 62 46 63 57 64 73 65 44 66 45 67
REMARK SMILES IDX 56 69 74 70 47 71 34 72 35 73 40 74 36 75 37 76 39 77 41 78
REMARK SMILES IDX 38 79 60 80 61 81 66 82 62 83 63 84 65 85 67 86 64 87 48 88
REMARK SMILES IDX 49 89 54 90 50 91 51 92 53 93 55 94 52 95
REMARK H PARENT 15 6 8 11 22 38 72 57 46 68
REMARK Flexibility Score: inf
ROOT
ATOM      1  C   UNL A   1      40.331  19.652  26.046  1.00  0.00     0.021 C 
ENDROOT
BRANCH   1   2
ATOM      2  C   UNL A   1      39.045  20.113  25.366  1.00  0.00     0.116 C 
BRANCH   2   3
ATOM      3  N   UNL A   1      38.695  21.441  25.821  1.00  0.00    -0.353 N 
ATOM      4  C   UNL A   1      37.636  22.191  25.413  1.00  0.00     0.244 C 
ATOM      5  O   UNL A   1      37.643  23.410  25.538  1.00  0.00    -0.270 OA
ATOM      6  H   UNL A   1      39.286  21.845  26.498  1.00  0.00     0.163 HD
BRANCH   4   7
ATOM      7  C   UNL A   1      36.468  21.503  24.832  1.00  0.00     0.077 C 
ATOM      8  C   UNL A   1      35.412  21.302  25.636  1.00  0.00     0.077 C 
BRANCH   8   9
ATOM      9  C   UNL A   1      34.109  20.912  25.085  1.00  0.00     0.249 C 
ATOM     10  N   UNL A   1      33.275  21.835  24.521  1.00  0.00    -0.313 N 
ATOM     11  H   UNL A   1      32.419  21.462  24.209  1.00  0.00     0.171 HD
ATOM     12  O   UNL A   1      33.777  19.728  25.153  1.00  0.00    -0.270 OA
BRANCH  10  13
ATOM     13  C   UNL A   1      33.407  23.200  24.306  1.00  0.00     0.111 A 
ATOM     14  C   UNL A   1      33.100  24.209  25.205  1.00  0.00     0.102 A 
ATOM     15  C   UNL A   1      33.137  25.506  24.559  1.00  0.00     0.012 A 
ATOM     16  S   UNL A   1      34.055  23.839  22.879  1.00  0.00    -0.122 S 
ATOM     17  C   UNL A   1      33.531  25.415  23.233  1.00  0.00     0.012 A 
ATOM     18  C   UNL A   1      33.605  26.442  22.150  1.00  0.00     0.057 C 
BRANCH  14  19
ATOM     19  C   UNL A   1      32.748  23.919  26.587  1.00  0.00     0.341 C 
ATOM     20  O   UNL A   1      33.488  23.275  27.325  1.00  0.00    -0.246 OA
BRANCH  19  21
ATOM     21  O   UNL A   1      31.513  24.366  26.937  1.00  0.00    -0.462 OA
BRANCH  21  22
ATOM     22  C   UNL A   1      30.405  23.723  26.290  1.00  0.00     0.230 C 
ATOM     23  C   UNL A   1      29.659  22.776  27.217  1.00  0.00     0.049 C 
ENDBRANCH  21  22
ENDBRANCH  19  21
ENDBRANCH  14  19
BRANCH  15  24
ATOM     24  C   UNL A   1      32.882  26.797  25.176  1.00  0.00    -0.016 A 
ATOM     25  C   UNL A   1      31.627  27.386  25.018  1.00  0.00     0.009 A 
ATOM     26  C   UNL A   1      33.862  27.440  25.938  1.00  0.00     0.012 A 
ATOM     27  C   UNL A   1      31.356  28.610  25.621  1.00  0.00     0.004 A 
ATOM     28  C   UNL A   1      33.596  28.670  26.563  1.00  0.00    -0.048 A 
ATOM     29  C   UNL A   1      32.326  29.262  26.400  1.00  0.00    -0.048 A 
ATOM     30  C   UNL A   1      34.675  29.311  27.390  1.00  0.00     0.044 C 
ATOM     31  C   UNL A   1      31.951  30.585  27.008  1.00  0.00     0.044 C 
ENDBRANCH  15  24
ENDBRANCH  10  13
ENDBRANCH   8   9
ENDBRANCH   4   7
ENDBRANCH   2   3
ENDBRANCH   1   2
BRANCH   1  32
ATOM     32  C   UNL A   1      41.387  20.756  26.182  1.00  0.00     0.002 C 
BRANCH  32  33
ATOM     33  C   UNL A   1      41.798  21.092  27.618  1.00  0.00     0.002 C 
BRANCH  33  34
ATOM     34  C   UNL A   1      41.668  22.565  28.008  1.00  0.00     0.021 C 
BRANCH  34  35
ATOM     35  C   UNL A   1      42.724  23.479  27.401  1.00  0.00     0.116 C 
BRANCH  35  36
ATOM     36  N   UNL A   1      42.251  24.145  26.203  1.00  0.00    -0.352 N 
ATOM     37  C   UNL A   1      41.563  25.328  26.102  1.00  0.00     0.251 C 
ATOM     38  H   UNL A   1      42.448  23.691  25.353  1.00  0.00     0.163 HD
ATOM     39  O   UNL A   1      41.084  25.686  25.031  1.00  0.00    -0.269 OA
BRANCH  37  40
ATOM     40  C   UNL A   1      41.379  26.159  27.310  1.00  0.00     0.039 A 
ATOM     41  C   UNL A   1      42.275  27.202  27.555  1.00  0.00     0.014 A 
ATOM     42  C   UNL A   1      40.315  25.918  28.185  1.00  0.00     0.014 A 
ATOM     43  C   UNL A   1      42.075  28.039  28.654  1.00  0.00     0.010 A 
ATOM     44  C   UNL A   1      40.082  26.789  29.244  1.00  0.00     0.010 A 
ATOM     45  C   UNL A   1      40.963  27.854  29.492  1.00  0.00    -0.014 A 
BRANCH  45  46
ATOM     46  C   UNL A   1      40.710  28.751  30.644  1.00  0.00     0.031 A 
ATOM     47  C   UNL A   1      39.629  29.792  30.558  1.00  0.00     0.074 A 
ATOM     48  C   UNL A   1      41.495  28.678  31.735  1.00  0.00     0.049 A 
ATOM     49  N   UNL A   1      39.316  30.732  31.412  1.00  0.00    -0.248 NA
ATOM     50  C   UNL A   1      38.809  29.791  29.337  1.00  0.00     0.031 C 
ATOM     51  C   UNL A   1      42.604  27.740  31.921  1.00  0.00     0.029 A 
ATOM     52  N   UNL A   1      41.493  29.422  32.888  1.00  0.00    -0.354 N 
ATOM     53  C   UNL A   1      38.283  31.448  30.823  1.00  0.00     0.074 A 
ATOM     54  C   UNL A   1      38.047  30.859  29.522  1.00  0.00     0.031 C 
ATOM     55  C   UNL A   1      43.166  27.956  33.122  1.00  0.00     0.029 A 
ATOM     56  C   UNL A   1      42.481  29.068  33.775  1.00  0.00     0.049 A 
ATOM     57  H   UNL A   1      40.844  30.142  33.063  1.00  0.00     0.167 HD
ATOM     58  C   UNL A   1      37.581  32.489  31.327  1.00  0.00     0.037 A 
ATOM     59  C   UNL A   1      42.802  29.588  34.973  1.00  0.00     0.037 A 
ATOM     60  C   UNL A   1      37.793  33.050  32.635  1.00  0.00     0.049 A 
ATOM     61  C   UNL A   1      42.001  30.737  35.517  1.00  0.00     0.074 A 
ATOM     62  C   UNL A   1      37.088  34.062  33.264  1.00  0.00     0.029 A 
ATOM     63  N   UNL A   1      38.784  32.643  33.515  1.00  0.00    -0.354 N 
ATOM     64  N   UNL A   1      40.986  31.365  34.974  1.00  0.00    -0.248 NA
ATOM     65  C   UNL A   1      42.386  31.248  36.841  1.00  0.00     0.031 C 
ATOM     66  C   UNL A   1      37.674  34.289  34.514  1.00  0.00     0.029 A 
ATOM     67  C   UNL A   1      38.720  33.394  34.677  1.00  0.00     0.049 A 
ATOM     68  H   UNL A   1      39.436  31.927  33.340  1.00  0.00     0.167 HD
ATOM     69  C   UNL A   1      40.597  32.327  35.897  1.00  0.00     0.074 A 
ATOM     70  C   UNL A   1      41.478  32.193  37.039  1.00  0.00     0.031 C 
ATOM     71  C   UNL A   1      39.599  33.239  35.806  1.00  0.00     0.037 A 
BRANCH  58  72
ATOM     72  C   UNL A   1      36.513  33.086  30.460  1.00  0.00     0.057 A 
ATOM     73  C   UNL A   1      36.821  33.929  29.385  1.00  0.00     0.134 A 
ATOM     74  C   UNL A   1      35.162  32.792  30.686  1.00  0.00     0.134 A 
ATOM     75  F   UNL A   1      38.095  34.260  29.125  1.00  0.00    -0.206 F 
ATOM     76  C   UNL A   1      35.823  34.479  28.580  1.00  0.00     0.040 A 
ATOM     77  C   UNL A   1      34.156  33.317  29.873  1.00  0.00     0.040 A 
ATOM     78  F   UNL A   1      34.799  31.988  31.696  1.00  0.00    -0.206 F 
ATOM     79  C   UNL A   1      34.486  34.167  28.819  1.00  0.00     0.006 A 
ENDBRANCH  58  72
BRANCH  59  80
ATOM     80  C   UNL A   1      43.925  29.012  35.753  1.00  0.00     0.057 A 
ATOM     81  C   UNL A   1      43.715  27.949  36.640  1.00  0.00     0.134 A 
ATOM     82  C   UNL A   1      45.229  29.506  35.633  1.00  0.00     0.134 A 
ATOM     83  F   UNL A   1      42.482  27.448  36.809  1.00  0.00    -0.206 F 
ATOM     84  C   UNL A   1      44.758  27.407  37.389  1.00  0.00     0.040 A 
ATOM     85  C   UNL A   1      46.286  28.959  36.363  1.00  0.00     0.040 A 
ATOM     86  F   UNL A   1      45.494  30.518  34.795  1.00  0.00    -0.206 F 
ATOM     87  C   UNL A   1      46.051  27.910  37.248  1.00  0.00     0.006 A 
ENDBRANCH  59  80
BRANCH  71  88
ATOM     88  C   UNL A   1      39.385  34.140  36.985  1.00  0.00     0.057 A 
ATOM     89  C   UNL A   1      38.693  33.711  38.124  1.00  0.00     0.134 A 
ATOM     90  C   UNL A   1      39.921  35.434  36.998  1.00  0.00     0.134 A 
ATOM     91  F   UNL A   1      38.148  32.486  38.166  1.00  0.00    -0.206 F 
ATOM     92  C   UNL A   1      38.529  34.544  39.231  1.00  0.00     0.040 A 
ATOM     93  C   UNL A   1      39.780  36.269  38.106  1.00  0.00     0.040 A 
ATOM     94  F   UNL A   1      40.599  35.901  35.939  1.00  0.00    -0.206 F 
ATOM     95  C   UNL A   1      39.079  35.825  39.227  1.00  0.00     0.006 A 
ENDBRANCH  71  88
ENDBRANCH  45  46
ENDBRANCH  37  40
ENDBRANCH  35  36
ENDBRANCH  34  35
ENDBRANCH  33  34
ENDBRANCH  32  33
ENDBRANCH   1  32
TORSDOF 19
ENDMDL
