MODEL 1
REMARK VINA RESULT:     -10.6      0.000      0.000
REMARK SMILES O=C(NCCCCCCNC(=O)[C@@]12CCC[C@@H](C[NH2+]1)C2)c1ccc(-c2c3nc(c(-c4c(F)cccc4F)c4ccc([nH]4)c(-c4c(F)cccc4F)c4nc(c(-c5c(F)cccc5F)c5ccc2[nH]5)C=C4)C=C3)cc1
REMARK SMILES IDX 5 1 4 2 3 3 1 4 2 5 21 7 22 8 74 9 23 10 73 11 24 12 25 13
REMARK SMILES IDX 26 14 67 15 27 16 72 17 66 18 68 19 28 20 71 21 65 22 64 23
REMARK SMILES IDX 29 25 55 26 38 27 54 28 39 29 42 30 53 31 69 32 40 33 41 34
REMARK SMILES IDX 52 36 70 37 43 38 30 39 31 40 36 41 32 42 33 43 35 44 37 45
REMARK SMILES IDX 34 46 56 47 57 48 62 49 58 50 59 51 61 52 63 53 60 54 44 55
REMARK SMILES IDX 45 56 50 57 46 58 47 59 49 60 51 61 48 62 6 63 7 64 8 65
REMARK SMILES IDX 9 66 10 67 11 68 12 70 13 71 14 72 19 73 20 74 15 75 18 76
REMARK SMILES IDX 17 79 16 80
REMARK H PARENT 3 6 68 24 42 35 10 69 19 77 19 78
REMARK Flexibility Score: inf
ROOT
ATOM      1  C   UNL A   1      37.091  19.871  24.960  1.00  0.00     0.021 C 
ENDROOT
BRANCH   1   2
ATOM      2  C   UNL A   1      38.433  20.510  25.293  1.00  0.00     0.116 C 
BRANCH   2   3
ATOM      3  N   UNL A   1      39.467  19.515  25.518  1.00  0.00    -0.352 N 
ATOM      4  O   UNL A   1      41.554  18.752  25.895  1.00  0.00    -0.269 OA
ATOM      5  C   UNL A   1      40.753  19.676  25.972  1.00  0.00     0.251 C 
ATOM      6  H   UNL A   1      39.208  18.587  25.316  1.00  0.00     0.163 HD
BRANCH   5   7
ATOM      7  C   UNL A   1      41.174  20.972  26.545  1.00  0.00     0.039 A 
ATOM      8  C   UNL A   1      41.054  21.221  27.914  1.00  0.00     0.014 A 
ATOM      9  C   UNL A   1      41.726  21.940  25.700  1.00  0.00     0.014 A 
ATOM     10  C   UNL A   1      41.363  22.479  28.419  1.00  0.00     0.010 A 
ATOM     11  C   UNL A   1      42.116  23.174  26.224  1.00  0.00     0.010 A 
ATOM     12  C   UNL A   1      41.915  23.462  27.583  1.00  0.00    -0.014 A 
BRANCH  12  13
ATOM     13  C   UNL A   1      42.337  24.764  28.156  1.00  0.00     0.031 A 
ATOM     14  C   UNL A   1      41.342  25.862  28.397  1.00  0.00     0.074 A 
ATOM     15  C   UNL A   1      43.637  24.950  28.452  1.00  0.00     0.049 A 
ATOM     16  N   UNL A   1      41.544  27.073  28.848  1.00  0.00    -0.248 NA
ATOM     17  C   UNL A   1      39.937  25.565  28.081  1.00  0.00     0.031 C 
ATOM     18  C   UNL A   1      44.696  23.957  28.258  1.00  0.00     0.029 A 
ATOM     19  N   UNL A   1      44.292  26.035  28.978  1.00  0.00    -0.354 N 
ATOM     20  C   UNL A   1      40.300  27.691  28.853  1.00  0.00     0.074 A 
ATOM     21  C   UNL A   1      39.352  26.728  28.331  1.00  0.00     0.031 C 
ATOM     22  C   UNL A   1      45.861  24.468  28.684  1.00  0.00     0.029 A 
ATOM     23  C   UNL A   1      45.644  25.843  29.115  1.00  0.00     0.049 A 
ATOM     24  H   UNL A   1      43.835  26.870  29.233  1.00  0.00     0.167 HD
ATOM     25  C   UNL A   1      39.979  28.942  29.263  1.00  0.00     0.037 A 
ATOM     26  C   UNL A   1      46.610  26.689  29.516  1.00  0.00     0.037 A 
ATOM     27  C   UNL A   1      40.931  29.892  29.780  1.00  0.00     0.049 A 
ATOM     28  C   UNL A   1      46.237  28.086  29.916  1.00  0.00     0.074 A 
ATOM     29  C   UNL A   1      40.703  31.174  30.251  1.00  0.00     0.029 A 
ATOM     30  N   UNL A   1      42.298  29.669  29.884  1.00  0.00    -0.354 N 
ATOM     31  N   UNL A   1      45.051  28.646  29.950  1.00  0.00    -0.248 NA
ATOM     32  C   UNL A   1      47.332  28.970  30.333  1.00  0.00     0.031 C 
ATOM     33  C   UNL A   1      41.936  31.746  30.582  1.00  0.00     0.029 A 
ATOM     34  C   UNL A   1      42.927  30.798  30.383  1.00  0.00     0.049 A 
ATOM     35  H   UNL A   1      42.752  28.831  29.638  1.00  0.00     0.167 HD
ATOM     36  C   UNL A   1      45.253  29.937  30.419  1.00  0.00     0.074 A 
ATOM     37  C   UNL A   1      46.675  30.072  30.666  1.00  0.00     0.031 C 
ATOM     38  C   UNL A   1      44.343  30.918  30.629  1.00  0.00     0.037 A 
BRANCH  25  39
ATOM     39  C   UNL A   1      38.542  29.367  29.137  1.00  0.00     0.057 A 
ATOM     40  C   UNL A   1      37.676  29.402  30.238  1.00  0.00     0.134 A 
ATOM     41  C   UNL A   1      38.024  29.772  27.899  1.00  0.00     0.134 A 
ATOM     42  F   UNL A   1      38.101  29.019  31.452  1.00  0.00    -0.206 F 
ATOM     43  C   UNL A   1      36.341  29.794  30.106  1.00  0.00     0.040 A 
ATOM     44  C   UNL A   1      36.702  30.195  27.762  1.00  0.00     0.040 A 
ATOM     45  F   UNL A   1      38.799  29.773  26.804  1.00  0.00    -0.206 F 
ATOM     46  C   UNL A   1      35.852  30.197  28.865  1.00  0.00     0.006 A 
ENDBRANCH  25  39
BRANCH  26  47
ATOM     47  C   UNL A   1      48.021  26.231  29.545  1.00  0.00     0.057 A 
ATOM     48  C   UNL A   1      48.837  26.326  28.414  1.00  0.00     0.134 A 
ATOM     49  C   UNL A   1      48.594  25.707  30.711  1.00  0.00     0.134 A 
ATOM     50  F   UNL A   1      48.342  26.805  27.263  1.00  0.00    -0.206 F 
ATOM     51  C   UNL A   1      50.168  25.905  28.435  1.00  0.00     0.040 A 
ATOM     52  C   UNL A   1      49.930  25.311  30.756  1.00  0.00     0.040 A 
ATOM     53  F   UNL A   1      47.868  25.602  31.834  1.00  0.00    -0.206 F 
ATOM     54  C   UNL A   1      50.719  25.403  29.613  1.00  0.00     0.006 A 
ENDBRANCH  26  47
BRANCH  38  55
ATOM     55  C   UNL A   1      44.849  32.213  31.197  1.00  0.00     0.057 A 
ATOM     56  C   UNL A   1      45.249  33.279  30.383  1.00  0.00     0.134 A 
ATOM     57  C   UNL A   1      44.900  32.405  32.585  1.00  0.00     0.134 A 
ATOM     58  F   UNL A   1      45.239  33.155  29.046  1.00  0.00    -0.206 F 
ATOM     59  C   UNL A   1      45.703  34.482  30.927  1.00  0.00     0.040 A 
ATOM     60  C   UNL A   1      45.323  33.613  33.140  1.00  0.00     0.040 A 
ATOM     61  F   UNL A   1      44.525  31.427  33.422  1.00  0.00    -0.206 F 
ATOM     62  C   UNL A   1      45.733  34.654  32.310  1.00  0.00     0.006 A 
ENDBRANCH  38  55
ENDBRANCH  12  13
ENDBRANCH   5   7
ENDBRANCH   2   3
ENDBRANCH   1   2
BRANCH   1  63
ATOM     63  C   UNL A   1      35.886  20.812  25.057  1.00  0.00     0.002 C 
BRANCH  63  64
ATOM     64  C   UNL A   1      34.510  20.178  24.817  1.00  0.00     0.002 C 
BRANCH  64  65
ATOM     65  C   UNL A   1      33.513  20.277  25.970  1.00  0.00     0.021 C 
BRANCH  65  66
ATOM     66  C   UNL A   1      33.868  21.286  27.053  1.00  0.00     0.116 C 
BRANCH  66  67
ATOM     67  N   UNL A   1      32.755  22.087  27.538  1.00  0.00    -0.351 N 
ATOM     68  C   UNL A   1      32.042  23.115  26.976  1.00  0.00     0.281 C 
ATOM     69  H   UNL A   1      32.455  21.844  28.444  1.00  0.00     0.163 HD
ATOM     70  O   UNL A   1      30.939  23.356  27.484  1.00  0.00    -0.268 OA
BRANCH  68  71
ATOM     71  C   UNL A   1      32.614  24.052  25.875  1.00  0.00     0.176 C 
ATOM     72  C   UNL A   1      32.350  23.376  24.501  1.00  0.00     0.079 C 
ATOM     73  N   UNL A   1      32.073  25.444  25.969  1.00  0.00    -0.333 N 
ATOM     74  C   UNL A   1      34.117  24.327  25.989  1.00  0.00     0.088 C 
ATOM     75  C   UNL A   1      33.396  23.718  23.430  1.00  0.00     0.008 C 
ATOM     76  C   UNL A   1      33.115  26.394  25.559  1.00  0.00     0.265 C 
ATOM     77  H   UNL A   1      31.793  25.637  26.930  1.00  0.00     0.347 HD
ATOM     78  H   UNL A   1      31.263  25.540  25.357  1.00  0.00     0.347 HD
ATOM     79  C   UNL A   1      34.234  25.520  25.028  1.00  0.00     0.051 C 
ATOM     80  C   UNL A   1      33.910  25.144  23.563  1.00  0.00     0.010 C 
ENDBRANCH  68  71
ENDBRANCH  66  67
ENDBRANCH  65  66
ENDBRANCH  64  65
ENDBRANCH  63  64
ENDBRANCH   1  63
TORSDOF 13
ENDMDL
MODEL 2
REMARK VINA RESULT:     -10.6      4.728     10.395
REMARK SMILES O=C(NCCCCCCNC(=O)[C@@]12CCC[C@@H](C[NH2+]1)C2)c1ccc(-c2c3nc(c(-c4c(F)cccc4F)c4ccc([nH]4)c(-c4c(F)cccc4F)c4nc(c(-c5c(F)cccc5F)c5ccc2[nH]5)C=C4)C=C3)cc1
REMARK SMILES IDX 5 1 4 2 3 3 1 4 2 5 21 7 22 8 74 9 23 10 73 11 24 12 25 13
REMARK SMILES IDX 26 14 67 15 27 16 72 17 66 18 68 19 28 20 71 21 65 22 64 23
REMARK SMILES IDX 29 25 55 26 38 27 54 28 39 29 42 30 53 31 69 32 40 33 41 34
REMARK SMILES IDX 52 36 70 37 43 38 30 39 31 40 36 41 32 42 33 43 35 44 37 45
REMARK SMILES IDX 34 46 56 47 57 48 62 49 58 50 59 51 61 52 63 53 60 54 44 55
REMARK SMILES IDX 45 56 50 57 46 58 47 59 49 60 51 61 48 62 6 63 7 64 8 65
REMARK SMILES IDX 9 66 10 67 11 68 12 70 13 71 14 72 19 73 20 74 15 75 18 76
REMARK SMILES IDX 17 79 16 80
REMARK H PARENT 3 6 68 24 42 35 10 69 19 77 19 78
REMARK Flexibility Score: inf
ROOT
ATOM      1  C   UNL A   1      32.792  35.977  31.959  1.00  0.00     0.021 C 
ENDROOT
BRANCH   1   2
ATOM      2  C   UNL A   1      33.404  36.084  30.568  1.00  0.00     0.116 C 
BRANCH   2   3
ATOM      3  N   UNL A   1      32.694  35.271  29.597  1.00  0.00    -0.352 N 
ATOM      4  O   UNL A   1      32.465  33.823  27.885  1.00  0.00    -0.269 OA
ATOM      5  C   UNL A   1      33.156  34.252  28.801  1.00  0.00     0.251 C 
ATOM      6  H   UNL A   1      31.738  35.481  29.493  1.00  0.00     0.163 HD
BRANCH   5   7
ATOM      7  C   UNL A   1      34.497  33.679  29.045  1.00  0.00     0.039 A 
ATOM      8  C   UNL A   1      34.718  32.810  30.116  1.00  0.00     0.014 A 
ATOM      9  C   UNL A   1      35.539  33.994  28.169  1.00  0.00     0.014 A 
ATOM     10  C   UNL A   1      36.005  32.360  30.387  1.00  0.00     0.010 A 
ATOM     11  C   UNL A   1      36.814  33.471  28.393  1.00  0.00     0.010 A 
ATOM     12  C   UNL A   1      37.062  32.670  29.518  1.00  0.00    -0.014 A 
BRANCH  12  13
ATOM     13  C   UNL A   1      38.409  32.097  29.762  1.00  0.00     0.031 A 
ATOM     14  C   UNL A   1      39.466  32.884  30.480  1.00  0.00     0.074 A 
ATOM     15  C   UNL A   1      38.673  30.853  29.320  1.00  0.00     0.049 A 
ATOM     16  N   UNL A   1      40.706  32.555  30.740  1.00  0.00    -0.248 NA
ATOM     17  C   UNL A   1      39.086  34.219  30.963  1.00  0.00     0.031 C 
ATOM     18  C   UNL A   1      37.726  29.993  28.606  1.00  0.00     0.029 A 
ATOM     19  N   UNL A   1      39.812  30.093  29.403  1.00  0.00    -0.354 N 
ATOM     20  C   UNL A   1      41.260  33.646  31.397  1.00  0.00     0.074 A 
ATOM     21  C   UNL A   1      40.228  34.660  31.471  1.00  0.00     0.031 C 
ATOM     22  C   UNL A   1      38.313  28.817  28.341  1.00  0.00     0.029 A 
ATOM     23  C   UNL A   1      39.695  28.864  28.803  1.00  0.00     0.049 A 
ATOM     24  H   UNL A   1      40.635  30.401  29.850  1.00  0.00     0.167 HD
ATOM     25  C   UNL A   1      42.513  33.784  31.898  1.00  0.00     0.037 A 
ATOM     26  C   UNL A   1      40.606  27.892  28.618  1.00  0.00     0.037 A 
ATOM     27  C   UNL A   1      43.532  32.769  31.817  1.00  0.00     0.049 A 
ATOM     28  C   UNL A   1      41.999  28.089  29.137  1.00  0.00     0.074 A 
ATOM     29  C   UNL A   1      44.821  32.798  32.321  1.00  0.00     0.029 A 
ATOM     30  N   UNL A   1      43.381  31.543  31.182  1.00  0.00    -0.354 N 
ATOM     31  N   UNL A   1      42.500  29.111  29.789  1.00  0.00    -0.248 NA
ATOM     32  C   UNL A   1      42.955  27.001  28.897  1.00  0.00     0.031 C 
ATOM     33  C   UNL A   1      45.468  31.618  31.939  1.00  0.00     0.029 A 
ATOM     34  C   UNL A   1      44.563  30.822  31.256  1.00  0.00     0.049 A 
ATOM     35  H   UNL A   1      42.557  31.233  30.744  1.00  0.00     0.167 HD
ATOM     36  C   UNL A   1      43.820  28.778  30.062  1.00  0.00     0.074 A 
ATOM     37  C   UNL A   1      44.037  27.454  29.513  1.00  0.00     0.031 C 
ATOM     38  C   UNL A   1      44.764  29.502  30.710  1.00  0.00     0.037 A 
BRANCH  25  39
ATOM     39  C   UNL A   1      42.859  35.094  32.549  1.00  0.00     0.057 A 
ATOM     40  C   UNL A   1      42.643  35.329  33.913  1.00  0.00     0.134 A 
ATOM     41  C   UNL A   1      43.443  36.129  31.804  1.00  0.00     0.134 A 
ATOM     42  F   UNL A   1      42.079  34.387  34.685  1.00  0.00    -0.206 F 
ATOM     43  C   UNL A   1      42.965  36.553  34.505  1.00  0.00     0.040 A 
ATOM     44  C   UNL A   1      43.796  37.344  32.391  1.00  0.00     0.040 A 
ATOM     45  F   UNL A   1      43.687  35.970  30.495  1.00  0.00    -0.206 F 
ATOM     46  C   UNL A   1      43.549  37.563  33.744  1.00  0.00     0.006 A 
ENDBRANCH  25  39
BRANCH  26  47
ATOM     47  C   UNL A   1      40.220  26.652  27.899  1.00  0.00     0.057 A 
ATOM     48  C   UNL A   1      40.640  26.416  26.587  1.00  0.00     0.134 A 
ATOM     49  C   UNL A   1      39.440  25.664  28.515  1.00  0.00     0.134 A 
ATOM     50  F   UNL A   1      41.376  27.330  25.939  1.00  0.00    -0.206 F 
ATOM     51  C   UNL A   1      40.289  25.248  25.906  1.00  0.00     0.040 A 
ATOM     52  C   UNL A   1      39.107  24.481  27.858  1.00  0.00     0.040 A 
ATOM     53  F   UNL A   1      39.016  25.825  29.778  1.00  0.00    -0.206 F 
ATOM     54  C   UNL A   1      39.526  24.273  26.547  1.00  0.00     0.006 A 
ENDBRANCH  26  47
BRANCH  38  55
ATOM     55  C   UNL A   1      46.107  28.860  30.906  1.00  0.00     0.057 A 
ATOM     56  C   UNL A   1      47.158  29.037  29.998  1.00  0.00     0.134 A 
ATOM     57  C   UNL A   1      46.361  28.081  32.043  1.00  0.00     0.134 A 
ATOM     58  F   UNL A   1      46.977  29.758  28.880  1.00  0.00    -0.206 F 
ATOM     59  C   UNL A   1      48.406  28.445  30.201  1.00  0.00     0.040 A 
ATOM     60  C   UNL A   1      47.613  27.510  32.273  1.00  0.00     0.040 A 
ATOM     61  F   UNL A   1      45.401  27.878  32.958  1.00  0.00    -0.206 F 
ATOM     62  C   UNL A   1      48.638  27.686  31.347  1.00  0.00     0.006 A 
ENDBRANCH  38  55
ENDBRANCH  12  13
ENDBRANCH   5   7
ENDBRANCH   2   3
ENDBRANCH   1   2
BRANCH   1  63
ATOM     63  C   UNL A   1      33.775  36.184  33.115  1.00  0.00     0.002 C 
BRANCH  63  64
ATOM     64  C   UNL A   1      34.638  34.974  33.496  1.00  0.00     0.002 C 
BRANCH  64  65
ATOM     65  C   UNL A   1      36.043  34.935  32.897  1.00  0.00     0.021 C 
BRANCH  65  66
ATOM     66  C   UNL A   1      37.171  34.719  33.897  1.00  0.00     0.116 C 
BRANCH  66  67
ATOM     67  N   UNL A   1      36.848  33.837  35.008  1.00  0.00    -0.351 N 
ATOM     68  C   UNL A   1      37.447  32.703  35.491  1.00  0.00     0.281 C 
ATOM     69  H   UNL A   1      36.044  34.106  35.509  1.00  0.00     0.163 HD
ATOM     70  O   UNL A   1      37.150  32.378  36.648  1.00  0.00    -0.268 OA
BRANCH  68  71
ATOM     71  C   UNL A   1      38.328  31.761  34.620  1.00  0.00     0.176 C 
ATOM     72  C   UNL A   1      37.475  31.320  33.398  1.00  0.00     0.079 C 
ATOM     73  N   UNL A   1      39.634  32.385  34.243  1.00  0.00    -0.333 N 
ATOM     74  C   UNL A   1      38.816  30.500  35.340  1.00  0.00     0.088 C 
ATOM     75  C   UNL A   1      37.839  29.929  32.859  1.00  0.00     0.008 C 
ATOM     76  C   UNL A   1      40.667  31.343  34.190  1.00  0.00     0.265 C 
ATOM     77  H   UNL A   1      39.891  33.086  34.938  1.00  0.00     0.347 HD
ATOM     78  H   UNL A   1      39.551  32.832  33.331  1.00  0.00     0.347 HD
ATOM     79  C   UNL A   1      39.901  30.045  34.353  1.00  0.00     0.051 C 
ATOM     80  C   UNL A   1      39.327  29.637  32.976  1.00  0.00     0.010 C 
ENDBRANCH  68  71
ENDBRANCH  66  67
ENDBRANCH  65  66
ENDBRANCH  64  65
ENDBRANCH  63  64
ENDBRANCH   1  63
TORSDOF 13
ENDMDL
MODEL 3
REMARK VINA RESULT:     -10.5      1.675      2.455
REMARK SMILES O=C(NCCCCCCNC(=O)[C@@]12CCC[C@@H](C[NH2+]1)C2)c1ccc(-c2c3nc(c(-c4c(F)cccc4F)c4ccc([nH]4)c(-c4c(F)cccc4F)c4nc(c(-c5c(F)cccc5F)c5ccc2[nH]5)C=C4)C=C3)cc1
REMARK SMILES IDX 5 1 4 2 3 3 1 4 2 5 21 7 22 8 74 9 23 10 73 11 24 12 25 13
REMARK SMILES IDX 26 14 67 15 27 16 72 17 66 18 68 19 28 20 71 21 65 22 64 23
REMARK SMILES IDX 29 25 55 26 38 27 54 28 39 29 42 30 53 31 69 32 40 33 41 34
REMARK SMILES IDX 52 36 70 37 43 38 30 39 31 40 36 41 32 42 33 43 35 44 37 45
REMARK SMILES IDX 34 46 56 47 57 48 62 49 58 50 59 51 61 52 63 53 60 54 44 55
REMARK SMILES IDX 45 56 50 57 46 58 47 59 49 60 51 61 48 62 6 63 7 64 8 65
REMARK SMILES IDX 9 66 10 67 11 68 12 70 13 71 14 72 19 73 20 74 15 75 18 76
REMARK SMILES IDX 17 79 16 80
REMARK H PARENT 3 6 68 24 42 35 10 69 19 77 19 78
REMARK Flexibility Score: inf
ROOT
ATOM      1  C   UNL A   1      37.728  19.709  24.871  1.00  0.00     0.021 C 
ENDROOT
BRANCH   1   2
ATOM      2  C   UNL A   1      38.853  20.201  25.772  1.00  0.00     0.116 C 
BRANCH   2   3
ATOM      3  N   UNL A   1      39.922  19.225  25.888  1.00  0.00    -0.352 N 
ATOM      4  O   UNL A   1      42.052  18.487  25.932  1.00  0.00    -0.269 OA
ATOM      5  C   UNL A   1      41.269  19.419  26.074  1.00  0.00     0.251 C 
ATOM      6  H   UNL A   1      39.640  18.284  25.825  1.00  0.00     0.163 HD
BRANCH   5   7
ATOM      7  C   UNL A   1      41.776  20.760  26.436  1.00  0.00     0.039 A 
ATOM      8  C   UNL A   1      41.985  21.108  27.772  1.00  0.00     0.014 A 
ATOM      9  C   UNL A   1      42.075  21.669  25.417  1.00  0.00     0.014 A 
ATOM     10  C   UNL A   1      42.367  22.404  28.098  1.00  0.00     0.010 A 
ATOM     11  C   UNL A   1      42.543  22.944  25.743  1.00  0.00     0.010 A 
ATOM     12  C   UNL A   1      42.669  23.329  27.086  1.00  0.00    -0.014 A 
BRANCH  12  13
ATOM     13  C   UNL A   1      43.177  24.676  27.447  1.00  0.00     0.031 A 
ATOM     14  C   UNL A   1      42.244  25.755  27.915  1.00  0.00     0.074 A 
ATOM     15  C   UNL A   1      44.497  24.920  27.341  1.00  0.00     0.049 A 
ATOM     16  N   UNL A   1      42.510  26.997  28.229  1.00  0.00    -0.248 NA
ATOM     17  C   UNL A   1      40.823  25.395  28.039  1.00  0.00     0.031 C 
ATOM     18  C   UNL A   1      45.500  23.951  26.894  1.00  0.00     0.029 A 
ATOM     19  N   UNL A   1      45.223  26.055  27.599  1.00  0.00    -0.354 N 
ATOM     20  C   UNL A   1      41.293  27.574  28.568  1.00  0.00     0.074 A 
ATOM     21  C   UNL A   1      40.281  26.552  28.393  1.00  0.00     0.031 C 
ATOM     22  C   UNL A   1      46.713  24.523  26.935  1.00  0.00     0.029 A 
ATOM     23  C   UNL A   1      46.565  25.914  27.344  1.00  0.00     0.049 A 
ATOM     24  H   UNL A   1      44.821  26.889  27.936  1.00  0.00     0.167 HD
ATOM     25  C   UNL A   1      41.046  28.838  28.993  1.00  0.00     0.037 A 
ATOM     26  C   UNL A   1      47.564  26.813  27.403  1.00  0.00     0.037 A 
ATOM     27  C   UNL A   1      42.061  29.846  29.162  1.00  0.00     0.049 A 
ATOM     28  C   UNL A   1      47.257  28.219  27.827  1.00  0.00     0.074 A 
ATOM     29  C   UNL A   1      41.918  31.146  29.616  1.00  0.00     0.029 A 
ATOM     30  N   UNL A   1      43.408  29.672  28.872  1.00  0.00    -0.354 N 
ATOM     31  N   UNL A   1      46.107  28.742  28.180  1.00  0.00    -0.248 NA
ATOM     32  C   UNL A   1      48.383  29.160  27.863  1.00  0.00     0.031 C 
ATOM     33  C   UNL A   1      43.166  31.775  29.545  1.00  0.00     0.029 A 
ATOM     34  C   UNL A   1      44.100  30.849  29.110  1.00  0.00     0.049 A 
ATOM     35  H   UNL A   1      43.811  28.836  28.545  1.00  0.00     0.167 HD
ATOM     36  C   UNL A   1      46.375  30.064  28.506  1.00  0.00     0.074 A 
ATOM     37  C   UNL A   1      47.800  30.258  28.319  1.00  0.00     0.031 C 
ATOM     38  C   UNL A   1      45.519  31.028  28.926  1.00  0.00     0.037 A 
BRANCH  25  39
ATOM     39  C   UNL A   1      39.616  29.208  29.272  1.00  0.00     0.057 A 
ATOM     40  C   UNL A   1      39.080  29.188  30.566  1.00  0.00     0.134 A 
ATOM     41  C   UNL A   1      38.769  29.618  28.232  1.00  0.00     0.134 A 
ATOM     42  F   UNL A   1      39.830  28.798  31.608  1.00  0.00    -0.206 F 
ATOM     43  C   UNL A   1      37.748  29.531  30.812  1.00  0.00     0.040 A 
ATOM     44  C   UNL A   1      37.446  29.992  28.470  1.00  0.00     0.040 A 
ATOM     45  F   UNL A   1      39.218  29.670  26.970  1.00  0.00    -0.206 F 
ATOM     46  C   UNL A   1      36.928  29.939  29.762  1.00  0.00     0.006 A 
ENDBRANCH  25  39
BRANCH  26  47
ATOM     47  C   UNL A   1      48.943  26.402  27.041  1.00  0.00     0.057 A 
ATOM     48  C   UNL A   1      49.839  25.938  28.009  1.00  0.00     0.134 A 
ATOM     49  C   UNL A   1      49.391  26.442  25.714  1.00  0.00     0.134 A 
ATOM     50  F   UNL A   1      49.473  25.889  29.298  1.00  0.00    -0.206 F 
ATOM     51  C   UNL A   1      51.135  25.540  27.675  1.00  0.00     0.040 A 
ATOM     52  C   UNL A   1      50.673  26.021  25.361  1.00  0.00     0.040 A 
ATOM     53  F   UNL A   1      48.576  26.865  24.736  1.00  0.00    -0.206 F 
ATOM     54  C   UNL A   1      51.551  25.575  26.345  1.00  0.00     0.006 A 
ENDBRANCH  26  47
BRANCH  38  55
ATOM     55  C   UNL A   1      46.107  32.369  29.258  1.00  0.00     0.057 A 
ATOM     56  C   UNL A   1      46.604  32.672  30.531  1.00  0.00     0.134 A 
ATOM     57  C   UNL A   1      46.208  33.361  28.272  1.00  0.00     0.134 A 
ATOM     58  F   UNL A   1      46.523  31.772  31.524  1.00  0.00    -0.206 F 
ATOM     59  C   UNL A   1      47.161  33.919  30.819  1.00  0.00     0.040 A 
ATOM     60  C   UNL A   1      46.791  34.600  28.540  1.00  0.00     0.040 A 
ATOM     61  F   UNL A   1      45.758  33.135  27.029  1.00  0.00    -0.206 F 
ATOM     62  C   UNL A   1      47.263  34.884  29.819  1.00  0.00     0.006 A 
ENDBRANCH  38  55
ENDBRANCH  12  13
ENDBRANCH   5   7
ENDBRANCH   2   3
ENDBRANCH   1   2
BRANCH   1  63
ATOM     63  C   UNL A   1      36.412  20.483  25.001  1.00  0.00     0.002 C 
BRANCH  63  64
ATOM     64  C   UNL A   1      36.515  22.012  24.924  1.00  0.00     0.002 C 
BRANCH  64  65
ATOM     65  C   UNL A   1      35.790  22.791  26.020  1.00  0.00     0.021 C 
BRANCH  65  66
ATOM     66  C   UNL A   1      34.799  21.983  26.845  1.00  0.00     0.116 C 
BRANCH  66  67
ATOM     67  N   UNL A   1      33.638  22.725  27.313  1.00  0.00    -0.351 N 
ATOM     68  C   UNL A   1      32.362  22.848  26.827  1.00  0.00     0.281 C 
ATOM     69  H   UNL A   1      33.800  23.239  28.138  1.00  0.00     0.163 HD
ATOM     70  O   UNL A   1      31.510  23.259  27.626  1.00  0.00    -0.268 OA
BRANCH  68  71
ATOM     71  C   UNL A   1      31.993  22.648  25.329  1.00  0.00     0.176 C 
ATOM     72  C   UNL A   1      32.146  21.135  25.007  1.00  0.00     0.079 C 
ATOM     73  N   UNL A   1      30.642  23.196  24.994  1.00  0.00    -0.333 N 
ATOM     74  C   UNL A   1      32.867  23.434  24.347  1.00  0.00     0.088 C 
ATOM     75  C   UNL A   1      32.532  20.849  23.549  1.00  0.00     0.008 C 
ATOM     76  C   UNL A   1      30.664  23.725  23.625  1.00  0.00     0.265 C 
ATOM     77  H   UNL A   1      30.406  23.944  25.646  1.00  0.00     0.347 HD
ATOM     78  H   UNL A   1      29.943  22.456  25.064  1.00  0.00     0.347 HD
ATOM     79  C   UNL A   1      32.012  23.300  23.078  1.00  0.00     0.051 C 
ATOM     80  C   UNL A   1      31.902  21.839  22.581  1.00  0.00     0.010 C 
ENDBRANCH  68  71
ENDBRANCH  66  67
ENDBRANCH  65  66
ENDBRANCH  64  65
ENDBRANCH  63  64
ENDBRANCH   1  63
TORSDOF 13
ENDMDL
