MODEL 1
REMARK VINA RESULT:     -12.3      0.000      0.000
REMARK SMILES Cc1c(CC(=O)NCCCCCCNC(=O)c2ccc(-c3c4nc(c(-c5c(F)cccc5F)c5ccc([nH]5)c(-c5c(F)cccc5F)c5nc(c(-c6c(F)cccc6F)c6ccc3[nH]6)C=C5)C=C4)cc2)c2cc(O)ccc2n1C(=O)c1ccc(Cl)cc1
REMARK SMILES IDX 10 1 9 2 8 3 7 4 5 5 6 6 4 8 3 9 1 10 2 11 78 12 71 13 77 14
REMARK SMILES IDX 72 15 76 16 73 17 75 18 79 19 80 20 81 21 82 22 87 23 83 24
REMARK SMILES IDX 86 25 84 26 85 27 74 28 11 30 12 31 13 32 14 33 15 34 16 36
REMARK SMILES IDX 17 37 18 38 70 39 19 40 69 41 20 42 21 43 22 44 63 45 23 46
REMARK SMILES IDX 68 47 62 48 64 49 24 50 67 51 61 52 60 53 25 55 51 56 34 57
REMARK SMILES IDX 50 58 35 59 38 60 49 61 65 62 36 63 37 64 48 66 66 67 39 68
REMARK SMILES IDX 26 69 27 70 32 71 28 72 29 73 31 74 33 75 30 76 52 77 53 78
REMARK SMILES IDX 58 79 54 80 55 81 57 82 59 83 56 84 40 85 41 86 46 87 42 88
REMARK SMILES IDX 43 89 45 90 47 91 44 92
REMARK H PARENT 7 7 74 29 14 35 64 54 38 65
REMARK Flexibility Score: inf
ROOT
ATOM      1  C   UNL A   1      41.213  21.804  26.774  1.00  0.00     0.002 C 
ENDROOT
BRANCH   1   2
ATOM      2  C   UNL A   1      39.697  21.707  26.569  1.00  0.00     0.021 C 
BRANCH   2   3
ATOM      3  C   UNL A   1      38.976  23.046  26.722  1.00  0.00     0.116 C 
BRANCH   3   4
ATOM      4  N   UNL A   1      38.370  23.458  25.473  1.00  0.00    -0.356 N 
ATOM      5  C   UNL A   1      37.046  23.521  25.147  1.00  0.00     0.224 C 
ATOM      6  O   UNL A   1      36.745  23.835  23.993  1.00  0.00    -0.275 OA
ATOM      7  H   UNL A   1      38.997  23.727  24.764  1.00  0.00     0.163 HD
BRANCH   5   8
ATOM      8  C   UNL A   1      35.985  23.290  26.210  1.00  0.00     0.138 C 
BRANCH   8   9
ATOM      9  C   UNL A   1      34.725  22.644  25.701  1.00  0.00    -0.009 A 
ATOM     10  C   UNL A   1      35.672  20.394  24.797  1.00  0.00     0.065 C 
ATOM     11  C   UNL A   1      34.602  21.397  25.098  1.00  0.00     0.028 A 
ATOM     12  N   UNL A   1      33.257  21.191  24.750  1.00  0.00    -0.280 N 
ATOM     13  C   UNL A   1      33.413  23.189  25.808  1.00  0.00     0.008 A 
ATOM     14  C   UNL A   1      32.512  22.251  25.292  1.00  0.00     0.057 A 
ATOM     15  C   UNL A   1      32.919  24.403  26.338  1.00  0.00     0.056 A 
ATOM     16  C   UNL A   1      31.122  22.483  25.388  1.00  0.00     0.031 A 
ATOM     17  C   UNL A   1      31.550  24.646  26.355  1.00  0.00     0.116 A 
ATOM     18  C   UNL A   1      30.655  23.696  25.902  1.00  0.00     0.048 A 
BRANCH  12  19
ATOM     19  C   UNL A   1      32.761  20.091  23.987  1.00  0.00     0.262 C 
ATOM     20  O   UNL A   1      32.160  20.310  22.944  1.00  0.00    -0.268 OA
BRANCH  19  21
ATOM     21  C   UNL A   1      32.913  18.669  24.349  1.00  0.00     0.040 A 
ATOM     22  C   UNL A   1      33.348  17.728  23.409  1.00  0.00     0.015 A 
ATOM     23  C   UNL A   1      32.600  18.285  25.658  1.00  0.00     0.015 A 
ATOM     24  C   UNL A   1      33.386  16.378  23.764  1.00  0.00     0.021 A 
ATOM     25  C   UNL A   1      32.646  16.936  26.008  1.00  0.00     0.021 A 
ATOM     26  C   UNL A   1      33.022  15.987  25.056  1.00  0.00     0.041 A 
ATOM     27  Cl  UNL A   1      33.015  14.317  25.471  1.00  0.00    -0.084 Cl
ENDBRANCH  19  21
ENDBRANCH  12  19
BRANCH  17  28
ATOM     28  O   UNL A   1      31.123  25.841  26.853  1.00  0.00    -0.508 OA
ATOM     29  H   UNL A   1      31.276  26.631  26.372  1.00  0.00     0.293 HD
ENDBRANCH  17  28
ENDBRANCH   8   9
ENDBRANCH   5   8
ENDBRANCH   3   4
ENDBRANCH   2   3
ENDBRANCH   1   2
BRANCH   1  30
ATOM     30  C   UNL A   1      41.807  20.734  27.695  1.00  0.00     0.002 C 
BRANCH  30  31
ATOM     31  C   UNL A   1      42.390  19.513  26.979  1.00  0.00     0.021 C 
BRANCH  31  32
ATOM     32  C   UNL A   1      42.438  19.639  25.454  1.00  0.00     0.116 C 
BRANCH  32  33
ATOM     33  N   UNL A   1      43.782  19.713  24.917  1.00  0.00    -0.352 N 
ATOM     34  C   UNL A   1      44.776  20.652  24.943  1.00  0.00     0.251 C 
ATOM     35  H   UNL A   1      44.038  18.902  24.421  1.00  0.00     0.163 HD
ATOM     36  O   UNL A   1      45.845  20.331  24.419  1.00  0.00    -0.269 OA
BRANCH  34  37
ATOM     37  C   UNL A   1      44.638  22.027  25.501  1.00  0.00     0.039 A 
ATOM     38  C   UNL A   1      45.162  22.463  26.717  1.00  0.00     0.014 A 
ATOM     39  C   UNL A   1      43.878  22.935  24.739  1.00  0.00     0.014 A 
ATOM     40  C   UNL A   1      44.845  23.720  27.214  1.00  0.00     0.010 A 
ATOM     41  C   UNL A   1      43.589  24.212  25.216  1.00  0.00     0.010 A 
ATOM     42  C   UNL A   1      44.032  24.585  26.481  1.00  0.00    -0.014 A 
BRANCH  42  43
ATOM     43  C   UNL A   1      43.723  25.876  27.088  1.00  0.00     0.031 A 
ATOM     44  C   UNL A   1      44.689  26.983  26.824  1.00  0.00     0.074 A 
ATOM     45  C   UNL A   1      42.605  26.115  27.799  1.00  0.00     0.049 A 
ATOM     46  N   UNL A   1      45.383  27.667  27.677  1.00  0.00    -0.248 NA
ATOM     47  C   UNL A   1      44.952  27.328  25.420  1.00  0.00     0.031 C 
ATOM     48  C   UNL A   1      41.418  25.269  27.938  1.00  0.00     0.029 A 
ATOM     49  N   UNL A   1      42.270  27.243  28.490  1.00  0.00    -0.354 N 
ATOM     50  C   UNL A   1      46.051  28.643  26.938  1.00  0.00     0.074 A 
ATOM     51  C   UNL A   1      45.828  28.326  25.549  1.00  0.00     0.031 C 
ATOM     52  C   UNL A   1      40.420  25.997  28.485  1.00  0.00     0.029 A 
ATOM     53  C   UNL A   1      40.936  27.304  28.856  1.00  0.00     0.049 A 
ATOM     54  H   UNL A   1      42.918  27.951  28.708  1.00  0.00     0.167 HD
ATOM     55  C   UNL A   1      46.602  29.747  27.515  1.00  0.00     0.037 A 
ATOM     56  C   UNL A   1      40.284  28.373  29.369  1.00  0.00     0.037 A 
ATOM     57  C   UNL A   1      46.825  29.565  28.924  1.00  0.00     0.049 A 
ATOM     58  C   UNL A   1      41.288  29.309  29.926  1.00  0.00     0.074 A 
ATOM     59  C   UNL A   1      47.575  28.699  29.695  1.00  0.00     0.029 A 
ATOM     60  N   UNL A   1      45.995  30.208  29.806  1.00  0.00    -0.354 N 
ATOM     61  N   UNL A   1      41.978  29.091  31.009  1.00  0.00    -0.248 NA
ATOM     62  C   UNL A   1      41.807  30.353  29.057  1.00  0.00     0.031 C 
ATOM     63  C   UNL A   1      46.821  28.514  30.890  1.00  0.00     0.029 A 
ATOM     64  C   UNL A   1      45.669  29.293  30.772  1.00  0.00     0.049 A 
ATOM     65  H   UNL A   1      45.692  31.142  29.755  1.00  0.00     0.167 HD
ATOM     66  C   UNL A   1      43.219  29.658  30.759  1.00  0.00     0.074 A 
ATOM     67  C   UNL A   1      43.016  30.518  29.599  1.00  0.00     0.031 C 
ATOM     68  C   UNL A   1      44.351  29.168  31.343  1.00  0.00     0.037 A 
BRANCH  55  69
ATOM     69  C   UNL A   1      46.644  31.113  26.873  1.00  0.00     0.057 A 
ATOM     70  C   UNL A   1      45.494  31.865  26.561  1.00  0.00     0.134 A 
ATOM     71  C   UNL A   1      47.854  31.833  26.847  1.00  0.00     0.134 A 
ATOM     72  F   UNL A   1      44.263  31.344  26.614  1.00  0.00    -0.206 F 
ATOM     73  C   UNL A   1      45.539  33.233  26.275  1.00  0.00     0.040 A 
ATOM     74  C   UNL A   1      47.904  33.213  26.612  1.00  0.00     0.040 A 
ATOM     75  F   UNL A   1      49.019  31.234  27.136  1.00  0.00    -0.206 F 
ATOM     76  C   UNL A   1      46.741  33.920  26.335  1.00  0.00     0.006 A 
ENDBRANCH  55  69
BRANCH  56  77
ATOM     77  C   UNL A   1      38.865  28.741  29.194  1.00  0.00     0.057 A 
ATOM     78  C   UNL A   1      38.407  29.334  28.004  1.00  0.00     0.134 A 
ATOM     79  C   UNL A   1      37.972  28.751  30.273  1.00  0.00     0.134 A 
ATOM     80  F   UNL A   1      39.212  29.461  26.938  1.00  0.00    -0.206 F 
ATOM     81  C   UNL A   1      37.135  29.898  27.890  1.00  0.00     0.040 A 
ATOM     82  C   UNL A   1      36.697  29.322  30.175  1.00  0.00     0.040 A 
ATOM     83  F   UNL A   1      38.336  28.252  31.463  1.00  0.00    -0.206 F 
ATOM     84  C   UNL A   1      36.278  29.904  28.982  1.00  0.00     0.006 A 
ENDBRANCH  56  77
BRANCH  68  85
ATOM     85  C   UNL A   1      44.187  28.191  32.470  1.00  0.00     0.057 A 
ATOM     86  C   UNL A   1      44.322  28.641  33.787  1.00  0.00     0.134 A 
ATOM     87  C   UNL A   1      44.034  26.810  32.281  1.00  0.00     0.134 A 
ATOM     88  F   UNL A   1      44.537  29.942  34.041  1.00  0.00    -0.206 F 
ATOM     89  C   UNL A   1      44.281  27.763  34.872  1.00  0.00     0.040 A 
ATOM     90  C   UNL A   1      43.959  25.924  33.359  1.00  0.00     0.040 A 
ATOM     91  F   UNL A   1      44.009  26.278  31.052  1.00  0.00    -0.206 F 
ATOM     92  C   UNL A   1      44.085  26.400  34.661  1.00  0.00     0.006 A 
ENDBRANCH  68  85
ENDBRANCH  42  43
ENDBRANCH  34  37
ENDBRANCH  32  33
ENDBRANCH  31  32
ENDBRANCH  30  31
ENDBRANCH   1  30
TORSDOF 17
ENDMDL
MODEL 2
REMARK VINA RESULT:     -12.3      2.765      7.671
REMARK SMILES Cc1c(CC(=O)NCCCCCCNC(=O)c2ccc(-c3c4nc(c(-c5c(F)cccc5F)c5ccc([nH]5)c(-c5c(F)cccc5F)c5nc(c(-c6c(F)cccc6F)c6ccc3[nH]6)C=C5)C=C4)cc2)c2cc(O)ccc2n1C(=O)c1ccc(Cl)cc1
REMARK SMILES IDX 10 1 9 2 8 3 7 4 5 5 6 6 4 8 3 9 1 10 2 11 78 12 71 13 77 14
REMARK SMILES IDX 72 15 76 16 73 17 75 18 79 19 80 20 81 21 82 22 87 23 83 24
REMARK SMILES IDX 86 25 84 26 85 27 74 28 11 30 12 31 13 32 14 33 15 34 16 36
REMARK SMILES IDX 17 37 18 38 70 39 19 40 69 41 20 42 21 43 22 44 63 45 23 46
REMARK SMILES IDX 68 47 62 48 64 49 24 50 67 51 61 52 60 53 25 55 51 56 34 57
REMARK SMILES IDX 50 58 35 59 38 60 49 61 65 62 36 63 37 64 48 66 66 67 39 68
REMARK SMILES IDX 26 69 27 70 32 71 28 72 29 73 31 74 33 75 30 76 52 77 53 78
REMARK SMILES IDX 58 79 54 80 55 81 57 82 59 83 56 84 40 85 41 86 46 87 42 88
REMARK SMILES IDX 43 89 45 90 47 91 44 92
REMARK H PARENT 7 7 74 29 14 35 64 54 38 65
REMARK Flexibility Score: inf
ROOT
ATOM      1  C   UNL A   1      31.683  28.474  25.108  1.00  0.00     0.002 C 
ENDROOT
BRANCH   1   2
ATOM      2  C   UNL A   1      31.795  26.946  25.054  1.00  0.00     0.021 C 
BRANCH   2   3
ATOM      3  C   UNL A   1      30.568  26.226  25.611  1.00  0.00     0.116 C 
BRANCH   3   4
ATOM      4  N   UNL A   1      30.945  25.252  26.613  1.00  0.00    -0.356 N 
ATOM      5  C   UNL A   1      31.277  23.938  26.444  1.00  0.00     0.224 C 
ATOM      6  O   UNL A   1      31.499  23.260  27.450  1.00  0.00    -0.275 OA
ATOM      7  H   UNL A   1      30.963  25.581  27.541  1.00  0.00     0.163 HD
BRANCH   5   8
ATOM      8  C   UNL A   1      31.444  23.365  25.047  1.00  0.00     0.138 C 
BRANCH   8   9
ATOM      9  C   UNL A   1      32.773  22.705  24.801  1.00  0.00    -0.009 A 
ATOM     10  C   UNL A   1      34.326  24.790  24.661  1.00  0.00     0.065 C 
ATOM     11  C   UNL A   1      34.006  23.326  24.639  1.00  0.00     0.028 A 
ATOM     12  N   UNL A   1      34.983  22.346  24.405  1.00  0.00    -0.280 N 
ATOM     13  C   UNL A   1      33.003  21.300  24.750  1.00  0.00     0.008 A 
ATOM     14  C   UNL A   1      34.377  21.092  24.585  1.00  0.00     0.057 A 
ATOM     15  C   UNL A   1      32.144  20.183  24.866  1.00  0.00     0.056 A 
ATOM     16  C   UNL A   1      34.901  19.781  24.628  1.00  0.00     0.031 A 
ATOM     17  C   UNL A   1      32.671  18.897  24.829  1.00  0.00     0.116 A 
ATOM     18  C   UNL A   1      34.033  18.690  24.728  1.00  0.00     0.048 A 
BRANCH  12  19
ATOM     19  C   UNL A   1      36.342  22.603  24.051  1.00  0.00     0.262 C 
ATOM     20  O   UNL A   1      36.605  22.971  22.914  1.00  0.00    -0.268 OA
BRANCH  19  21
ATOM     21  C   UNL A   1      37.496  22.462  24.958  1.00  0.00     0.040 A 
ATOM     22  C   UNL A   1      38.239  21.277  25.001  1.00  0.00     0.015 A 
ATOM     23  C   UNL A   1      37.822  23.544  25.784  1.00  0.00     0.015 A 
ATOM     24  C   UNL A   1      39.264  21.149  25.942  1.00  0.00     0.021 A 
ATOM     25  C   UNL A   1      38.850  23.411  26.717  1.00  0.00     0.021 A 
ATOM     26  C   UNL A   1      39.555  22.209  26.804  1.00  0.00     0.041 A 
ATOM     27  Cl  UNL A   1      40.779  22.026  27.999  1.00  0.00    -0.084 Cl
ENDBRANCH  19  21
ENDBRANCH  12  19
BRANCH  17  28
ATOM     28  O   UNL A   1      31.800  17.851  24.918  1.00  0.00    -0.508 OA
ATOM     29  H   UNL A   1      31.880  17.233  25.619  1.00  0.00     0.293 HD
ENDBRANCH  17  28
ENDBRANCH   8   9
ENDBRANCH   5   8
ENDBRANCH   3   4
ENDBRANCH   2   3
ENDBRANCH   1   2
BRANCH   1  30
ATOM     30  C   UNL A   1      32.954  29.196  25.568  1.00  0.00     0.002 C 
BRANCH  30  31
ATOM     31  C   UNL A   1      33.629  28.594  26.803  1.00  0.00     0.021 C 
BRANCH  31  32
ATOM     32  C   UNL A   1      35.036  29.133  27.078  1.00  0.00     0.116 C 
BRANCH  32  33
ATOM     33  N   UNL A   1      35.198  29.686  28.407  1.00  0.00    -0.352 N 
ATOM     34  C   UNL A   1      36.254  29.830  29.265  1.00  0.00     0.251 C 
ATOM     35  H   UNL A   1      34.357  30.039  28.778  1.00  0.00     0.163 HD
ATOM     36  O   UNL A   1      36.024  30.429  30.319  1.00  0.00    -0.269 OA
BRANCH  34  37
ATOM     37  C   UNL A   1      37.618  29.277  29.042  1.00  0.00     0.039 A 
ATOM     38  C   UNL A   1      38.301  28.430  29.913  1.00  0.00     0.014 A 
ATOM     39  C   UNL A   1      38.273  29.688  27.865  1.00  0.00     0.014 A 
ATOM     40  C   UNL A   1      39.629  28.095  29.681  1.00  0.00     0.010 A 
ATOM     41  C   UNL A   1      39.593  29.324  27.607  1.00  0.00     0.010 A 
ATOM     42  C   UNL A   1      40.287  28.567  28.546  1.00  0.00    -0.014 A 
BRANCH  42  43
ATOM     43  C   UNL A   1      41.690  28.194  28.392  1.00  0.00     0.031 A 
ATOM     44  C   UNL A   1      41.961  26.890  27.719  1.00  0.00     0.074 A 
ATOM     45  C   UNL A   1      42.715  28.983  28.763  1.00  0.00     0.049 A 
ATOM     46  N   UNL A   1      42.582  25.854  28.187  1.00  0.00    -0.248 NA
ATOM     47  C   UNL A   1      41.415  26.702  26.367  1.00  0.00     0.031 C 
ATOM     48  C   UNL A   1      42.677  30.388  29.175  1.00  0.00     0.029 A 
ATOM     49  N   UNL A   1      44.048  28.693  28.760  1.00  0.00    -0.354 N 
ATOM     50  C   UNL A   1      42.655  24.939  27.138  1.00  0.00     0.074 A 
ATOM     51  C   UNL A   1      41.836  25.470  26.077  1.00  0.00     0.031 C 
ATOM     52  C   UNL A   1      43.935  30.882  29.176  1.00  0.00     0.029 A 
ATOM     53  C   UNL A   1      44.867  29.801  28.899  1.00  0.00     0.049 A 
ATOM     54  H   UNL A   1      44.397  27.777  28.666  1.00  0.00     0.167 HD
ATOM     55  C   UNL A   1      43.520  23.887  27.145  1.00  0.00     0.037 A 
ATOM     56  C   UNL A   1      46.209  29.842  28.738  1.00  0.00     0.037 A 
ATOM     57  C   UNL A   1      43.974  23.570  28.472  1.00  0.00     0.049 A 
ATOM     58  C   UNL A   1      46.737  28.464  28.860  1.00  0.00     0.074 A 
ATOM     59  C   UNL A   1      43.368  23.173  29.648  1.00  0.00     0.029 A 
ATOM     60  N   UNL A   1      45.258  23.904  28.821  1.00  0.00    -0.354 N 
ATOM     61  N   UNL A   1      46.797  27.793  29.976  1.00  0.00    -0.248 NA
ATOM     62  C   UNL A   1      46.863  27.668  27.649  1.00  0.00     0.031 C 
ATOM     63  C   UNL A   1      44.152  23.756  30.687  1.00  0.00     0.029 A 
ATOM     64  C   UNL A   1      45.190  24.457  30.072  1.00  0.00     0.049 A 
ATOM     65  H   UNL A   1      46.068  23.773  28.279  1.00  0.00     0.167 HD
ATOM     66  C   UNL A   1      46.548  26.478  29.614  1.00  0.00     0.074 A 
ATOM     67  C   UNL A   1      46.715  26.446  28.164  1.00  0.00     0.031 C 
ATOM     68  C   UNL A   1      45.963  25.604  30.483  1.00  0.00     0.037 A 
BRANCH  55  69
ATOM     69  C   UNL A   1      44.211  23.344  25.917  1.00  0.00     0.057 A 
ATOM     70  C   UNL A   1      45.205  24.045  25.205  1.00  0.00     0.134 A 
ATOM     71  C   UNL A   1      44.115  21.972  25.614  1.00  0.00     0.134 A 
ATOM     72  F   UNL A   1      45.470  25.337  25.433  1.00  0.00    -0.206 F 
ATOM     73  C   UNL A   1      46.056  23.425  24.285  1.00  0.00     0.040 A 
ATOM     74  C   UNL A   1      44.995  21.332  24.733  1.00  0.00     0.040 A 
ATOM     75  F   UNL A   1      43.215  21.191  26.231  1.00  0.00    -0.206 F 
ATOM     76  C   UNL A   1      45.978  22.058  24.072  1.00  0.00     0.006 A 
ENDBRANCH  55  69
BRANCH  56  77
ATOM     77  C   UNL A   1      47.032  30.968  28.251  1.00  0.00     0.057 A 
ATOM     78  C   UNL A   1      47.725  31.803  29.145  1.00  0.00     0.134 A 
ATOM     79  C   UNL A   1      46.963  31.405  26.923  1.00  0.00     0.134 A 
ATOM     80  F   UNL A   1      47.774  31.527  30.457  1.00  0.00    -0.206 F 
ATOM     81  C   UNL A   1      48.320  33.000  28.742  1.00  0.00     0.040 A 
ATOM     82  C   UNL A   1      47.547  32.608  26.507  1.00  0.00     0.040 A 
ATOM     83  F   UNL A   1      46.282  30.700  26.007  1.00  0.00    -0.206 F 
ATOM     84  C   UNL A   1      48.223  33.414  27.420  1.00  0.00     0.006 A 
ENDBRANCH  56  77
BRANCH  68  85
ATOM     85  C   UNL A   1      45.855  26.018  31.921  1.00  0.00     0.057 A 
ATOM     86  C   UNL A   1      44.752  26.774  32.331  1.00  0.00     0.134 A 
ATOM     87  C   UNL A   1      46.868  25.804  32.866  1.00  0.00     0.134 A 
ATOM     88  F   UNL A   1      43.774  27.074  31.462  1.00  0.00    -0.206 F 
ATOM     89  C   UNL A   1      44.647  27.274  33.631  1.00  0.00     0.040 A 
ATOM     90  C   UNL A   1      46.760  26.270  34.179  1.00  0.00     0.040 A 
ATOM     91  F   UNL A   1      48.009  25.187  32.530  1.00  0.00    -0.206 F 
ATOM     92  C   UNL A   1      45.647  27.011  34.564  1.00  0.00     0.006 A 
ENDBRANCH  68  85
ENDBRANCH  42  43
ENDBRANCH  34  37
ENDBRANCH  32  33
ENDBRANCH  31  32
ENDBRANCH  30  31
ENDBRANCH   1  30
TORSDOF 17
ENDMDL
MODEL 3
REMARK VINA RESULT:     -12.1      2.880      8.338
REMARK SMILES Cc1c(CC(=O)NCCCCCCNC(=O)c2ccc(-c3c4nc(c(-c5c(F)cccc5F)c5ccc([nH]5)c(-c5c(F)cccc5F)c5nc(c(-c6c(F)cccc6F)c6ccc3[nH]6)C=C5)C=C4)cc2)c2cc(O)ccc2n1C(=O)c1ccc(Cl)cc1
REMARK SMILES IDX 10 1 9 2 8 3 7 4 5 5 6 6 4 8 3 9 1 10 2 11 78 12 71 13 77 14
REMARK SMILES IDX 72 15 76 16 73 17 75 18 79 19 80 20 81 21 82 22 87 23 83 24
REMARK SMILES IDX 86 25 84 26 85 27 74 28 11 30 12 31 13 32 14 33 15 34 16 36
REMARK SMILES IDX 17 37 18 38 70 39 19 40 69 41 20 42 21 43 22 44 63 45 23 46
REMARK SMILES IDX 68 47 62 48 64 49 24 50 67 51 61 52 60 53 25 55 51 56 34 57
REMARK SMILES IDX 50 58 35 59 38 60 49 61 65 62 36 63 37 64 48 66 66 67 39 68
REMARK SMILES IDX 26 69 27 70 32 71 28 72 29 73 31 74 33 75 30 76 52 77 53 78
REMARK SMILES IDX 58 79 54 80 55 81 57 82 59 83 56 84 40 85 41 86 46 87 42 88
REMARK SMILES IDX 43 89 45 90 47 91 44 92
REMARK H PARENT 7 7 74 29 14 35 64 54 38 65
REMARK Flexibility Score: inf
ROOT
ATOM      1  C   UNL A   1      31.028  28.236  24.949  1.00  0.00     0.002 C 
ENDROOT
BRANCH   1   2
ATOM      2  C   UNL A   1      31.325  27.110  25.947  1.00  0.00     0.021 C 
BRANCH   2   3
ATOM      3  C   UNL A   1      30.293  25.983  25.917  1.00  0.00     0.116 C 
BRANCH   3   4
ATOM      4  N   UNL A   1      30.669  24.908  26.811  1.00  0.00    -0.356 N 
ATOM      5  C   UNL A   1      31.088  23.647  26.499  1.00  0.00     0.224 C 
ATOM      6  O   UNL A   1      31.292  22.856  27.423  1.00  0.00    -0.275 OA
ATOM      7  H   UNL A   1      30.614  25.114  27.772  1.00  0.00     0.163 HD
BRANCH   5   8
ATOM      8  C   UNL A   1      31.370  23.269  25.055  1.00  0.00     0.138 C 
BRANCH   8   9
ATOM      9  C   UNL A   1      32.723  22.654  24.826  1.00  0.00    -0.009 A 
ATOM     10  C   UNL A   1      34.219  24.784  24.789  1.00  0.00     0.065 C 
ATOM     11  C   UNL A   1      33.942  23.313  24.716  1.00  0.00     0.028 A 
ATOM     12  N   UNL A   1      34.952  22.368  24.480  1.00  0.00    -0.280 N 
ATOM     13  C   UNL A   1      32.994  21.257  24.741  1.00  0.00     0.008 A 
ATOM     14  C   UNL A   1      34.377  21.093  24.607  1.00  0.00     0.057 A 
ATOM     15  C   UNL A   1      32.164  20.114  24.800  1.00  0.00     0.056 A 
ATOM     16  C   UNL A   1      34.937  19.796  24.626  1.00  0.00     0.031 A 
ATOM     17  C   UNL A   1      32.729  18.845  24.740  1.00  0.00     0.116 A 
ATOM     18  C   UNL A   1      34.098  18.679  24.670  1.00  0.00     0.048 A 
BRANCH  12  19
ATOM     19  C   UNL A   1      36.313  22.673  24.171  1.00  0.00     0.262 C 
ATOM     20  O   UNL A   1      36.613  22.971  23.023  1.00  0.00    -0.268 OA
BRANCH  19  21
ATOM     21  C   UNL A   1      37.425  22.662  25.139  1.00  0.00     0.040 A 
ATOM     22  C   UNL A   1      37.730  23.795  25.900  1.00  0.00     0.015 A 
ATOM     23  C   UNL A   1      38.176  21.488  25.267  1.00  0.00     0.015 A 
ATOM     24  C   UNL A   1      38.850  23.776  26.734  1.00  0.00     0.021 A 
ATOM     25  C   UNL A   1      39.290  21.473  26.106  1.00  0.00     0.021 A 
ATOM     26  C   UNL A   1      39.632  22.621  26.823  1.00  0.00     0.041 A 
ATOM     27  Cl  UNL A   1      41.043  22.621  27.807  1.00  0.00    -0.084 Cl
ENDBRANCH  19  21
ENDBRANCH  12  19
BRANCH  17  28
ATOM     28  O   UNL A   1      31.886  17.773  24.775  1.00  0.00    -0.508 OA
ATOM     29  H   UNL A   1      32.002  17.065  24.172  1.00  0.00     0.293 HD
ENDBRANCH  17  28
ENDBRANCH   8   9
ENDBRANCH   5   8
ENDBRANCH   3   4
ENDBRANCH   2   3
ENDBRANCH   1   2
BRANCH   1  30
ATOM     30  C   UNL A   1      31.637  29.594  25.311  1.00  0.00     0.002 C 
BRANCH  30  31
ATOM     31  C   UNL A   1      31.815  29.844  26.811  1.00  0.00     0.021 C 
BRANCH  31  32
ATOM     32  C   UNL A   1      33.269  30.031  27.252  1.00  0.00     0.116 C 
BRANCH  32  33
ATOM     33  N   UNL A   1      33.662  31.419  27.390  1.00  0.00    -0.352 N 
ATOM     34  C   UNL A   1      34.821  32.060  27.734  1.00  0.00     0.251 C 
ATOM     35  H   UNL A   1      32.927  32.044  27.192  1.00  0.00     0.163 HD
ATOM     36  O   UNL A   1      34.801  33.292  27.678  1.00  0.00    -0.269 OA
BRANCH  34  37
ATOM     37  C   UNL A   1      36.059  31.386  28.213  1.00  0.00     0.039 A 
ATOM     38  C   UNL A   1      37.013  31.951  29.059  1.00  0.00     0.014 A 
ATOM     39  C   UNL A   1      36.288  30.084  27.728  1.00  0.00     0.014 A 
ATOM     40  C   UNL A   1      38.207  31.292  29.321  1.00  0.00     0.010 A 
ATOM     41  C   UNL A   1      37.468  29.402  28.019  1.00  0.00     0.010 A 
ATOM     42  C   UNL A   1      38.451  30.031  28.777  1.00  0.00    -0.014 A 
BRANCH  42  43
ATOM     43  C   UNL A   1      39.742  29.420  29.077  1.00  0.00     0.031 A 
ATOM     44  C   UNL A   1      40.018  29.121  30.513  1.00  0.00     0.074 A 
ATOM     45  C   UNL A   1      40.637  29.070  28.135  1.00  0.00     0.049 A 
ATOM     46  N   UNL A   1      40.975  29.570  31.261  1.00  0.00    -0.248 NA
ATOM     47  C   UNL A   1      39.065  28.250  31.216  1.00  0.00     0.031 C 
ATOM     48  C   UNL A   1      40.453  29.018  26.683  1.00  0.00     0.029 A 
ATOM     49  N   UNL A   1      41.903  28.592  28.308  1.00  0.00    -0.354 N 
ATOM     50  C   UNL A   1      40.849  28.916  32.486  1.00  0.00     0.074 A 
ATOM     51  C   UNL A   1      39.603  28.193  32.435  1.00  0.00     0.031 C 
ATOM     52  C   UNL A   1      41.485  28.340  26.132  1.00  0.00     0.029 A 
ATOM     53  C   UNL A   1      42.457  28.035  27.169  1.00  0.00     0.049 A 
ATOM     54  H   UNL A   1      42.380  28.639  29.168  1.00  0.00     0.167 HD
ATOM     55  C   UNL A   1      41.860  28.873  33.398  1.00  0.00     0.037 A 
ATOM     56  C   UNL A   1      43.602  27.319  27.090  1.00  0.00     0.037 A 
ATOM     57  C   UNL A   1      42.829  29.912  33.180  1.00  0.00     0.049 A 
ATOM     58  C   UNL A   1      44.420  27.614  28.289  1.00  0.00     0.074 A 
ATOM     59  C   UNL A   1      42.802  31.293  33.169  1.00  0.00     0.029 A 
ATOM     60  N   UNL A   1      44.047  29.570  32.650  1.00  0.00    -0.354 N 
ATOM     61  N   UNL A   1      45.031  28.745  28.505  1.00  0.00    -0.248 NA
ATOM     62  C   UNL A   1      44.257  26.763  29.457  1.00  0.00     0.031 C 
ATOM     63  C   UNL A   1      43.768  31.677  32.194  1.00  0.00     0.029 A 
ATOM     64  C   UNL A   1      44.330  30.504  31.689  1.00  0.00     0.049 A 
ATOM     65  H   UNL A   1      44.607  28.804  32.908  1.00  0.00     0.167 HD
ATOM     66  C   UNL A   1      44.954  28.933  29.877  1.00  0.00     0.074 A 
ATOM     67  C   UNL A   1      44.576  27.632  30.418  1.00  0.00     0.031 C 
ATOM     68  C   UNL A   1      44.934  30.186  30.418  1.00  0.00     0.037 A 
BRANCH  55  69
ATOM     69  C   UNL A   1      42.146  27.693  34.296  1.00  0.00     0.057 A 
ATOM     70  C   UNL A   1      42.935  26.591  33.910  1.00  0.00     0.134 A 
ATOM     71  C   UNL A   1      41.896  27.793  35.679  1.00  0.00     0.134 A 
ATOM     72  F   UNL A   1      43.322  26.397  32.644  1.00  0.00    -0.206 F 
ATOM     73  C   UNL A   1      43.458  25.676  34.830  1.00  0.00     0.040 A 
ATOM     74  C   UNL A   1      42.457  26.913  36.612  1.00  0.00     0.040 A 
ATOM     75  F   UNL A   1      41.166  28.804  36.175  1.00  0.00    -0.206 F 
ATOM     76  C   UNL A   1      43.251  25.855  36.188  1.00  0.00     0.006 A 
ENDBRANCH  55  69
BRANCH  56  77
ATOM     77  C   UNL A   1      43.924  26.218  26.160  1.00  0.00     0.057 A 
ATOM     78  C   UNL A   1      43.029  25.153  25.956  1.00  0.00     0.134 A 
ATOM     79  C   UNL A   1      45.212  26.053  25.638  1.00  0.00     0.134 A 
ATOM     80  F   UNL A   1      41.799  25.167  26.492  1.00  0.00    -0.206 F 
ATOM     81  C   UNL A   1      43.391  23.993  25.268  1.00  0.00     0.040 A 
ATOM     82  C   UNL A   1      45.591  24.891  24.954  1.00  0.00     0.040 A 
ATOM     83  F   UNL A   1      46.149  26.993  25.824  1.00  0.00    -0.206 F 
ATOM     84  C   UNL A   1      44.680  23.853  24.773  1.00  0.00     0.006 A 
ENDBRANCH  56  77
BRANCH  68  85
ATOM     85  C   UNL A   1      45.280  31.339  29.522  1.00  0.00     0.057 A 
ATOM     86  C   UNL A   1      44.280  31.903  28.723  1.00  0.00     0.134 A 
ATOM     87  C   UNL A   1      46.587  31.808  29.335  1.00  0.00     0.134 A 
ATOM     88  F   UNL A   1      43.017  31.458  28.800  1.00  0.00    -0.206 F 
ATOM     89  C   UNL A   1      44.562  32.909  27.795  1.00  0.00     0.040 A 
ATOM     90  C   UNL A   1      46.877  32.837  28.434  1.00  0.00     0.040 A 
ATOM     91  F   UNL A   1      47.622  31.249  29.976  1.00  0.00    -0.206 F 
ATOM     92  C   UNL A   1      45.863  33.389  27.658  1.00  0.00     0.006 A 
ENDBRANCH  68  85
ENDBRANCH  42  43
ENDBRANCH  34  37
ENDBRANCH  32  33
ENDBRANCH  31  32
ENDBRANCH  30  31
ENDBRANCH   1  30
TORSDOF 17
ENDMDL
