MODEL 1
REMARK VINA RESULT:     -11.7      0.000      0.000
REMARK SMILES O=C(C[C@@H]1C(=O)NCC[N@@H+]1Cc1ccc(F)c(F)c1)NCCCCCCNC(=O)c1ccc(-c2c3nc(c(-c4c(F)cccc4F)c4ccc([nH]4)c(-c4c(F)cccc4F)c4nc(c(-c5c(F)cccc5F)c5ccc2[nH]5)C=C4)C=C3)cc1
REMARK SMILES IDX 23 1 22 2 21 3 20 4 1 5 2 6 3 8 4 9 5 10 10 11 6 12 7 13
REMARK SMILES IDX 9 14 8 16 11 18 12 19 13 20 19 21 14 22 17 23 15 24 18 25
REMARK SMILES IDX 16 26 24 27 25 28 26 29 27 30 28 31 29 33 30 34 31 35 83 36
REMARK SMILES IDX 32 37 82 38 33 39 34 40 35 41 76 42 36 43 81 44 75 45 77 46
REMARK SMILES IDX 37 47 80 48 74 49 73 50 38 52 64 53 47 54 63 55 48 56 51 57
REMARK SMILES IDX 62 58 78 59 49 60 50 61 61 63 79 64 52 65 39 66 40 67 45 68
REMARK SMILES IDX 41 69 42 70 44 71 46 72 43 73 65 74 66 75 71 76 67 77 68 78
REMARK SMILES IDX 70 79 72 80 69 81 53 82 54 83 59 84 55 85 56 86 58 87 60 88
REMARK SMILES IDX 57 89
REMARK H PARENT 20 7 10 15 7 17 27 32 77 51 51 62
REMARK Flexibility Score: inf
ROOT
ATOM      1  C   UNL A   1      35.531  20.963  25.312  1.00  0.00     0.002 C 
ENDROOT
BRANCH   1   2
ATOM      2  C   UNL A   1      34.515  19.910  24.849  1.00  0.00     0.021 C 
BRANCH   2   3
ATOM      3  C   UNL A   1      33.117  20.468  24.581  1.00  0.00     0.116 C 
BRANCH   3   4
ATOM      4  N   UNL A   1      33.203  21.831  24.101  1.00  0.00    -0.356 N 
ATOM      5  O   UNL A   1      32.099  21.423  22.138  1.00  0.00    -0.275 OA
ATOM      6  C   UNL A   1      32.707  22.196  22.874  1.00  0.00     0.226 C 
ATOM      7  H   UNL A   1      33.626  22.514  24.669  1.00  0.00     0.163 HD
BRANCH   6   8
ATOM      8  C   UNL A   1      33.132  23.563  22.387  1.00  0.00     0.175 C 
BRANCH   8   9
ATOM      9  C   UNL A   1      32.082  24.675  22.396  1.00  0.00     0.283 C 
ATOM     10  C   UNL A   1      32.418  25.882  21.496  1.00  0.00     0.279 C 
ATOM     11  N   UNL A   1      31.683  25.087  23.772  1.00  0.00    -0.319 N 
ATOM     12  O   UNL A   1      33.230  25.842  20.576  1.00  0.00    -0.268 OA
ATOM     13  N   UNL A   1      31.653  27.008  21.657  1.00  0.00    -0.345 N 
ATOM     14  C   UNL A   1      30.584  26.059  23.725  1.00  0.00     0.284 C 
ATOM     15  H   UNL A   1      31.327  24.234  24.201  1.00  0.00     0.349 HD
ATOM     16  C   UNL A   1      30.796  27.263  22.794  1.00  0.00     0.177 C 
ATOM     17  H   UNL A   1      31.689  27.692  20.949  1.00  0.00     0.163 HD
BRANCH  11  18
ATOM     18  C   UNL A   1      32.745  25.366  24.750  1.00  0.00     0.299 C 
BRANCH  18  19
ATOM     19  C   UNL A   1      32.716  26.697  25.467  1.00  0.00     0.009 A 
ATOM     20  C   UNL A   1      33.616  27.716  25.115  1.00  0.00     0.013 A 
ATOM     21  C   UNL A   1      31.795  26.952  26.498  1.00  0.00     0.052 A 
ATOM     22  C   UNL A   1      33.671  28.907  25.844  1.00  0.00     0.043 A 
ATOM     23  C   UNL A   1      31.850  28.143  27.217  1.00  0.00     0.159 A 
ATOM     24  C   UNL A   1      32.797  29.105  26.905  1.00  0.00     0.158 A 
ATOM     25  F   UNL A   1      30.977  28.349  28.212  1.00  0.00    -0.204 F 
ATOM     26  F   UNL A   1      32.872  30.237  27.617  1.00  0.00    -0.204 F 
ENDBRANCH  18  19
ENDBRANCH  11  18
ENDBRANCH   8   9
ENDBRANCH   6   8
ENDBRANCH   3   4
ENDBRANCH   2   3
ENDBRANCH   1   2
BRANCH   1  27
ATOM     27  C   UNL A   1      36.858  20.962  24.548  1.00  0.00     0.002 C 
BRANCH  27  28
ATOM     28  C   UNL A   1      37.824  19.842  24.936  1.00  0.00     0.021 C 
BRANCH  28  29
ATOM     29  C   UNL A   1      38.977  20.283  25.830  1.00  0.00     0.116 C 
BRANCH  29  30
ATOM     30  N   UNL A   1      40.079  19.332  25.816  1.00  0.00    -0.352 N 
ATOM     31  C   UNL A   1      41.412  19.546  26.059  1.00  0.00     0.251 C 
ATOM     32  H   UNL A   1      39.833  18.403  25.601  1.00  0.00     0.163 HD
ATOM     33  O   UNL A   1      42.235  18.666  25.823  1.00  0.00    -0.269 OA
BRANCH  31  34
ATOM     34  C   UNL A   1      41.861  20.853  26.584  1.00  0.00     0.039 A 
ATOM     35  C   UNL A   1      42.319  21.821  25.686  1.00  0.00     0.014 A 
ATOM     36  C   UNL A   1      41.819  21.128  27.953  1.00  0.00     0.014 A 
ATOM     37  C   UNL A   1      42.669  23.088  26.157  1.00  0.00     0.010 A 
ATOM     38  C   UNL A   1      42.093  22.413  28.410  1.00  0.00     0.010 A 
ATOM     39  C   UNL A   1      42.521  23.407  27.517  1.00  0.00    -0.014 A 
BRANCH  39  40
ATOM     40  C   UNL A   1      42.796  24.777  28.021  1.00  0.00     0.031 A 
ATOM     41  C   UNL A   1      44.190  25.171  28.426  1.00  0.00     0.074 A 
ATOM     42  C   UNL A   1      41.778  25.647  28.174  1.00  0.00     0.049 A 
ATOM     43  N   UNL A   1      44.613  26.293  28.951  1.00  0.00    -0.248 NA
ATOM     44  C   UNL A   1      45.244  24.162  28.239  1.00  0.00     0.031 C 
ATOM     45  C   UNL A   1      40.376  25.373  27.859  1.00  0.00     0.029 A 
ATOM     46  N   UNL A   1      41.766  26.936  28.646  1.00  0.00    -0.354 N 
ATOM     47  C   UNL A   1      45.973  26.121  29.165  1.00  0.00     0.074 A 
ATOM     48  C   UNL A   1      46.297  24.769  28.766  1.00  0.00     0.031 C 
ATOM     49  C   UNL A   1      39.643  26.467  28.120  1.00  0.00     0.029 A 
ATOM     50  C   UNL A   1      40.514  27.504  28.665  1.00  0.00     0.049 A 
ATOM     51  H   UNL A   1      42.576  27.409  28.942  1.00  0.00     0.167 HD
ATOM     52  C   UNL A   1      46.878  27.017  29.629  1.00  0.00     0.037 A 
ATOM     53  C   UNL A   1      40.112  28.718  29.084  1.00  0.00     0.037 A 
ATOM     54  C   UNL A   1      46.555  28.367  30.012  1.00  0.00     0.049 A 
ATOM     55  C   UNL A   1      41.131  29.683  29.626  1.00  0.00     0.074 A 
ATOM     56  C   UNL A   1      47.409  29.366  30.447  1.00  0.00     0.029 A 
ATOM     57  N   UNL A   1      45.277  28.905  30.016  1.00  0.00    -0.354 N 
ATOM     58  N   UNL A   1      42.426  29.532  29.758  1.00  0.00    -0.248 NA
ATOM     59  C   UNL A   1      40.632  30.992  30.072  1.00  0.00     0.031 C 
ATOM     60  C   UNL A   1      46.641  30.491  30.764  1.00  0.00     0.029 A 
ATOM     61  C   UNL A   1      45.316  30.214  30.470  1.00  0.00     0.049 A 
ATOM     62  H   UNL A   1      44.462  28.428  29.736  1.00  0.00     0.167 HD
ATOM     63  C   UNL A   1      42.900  30.732  30.272  1.00  0.00     0.074 A 
ATOM     64  C   UNL A   1      41.756  31.607  30.413  1.00  0.00     0.031 C 
ATOM     65  C   UNL A   1      44.170  31.077  30.597  1.00  0.00     0.037 A 
BRANCH  52  66
ATOM     66  C   UNL A   1      48.305  26.565  29.748  1.00  0.00     0.057 A 
ATOM     67  C   UNL A   1      48.769  25.866  30.871  1.00  0.00     0.134 A 
ATOM     68  C   UNL A   1      49.217  26.793  28.710  1.00  0.00     0.134 A 
ATOM     69  F   UNL A   1      47.951  25.622  31.906  1.00  0.00    -0.206 F 
ATOM     70  C   UNL A   1      50.092  25.434  30.969  1.00  0.00     0.040 A 
ATOM     71  C   UNL A   1      50.536  26.340  28.783  1.00  0.00     0.040 A 
ATOM     72  F   UNL A   1      48.839  27.449  27.602  1.00  0.00    -0.206 F 
ATOM     73  C   UNL A   1      50.979  25.664  29.918  1.00  0.00     0.006 A 
ENDBRANCH  52  66
BRANCH  53  74
ATOM     74  C   UNL A   1      38.679  29.101  28.998  1.00  0.00     0.057 A 
ATOM     75  C   UNL A   1      38.130  29.579  27.802  1.00  0.00     0.134 A 
ATOM     76  C   UNL A   1      37.828  29.012  30.106  1.00  0.00     0.134 A 
ATOM     77  F   UNL A   1      38.898  29.704  26.710  1.00  0.00    -0.206 F 
ATOM     78  C   UNL A   1      36.795  29.978  27.717  1.00  0.00     0.040 A 
ATOM     79  C   UNL A   1      36.485  29.381  30.029  1.00  0.00     0.040 A 
ATOM     80  F   UNL A   1      38.289  28.556  31.279  1.00  0.00    -0.206 F 
ATOM     81  C   UNL A   1      35.967  29.874  28.832  1.00  0.00     0.006 A 
ENDBRANCH  53  74
BRANCH  65  82
ATOM     82  C   UNL A   1      44.397  32.474  31.099  1.00  0.00     0.057 A 
ATOM     83  C   UNL A   1      44.387  32.785  32.464  1.00  0.00     0.134 A 
ATOM     84  C   UNL A   1      44.673  33.515  30.201  1.00  0.00     0.134 A 
ATOM     85  F   UNL A   1      44.118  31.838  33.375  1.00  0.00    -0.206 F 
ATOM     86  C   UNL A   1      44.619  34.084  32.918  1.00  0.00     0.040 A 
ATOM     87  C   UNL A   1      44.937  34.812  30.645  1.00  0.00     0.040 A 
ATOM     88  F   UNL A   1      44.707  33.286  28.880  1.00  0.00    -0.206 F 
ATOM     89  C   UNL A   1      44.904  35.101  32.008  1.00  0.00     0.006 A 
ENDBRANCH  65  82
ENDBRANCH  39  40
ENDBRANCH  31  34
ENDBRANCH  29  30
ENDBRANCH  28  29
ENDBRANCH  27  28
ENDBRANCH   1  27
TORSDOF 16
ENDMDL
MODEL 2
REMARK VINA RESULT:     -11.7      3.346      5.137
REMARK SMILES O=C(C[C@@H]1C(=O)NCC[N@@H+]1Cc1ccc(F)c(F)c1)NCCCCCCNC(=O)c1ccc(-c2c3nc(c(-c4c(F)cccc4F)c4ccc([nH]4)c(-c4c(F)cccc4F)c4nc(c(-c5c(F)cccc5F)c5ccc2[nH]5)C=C4)C=C3)cc1
REMARK SMILES IDX 23 1 22 2 21 3 20 4 1 5 2 6 3 8 4 9 5 10 10 11 6 12 7 13
REMARK SMILES IDX 9 14 8 16 11 18 12 19 13 20 19 21 14 22 17 23 15 24 18 25
REMARK SMILES IDX 16 26 24 27 25 28 26 29 27 30 28 31 29 33 30 34 31 35 83 36
REMARK SMILES IDX 32 37 82 38 33 39 34 40 35 41 76 42 36 43 81 44 75 45 77 46
REMARK SMILES IDX 37 47 80 48 74 49 73 50 38 52 64 53 47 54 63 55 48 56 51 57
REMARK SMILES IDX 62 58 78 59 49 60 50 61 61 63 79 64 52 65 39 66 40 67 45 68
REMARK SMILES IDX 41 69 42 70 44 71 46 72 43 73 65 74 66 75 71 76 67 77 68 78
REMARK SMILES IDX 70 79 72 80 69 81 53 82 54 83 59 84 55 85 56 86 58 87 60 88
REMARK SMILES IDX 57 89
REMARK H PARENT 20 7 10 15 7 17 27 32 77 51 51 62
REMARK Flexibility Score: inf
ROOT
ATOM      1  C   UNL A   1      41.580  21.588  26.795  1.00  0.00     0.002 C 
ENDROOT
BRANCH   1   2
ATOM      2  C   UNL A   1      40.249  22.348  26.718  1.00  0.00     0.021 C 
BRANCH   2   3
ATOM      3  C   UNL A   1      39.188  21.663  25.857  1.00  0.00     0.116 C 
BRANCH   3   4
ATOM      4  N   UNL A   1      37.878  22.207  26.144  1.00  0.00    -0.356 N 
ATOM      5  O   UNL A   1      36.920  21.459  24.205  1.00  0.00    -0.275 OA
ATOM      6  C   UNL A   1      36.838  22.089  25.257  1.00  0.00     0.226 C 
ATOM      7  H   UNL A   1      37.729  22.673  26.999  1.00  0.00     0.163 HD
BRANCH   6   8
ATOM      8  C   UNL A   1      35.634  22.956  25.554  1.00  0.00     0.175 C 
BRANCH   8   9
ATOM      9  C   UNL A   1      34.916  23.599  24.367  1.00  0.00     0.283 C 
ATOM     10  C   UNL A   1      34.153  24.896  24.706  1.00  0.00     0.279 C 
ATOM     11  N   UNL A   1      34.079  22.633  23.600  1.00  0.00    -0.319 N 
ATOM     12  O   UNL A   1      34.372  25.576  25.704  1.00  0.00    -0.268 OA
ATOM     13  N   UNL A   1      33.288  25.374  23.755  1.00  0.00    -0.345 N 
ATOM     14  C   UNL A   1      33.519  23.268  22.401  1.00  0.00     0.284 C 
ATOM     15  H   UNL A   1      34.734  21.914  23.294  1.00  0.00     0.349 HD
ATOM     16  C   UNL A   1      32.802  24.608  22.628  1.00  0.00     0.177 C 
ATOM     17  H   UNL A   1      32.976  26.304  23.845  1.00  0.00     0.163 HD
BRANCH  11  18
ATOM     18  C   UNL A   1      33.166  21.756  24.348  1.00  0.00     0.299 C 
BRANCH  18  19
ATOM     19  C   UNL A   1      33.254  20.266  24.103  1.00  0.00     0.009 A 
ATOM     20  C   UNL A   1      34.191  19.484  24.799  1.00  0.00     0.013 A 
ATOM     21  C   UNL A   1      32.410  19.626  23.180  1.00  0.00     0.052 A 
ATOM     22  C   UNL A   1      34.356  18.129  24.499  1.00  0.00     0.043 A 
ATOM     23  C   UNL A   1      32.573  18.274  22.890  1.00  0.00     0.159 A 
ATOM     24  C   UNL A   1      33.556  17.537  23.531  1.00  0.00     0.158 A 
ATOM     25  F   UNL A   1      31.772  17.695  21.987  1.00  0.00    -0.204 F 
ATOM     26  F   UNL A   1      33.736  16.243  23.229  1.00  0.00    -0.204 F 
ENDBRANCH  18  19
ENDBRANCH  11  18
ENDBRANCH   8   9
ENDBRANCH   6   8
ENDBRANCH   3   4
ENDBRANCH   2   3
ENDBRANCH   1   2
BRANCH   1  27
ATOM     27  C   UNL A   1      41.451  20.066  26.910  1.00  0.00     0.002 C 
BRANCH  27  28
ATOM     28  C   UNL A   1      42.065  19.279  25.752  1.00  0.00     0.021 C 
BRANCH  28  29
ATOM     29  C   UNL A   1      43.388  18.596  26.082  1.00  0.00     0.116 C 
BRANCH  29  30
ATOM     30  N   UNL A   1      44.247  18.467  24.914  1.00  0.00    -0.352 N 
ATOM     31  C   UNL A   1      44.862  19.448  24.178  1.00  0.00     0.251 C 
ATOM     32  H   UNL A   1      44.409  17.545  24.609  1.00  0.00     0.163 HD
ATOM     33  O   UNL A   1      45.403  19.175  23.110  1.00  0.00    -0.269 OA
BRANCH  31  34
ATOM     34  C   UNL A   1      44.850  20.844  24.663  1.00  0.00     0.039 A 
ATOM     35  C   UNL A   1      45.298  21.115  25.958  1.00  0.00     0.014 A 
ATOM     36  C   UNL A   1      44.411  21.884  23.839  1.00  0.00     0.014 A 
ATOM     37  C   UNL A   1      45.369  22.436  26.402  1.00  0.00     0.010 A 
ATOM     38  C   UNL A   1      44.557  23.204  24.254  1.00  0.00     0.010 A 
ATOM     39  C   UNL A   1      45.037  23.495  25.539  1.00  0.00    -0.014 A 
BRANCH  39  40
ATOM     40  C   UNL A   1      45.199  24.910  25.960  1.00  0.00     0.031 A 
ATOM     41  C   UNL A   1      46.549  25.568  25.904  1.00  0.00     0.074 A 
ATOM     42  C   UNL A   1      44.140  25.583  26.453  1.00  0.00     0.049 A 
ATOM     43  N   UNL A   1      46.901  26.769  26.292  1.00  0.00    -0.248 NA
ATOM     44  C   UNL A   1      47.657  24.765  25.365  1.00  0.00     0.031 C 
ATOM     45  C   UNL A   1      42.787  25.044  26.599  1.00  0.00     0.029 A 
ATOM     46  N   UNL A   1      44.039  26.865  26.933  1.00  0.00    -0.354 N 
ATOM     47  C   UNL A   1      48.266  26.858  26.053  1.00  0.00     0.074 A 
ATOM     48  C   UNL A   1      48.690  25.574  25.539  1.00  0.00     0.031 C 
ATOM     49  C   UNL A   1      41.987  25.994  27.107  1.00  0.00     0.029 A 
ATOM     50  C   UNL A   1      42.777  27.193  27.367  1.00  0.00     0.049 A 
ATOM     51  H   UNL A   1      44.799  27.490  26.964  1.00  0.00     0.167 HD
ATOM     52  C   UNL A   1      49.087  27.922  26.223  1.00  0.00     0.037 A 
ATOM     53  C   UNL A   1      42.311  28.328  27.922  1.00  0.00     0.037 A 
ATOM     54  C   UNL A   1      48.659  29.203  26.721  1.00  0.00     0.049 A 
ATOM     55  C   UNL A   1      43.251  29.484  28.129  1.00  0.00     0.074 A 
ATOM     56  C   UNL A   1      49.405  30.358  26.881  1.00  0.00     0.029 A 
ATOM     57  N   UNL A   1      47.372  29.496  27.148  1.00  0.00    -0.354 N 
ATOM     58  N   UNL A   1      44.525  29.578  27.835  1.00  0.00    -0.248 NA
ATOM     59  C   UNL A   1      42.687  30.695  28.743  1.00  0.00     0.031 C 
ATOM     60  C   UNL A   1      48.583  31.334  27.454  1.00  0.00     0.029 A 
ATOM     61  C   UNL A   1      47.310  30.807  27.596  1.00  0.00     0.049 A 
ATOM     62  H   UNL A   1      46.615  28.868  27.134  1.00  0.00     0.167 HD
ATOM     63  C   UNL A   1      44.906  30.864  28.197  1.00  0.00     0.074 A 
ATOM     64  C   UNL A   1      43.725  31.518  28.719  1.00  0.00     0.031 C 
ATOM     65  C   UNL A   1      46.125  31.449  28.105  1.00  0.00     0.037 A 
BRANCH  52  66
ATOM     66  C   UNL A   1      50.535  27.745  25.866  1.00  0.00     0.057 A 
ATOM     67  C   UNL A   1      50.999  27.905  24.553  1.00  0.00     0.134 A 
ATOM     68  C   UNL A   1      51.485  27.452  26.853  1.00  0.00     0.134 A 
ATOM     69  F   UNL A   1      50.142  28.176  23.558  1.00  0.00    -0.206 F 
ATOM     70  C   UNL A   1      52.348  27.754  24.231  1.00  0.00     0.040 A 
ATOM     71  C   UNL A   1      52.842  27.327  26.548  1.00  0.00     0.040 A 
ATOM     72  F   UNL A   1      51.112  27.293  28.132  1.00  0.00    -0.206 F 
ATOM     73  C   UNL A   1      53.276  27.471  25.232  1.00  0.00     0.006 A 
ENDBRANCH  52  66
BRANCH  53  74
ATOM     74  C   UNL A   1      40.881  28.437  28.310  1.00  0.00     0.057 A 
ATOM     75  C   UNL A   1      39.926  28.931  27.414  1.00  0.00     0.134 A 
ATOM     76  C   UNL A   1      40.437  28.066  29.584  1.00  0.00     0.134 A 
ATOM     77  F   UNL A   1      40.292  29.320  26.184  1.00  0.00    -0.206 F 
ATOM     78  C   UNL A   1      38.585  29.074  27.777  1.00  0.00     0.040 A 
ATOM     79  C   UNL A   1      39.095  28.178  29.953  1.00  0.00     0.040 A 
ATOM     80  F   UNL A   1      41.300  27.580  30.488  1.00  0.00    -0.206 F 
ATOM     81  C   UNL A   1      38.167  28.692  29.050  1.00  0.00     0.006 A 
ENDBRANCH  53  74
BRANCH  65  82
ATOM     82  C   UNL A   1      46.237  32.882  28.539  1.00  0.00     0.057 A 
ATOM     83  C   UNL A   1      46.012  33.946  27.656  1.00  0.00     0.134 A 
ATOM     84  C   UNL A   1      46.529  33.200  29.872  1.00  0.00     0.134 A 
ATOM     85  F   UNL A   1      45.740  33.711  26.363  1.00  0.00    -0.206 F 
ATOM     86  C   UNL A   1      46.100  35.274  28.077  1.00  0.00     0.040 A 
ATOM     87  C   UNL A   1      46.589  34.523  30.312  1.00  0.00     0.040 A 
ATOM     88  F   UNL A   1      46.746  32.230  30.773  1.00  0.00    -0.206 F 
ATOM     89  C   UNL A   1      46.381  35.566  29.411  1.00  0.00     0.006 A 
ENDBRANCH  65  82
ENDBRANCH  39  40
ENDBRANCH  31  34
ENDBRANCH  29  30
ENDBRANCH  28  29
ENDBRANCH  27  28
ENDBRANCH   1  27
TORSDOF 16
ENDMDL
MODEL 3
REMARK VINA RESULT:     -11.6      5.358     10.242
REMARK SMILES O=C(C[C@@H]1C(=O)NCC[N@@H+]1Cc1ccc(F)c(F)c1)NCCCCCCNC(=O)c1ccc(-c2c3nc(c(-c4c(F)cccc4F)c4ccc([nH]4)c(-c4c(F)cccc4F)c4nc(c(-c5c(F)cccc5F)c5ccc2[nH]5)C=C4)C=C3)cc1
REMARK SMILES IDX 23 1 22 2 21 3 20 4 1 5 2 6 3 8 4 9 5 10 10 11 6 12 7 13
REMARK SMILES IDX 9 14 8 16 11 18 12 19 13 20 19 21 14 22 17 23 15 24 18 25
REMARK SMILES IDX 16 26 24 27 25 28 26 29 27 30 28 31 29 33 30 34 31 35 83 36
REMARK SMILES IDX 32 37 82 38 33 39 34 40 35 41 76 42 36 43 81 44 75 45 77 46
REMARK SMILES IDX 37 47 80 48 74 49 73 50 38 52 64 53 47 54 63 55 48 56 51 57
REMARK SMILES IDX 62 58 78 59 49 60 50 61 61 63 79 64 52 65 39 66 40 67 45 68
REMARK SMILES IDX 41 69 42 70 44 71 46 72 43 73 65 74 66 75 71 76 67 77 68 78
REMARK SMILES IDX 70 79 72 80 69 81 53 82 54 83 59 84 55 85 56 86 58 87 60 88
REMARK SMILES IDX 57 89
REMARK H PARENT 20 7 10 15 7 17 27 32 77 51 51 62
REMARK Flexibility Score: inf
ROOT
ATOM      1  C   UNL A   1      34.902  32.832  29.002  1.00  0.00     0.002 C 
ENDROOT
BRANCH   1   2
ATOM      2  C   UNL A   1      35.100  31.665  28.025  1.00  0.00     0.021 C 
BRANCH   2   3
ATOM      3  C   UNL A   1      33.825  31.236  27.298  1.00  0.00     0.116 C 
BRANCH   3   4
ATOM      4  N   UNL A   1      34.063  30.031  26.532  1.00  0.00    -0.356 N 
ATOM      5  O   UNL A   1      31.956  29.936  25.646  1.00  0.00    -0.275 OA
ATOM      6  C   UNL A   1      33.074  29.447  25.781  1.00  0.00     0.226 C 
ATOM      7  H   UNL A   1      34.958  29.621  26.550  1.00  0.00     0.163 HD
BRANCH   6   8
ATOM      8  C   UNL A   1      33.378  28.050  25.288  1.00  0.00     0.175 C 
BRANCH   8   9
ATOM      9  C   UNL A   1      32.504  26.909  25.811  1.00  0.00     0.283 C 
ATOM     10  C   UNL A   1      33.182  25.524  25.798  1.00  0.00     0.279 C 
ATOM     11  N   UNL A   1      31.149  26.883  25.189  1.00  0.00    -0.319 N 
ATOM     12  O   UNL A   1      34.397  25.359  25.741  1.00  0.00    -0.268 OA
ATOM     13  N   UNL A   1      32.375  24.436  26.009  1.00  0.00    -0.345 N 
ATOM     14  C   UNL A   1      30.309  25.856  25.817  1.00  0.00     0.284 C 
ATOM     15  H   UNL A   1      30.747  27.793  25.412  1.00  0.00     0.349 HD
ATOM     16  C   UNL A   1      30.931  24.454  25.919  1.00  0.00     0.177 C 
ATOM     17  H   UNL A   1      32.808  23.582  26.239  1.00  0.00     0.163 HD
BRANCH  11  18
ATOM     18  C   UNL A   1      31.053  26.984  23.725  1.00  0.00     0.299 C 
BRANCH  18  19
ATOM     19  C   UNL A   1      30.091  27.997  23.146  1.00  0.00     0.009 A 
ATOM     20  C   UNL A   1      30.567  29.078  22.386  1.00  0.00     0.013 A 
ATOM     21  C   UNL A   1      28.704  27.888  23.349  1.00  0.00     0.052 A 
ATOM     22  C   UNL A   1      29.698  30.078  21.942  1.00  0.00     0.043 A 
ATOM     23  C   UNL A   1      27.843  28.883  22.898  1.00  0.00     0.159 A 
ATOM     24  C   UNL A   1      28.341  29.982  22.218  1.00  0.00     0.158 A 
ATOM     25  F   UNL A   1      26.528  28.767  23.128  1.00  0.00    -0.204 F 
ATOM     26  F   UNL A   1      27.516  30.958  21.812  1.00  0.00    -0.204 F 
ENDBRANCH  18  19
ENDBRANCH  11  18
ENDBRANCH   8   9
ENDBRANCH   6   8
ENDBRANCH   3   4
ENDBRANCH   2   3
ENDBRANCH   1   2
BRANCH   1  27
ATOM     27  C   UNL A   1      35.168  34.221  28.414  1.00  0.00     0.002 C 
BRANCH  27  28
ATOM     28  C   UNL A   1      34.174  35.302  28.841  1.00  0.00     0.021 C 
BRANCH  28  29
ATOM     29  C   UNL A   1      32.920  34.772  29.526  1.00  0.00     0.116 C 
BRANCH  29  30
ATOM     30  N   UNL A   1      32.409  35.695  30.528  1.00  0.00    -0.352 N 
ATOM     31  C   UNL A   1      32.775  35.836  31.843  1.00  0.00     0.251 C 
ATOM     32  H   UNL A   1      31.700  36.305  30.219  1.00  0.00     0.163 HD
ATOM     33  O   UNL A   1      32.111  36.541  32.599  1.00  0.00    -0.269 OA
BRANCH  31  34
ATOM     34  C   UNL A   1      33.959  35.116  32.356  1.00  0.00     0.039 A 
ATOM     35  C   UNL A   1      33.796  33.829  32.873  1.00  0.00     0.014 A 
ATOM     36  C   UNL A   1      35.227  35.703  32.315  1.00  0.00     0.014 A 
ATOM     37  C   UNL A   1      34.916  33.104  33.286  1.00  0.00     0.010 A 
ATOM     38  C   UNL A   1      36.348  34.951  32.654  1.00  0.00     0.010 A 
ATOM     39  C   UNL A   1      36.205  33.644  33.143  1.00  0.00    -0.014 A 
BRANCH  39  40
ATOM     40  C   UNL A   1      37.414  32.853  33.486  1.00  0.00     0.031 A 
ATOM     41  C   UNL A   1      38.157  33.120  34.765  1.00  0.00     0.074 A 
ATOM     42  C   UNL A   1      37.879  31.937  32.613  1.00  0.00     0.049 A 
ATOM     43  N   UNL A   1      39.268  32.582  35.204  1.00  0.00    -0.248 NA
ATOM     44  C   UNL A   1      37.593  34.142  35.659  1.00  0.00     0.031 C 
ATOM     45  C   UNL A   1      37.274  31.615  31.320  1.00  0.00     0.029 A 
ATOM     46  N   UNL A   1      38.977  31.116  32.679  1.00  0.00    -0.354 N 
ATOM     47  C   UNL A   1      39.538  33.207  36.414  1.00  0.00     0.074 A 
ATOM     48  C   UNL A   1      38.507  34.202  36.615  1.00  0.00     0.031 C 
ATOM     49  C   UNL A   1      37.991  30.648  30.727  1.00  0.00     0.029 A 
ATOM     50  C   UNL A   1      39.133  30.315  31.573  1.00  0.00     0.049 A 
ATOM     51  H   UNL A   1      39.595  31.101  33.445  1.00  0.00     0.167 HD
ATOM     52  C   UNL A   1      40.540  32.957  37.291  1.00  0.00     0.037 A 
ATOM     53  C   UNL A   1      40.093  29.420  31.269  1.00  0.00     0.037 A 
ATOM     54  C   UNL A   1      41.555  31.956  37.094  1.00  0.00     0.049 A 
ATOM     55  C   UNL A   1      41.213  29.185  32.247  1.00  0.00     0.074 A 
ATOM     56  C   UNL A   1      42.583  31.593  37.948  1.00  0.00     0.029 A 
ATOM     57  N   UNL A   1      41.678  31.165  35.962  1.00  0.00    -0.354 N 
ATOM     58  N   UNL A   1      41.418  29.734  33.419  1.00  0.00    -0.248 NA
ATOM     59  C   UNL A   1      42.233  28.200  31.859  1.00  0.00     0.031 C 
ATOM     60  C   UNL A   1      43.358  30.620  37.310  1.00  0.00     0.029 A 
ATOM     61  C   UNL A   1      42.780  30.332  36.084  1.00  0.00     0.049 A 
ATOM     62  H   UNL A   1      41.072  31.189  35.188  1.00  0.00     0.167 HD
ATOM     63  C   UNL A   1      42.569  29.141  33.921  1.00  0.00     0.074 A 
ATOM     64  C   UNL A   1      43.009  28.180  32.933  1.00  0.00     0.031 C 
ATOM     65  C   UNL A   1      43.203  29.373  35.097  1.00  0.00     0.037 A 
BRANCH  52  66
ATOM     66  C   UNL A   1      40.585  33.782  38.546  1.00  0.00     0.057 A 
ATOM     67  C   UNL A   1      41.377  34.934  38.645  1.00  0.00     0.134 A 
ATOM     68  C   UNL A   1      39.797  33.444  39.653  1.00  0.00     0.134 A 
ATOM     69  F   UNL A   1      42.164  35.309  37.626  1.00  0.00    -0.206 F 
ATOM     70  C   UNL A   1      41.403  35.705  39.808  1.00  0.00     0.040 A 
ATOM     71  C   UNL A   1      39.792  34.224  40.811  1.00  0.00     0.040 A 
ATOM     72  F   UNL A   1      39.009  32.359  39.624  1.00  0.00    -0.206 F 
ATOM     73  C   UNL A   1      40.602  35.355  40.894  1.00  0.00     0.006 A 
ENDBRANCH  52  66
BRANCH  53  74
ATOM     74  C   UNL A   1      40.035  28.668  29.990  1.00  0.00     0.057 A 
ATOM     75  C   UNL A   1      39.303  27.479  29.884  1.00  0.00     0.134 A 
ATOM     76  C   UNL A   1      40.717  29.107  28.849  1.00  0.00     0.134 A 
ATOM     77  F   UNL A   1      38.642  26.997  30.947  1.00  0.00    -0.206 F 
ATOM     78  C   UNL A   1      39.270  26.742  28.699  1.00  0.00     0.040 A 
ATOM     79  C   UNL A   1      40.671  28.395  27.650  1.00  0.00     0.040 A 
ATOM     80  F   UNL A   1      41.431  30.241  28.881  1.00  0.00    -0.206 F 
ATOM     81  C   UNL A   1      39.952  27.203  27.576  1.00  0.00     0.006 A 
ENDBRANCH  53  74
BRANCH  65  82
ATOM     82  C   UNL A   1      44.418  28.545  35.399  1.00  0.00     0.057 A 
ATOM     83  C   UNL A   1      45.709  28.965  35.053  1.00  0.00     0.134 A 
ATOM     84  C   UNL A   1      44.297  27.329  36.086  1.00  0.00     0.134 A 
ATOM     85  F   UNL A   1      45.894  30.112  34.384  1.00  0.00    -0.206 F 
ATOM     86  C   UNL A   1      46.832  28.194  35.358  1.00  0.00     0.040 A 
ATOM     87  C   UNL A   1      45.415  26.565  36.423  1.00  0.00     0.040 A 
ATOM     88  F   UNL A   1      43.091  26.872  36.456  1.00  0.00    -0.206 F 
ATOM     89  C   UNL A   1      46.688  26.994  36.053  1.00  0.00     0.006 A 
ENDBRANCH  65  82
ENDBRANCH  39  40
ENDBRANCH  31  34
ENDBRANCH  29  30
ENDBRANCH  28  29
ENDBRANCH  27  28
ENDBRANCH   1  27
TORSDOF 16
ENDMDL
