MODEL 1
REMARK VINA RESULT:     -11.2      0.000      0.000
REMARK SMILES N#CCCn1cc(C(=O)NCCCCCCNC(=O)c2ccc(-c3c4nc(c(-c5c(F)cccc5F)c5ccc([nH]5)c(-c5c(F)cccc5F)c5nc(c(-c6c(F)cccc6F)c6ccc3[nH]6)C=C5)C=C4)cc2)c(-c2cccc([N+](=O)[O-])c2)n1
REMARK SMILES IDX 13 1 12 2 11 3 10 4 8 5 9 6 7 8 5 9 6 10 84 11 74 12 4 13
REMARK SMILES IDX 3 14 2 15 1 16 75 17 76 18 83 19 77 20 79 21 78 22 80 23
REMARK SMILES IDX 81 24 82 25 14 26 15 27 16 28 17 29 18 30 19 32 20 33 21 34
REMARK SMILES IDX 73 35 22 36 72 37 23 38 24 39 25 40 66 41 26 42 71 43 65 44
REMARK SMILES IDX 67 45 27 46 70 47 64 48 63 49 28 51 54 52 37 53 53 54 38 55
REMARK SMILES IDX 41 56 52 57 68 58 39 59 40 60 51 62 69 63 42 64 29 65 30 66
REMARK SMILES IDX 35 67 31 68 32 69 34 70 36 71 33 72 55 73 56 74 61 75 57 76
REMARK SMILES IDX 58 77 60 78 62 79 59 80 43 81 44 82 49 83 45 84 46 85 48 86
REMARK SMILES IDX 50 87 47 88
REMARK H PARENT 10 7 17 31 67 50 41 61
REMARK Flexibility Score: inf
ROOT
ATOM      1  C   UNL A   1      34.175  29.613  27.314  1.00  0.00     0.002 C 
ENDROOT
BRANCH   1   2
ATOM      2  C   UNL A   1      33.537  29.443  25.929  1.00  0.00     0.021 C 
BRANCH   2   3
ATOM      3  C   UNL A   1      33.575  27.999  25.436  1.00  0.00     0.116 C 
BRANCH   3   4
ATOM      4  N   UNL A   1      33.912  27.964  24.034  1.00  0.00    -0.352 N 
ATOM      5  C   UNL A   1      33.153  28.001  22.897  1.00  0.00     0.255 C 
ATOM      6  O   UNL A   1      33.780  27.948  21.842  1.00  0.00    -0.269 OA
ATOM      7  H   UNL A   1      34.880  27.903  23.862  1.00  0.00     0.163 HD
BRANCH   5   8
ATOM      8  C   UNL A   1      31.703  28.158  22.948  1.00  0.00     0.085 A 
ATOM      9  N   UNL A   1      29.640  28.850  22.645  1.00  0.00    -0.270 N 
ATOM     10  C   UNL A   1      30.922  29.286  22.792  1.00  0.00     0.123 A 
ATOM     11  N   UNL A   1      29.483  27.563  22.997  1.00  0.00    -0.172 NA
ATOM     12  C   UNL A   1      30.737  27.130  23.233  1.00  0.00     0.105 A 
BRANCH   9  13
ATOM     13  C   UNL A   1      28.519  29.664  22.192  1.00  0.00     0.159 C 
BRANCH  13  14
ATOM     14  C   UNL A   1      27.880  30.517  23.308  1.00  0.00     0.144 C 
BRANCH  14  15
ATOM     15  C   UNL A   1      28.147  31.982  23.003  1.00  0.00     0.064 C 
ATOM     16  N   UNL A   1      28.368  33.197  22.749  1.00  0.00    -0.198 NA
ENDBRANCH  14  15
ENDBRANCH  13  14
ENDBRANCH   9  13
BRANCH  12  17
ATOM     17  C   UNL A   1      31.023  25.780  23.726  1.00  0.00     0.010 A 
ATOM     18  C   UNL A   1      31.409  24.785  22.806  1.00  0.00     0.011 A 
ATOM     19  C   UNL A   1      30.827  25.432  25.066  1.00  0.00     0.096 A 
ATOM     20  C   UNL A   1      31.532  23.450  23.194  1.00  0.00     0.008 A 
ATOM     21  C   UNL A   1      30.959  24.087  25.450  1.00  0.00     0.270 A 
ATOM     22  C   UNL A   1      31.298  23.093  24.518  1.00  0.00     0.085 A 
BRANCH  21  23
ATOM     23  N   UNL A   1      30.706  23.697  26.843  1.00  0.00     0.062 N 
ATOM     24  O   UNL A   1      29.558  23.850  27.286  1.00  0.00    -0.258 OA
ATOM     25  O   UNL A   1      31.652  23.236  27.498  1.00  0.00    -0.258 OA
ENDBRANCH  21  23
ENDBRANCH  12  17
ENDBRANCH   5   8
ENDBRANCH   3   4
ENDBRANCH   2   3
ENDBRANCH   1   2
BRANCH   1  26
ATOM     26  C   UNL A   1      34.192  31.054  27.851  1.00  0.00     0.002 C 
BRANCH  26  27
ATOM     27  C   UNL A   1      32.874  31.830  27.714  1.00  0.00     0.021 C 
BRANCH  27  28
ATOM     28  C   UNL A   1      33.058  33.222  27.138  1.00  0.00     0.116 C 
BRANCH  28  29
ATOM     29  N   UNL A   1      32.662  34.257  28.087  1.00  0.00    -0.352 N 
ATOM     30  C   UNL A   1      33.193  34.519  29.333  1.00  0.00     0.251 C 
ATOM     31  H   UNL A   1      31.924  34.843  27.801  1.00  0.00     0.163 HD
ATOM     32  O   UNL A   1      32.555  35.126  30.177  1.00  0.00    -0.269 OA
BRANCH  30  33
ATOM     33  C   UNL A   1      34.559  34.052  29.620  1.00  0.00     0.039 A 
ATOM     34  C   UNL A   1      34.814  33.206  30.699  1.00  0.00     0.014 A 
ATOM     35  C   UNL A   1      35.585  34.458  28.768  1.00  0.00     0.014 A 
ATOM     36  C   UNL A   1      36.104  32.713  30.865  1.00  0.00     0.010 A 
ATOM     37  C   UNL A   1      36.816  33.856  28.842  1.00  0.00     0.010 A 
ATOM     38  C   UNL A   1      37.096  33.021  29.915  1.00  0.00    -0.014 A 
BRANCH  38  39
ATOM     39  C   UNL A   1      38.376  32.319  29.938  1.00  0.00     0.031 A 
ATOM     40  C   UNL A   1      38.253  30.917  29.460  1.00  0.00     0.074 A 
ATOM     41  C   UNL A   1      39.572  32.912  30.161  1.00  0.00     0.049 A 
ATOM     42  N   UNL A   1      38.265  29.849  30.184  1.00  0.00    -0.248 NA
ATOM     43  C   UNL A   1      37.869  30.673  28.058  1.00  0.00     0.031 C 
ATOM     44  C   UNL A   1      39.840  34.349  30.305  1.00  0.00     0.029 A 
ATOM     45  N   UNL A   1      40.827  32.369  30.223  1.00  0.00    -0.354 N 
ATOM     46  C   UNL A   1      38.213  28.793  29.280  1.00  0.00     0.074 A 
ATOM     47  C   UNL A   1      37.722  29.344  28.047  1.00  0.00     0.031 C 
ATOM     48  C   UNL A   1      41.167  34.583  30.196  1.00  0.00     0.029 A 
ATOM     49  C   UNL A   1      41.860  33.309  30.170  1.00  0.00     0.049 A 
ATOM     50  H   UNL A   1      40.987  31.401  30.296  1.00  0.00     0.167 HD
ATOM     51  C   UNL A   1      38.949  27.673  29.524  1.00  0.00     0.037 A 
ATOM     52  C   UNL A   1      43.193  33.061  30.135  1.00  0.00     0.037 A 
ATOM     53  C   UNL A   1      39.397  27.664  30.896  1.00  0.00     0.049 A 
ATOM     54  C   UNL A   1      43.404  31.704  30.679  1.00  0.00     0.074 A 
ATOM     55  C   UNL A   1      38.851  27.437  32.140  1.00  0.00     0.029 A 
ATOM     56  N   UNL A   1      40.547  28.380  31.081  1.00  0.00    -0.354 N 
ATOM     57  N   UNL A   1      43.198  31.398  31.928  1.00  0.00    -0.248 NA
ATOM     58  C   UNL A   1      43.511  30.576  29.760  1.00  0.00     0.031 C 
ATOM     59  C   UNL A   1      39.677  28.134  33.076  1.00  0.00     0.029 A 
ATOM     60  C   UNL A   1      40.739  28.717  32.391  1.00  0.00     0.049 A 
ATOM     61  H   UNL A   1      41.165  28.625  30.355  1.00  0.00     0.167 HD
ATOM     62  C   UNL A   1      42.711  30.109  31.877  1.00  0.00     0.074 A 
ATOM     63  C   UNL A   1      43.097  29.597  30.568  1.00  0.00     0.031 C 
ATOM     64  C   UNL A   1      41.734  29.704  32.738  1.00  0.00     0.037 A 
BRANCH  51  65
ATOM     65  C   UNL A   1      39.739  26.917  28.469  1.00  0.00     0.057 A 
ATOM     66  C   UNL A   1      40.613  27.642  27.634  1.00  0.00     0.134 A 
ATOM     67  C   UNL A   1      39.448  25.609  28.026  1.00  0.00     0.134 A 
ATOM     68  F   UNL A   1      40.952  28.906  27.927  1.00  0.00    -0.206 F 
ATOM     69  C   UNL A   1      41.102  27.127  26.426  1.00  0.00     0.040 A 
ATOM     70  C   UNL A   1      39.968  25.071  26.845  1.00  0.00     0.040 A 
ATOM     71  F   UNL A   1      38.568  24.814  28.643  1.00  0.00    -0.206 F 
ATOM     72  C   UNL A   1      40.775  25.839  26.024  1.00  0.00     0.006 A 
ENDBRANCH  51  65
BRANCH  52  73
ATOM     73  C   UNL A   1      44.303  33.809  29.504  1.00  0.00     0.057 A 
ATOM     74  C   UNL A   1      44.466  33.837  28.110  1.00  0.00     0.134 A 
ATOM     75  C   UNL A   1      45.023  34.771  30.231  1.00  0.00     0.134 A 
ATOM     76  F   UNL A   1      43.796  32.978  27.329  1.00  0.00    -0.206 F 
ATOM     77  C   UNL A   1      45.261  34.798  27.469  1.00  0.00     0.040 A 
ATOM     78  C   UNL A   1      45.821  35.737  29.603  1.00  0.00     0.040 A 
ATOM     79  F   UNL A   1      44.892  34.866  31.562  1.00  0.00    -0.206 F 
ATOM     80  C   UNL A   1      45.926  35.764  28.217  1.00  0.00     0.006 A 
ENDBRANCH  52  73
BRANCH  64  81
ATOM     81  C   UNL A   1      41.616  30.421  34.043  1.00  0.00     0.057 A 
ATOM     82  C   UNL A   1      42.445  30.215  35.155  1.00  0.00     0.134 A 
ATOM     83  C   UNL A   1      40.641  31.417  34.150  1.00  0.00     0.134 A 
ATOM     84  F   UNL A   1      43.447  29.326  35.119  1.00  0.00    -0.206 F 
ATOM     85  C   UNL A   1      42.281  30.951  36.333  1.00  0.00     0.040 A 
ATOM     86  C   UNL A   1      40.486  32.179  35.307  1.00  0.00     0.040 A 
ATOM     87  F   UNL A   1      39.834  31.685  33.111  1.00  0.00    -0.206 F 
ATOM     88  C   UNL A   1      41.303  31.940  36.409  1.00  0.00     0.006 A 
ENDBRANCH  64  81
ENDBRANCH  38  39
ENDBRANCH  30  33
ENDBRANCH  28  29
ENDBRANCH  27  28
ENDBRANCH  26  27
ENDBRANCH   1  26
TORSDOF 18
ENDMDL
MODEL 2
REMARK VINA RESULT:     -11.0      4.379      6.894
REMARK SMILES N#CCCn1cc(C(=O)NCCCCCCNC(=O)c2ccc(-c3c4nc(c(-c5c(F)cccc5F)c5ccc([nH]5)c(-c5c(F)cccc5F)c5nc(c(-c6c(F)cccc6F)c6ccc3[nH]6)C=C5)C=C4)cc2)c(-c2cccc([N+](=O)[O-])c2)n1
REMARK SMILES IDX 13 1 12 2 11 3 10 4 8 5 9 6 7 8 5 9 6 10 84 11 74 12 4 13
REMARK SMILES IDX 3 14 2 15 1 16 75 17 76 18 83 19 77 20 79 21 78 22 80 23
REMARK SMILES IDX 81 24 82 25 14 26 15 27 16 28 17 29 18 30 19 32 20 33 21 34
REMARK SMILES IDX 73 35 22 36 72 37 23 38 24 39 25 40 66 41 26 42 71 43 65 44
REMARK SMILES IDX 67 45 27 46 70 47 64 48 63 49 28 51 54 52 37 53 53 54 38 55
REMARK SMILES IDX 41 56 52 57 68 58 39 59 40 60 51 62 69 63 42 64 29 65 30 66
REMARK SMILES IDX 35 67 31 68 32 69 34 70 36 71 33 72 55 73 56 74 61 75 57 76
REMARK SMILES IDX 58 77 60 78 62 79 59 80 43 81 44 82 49 83 45 84 46 85 48 86
REMARK SMILES IDX 50 87 47 88
REMARK H PARENT 10 7 17 31 67 50 41 61
REMARK Flexibility Score: inf
ROOT
ATOM      1  C   UNL A   1      32.708  27.053  26.530  1.00  0.00     0.002 C 
ENDROOT
BRANCH   1   2
ATOM      2  C   UNL A   1      33.491  26.487  25.338  1.00  0.00     0.021 C 
BRANCH   2   3
ATOM      3  C   UNL A   1      33.736  24.985  25.454  1.00  0.00     0.116 C 
BRANCH   3   4
ATOM      4  N   UNL A   1      33.817  24.395  24.141  1.00  0.00    -0.352 N 
ATOM      5  C   UNL A   1      34.682  23.495  23.582  1.00  0.00     0.255 C 
ATOM      6  O   UNL A   1      34.457  23.206  22.409  1.00  0.00    -0.269 OA
ATOM      7  H   UNL A   1      33.111  24.700  23.526  1.00  0.00     0.163 HD
BRANCH   5   8
ATOM      8  C   UNL A   1      35.754  22.879  24.356  1.00  0.00     0.085 A 
ATOM      9  N   UNL A   1      37.510  22.530  25.629  1.00  0.00    -0.270 N 
ATOM     10  C   UNL A   1      37.019  23.345  24.654  1.00  0.00     0.123 A 
ATOM     11  N   UNL A   1      36.799  21.399  25.772  1.00  0.00    -0.172 NA
ATOM     12  C   UNL A   1      35.737  21.574  24.961  1.00  0.00     0.105 A 
BRANCH   9  13
ATOM     13  C   UNL A   1      38.695  22.798  26.434  1.00  0.00     0.159 C 
BRANCH  13  14
ATOM     14  C   UNL A   1      39.962  22.071  25.935  1.00  0.00     0.144 C 
BRANCH  14  15
ATOM     15  C   UNL A   1      40.483  21.191  27.059  1.00  0.00     0.064 C 
ATOM     16  N   UNL A   1      40.916  20.460  27.991  1.00  0.00    -0.198 NA
ENDBRANCH  14  15
ENDBRANCH  13  14
ENDBRANCH   9  13
BRANCH  12  17
ATOM     17  C   UNL A   1      34.730  20.530  24.750  1.00  0.00     0.010 A 
ATOM     18  C   UNL A   1      33.367  20.858  24.891  1.00  0.00     0.011 A 
ATOM     19  C   UNL A   1      35.091  19.200  24.510  1.00  0.00     0.096 A 
ATOM     20  C   UNL A   1      32.379  19.872  24.863  1.00  0.00     0.008 A 
ATOM     21  C   UNL A   1      34.090  18.215  24.478  1.00  0.00     0.270 A 
ATOM     22  C   UNL A   1      32.738  18.543  24.666  1.00  0.00     0.085 A 
BRANCH  21  23
ATOM     23  N   UNL A   1      34.457  16.807  24.279  1.00  0.00     0.062 N 
ATOM     24  O   UNL A   1      33.972  16.216  23.301  1.00  0.00    -0.258 OA
ATOM     25  O   UNL A   1      35.230  16.288  25.096  1.00  0.00    -0.258 OA
ENDBRANCH  21  23
ENDBRANCH  12  17
ENDBRANCH   5   8
ENDBRANCH   3   4
ENDBRANCH   2   3
ENDBRANCH   1   2
BRANCH   1  26
ATOM     26  C   UNL A   1      32.662  28.589  26.608  1.00  0.00     0.002 C 
BRANCH  26  27
ATOM     27  C   UNL A   1      34.003  29.306  26.401  1.00  0.00     0.021 C 
BRANCH  27  28
ATOM     28  C   UNL A   1      35.068  28.880  27.397  1.00  0.00     0.116 C 
BRANCH  28  29
ATOM     29  N   UNL A   1      35.226  29.854  28.470  1.00  0.00    -0.352 N 
ATOM     30  C   UNL A   1      36.254  29.956  29.385  1.00  0.00     0.251 C 
ATOM     31  H   UNL A   1      34.509  30.525  28.551  1.00  0.00     0.163 HD
ATOM     32  O   UNL A   1      36.100  30.537  30.446  1.00  0.00    -0.269 OA
BRANCH  30  33
ATOM     33  C   UNL A   1      37.551  29.350  29.045  1.00  0.00     0.039 A 
ATOM     34  C   UNL A   1      38.240  29.734  27.894  1.00  0.00     0.014 A 
ATOM     35  C   UNL A   1      38.084  28.403  29.919  1.00  0.00     0.014 A 
ATOM     36  C   UNL A   1      39.508  29.205  27.674  1.00  0.00     0.010 A 
ATOM     37  C   UNL A   1      39.387  27.999  29.780  1.00  0.00     0.010 A 
ATOM     38  C   UNL A   1      40.088  28.358  28.636  1.00  0.00    -0.014 A 
BRANCH  38  39
ATOM     39  C   UNL A   1      41.500  27.996  28.541  1.00  0.00     0.031 A 
ATOM     40  C   UNL A   1      41.706  26.758  27.745  1.00  0.00     0.074 A 
ATOM     41  C   UNL A   1      42.522  28.788  28.939  1.00  0.00     0.049 A 
ATOM     42  N   UNL A   1      41.990  25.584  28.199  1.00  0.00    -0.248 NA
ATOM     43  C   UNL A   1      41.361  26.766  26.312  1.00  0.00     0.031 C 
ATOM     44  C   UNL A   1      42.441  30.172  29.424  1.00  0.00     0.029 A 
ATOM     45  N   UNL A   1      43.872  28.561  28.917  1.00  0.00    -0.354 N 
ATOM     46  C   UNL A   1      42.173  24.789  27.073  1.00  0.00     0.074 A 
ATOM     47  C   UNL A   1      41.537  25.481  25.986  1.00  0.00     0.031 C 
ATOM     48  C   UNL A   1      43.670  30.734  29.419  1.00  0.00     0.029 A 
ATOM     49  C   UNL A   1      44.647  29.705  29.122  1.00  0.00     0.049 A 
ATOM     50  H   UNL A   1      44.262  27.670  28.768  1.00  0.00     0.167 HD
ATOM     51  C   UNL A   1      43.161  23.852  27.075  1.00  0.00     0.037 A 
ATOM     52  C   UNL A   1      46.000  29.798  29.079  1.00  0.00     0.037 A 
ATOM     53  C   UNL A   1      43.628  23.628  28.422  1.00  0.00     0.049 A 
ATOM     54  C   UNL A   1      46.543  28.441  29.298  1.00  0.00     0.074 A 
ATOM     55  C   UNL A   1      43.181  22.991  29.559  1.00  0.00     0.029 A 
ATOM     56  N   UNL A   1      44.577  24.534  28.811  1.00  0.00    -0.354 N 
ATOM     57  N   UNL A   1      46.444  27.810  30.433  1.00  0.00    -0.248 NA
ATOM     58  C   UNL A   1      46.897  27.620  28.146  1.00  0.00     0.031 C 
ATOM     59  C   UNL A   1      43.835  23.626  30.661  1.00  0.00     0.029 A 
ATOM     60  C   UNL A   1      44.711  24.589  30.169  1.00  0.00     0.049 A 
ATOM     61  H   UNL A   1      45.102  25.082  28.184  1.00  0.00     0.167 HD
ATOM     62  C   UNL A   1      46.280  26.492  30.066  1.00  0.00     0.074 A 
ATOM     63  C   UNL A   1      46.749  26.408  28.687  1.00  0.00     0.031 C 
ATOM     64  C   UNL A   1      45.447  25.675  30.772  1.00  0.00     0.037 A 
BRANCH  51  65
ATOM     65  C   UNL A   1      44.087  23.576  25.902  1.00  0.00     0.057 A 
ATOM     66  C   UNL A   1      44.266  22.243  25.483  1.00  0.00     0.134 A 
ATOM     67  C   UNL A   1      45.037  24.488  25.393  1.00  0.00     0.134 A 
ATOM     68  F   UNL A   1      43.446  21.273  25.913  1.00  0.00    -0.206 F 
ATOM     69  C   UNL A   1      45.340  21.843  24.677  1.00  0.00     0.040 A 
ATOM     70  C   UNL A   1      46.085  24.105  24.550  1.00  0.00     0.040 A 
ATOM     71  F   UNL A   1      45.076  25.774  25.758  1.00  0.00    -0.206 F 
ATOM     72  C   UNL A   1      46.259  22.775  24.212  1.00  0.00     0.006 A 
ENDBRANCH  51  65
BRANCH  52  73
ATOM     73  C   UNL A   1      46.884  30.916  28.679  1.00  0.00     0.057 A 
ATOM     74  C   UNL A   1      47.799  31.482  29.581  1.00  0.00     0.134 A 
ATOM     75  C   UNL A   1      47.078  31.227  27.324  1.00  0.00     0.134 A 
ATOM     76  F   UNL A   1      47.714  31.219  30.892  1.00  0.00    -0.206 F 
ATOM     77  C   UNL A   1      48.876  32.272  29.156  1.00  0.00     0.040 A 
ATOM     78  C   UNL A   1      48.150  32.015  26.885  1.00  0.00     0.040 A 
ATOM     79  F   UNL A   1      46.294  30.690  26.377  1.00  0.00    -0.206 F 
ATOM     80  C   UNL A   1      49.064  32.525  27.800  1.00  0.00     0.006 A 
ENDBRANCH  52  73
BRANCH  64  81
ATOM     81  C   UNL A   1      45.190  26.015  32.204  1.00  0.00     0.057 A 
ATOM     82  C   UNL A   1      44.066  26.704  32.680  1.00  0.00     0.134 A 
ATOM     83  C   UNL A   1      46.112  25.563  33.153  1.00  0.00     0.134 A 
ATOM     84  F   UNL A   1      43.100  27.118  31.849  1.00  0.00    -0.206 F 
ATOM     85  C   UNL A   1      43.891  26.959  34.045  1.00  0.00     0.040 A 
ATOM     86  C   UNL A   1      45.934  25.783  34.518  1.00  0.00     0.040 A 
ATOM     87  F   UNL A   1      47.194  24.871  32.765  1.00  0.00    -0.206 F 
ATOM     88  C   UNL A   1      44.825  26.492  34.968  1.00  0.00     0.006 A 
ENDBRANCH  64  81
ENDBRANCH  38  39
ENDBRANCH  30  33
ENDBRANCH  28  29
ENDBRANCH  27  28
ENDBRANCH  26  27
ENDBRANCH   1  26
TORSDOF 18
ENDMDL
MODEL 3
REMARK VINA RESULT:     -11.0      4.483      7.013
REMARK SMILES N#CCCn1cc(C(=O)NCCCCCCNC(=O)c2ccc(-c3c4nc(c(-c5c(F)cccc5F)c5ccc([nH]5)c(-c5c(F)cccc5F)c5nc(c(-c6c(F)cccc6F)c6ccc3[nH]6)C=C5)C=C4)cc2)c(-c2cccc([N+](=O)[O-])c2)n1
REMARK SMILES IDX 13 1 12 2 11 3 10 4 8 5 9 6 7 8 5 9 6 10 84 11 74 12 4 13
REMARK SMILES IDX 3 14 2 15 1 16 75 17 76 18 83 19 77 20 79 21 78 22 80 23
REMARK SMILES IDX 81 24 82 25 14 26 15 27 16 28 17 29 18 30 19 32 20 33 21 34
REMARK SMILES IDX 73 35 22 36 72 37 23 38 24 39 25 40 66 41 26 42 71 43 65 44
REMARK SMILES IDX 67 45 27 46 70 47 64 48 63 49 28 51 54 52 37 53 53 54 38 55
REMARK SMILES IDX 41 56 52 57 68 58 39 59 40 60 51 62 69 63 42 64 29 65 30 66
REMARK SMILES IDX 35 67 31 68 32 69 34 70 36 71 33 72 55 73 56 74 61 75 57 76
REMARK SMILES IDX 58 77 60 78 62 79 59 80 43 81 44 82 49 83 45 84 46 85 48 86
REMARK SMILES IDX 50 87 47 88
REMARK H PARENT 10 7 17 31 67 50 41 61
REMARK Flexibility Score: inf
ROOT
ATOM      1  C   UNL A   1      33.490  27.133  25.734  1.00  0.00     0.002 C 
ENDROOT
BRANCH   1   2
ATOM      2  C   UNL A   1      32.450  26.040  25.451  1.00  0.00     0.021 C 
BRANCH   2   3
ATOM      3  C   UNL A   1      33.069  24.647  25.364  1.00  0.00     0.116 C 
BRANCH   3   4
ATOM      4  N   UNL A   1      33.643  24.443  24.057  1.00  0.00    -0.352 N 
ATOM      5  C   UNL A   1      34.075  23.324  23.399  1.00  0.00     0.255 C 
ATOM      6  O   UNL A   1      34.523  23.516  22.271  1.00  0.00    -0.269 OA
ATOM      7  H   UNL A   1      33.744  25.272  23.536  1.00  0.00     0.163 HD
BRANCH   5   8
ATOM      8  C   UNL A   1      33.945  21.994  23.983  1.00  0.00     0.085 A 
ATOM      9  N   UNL A   1      33.377  19.911  24.392  1.00  0.00    -0.270 N 
ATOM     10  C   UNL A   1      32.890  21.103  23.948  1.00  0.00     0.123 A 
ATOM     11  N   UNL A   1      34.571  20.028  24.998  1.00  0.00    -0.172 NA
ATOM     12  C   UNL A   1      34.918  21.315  24.798  1.00  0.00     0.105 A 
BRANCH   9  13
ATOM     13  C   UNL A   1      32.699  18.627  24.277  1.00  0.00     0.159 C 
BRANCH  13  14
ATOM     14  C   UNL A   1      33.443  17.609  23.387  1.00  0.00     0.144 C 
BRANCH  14  15
ATOM     15  C   UNL A   1      33.826  16.414  24.244  1.00  0.00     0.064 C 
ATOM     16  N   UNL A   1      34.145  15.423  24.955  1.00  0.00    -0.198 NA
ENDBRANCH  14  15
ENDBRANCH  13  14
ENDBRANCH   9  13
BRANCH  12  17
ATOM     17  C   UNL A   1      36.134  21.899  25.370  1.00  0.00     0.010 A 
ATOM     18  C   UNL A   1      36.119  23.250  25.770  1.00  0.00     0.011 A 
ATOM     19  C   UNL A   1      37.331  21.180  25.438  1.00  0.00     0.096 A 
ATOM     20  C   UNL A   1      37.289  23.900  26.166  1.00  0.00     0.008 A 
ATOM     21  C   UNL A   1      38.503  21.839  25.844  1.00  0.00     0.270 A 
ATOM     22  C   UNL A   1      38.490  23.199  26.196  1.00  0.00     0.085 A 
BRANCH  21  23
ATOM     23  N   UNL A   1      39.779  21.112  25.871  1.00  0.00     0.062 N 
ATOM     24  O   UNL A   1      40.823  21.780  25.914  1.00  0.00    -0.258 OA
ATOM     25  O   UNL A   1      39.741  19.874  25.850  1.00  0.00    -0.258 OA
ENDBRANCH  21  23
ENDBRANCH  12  17
ENDBRANCH   5   8
ENDBRANCH   3   4
ENDBRANCH   2   3
ENDBRANCH   1   2
BRANCH   1  26
ATOM     26  C   UNL A   1      33.088  28.148  26.817  1.00  0.00     0.002 C 
BRANCH  26  27
ATOM     27  C   UNL A   1      33.928  29.432  26.869  1.00  0.00     0.021 C 
BRANCH  27  28
ATOM     28  C   UNL A   1      35.297  29.225  27.494  1.00  0.00     0.116 C 
BRANCH  28  29
ATOM     29  N   UNL A   1      35.383  29.827  28.820  1.00  0.00    -0.352 N 
ATOM     30  C   UNL A   1      36.336  29.611  29.794  1.00  0.00     0.251 C 
ATOM     31  H   UNL A   1      34.672  30.469  29.047  1.00  0.00     0.163 HD
ATOM     32  O   UNL A   1      36.106  29.853  30.967  1.00  0.00    -0.269 OA
BRANCH  30  33
ATOM     33  C   UNL A   1      37.647  29.085  29.381  1.00  0.00     0.039 A 
ATOM     34  C   UNL A   1      38.323  29.627  28.288  1.00  0.00     0.014 A 
ATOM     35  C   UNL A   1      38.206  28.050  30.129  1.00  0.00     0.014 A 
ATOM     36  C   UNL A   1      39.603  29.163  28.003  1.00  0.00     0.010 A 
ATOM     37  C   UNL A   1      39.519  27.700  29.942  1.00  0.00     0.010 A 
ATOM     38  C   UNL A   1      40.207  28.216  28.852  1.00  0.00    -0.014 A 
BRANCH  38  39
ATOM     39  C   UNL A   1      41.627  27.906  28.712  1.00  0.00     0.031 A 
ATOM     40  C   UNL A   1      41.853  26.672  27.914  1.00  0.00     0.074 A 
ATOM     41  C   UNL A   1      42.633  28.735  29.076  1.00  0.00     0.049 A 
ATOM     42  N   UNL A   1      42.193  25.512  28.362  1.00  0.00    -0.248 NA
ATOM     43  C   UNL A   1      41.462  26.662  26.493  1.00  0.00     0.031 C 
ATOM     44  C   UNL A   1      42.517  30.117  29.558  1.00  0.00     0.029 A 
ATOM     45  N   UNL A   1      43.988  28.557  29.011  1.00  0.00    -0.354 N 
ATOM     46  C   UNL A   1      42.369  24.719  27.233  1.00  0.00     0.074 A 
ATOM     47  C   UNL A   1      41.675  25.384  26.165  1.00  0.00     0.031 C 
ATOM     48  C   UNL A   1      43.724  30.724  29.513  1.00  0.00     0.029 A 
ATOM     49  C   UNL A   1      44.728  29.730  29.188  1.00  0.00     0.049 A 
ATOM     50  H   UNL A   1      44.405  27.680  28.852  1.00  0.00     0.167 HD
ATOM     51  C   UNL A   1      43.390  23.818  27.206  1.00  0.00     0.037 A 
ATOM     52  C   UNL A   1      46.074  29.870  29.101  1.00  0.00     0.037 A 
ATOM     53  C   UNL A   1      43.908  23.617  28.538  1.00  0.00     0.049 A 
ATOM     54  C   UNL A   1      46.673  28.536  29.306  1.00  0.00     0.074 A 
ATOM     55  C   UNL A   1      43.520  22.969  29.690  1.00  0.00     0.029 A 
ATOM     56  N   UNL A   1      44.835  24.558  28.894  1.00  0.00    -0.354 N 
ATOM     57  N   UNL A   1      46.633  27.906  30.446  1.00  0.00    -0.248 NA
ATOM     58  C   UNL A   1      47.019  27.723  28.146  1.00  0.00     0.031 C 
ATOM     59  C   UNL A   1      44.186  23.631  30.769  1.00  0.00     0.029 A 
ATOM     60  C   UNL A   1      45.010  24.624  30.246  1.00  0.00     0.049 A 
ATOM     61  H   UNL A   1      45.320  25.122  28.249  1.00  0.00     0.167 HD
ATOM     62  C   UNL A   1      46.505  26.581  30.088  1.00  0.00     0.074 A 
ATOM     63  C   UNL A   1      46.932  26.509  28.695  1.00  0.00     0.031 C 
ATOM     64  C   UNL A   1      45.725  25.737  30.823  1.00  0.00     0.037 A 
BRANCH  51  65
ATOM     65  C   UNL A   1      44.287  23.572  26.005  1.00  0.00     0.057 A 
ATOM     66  C   UNL A   1      44.538  22.242  25.612  1.00  0.00     0.134 A 
ATOM     67  C   UNL A   1      45.156  24.529  25.437  1.00  0.00     0.134 A 
ATOM     68  F   UNL A   1      43.800  21.232  26.097  1.00  0.00    -0.206 F 
ATOM     69  C   UNL A   1      45.605  21.891  24.774  1.00  0.00     0.040 A 
ATOM     70  C   UNL A   1      46.195  24.192  24.563  1.00  0.00     0.040 A 
ATOM     71  F   UNL A   1      45.124  25.824  25.768  1.00  0.00    -0.206 F 
ATOM     72  C   UNL A   1      46.442  22.867  24.251  1.00  0.00     0.006 A 
ENDBRANCH  51  65
BRANCH  52  73
ATOM     73  C   UNL A   1      46.904  31.018  28.670  1.00  0.00     0.057 A 
ATOM     74  C   UNL A   1      47.889  31.563  29.508  1.00  0.00     0.134 A 
ATOM     75  C   UNL A   1      46.970  31.386  27.317  1.00  0.00     0.134 A 
ATOM     76  F   UNL A   1      47.927  31.246  30.810  1.00  0.00    -0.206 F 
ATOM     77  C   UNL A   1      48.913  32.387  29.022  1.00  0.00     0.040 A 
ATOM     78  C   UNL A   1      47.988  32.210  26.817  1.00  0.00     0.040 A 
ATOM     79  F   UNL A   1      46.111  30.875  26.423  1.00  0.00    -0.206 F 
ATOM     80  C   UNL A   1      48.975  32.697  27.666  1.00  0.00     0.006 A 
ENDBRANCH  52  73
BRANCH  64  81
ATOM     81  C   UNL A   1      45.501  26.074  32.261  1.00  0.00     0.057 A 
ATOM     82  C   UNL A   1      44.383  26.751  32.767  1.00  0.00     0.134 A 
ATOM     83  C   UNL A   1      46.453  25.631  33.186  1.00  0.00     0.134 A 
ATOM     84  F   UNL A   1      43.392  27.154  31.962  1.00  0.00    -0.206 F 
ATOM     85  C   UNL A   1      44.241  27.002  34.136  1.00  0.00     0.040 A 
ATOM     86  C   UNL A   1      46.308  25.848  34.555  1.00  0.00     0.040 A 
ATOM     87  F   UNL A   1      47.532  24.950  32.769  1.00  0.00    -0.206 F 
ATOM     88  C   UNL A   1      45.203  26.545  35.034  1.00  0.00     0.006 A 
ENDBRANCH  64  81
ENDBRANCH  38  39
ENDBRANCH  30  33
ENDBRANCH  28  29
ENDBRANCH  27  28
ENDBRANCH  26  27
ENDBRANCH   1  26
TORSDOF 18
ENDMDL
