MODEL 1
REMARK VINA RESULT:     -10.8      0.000      0.000
REMARK SMILES C=CCOc1ccc(C(=O)N2CCC[C@H]2C(=O)NCCCCCCNC(=O)c2ccc(-c3c4nc(c(-c5c(F)cccc5F)c5ccc([nH]5)c(-c5c(F)cccc5F)c5nc(c(-c6c(F)cccc6F)c6ccc3[nH]6)C=C5)C=C4)cc2)cc1
REMARK SMILES IDX 20 1 19 2 18 3 16 4 17 5 15 7 11 8 12 9 13 10 14 11 9 12
REMARK SMILES IDX 10 13 8 14 5 15 6 16 83 17 7 18 82 19 4 20 3 21 2 22 1 23
REMARK SMILES IDX 21 24 22 25 23 26 24 27 25 28 26 29 27 31 28 32 29 33 81 34
REMARK SMILES IDX 30 35 80 36 31 37 32 38 33 39 74 40 34 41 79 42 73 43 75 44
REMARK SMILES IDX 35 45 78 46 72 47 71 48 36 50 62 51 45 52 61 53 46 54 49 55
REMARK SMILES IDX 60 56 76 57 47 58 48 59 59 61 77 62 50 63 37 64 38 65 43 66
REMARK SMILES IDX 39 67 40 68 42 69 44 70 41 71 63 72 64 73 69 74 65 75 66 76
REMARK SMILES IDX 68 77 70 78 67 79 51 80 52 81 57 82 53 83 54 84 56 85 58 86
REMARK SMILES IDX 55 87
REMARK H PARENT 18 6 25 30 75 49 49 60
REMARK Flexibility Score: inf
ROOT
ATOM      1  C   UNL A   1      36.598  22.412  24.058  1.00  0.00     0.021 C 
ENDROOT
BRANCH   1   2
ATOM      2  C   UNL A   1      35.967  23.793  24.180  1.00  0.00     0.116 C 
BRANCH   2   3
ATOM      3  N   UNL A   1      35.176  23.940  25.388  1.00  0.00    -0.354 N 
ATOM      4  C   UNL A   1      33.843  24.211  25.516  1.00  0.00     0.242 C 
ATOM      5  O   UNL A   1      33.324  24.037  26.622  1.00  0.00    -0.273 OA
ATOM      6  H   UNL A   1      35.668  23.827  26.233  1.00  0.00     0.163 HD
BRANCH   4   7
ATOM      7  C   UNL A   1      33.029  24.672  24.289  1.00  0.00     0.174 C 
ATOM      8  N   UNL A   1      32.185  23.613  23.737  1.00  0.00    -0.327 N 
ATOM      9  C   UNL A   1      30.819  23.757  24.194  1.00  0.00     0.121 C 
ATOM     10  C   UNL A   1      30.647  25.262  24.238  1.00  0.00     0.024 C 
ATOM     11  C   UNL A   1      32.018  25.773  24.690  1.00  0.00     0.037 C 
BRANCH   8  12
ATOM     12  C   UNL A   1      32.685  22.594  22.957  1.00  0.00     0.254 C 
ATOM     13  O   UNL A   1      33.106  22.782  21.819  1.00  0.00    -0.269 OA
BRANCH  12  14
ATOM     14  C   UNL A   1      32.546  21.185  23.435  1.00  0.00     0.040 A 
ATOM     15  C   UNL A   1      32.499  18.543  24.386  1.00  0.00     0.119 A 
ATOM     16  C   UNL A   1      32.802  19.585  25.258  1.00  0.00     0.047 A 
ATOM     17  C   UNL A   1      32.192  18.820  23.058  1.00  0.00     0.047 A 
ATOM     18  C   UNL A   1      32.826  20.902  24.783  1.00  0.00     0.017 A 
ATOM     19  C   UNL A   1      32.258  20.125  22.575  1.00  0.00     0.017 A 
BRANCH  15  20
ATOM     20  O   UNL A   1      32.421  17.272  24.884  1.00  0.00    -0.490 OA
BRANCH  20  21
ATOM     21  C   UNL A   1      33.307  16.349  24.228  1.00  0.00     0.257 C 
BRANCH  21  22
ATOM     22  C   UNL A   1      34.208  15.654  25.211  1.00  0.00     0.006 C 
ATOM     23  C   UNL A   1      35.498  15.966  25.403  1.00  0.00     0.007 C 
ENDBRANCH  21  22
ENDBRANCH  20  21
ENDBRANCH  15  20
ENDBRANCH  12  14
ENDBRANCH   8  12
ENDBRANCH   4   7
ENDBRANCH   2   3
ENDBRANCH   1   2
BRANCH   1  24
ATOM     24  C   UNL A   1      36.302  21.475  25.234  1.00  0.00     0.002 C 
BRANCH  24  25
ATOM     25  C   UNL A   1      36.663  20.002  25.013  1.00  0.00     0.002 C 
BRANCH  25  26
ATOM     26  C   UNL A   1      38.128  19.727  24.669  1.00  0.00     0.021 C 
BRANCH  26  27
ATOM     27  C   UNL A   1      39.123  20.047  25.780  1.00  0.00     0.116 C 
BRANCH  27  28
ATOM     28  N   UNL A   1      40.172  19.047  25.892  1.00  0.00    -0.352 N 
ATOM     29  C   UNL A   1      41.511  19.206  26.138  1.00  0.00     0.251 C 
ATOM     30  H   UNL A   1      39.877  18.115  25.772  1.00  0.00     0.163 HD
ATOM     31  O   UNL A   1      42.272  18.247  26.036  1.00  0.00    -0.269 OA
BRANCH  29  32
ATOM     32  C   UNL A   1      42.051  20.533  26.506  1.00  0.00     0.039 A 
ATOM     33  C   UNL A   1      42.475  21.388  25.485  1.00  0.00     0.014 A 
ATOM     34  C   UNL A   1      42.163  20.931  27.841  1.00  0.00     0.014 A 
ATOM     35  C   UNL A   1      42.959  22.659  25.800  1.00  0.00     0.010 A 
ATOM     36  C   UNL A   1      42.575  22.226  28.149  1.00  0.00     0.010 A 
ATOM     37  C   UNL A   1      42.983  23.102  27.132  1.00  0.00    -0.014 A 
BRANCH  37  38
ATOM     38  C   UNL A   1      43.424  24.480  27.468  1.00  0.00     0.031 A 
ATOM     39  C   UNL A   1      42.422  25.528  27.869  1.00  0.00     0.074 A 
ATOM     40  C   UNL A   1      44.729  24.800  27.369  1.00  0.00     0.049 A 
ATOM     41  N   UNL A   1      42.621  26.785  28.176  1.00  0.00    -0.248 NA
ATOM     42  C   UNL A   1      41.010  25.117  27.907  1.00  0.00     0.031 C 
ATOM     43  C   UNL A   1      45.792  23.889  26.937  1.00  0.00     0.029 A 
ATOM     44  N   UNL A   1      45.385  25.980  27.618  1.00  0.00    -0.354 N 
ATOM     45  C   UNL A   1      41.362  27.316  28.432  1.00  0.00     0.074 A 
ATOM     46  C   UNL A   1      40.402  26.260  28.193  1.00  0.00     0.031 C 
ATOM     47  C   UNL A   1      46.969  24.537  26.978  1.00  0.00     0.029 A 
ATOM     48  C   UNL A   1      46.739  25.914  27.401  1.00  0.00     0.049 A 
ATOM     49  H   UNL A   1      44.927  26.796  27.925  1.00  0.00     0.167 HD
ATOM     50  C   UNL A   1      41.039  28.563  28.851  1.00  0.00     0.037 A 
ATOM     51  C   UNL A   1      47.691  26.859  27.523  1.00  0.00     0.037 A 
ATOM     52  C   UNL A   1      41.998  29.606  29.110  1.00  0.00     0.049 A 
ATOM     53  C   UNL A   1      47.304  28.234  27.992  1.00  0.00     0.074 A 
ATOM     54  C   UNL A   1      41.773  30.880  29.600  1.00  0.00     0.029 A 
ATOM     55  N   UNL A   1      43.363  29.496  28.893  1.00  0.00    -0.354 N 
ATOM     56  N   UNL A   1      46.120  28.698  28.308  1.00  0.00    -0.248 NA
ATOM     57  C   UNL A   1      48.389  29.216  28.130  1.00  0.00     0.031 C 
ATOM     58  C   UNL A   1      42.996  31.560  29.631  1.00  0.00     0.029 A 
ATOM     59  C   UNL A   1      43.990  30.689  29.214  1.00  0.00     0.049 A 
ATOM     60  H   UNL A   1      43.820  28.690  28.561  1.00  0.00     0.167 HD
ATOM     61  C   UNL A   1      46.319  30.013  28.709  1.00  0.00     0.074 A 
ATOM     62  C   UNL A   1      47.742  30.266  28.614  1.00  0.00     0.031 C 
ATOM     63  C   UNL A   1      45.407  30.928  29.117  1.00  0.00     0.037 A 
BRANCH  50  64
ATOM     64  C   UNL A   1      39.584  28.873  29.058  1.00  0.00     0.057 A 
ATOM     65  C   UNL A   1      38.763  29.315  28.011  1.00  0.00     0.134 A 
ATOM     66  C   UNL A   1      38.983  28.680  30.309  1.00  0.00     0.134 A 
ATOM     67  F   UNL A   1      39.276  29.531  26.790  1.00  0.00    -0.206 F 
ATOM     68  C   UNL A   1      37.405  29.574  28.206  1.00  0.00     0.040 A 
ATOM     69  C   UNL A   1      37.620  28.909  30.509  1.00  0.00     0.040 A 
ATOM     70  F   UNL A   1      39.707  28.252  31.354  1.00  0.00    -0.206 F 
ATOM     71  C   UNL A   1      36.828  29.363  29.456  1.00  0.00     0.006 A 
ENDBRANCH  50  64
BRANCH  51  72
ATOM     72  C   UNL A   1      49.108  26.535  27.212  1.00  0.00     0.057 A 
ATOM     73  C   UNL A   1      49.640  26.761  25.937  1.00  0.00     0.134 A 
ATOM     74  C   UNL A   1      49.956  25.976  28.174  1.00  0.00     0.134 A 
ATOM     75  F   UNL A   1      48.871  27.276  24.965  1.00  0.00    -0.206 F 
ATOM     76  C   UNL A   1      50.957  26.419  25.623  1.00  0.00     0.040 A 
ATOM     77  C   UNL A   1      51.283  25.658  27.883  1.00  0.00     0.040 A 
ATOM     78  F   UNL A   1      49.510  25.742  29.417  1.00  0.00    -0.206 F 
ATOM     79  C   UNL A   1      51.784  25.870  26.600  1.00  0.00     0.006 A 
ENDBRANCH  51  72
BRANCH  63  80
ATOM     80  C   UNL A   1      45.925  32.277  29.524  1.00  0.00     0.057 A 
ATOM     81  C   UNL A   1      46.026  33.339  28.614  1.00  0.00     0.134 A 
ATOM     82  C   UNL A   1      46.306  32.525  30.849  1.00  0.00     0.134 A 
ATOM     83  F   UNL A   1      45.691  33.166  27.327  1.00  0.00    -0.206 F 
ATOM     84  C   UNL A   1      46.516  34.588  29.002  1.00  0.00     0.040 A 
ATOM     85  C   UNL A   1      46.766  33.778  31.255  1.00  0.00     0.040 A 
ATOM     86  F   UNL A   1      46.224  31.557  31.774  1.00  0.00    -0.206 F 
ATOM     87  C   UNL A   1      46.881  34.811  30.328  1.00  0.00     0.006 A 
ENDBRANCH  63  80
ENDBRANCH  37  38
ENDBRANCH  29  32
ENDBRANCH  27  28
ENDBRANCH  26  27
ENDBRANCH  25  26
ENDBRANCH  24  25
ENDBRANCH   1  24
TORSDOF 18
ENDMDL
MODEL 2
REMARK VINA RESULT:     -10.7      5.126     10.368
REMARK SMILES C=CCOc1ccc(C(=O)N2CCC[C@H]2C(=O)NCCCCCCNC(=O)c2ccc(-c3c4nc(c(-c5c(F)cccc5F)c5ccc([nH]5)c(-c5c(F)cccc5F)c5nc(c(-c6c(F)cccc6F)c6ccc3[nH]6)C=C5)C=C4)cc2)cc1
REMARK SMILES IDX 20 1 19 2 18 3 16 4 17 5 15 7 11 8 12 9 13 10 14 11 9 12
REMARK SMILES IDX 10 13 8 14 5 15 6 16 83 17 7 18 82 19 4 20 3 21 2 22 1 23
REMARK SMILES IDX 21 24 22 25 23 26 24 27 25 28 26 29 27 31 28 32 29 33 81 34
REMARK SMILES IDX 30 35 80 36 31 37 32 38 33 39 74 40 34 41 79 42 73 43 75 44
REMARK SMILES IDX 35 45 78 46 72 47 71 48 36 50 62 51 45 52 61 53 46 54 49 55
REMARK SMILES IDX 60 56 76 57 47 58 48 59 59 61 77 62 50 63 37 64 38 65 43 66
REMARK SMILES IDX 39 67 40 68 42 69 44 70 41 71 63 72 64 73 69 74 65 75 66 76
REMARK SMILES IDX 68 77 70 78 67 79 51 80 52 81 57 82 53 83 54 84 56 85 58 86
REMARK SMILES IDX 55 87
REMARK H PARENT 18 6 25 30 75 49 49 60
REMARK Flexibility Score: inf
ROOT
ATOM      1  C   UNL A   1      33.027  28.417  26.256  1.00  0.00     0.021 C 
ENDROOT
BRANCH   1   2
ATOM      2  C   UNL A   1      33.487  27.437  25.185  1.00  0.00     0.116 C 
BRANCH   2   3
ATOM      3  N   UNL A   1      34.077  26.235  25.745  1.00  0.00    -0.354 N 
ATOM      4  C   UNL A   1      33.518  24.999  25.912  1.00  0.00     0.242 C 
ATOM      5  O   UNL A   1      34.273  24.057  26.166  1.00  0.00    -0.273 OA
ATOM      6  H   UNL A   1      35.010  26.322  26.046  1.00  0.00     0.163 HD
BRANCH   4   7
ATOM      7  C   UNL A   1      31.997  24.811  25.734  1.00  0.00     0.174 C 
ATOM      8  N   UNL A   1      31.654  24.091  24.507  1.00  0.00    -0.327 N 
ATOM      9  C   UNL A   1      31.388  22.697  24.791  1.00  0.00     0.121 C 
ATOM     10  C   UNL A   1      30.709  22.763  26.144  1.00  0.00     0.024 C 
ATOM     11  C   UNL A   1      31.426  23.913  26.857  1.00  0.00     0.037 C 
BRANCH   8  12
ATOM     12  C   UNL A   1      31.673  24.686  23.266  1.00  0.00     0.254 C 
ATOM     13  O   UNL A   1      32.336  24.239  22.333  1.00  0.00    -0.269 OA
BRANCH  12  14
ATOM     14  C   UNL A   1      31.016  26.016  23.092  1.00  0.00     0.040 A 
ATOM     15  C   UNL A   1      29.952  28.606  22.868  1.00  0.00     0.119 A 
ATOM     16  C   UNL A   1      31.159  28.299  22.246  1.00  0.00     0.047 A 
ATOM     17  C   UNL A   1      29.267  27.619  23.570  1.00  0.00     0.047 A 
ATOM     18  C   UNL A   1      31.689  27.008  22.358  1.00  0.00     0.017 A 
ATOM     19  C   UNL A   1      29.814  26.348  23.718  1.00  0.00     0.017 A 
BRANCH  15  20
ATOM     20  O   UNL A   1      29.424  29.855  22.695  1.00  0.00    -0.490 OA
BRANCH  20  21
ATOM     21  C   UNL A   1      28.036  29.941  23.059  1.00  0.00     0.257 C 
BRANCH  21  22
ATOM     22  C   UNL A   1      27.651  31.343  23.442  1.00  0.00     0.006 C 
ATOM     23  C   UNL A   1      28.394  32.428  23.180  1.00  0.00     0.007 C 
ENDBRANCH  21  22
ENDBRANCH  20  21
ENDBRANCH  15  20
ENDBRANCH  12  14
ENDBRANCH   8  12
ENDBRANCH   4   7
ENDBRANCH   2   3
ENDBRANCH   1   2
BRANCH   1  24
ATOM     24  C   UNL A   1      32.882  29.862  25.771  1.00  0.00     0.002 C 
BRANCH  24  25
ATOM     25  C   UNL A   1      31.460  30.432  25.802  1.00  0.00     0.002 C 
BRANCH  25  26
ATOM     26  C   UNL A   1      31.303  31.773  26.522  1.00  0.00     0.021 C 
BRANCH  26  27
ATOM     27  C   UNL A   1      32.608  32.421  26.971  1.00  0.00     0.116 C 
BRANCH  27  28
ATOM     28  N   UNL A   1      32.426  33.797  27.403  1.00  0.00    -0.352 N 
ATOM     29  C   UNL A   1      33.070  34.497  28.390  1.00  0.00     0.251 C 
ATOM     30  H   UNL A   1      31.738  34.302  26.913  1.00  0.00     0.163 HD
ATOM     31  O   UNL A   1      32.665  35.610  28.717  1.00  0.00    -0.269 OA
BRANCH  29  32
ATOM     32  C   UNL A   1      34.239  33.912  29.082  1.00  0.00     0.039 A 
ATOM     33  C   UNL A   1      34.019  32.932  30.054  1.00  0.00     0.014 A 
ATOM     34  C   UNL A   1      35.541  34.333  28.798  1.00  0.00     0.014 A 
ATOM     35  C   UNL A   1      35.104  32.339  30.700  1.00  0.00     0.010 A 
ATOM     36  C   UNL A   1      36.626  33.688  29.388  1.00  0.00     0.010 A 
ATOM     37  C   UNL A   1      36.419  32.688  30.350  1.00  0.00    -0.014 A 
BRANCH  37  38
ATOM     38  C   UNL A   1      37.580  32.006  30.978  1.00  0.00     0.031 A 
ATOM     39  C   UNL A   1      38.325  30.927  30.240  1.00  0.00     0.074 A 
ATOM     40  C   UNL A   1      37.938  32.331  32.236  1.00  0.00     0.049 A 
ATOM     41  N   UNL A   1      39.346  30.210  30.636  1.00  0.00    -0.248 NA
ATOM     42  C   UNL A   1      37.845  30.592  28.890  1.00  0.00     0.031 C 
ATOM     43  C   UNL A   1      37.262  33.322  33.077  1.00  0.00     0.029 A 
ATOM     44  N   UNL A   1      38.955  31.861  33.029  1.00  0.00    -0.354 N 
ATOM     45  C   UNL A   1      39.622  29.335  29.593  1.00  0.00     0.074 A 
ATOM     46  C   UNL A   1      38.630  29.574  28.568  1.00  0.00     0.031 C 
ATOM     47  C   UNL A   1      37.899  33.402  34.258  1.00  0.00     0.029 A 
ATOM     48  C   UNL A   1      39.001  32.446  34.270  1.00  0.00     0.049 A 
ATOM     49  H   UNL A   1      39.591  31.169  32.735  1.00  0.00     0.167 HD
ATOM     50  C   UNL A   1      40.626  28.431  29.490  1.00  0.00     0.037 A 
ATOM     51  C   UNL A   1      39.835  32.235  35.306  1.00  0.00     0.037 A 
ATOM     52  C   UNL A   1      41.627  28.211  30.502  1.00  0.00     0.049 A 
ATOM     53  C   UNL A   1      40.942  31.227  35.163  1.00  0.00     0.074 A 
ATOM     54  C   UNL A   1      42.722  27.366  30.461  1.00  0.00     0.029 A 
ATOM     55  N   UNL A   1      41.650  28.836  31.740  1.00  0.00    -0.354 N 
ATOM     56  N   UNL A   1      41.240  30.465  34.139  1.00  0.00    -0.248 NA
ATOM     57  C   UNL A   1      41.835  31.057  36.317  1.00  0.00     0.031 C 
ATOM     58  C   UNL A   1      43.378  27.439  31.694  1.00  0.00     0.029 A 
ATOM     59  C   UNL A   1      42.725  28.374  32.482  1.00  0.00     0.049 A 
ATOM     60  H   UNL A   1      40.999  29.507  32.046  1.00  0.00     0.167 HD
ATOM     61  C   UNL A   1      42.369  29.748  34.513  1.00  0.00     0.074 A 
ATOM     62  C   UNL A   1      42.713  30.180  35.851  1.00  0.00     0.031 C 
ATOM     63  C   UNL A   1      43.057  28.813  33.812  1.00  0.00     0.037 A 
BRANCH  50  64
ATOM     64  C   UNL A   1      40.697  27.609  28.235  1.00  0.00     0.057 A 
ATOM     65  C   UNL A   1      41.447  28.015  27.123  1.00  0.00     0.134 A 
ATOM     66  C   UNL A   1      40.046  26.371  28.154  1.00  0.00     0.134 A 
ATOM     67  F   UNL A   1      42.087  29.195  27.129  1.00  0.00    -0.206 F 
ATOM     68  C   UNL A   1      41.529  27.232  25.970  1.00  0.00     0.040 A 
ATOM     69  C   UNL A   1      40.143  25.566  27.018  1.00  0.00     0.040 A 
ATOM     70  F   UNL A   1      39.315  25.916  29.183  1.00  0.00    -0.206 F 
ATOM     71  C   UNL A   1      40.883  25.999  25.918  1.00  0.00     0.006 A 
ENDBRANCH  50  64
BRANCH  51  72
ATOM     72  C   UNL A   1      39.667  33.002  36.567  1.00  0.00     0.057 A 
ATOM     73  C   UNL A   1      40.412  34.161  36.815  1.00  0.00     0.134 A 
ATOM     74  C   UNL A   1      38.772  32.586  37.560  1.00  0.00     0.134 A 
ATOM     75  F   UNL A   1      41.300  34.599  35.910  1.00  0.00    -0.206 F 
ATOM     76  C   UNL A   1      40.293  34.864  38.016  1.00  0.00     0.040 A 
ATOM     77  C   UNL A   1      38.622  33.296  38.752  1.00  0.00     0.040 A 
ATOM     78  F   UNL A   1      38.023  31.489  37.381  1.00  0.00    -0.206 F 
ATOM     79  C   UNL A   1      39.391  34.434  38.987  1.00  0.00     0.006 A 
ENDBRANCH  51  72
BRANCH  63  80
ATOM     80  C   UNL A   1      44.272  28.222  34.469  1.00  0.00     0.057 A 
ATOM     81  C   UNL A   1      44.208  27.042  35.222  1.00  0.00     0.134 A 
ATOM     82  C   UNL A   1      45.527  28.829  34.325  1.00  0.00     0.134 A 
ATOM     83  F   UNL A   1      43.036  26.417  35.409  1.00  0.00    -0.206 F 
ATOM     84  C   UNL A   1      45.342  26.505  35.833  1.00  0.00     0.040 A 
ATOM     85  C   UNL A   1      46.672  28.284  34.906  1.00  0.00     0.040 A 
ATOM     86  F   UNL A   1      45.661  29.955  33.609  1.00  0.00    -0.206 F 
ATOM     87  C   UNL A   1      46.580  27.124  35.670  1.00  0.00     0.006 A 
ENDBRANCH  63  80
ENDBRANCH  37  38
ENDBRANCH  29  32
ENDBRANCH  27  28
ENDBRANCH  26  27
ENDBRANCH  25  26
ENDBRANCH  24  25
ENDBRANCH   1  24
TORSDOF 18
ENDMDL
MODEL 3
REMARK VINA RESULT:     -10.7      5.189      9.771
REMARK SMILES C=CCOc1ccc(C(=O)N2CCC[C@H]2C(=O)NCCCCCCNC(=O)c2ccc(-c3c4nc(c(-c5c(F)cccc5F)c5ccc([nH]5)c(-c5c(F)cccc5F)c5nc(c(-c6c(F)cccc6F)c6ccc3[nH]6)C=C5)C=C4)cc2)cc1
REMARK SMILES IDX 20 1 19 2 18 3 16 4 17 5 15 7 11 8 12 9 13 10 14 11 9 12
REMARK SMILES IDX 10 13 8 14 5 15 6 16 83 17 7 18 82 19 4 20 3 21 2 22 1 23
REMARK SMILES IDX 21 24 22 25 23 26 24 27 25 28 26 29 27 31 28 32 29 33 81 34
REMARK SMILES IDX 30 35 80 36 31 37 32 38 33 39 74 40 34 41 79 42 73 43 75 44
REMARK SMILES IDX 35 45 78 46 72 47 71 48 36 50 62 51 45 52 61 53 46 54 49 55
REMARK SMILES IDX 60 56 76 57 47 58 48 59 59 61 77 62 50 63 37 64 38 65 43 66
REMARK SMILES IDX 39 67 40 68 42 69 44 70 41 71 63 72 64 73 69 74 65 75 66 76
REMARK SMILES IDX 68 77 70 78 67 79 51 80 52 81 57 82 53 83 54 84 56 85 58 86
REMARK SMILES IDX 55 87
REMARK H PARENT 18 6 25 30 75 49 49 60
REMARK Flexibility Score: inf
ROOT
ATOM      1  C   UNL A   1      34.230  28.922  27.248  1.00  0.00     0.021 C 
ENDROOT
BRANCH   1   2
ATOM      2  C   UNL A   1      33.399  27.925  26.451  1.00  0.00     0.116 C 
BRANCH   2   3
ATOM      3  N   UNL A   1      33.850  27.795  25.078  1.00  0.00    -0.354 N 
ATOM      4  C   UNL A   1      33.559  26.820  24.166  1.00  0.00     0.242 C 
ATOM      5  O   UNL A   1      33.837  27.038  22.984  1.00  0.00    -0.273 OA
ATOM      6  H   UNL A   1      34.448  28.508  24.759  1.00  0.00     0.163 HD
BRANCH   4   7
ATOM      7  C   UNL A   1      32.863  25.521  24.622  1.00  0.00     0.174 C 
ATOM      8  N   UNL A   1      31.455  25.463  24.228  1.00  0.00    -0.327 N 
ATOM      9  C   UNL A   1      31.292  24.657  23.036  1.00  0.00     0.121 C 
ATOM     10  C   UNL A   1      32.329  23.570  23.233  1.00  0.00     0.024 C 
ATOM     11  C   UNL A   1      33.490  24.293  23.920  1.00  0.00     0.037 C 
BRANCH   8  12
ATOM     12  C   UNL A   1      30.469  26.162  24.886  1.00  0.00     0.254 C 
ATOM     13  O   UNL A   1      30.012  25.796  25.965  1.00  0.00    -0.269 OA
BRANCH  12  14
ATOM     14  C   UNL A   1      29.800  27.300  24.185  1.00  0.00     0.040 A 
ATOM     15  C   UNL A   1      28.519  29.306  22.694  1.00  0.00     0.119 A 
ATOM     16  C   UNL A   1      27.832  28.138  23.014  1.00  0.00     0.047 A 
ATOM     17  C   UNL A   1      29.824  29.484  23.141  1.00  0.00     0.047 A 
ATOM     18  C   UNL A   1      28.471  27.139  23.757  1.00  0.00     0.017 A 
ATOM     19  C   UNL A   1      30.475  28.472  23.842  1.00  0.00     0.017 A 
BRANCH  15  20
ATOM     20  O   UNL A   1      27.855  30.294  22.020  1.00  0.00    -0.490 OA
BRANCH  20  21
ATOM     21  C   UNL A   1      28.710  31.375  21.610  1.00  0.00     0.257 C 
BRANCH  21  22
ATOM     22  C   UNL A   1      28.271  32.683  22.209  1.00  0.00     0.006 C 
ATOM     23  C   UNL A   1      29.008  33.405  23.066  1.00  0.00     0.007 C 
ENDBRANCH  21  22
ENDBRANCH  20  21
ENDBRANCH  15  20
ENDBRANCH  12  14
ENDBRANCH   8  12
ENDBRANCH   4   7
ENDBRANCH   2   3
ENDBRANCH   1   2
BRANCH   1  24
ATOM     24  C   UNL A   1      33.698  30.358  27.216  1.00  0.00     0.002 C 
BRANCH  24  25
ATOM     25  C   UNL A   1      32.189  30.500  26.987  1.00  0.00     0.002 C 
BRANCH  25  26
ATOM     26  C   UNL A   1      31.648  31.930  27.028  1.00  0.00     0.021 C 
BRANCH  26  27
ATOM     27  C   UNL A   1      32.678  33.018  26.741  1.00  0.00     0.116 C 
BRANCH  27  28
ATOM     28  N   UNL A   1      32.489  34.196  27.572  1.00  0.00    -0.352 N 
ATOM     29  C   UNL A   1      33.131  34.565  28.725  1.00  0.00     0.251 C 
ATOM     30  H   UNL A   1      31.797  34.822  27.260  1.00  0.00     0.163 HD
ATOM     31  O   UNL A   1      32.721  35.523  29.376  1.00  0.00    -0.269 OA
BRANCH  29  32
ATOM     32  C   UNL A   1      34.305  33.803  29.204  1.00  0.00     0.039 A 
ATOM     33  C   UNL A   1      35.579  34.218  28.807  1.00  0.00     0.014 A 
ATOM     34  C   UNL A   1      34.161  32.678  30.019  1.00  0.00     0.014 A 
ATOM     35  C   UNL A   1      36.706  33.538  29.269  1.00  0.00     0.010 A 
ATOM     36  C   UNL A   1      35.288  32.046  30.541  1.00  0.00     0.010 A 
ATOM     37  C   UNL A   1      36.573  32.466  30.167  1.00  0.00    -0.014 A 
BRANCH  37  38
ATOM     38  C   UNL A   1      37.771  31.787  30.724  1.00  0.00     0.031 A 
ATOM     39  C   UNL A   1      38.308  32.168  32.076  1.00  0.00     0.074 A 
ATOM     40  C   UNL A   1      38.404  30.851  29.988  1.00  0.00     0.049 A 
ATOM     41  N   UNL A   1      39.352  31.700  32.713  1.00  0.00    -0.248 NA
ATOM     42  C   UNL A   1      37.593  33.232  32.799  1.00  0.00     0.031 C 
ATOM     43  C   UNL A   1      38.015  30.431  28.640  1.00  0.00     0.029 A 
ATOM     44  N   UNL A   1      39.510  30.088  30.267  1.00  0.00    -0.354 N 
ATOM     45  C   UNL A   1      39.425  32.417  33.901  1.00  0.00     0.074 A 
ATOM     46  C   UNL A   1      38.352  33.388  33.874  1.00  0.00     0.031 C 
ATOM     47  C   UNL A   1      38.854  29.469  28.221  1.00  0.00     0.029 A 
ATOM     48  C   UNL A   1      39.858  29.231  29.253  1.00  0.00     0.049 A 
ATOM     49  H   UNL A   1      40.007  30.149  31.115  1.00  0.00     0.167 HD
ATOM     50  C   UNL A   1      40.293  32.264  34.930  1.00  0.00     0.037 A 
ATOM     51  C   UNL A   1      40.875  28.353  29.160  1.00  0.00     0.037 A 
ATOM     52  C   UNL A   1      41.345  31.281  34.963  1.00  0.00     0.049 A 
ATOM     53  C   UNL A   1      41.822  28.202  30.318  1.00  0.00     0.074 A 
ATOM     54  C   UNL A   1      42.232  31.005  35.989  1.00  0.00     0.029 A 
ATOM     55  N   UNL A   1      41.656  30.420  33.923  1.00  0.00    -0.354 N 
ATOM     56  N   UNL A   1      41.829  28.831  31.468  1.00  0.00    -0.248 NA
ATOM     57  C   UNL A   1      42.898  27.212  30.169  1.00  0.00     0.031 C 
ATOM     58  C   UNL A   1      43.114  30.012  35.550  1.00  0.00     0.029 A 
ATOM     59  C   UNL A   1      42.740  29.629  34.272  1.00  0.00     0.049 A 
ATOM     60  H   UNL A   1      41.178  30.375  33.064  1.00  0.00     0.167 HD
ATOM     61  C   UNL A   1      42.888  28.294  32.190  1.00  0.00     0.074 A 
ATOM     62  C   UNL A   1      43.488  27.275  31.354  1.00  0.00     0.031 C 
ATOM     63  C   UNL A   1      43.326  28.617  33.431  1.00  0.00     0.037 A 
BRANCH  50  64
ATOM     64  C   UNL A   1      40.142  33.180  36.110  1.00  0.00     0.057 A 
ATOM     65  C   UNL A   1      39.294  32.874  37.184  1.00  0.00     0.134 A 
ATOM     66  C   UNL A   1      40.891  34.361  36.199  1.00  0.00     0.134 A 
ATOM     67  F   UNL A   1      38.540  31.764  37.159  1.00  0.00    -0.206 F 
ATOM     68  C   UNL A   1      39.180  33.719  38.289  1.00  0.00     0.040 A 
ATOM     69  C   UNL A   1      40.807  35.199  37.312  1.00  0.00     0.040 A 
ATOM     70  F   UNL A   1      41.727  34.714  35.211  1.00  0.00    -0.206 F 
ATOM     71  C   UNL A   1      39.945  34.881  38.360  1.00  0.00     0.006 A 
ENDBRANCH  50  64
BRANCH  51  72
ATOM     72  C   UNL A   1      41.045  27.536  27.931  1.00  0.00     0.057 A 
ATOM     73  C   UNL A   1      41.804  28.001  26.850  1.00  0.00     0.134 A 
ATOM     74  C   UNL A   1      40.440  26.281  27.800  1.00  0.00     0.134 A 
ATOM     75  F   UNL A   1      42.393  29.205  26.906  1.00  0.00    -0.206 F 
ATOM     76  C   UNL A   1      41.933  27.259  25.674  1.00  0.00     0.040 A 
ATOM     77  C   UNL A   1      40.585  25.516  26.642  1.00  0.00     0.040 A 
ATOM     78  F   UNL A   1      39.706  25.775  28.802  1.00  0.00    -0.206 F 
ATOM     79  C   UNL A   1      41.326  26.009  25.571  1.00  0.00     0.006 A 
ENDBRANCH  51  72
BRANCH  63  80
ATOM     80  C   UNL A   1      44.489  27.836  33.972  1.00  0.00     0.057 A 
ATOM     81  C   UNL A   1      45.811  28.277  33.829  1.00  0.00     0.134 A 
ATOM     82  C   UNL A   1      44.280  26.638  34.669  1.00  0.00     0.134 A 
ATOM     83  F   UNL A   1      46.081  29.409  33.162  1.00  0.00    -0.206 F 
ATOM     84  C   UNL A   1      46.885  27.540  34.330  1.00  0.00     0.040 A 
ATOM     85  C   UNL A   1      45.343  25.909  35.202  1.00  0.00     0.040 A 
ATOM     86  F   UNL A   1      43.039  26.164  34.853  1.00  0.00    -0.206 F 
ATOM     87  C   UNL A   1      46.651  26.354  35.025  1.00  0.00     0.006 A 
ENDBRANCH  63  80
ENDBRANCH  37  38
ENDBRANCH  29  32
ENDBRANCH  27  28
ENDBRANCH  26  27
ENDBRANCH  25  26
ENDBRANCH  24  25
ENDBRANCH   1  24
TORSDOF 18
ENDMDL
