MODEL 1
REMARK VINA RESULT:     -11.2      0.000      0.000
REMARK SMILES COc1ccc(CCNC(=O)c2cccnc2C(=O)NCCCCCCNC(=O)c2ccc(-c3c4nc(c(-c5c(F)cccc5F)c5ccc([nH]5)c(-c5c(F)cccc5F)c5nc(c(-c6c(F)cccc6F)c6ccc3[nH]6)C=C5)C=C4)cc2)cc1OC
REMARK SMILES IDX 22 1 21 2 20 3 18 4 19 5 17 7 12 8 13 9 14 10 16 11 15 12
REMARK SMILES IDX 10 13 9 14 11 16 8 17 7 18 6 19 3 20 4 21 85 22 5 23 84 24
REMARK SMILES IDX 2 25 1 26 86 27 87 28 23 29 24 30 25 31 26 32 27 33 28 34
REMARK SMILES IDX 29 36 30 37 31 38 83 39 32 40 82 41 33 42 34 43 35 44 76 45
REMARK SMILES IDX 36 46 81 47 75 48 77 49 37 50 80 51 74 52 73 53 38 55 64 56
REMARK SMILES IDX 47 57 63 58 48 59 51 60 62 61 78 62 49 63 50 64 61 66 79 67
REMARK SMILES IDX 52 68 39 69 40 70 45 71 41 72 42 73 44 74 46 75 43 76 65 77
REMARK SMILES IDX 66 78 71 79 67 80 68 81 70 82 72 83 69 84 53 85 54 86 59 87
REMARK SMILES IDX 55 88 56 89 58 90 60 91 57 92
REMARK H PARENT 20 6 9 15 27 35 77 54 51 65
REMARK Flexibility Score: inf
ROOT
ATOM      1  C   UNL A   1      37.174  23.055  25.338  1.00  0.00     0.021 C 
ENDROOT
BRANCH   1   2
ATOM      2  C   UNL A   1      35.949  23.713  25.955  1.00  0.00     0.116 C 
BRANCH   2   3
ATOM      3  N   UNL A   1      35.187  22.907  26.865  1.00  0.00    -0.351 N 
ATOM      4  C   UNL A   1      33.963  22.286  26.722  1.00  0.00     0.270 C 
ATOM      5  O   UNL A   1      33.646  21.567  27.679  1.00  0.00    -0.267 OA
ATOM      6  H   UNL A   1      35.609  22.774  27.743  1.00  0.00     0.163 HD
BRANCH   4   7
ATOM      7  C   UNL A   1      32.964  22.450  25.584  1.00  0.00     0.140 A 
ATOM      8  C   UNL A   1      31.828  23.255  25.484  1.00  0.00     0.071 A 
ATOM      9  C   UNL A   1      31.176  23.353  24.237  1.00  0.00     0.018 A 
ATOM     10  C   UNL A   1      31.610  22.611  23.147  1.00  0.00     0.021 A 
ATOM     11  N   UNL A   1      33.362  21.696  24.502  1.00  0.00    -0.250 NA
ATOM     12  C   UNL A   1      32.701  21.792  23.331  1.00  0.00     0.112 A 
BRANCH   8  13
ATOM     13  C   UNL A   1      31.316  24.162  26.516  1.00  0.00     0.253 C 
ATOM     14  N   UNL A   1      31.922  25.385  26.748  1.00  0.00    -0.352 N 
ATOM     15  H   UNL A   1      31.477  25.939  27.430  1.00  0.00     0.163 HD
ATOM     16  O   UNL A   1      30.355  23.809  27.194  1.00  0.00    -0.269 OA
BRANCH  14  17
ATOM     17  C   UNL A   1      33.116  25.996  26.152  1.00  0.00     0.121 C 
BRANCH  17  18
ATOM     18  C   UNL A   1      32.995  26.397  24.672  1.00  0.00     0.057 C 
BRANCH  18  19
ATOM     19  C   UNL A   1      31.924  27.405  24.316  1.00  0.00    -0.042 A 
ATOM     20  C   UNL A   1      30.081  29.387  23.481  1.00  0.00     0.160 A 
ATOM     21  C   UNL A   1      30.132  28.133  22.868  1.00  0.00     0.051 A 
ATOM     22  C   UNL A   1      30.914  29.646  24.569  1.00  0.00     0.160 A 
ATOM     23  C   UNL A   1      31.032  27.151  23.281  1.00  0.00     0.008 A 
ATOM     24  C   UNL A   1      31.839  28.653  24.963  1.00  0.00     0.054 A 
BRANCH  20  25
ATOM     25  O   UNL A   1      29.120  30.265  23.056  1.00  0.00    -0.493 OA
ATOM     26  C   UNL A   1      28.044  29.623  22.367  1.00  0.00     0.278 C 
ENDBRANCH  20  25
BRANCH  22  27
ATOM     27  O   UNL A   1      30.971  30.775  25.342  1.00  0.00    -0.493 OA
ATOM     28  C   UNL A   1      31.871  30.803  26.443  1.00  0.00     0.278 C 
ENDBRANCH  22  27
ENDBRANCH  18  19
ENDBRANCH  17  18
ENDBRANCH  14  17
ENDBRANCH   8  13
ENDBRANCH   4   7
ENDBRANCH   2   3
ENDBRANCH   1   2
BRANCH   1  29
ATOM     29  C   UNL A   1      36.960  21.961  24.292  1.00  0.00     0.002 C 
BRANCH  29  30
ATOM     30  C   UNL A   1      36.749  20.520  24.771  1.00  0.00     0.002 C 
BRANCH  30  31
ATOM     31  C   UNL A   1      37.970  19.601  24.873  1.00  0.00     0.021 C 
BRANCH  31  32
ATOM     32  C   UNL A   1      39.088  20.025  25.821  1.00  0.00     0.116 C 
BRANCH  32  33
ATOM     33  N   UNL A   1      40.266  19.174  25.778  1.00  0.00    -0.352 N 
ATOM     34  C   UNL A   1      41.589  19.453  26.052  1.00  0.00     0.251 C 
ATOM     35  H   UNL A   1      40.090  18.244  25.508  1.00  0.00     0.163 HD
ATOM     36  O   UNL A   1      42.439  18.586  25.883  1.00  0.00    -0.269 OA
BRANCH  34  37
ATOM     37  C   UNL A   1      42.010  20.790  26.542  1.00  0.00     0.039 A 
ATOM     38  C   UNL A   1      42.471  21.753  25.642  1.00  0.00     0.014 A 
ATOM     39  C   UNL A   1      42.002  21.088  27.901  1.00  0.00     0.014 A 
ATOM     40  C   UNL A   1      42.834  23.029  26.098  1.00  0.00     0.010 A 
ATOM     41  C   UNL A   1      42.274  22.382  28.349  1.00  0.00     0.010 A 
ATOM     42  C   UNL A   1      42.698  23.372  27.455  1.00  0.00    -0.014 A 
BRANCH  42  43
ATOM     43  C   UNL A   1      42.963  24.751  27.957  1.00  0.00     0.031 A 
ATOM     44  C   UNL A   1      44.345  25.165  28.396  1.00  0.00     0.074 A 
ATOM     45  C   UNL A   1      41.936  25.612  28.107  1.00  0.00     0.049 A 
ATOM     46  N   UNL A   1      44.744  26.298  28.922  1.00  0.00    -0.248 NA
ATOM     47  C   UNL A   1      45.418  24.170  28.245  1.00  0.00     0.031 C 
ATOM     48  C   UNL A   1      40.537  25.323  27.788  1.00  0.00     0.029 A 
ATOM     49  N   UNL A   1      41.906  26.900  28.586  1.00  0.00    -0.354 N 
ATOM     50  C   UNL A   1      46.105  26.152  29.160  1.00  0.00     0.074 A 
ATOM     51  C   UNL A   1      46.454  24.799  28.781  1.00  0.00     0.031 C 
ATOM     52  C   UNL A   1      39.790  26.405  28.064  1.00  0.00     0.029 A 
ATOM     53  C   UNL A   1      40.646  27.451  28.612  1.00  0.00     0.049 A 
ATOM     54  H   UNL A   1      42.711  27.384  28.882  1.00  0.00     0.167 HD
ATOM     55  C   UNL A   1      46.993  27.066  29.624  1.00  0.00     0.037 A 
ATOM     56  C   UNL A   1      40.224  28.657  29.040  1.00  0.00     0.037 A 
ATOM     57  C   UNL A   1      46.653  28.415  29.999  1.00  0.00     0.049 A 
ATOM     58  C   UNL A   1      41.225  29.644  29.576  1.00  0.00     0.074 A 
ATOM     59  C   UNL A   1      47.491  29.428  30.436  1.00  0.00     0.029 A 
ATOM     60  N   UNL A   1      45.370  28.939  29.985  1.00  0.00    -0.354 N 
ATOM     61  N   UNL A   1      42.521  29.517  29.716  1.00  0.00    -0.248 NA
ATOM     62  C   UNL A   1      40.702  30.950  30.006  1.00  0.00     0.031 C 
ATOM     63  C   UNL A   1      46.710  30.550  30.730  1.00  0.00     0.029 A 
ATOM     64  C   UNL A   1      45.392  30.255  30.423  1.00  0.00     0.049 A 
ATOM     65  H   UNL A   1      44.561  28.450  29.707  1.00  0.00     0.167 HD
ATOM     66  C   UNL A   1      42.972  30.735  30.208  1.00  0.00     0.074 A 
ATOM     67  C   UNL A   1      41.814  31.592  30.336  1.00  0.00     0.031 C 
ATOM     68  C   UNL A   1      44.236  31.109  30.524  1.00  0.00     0.037 A 
BRANCH  55  69
ATOM     69  C   UNL A   1      48.434  26.650  29.730  1.00  0.00     0.057 A 
ATOM     70  C   UNL A   1      48.932  26.024  30.882  1.00  0.00     0.134 A 
ATOM     71  C   UNL A   1      49.317  26.813  28.655  1.00  0.00     0.134 A 
ATOM     72  F   UNL A   1      48.142  25.840  31.951  1.00  0.00    -0.206 F 
ATOM     73  C   UNL A   1      50.258  25.596  30.968  1.00  0.00     0.040 A 
ATOM     74  C   UNL A   1      50.638  26.363  28.718  1.00  0.00     0.040 A 
ATOM     75  F   UNL A   1      48.907  27.393  27.517  1.00  0.00    -0.206 F 
ATOM     76  C   UNL A   1      51.113  25.758  29.880  1.00  0.00     0.006 A 
ENDBRANCH  55  69
BRANCH  56  77
ATOM     77  C   UNL A   1      38.785  29.017  28.958  1.00  0.00     0.057 A 
ATOM     78  C   UNL A   1      38.225  29.485  27.762  1.00  0.00     0.134 A 
ATOM     79  C   UNL A   1      37.942  28.930  30.073  1.00  0.00     0.134 A 
ATOM     80  F   UNL A   1      38.986  29.608  26.665  1.00  0.00    -0.206 F 
ATOM     81  C   UNL A   1      36.890  29.883  27.686  1.00  0.00     0.040 A 
ATOM     82  C   UNL A   1      36.598  29.296  30.003  1.00  0.00     0.040 A 
ATOM     83  F   UNL A   1      38.414  28.481  31.245  1.00  0.00    -0.206 F 
ATOM     84  C   UNL A   1      36.071  29.785  28.808  1.00  0.00     0.006 A 
ENDBRANCH  56  77
BRANCH  68  85
ATOM     85  C   UNL A   1      44.447  32.523  30.983  1.00  0.00     0.057 A 
ATOM     86  C   UNL A   1      44.658  33.574  30.082  1.00  0.00     0.134 A 
ATOM     87  C   UNL A   1      44.393  32.841  32.347  1.00  0.00     0.134 A 
ATOM     88  F   UNL A   1      44.735  33.337  28.765  1.00  0.00    -0.206 F 
ATOM     89  C   UNL A   1      44.830  34.888  30.523  1.00  0.00     0.040 A 
ATOM     90  C   UNL A   1      44.535  34.155  32.797  1.00  0.00     0.040 A 
ATOM     91  F   UNL A   1      44.186  31.883  33.262  1.00  0.00    -0.206 F 
ATOM     92  C   UNL A   1      44.759  35.182  31.884  1.00  0.00     0.006 A 
ENDBRANCH  68  85
ENDBRANCH  42  43
ENDBRANCH  34  37
ENDBRANCH  32  33
ENDBRANCH  31  32
ENDBRANCH  30  31
ENDBRANCH  29  30
ENDBRANCH   1  29
TORSDOF 19
ENDMDL
MODEL 2
REMARK VINA RESULT:     -10.9      1.108      6.225
REMARK SMILES COc1ccc(CCNC(=O)c2cccnc2C(=O)NCCCCCCNC(=O)c2ccc(-c3c4nc(c(-c5c(F)cccc5F)c5ccc([nH]5)c(-c5c(F)cccc5F)c5nc(c(-c6c(F)cccc6F)c6ccc3[nH]6)C=C5)C=C4)cc2)cc1OC
REMARK SMILES IDX 22 1 21 2 20 3 18 4 19 5 17 7 12 8 13 9 14 10 16 11 15 12
REMARK SMILES IDX 10 13 9 14 11 16 8 17 7 18 6 19 3 20 4 21 85 22 5 23 84 24
REMARK SMILES IDX 2 25 1 26 86 27 87 28 23 29 24 30 25 31 26 32 27 33 28 34
REMARK SMILES IDX 29 36 30 37 31 38 83 39 32 40 82 41 33 42 34 43 35 44 76 45
REMARK SMILES IDX 36 46 81 47 75 48 77 49 37 50 80 51 74 52 73 53 38 55 64 56
REMARK SMILES IDX 47 57 63 58 48 59 51 60 62 61 78 62 49 63 50 64 61 66 79 67
REMARK SMILES IDX 52 68 39 69 40 70 45 71 41 72 42 73 44 74 46 75 43 76 65 77
REMARK SMILES IDX 66 78 71 79 67 80 68 81 70 82 72 83 69 84 53 85 54 86 59 87
REMARK SMILES IDX 55 88 56 89 58 90 60 91 57 92
REMARK H PARENT 20 6 9 15 27 35 77 54 51 65
REMARK Flexibility Score: inf
ROOT
ATOM      1  C   UNL A   1      36.812  23.323  24.701  1.00  0.00     0.021 C 
ENDROOT
BRANCH   1   2
ATOM      2  C   UNL A   1      36.280  23.274  26.126  1.00  0.00     0.116 C 
BRANCH   2   3
ATOM      3  N   UNL A   1      34.984  23.850  26.339  1.00  0.00    -0.351 N 
ATOM      4  C   UNL A   1      33.720  23.362  26.085  1.00  0.00     0.270 C 
ATOM      5  O   UNL A   1      32.804  24.087  26.499  1.00  0.00    -0.267 OA
ATOM      6  H   UNL A   1      35.000  24.752  26.733  1.00  0.00     0.163 HD
BRANCH   4   7
ATOM      7  C   UNL A   1      33.346  22.107  25.306  1.00  0.00     0.140 A 
ATOM      8  C   UNL A   1      33.076  21.930  23.948  1.00  0.00     0.071 A 
ATOM      9  C   UNL A   1      32.933  20.616  23.453  1.00  0.00     0.018 A 
ATOM     10  C   UNL A   1      32.989  19.524  24.308  1.00  0.00     0.021 A 
ATOM     11  N   UNL A   1      33.366  21.015  26.146  1.00  0.00    -0.250 NA
ATOM     12  C   UNL A   1      33.199  19.774  25.644  1.00  0.00     0.112 A 
BRANCH   8  13
ATOM     13  C   UNL A   1      33.085  22.975  22.920  1.00  0.00     0.253 C 
ATOM     14  N   UNL A   1      31.988  23.798  22.738  1.00  0.00    -0.352 N 
ATOM     15  H   UNL A   1      32.109  24.496  22.053  1.00  0.00     0.163 HD
ATOM     16  O   UNL A   1      34.073  23.092  22.201  1.00  0.00    -0.269 OA
BRANCH  14  17
ATOM     17  C   UNL A   1      30.673  23.808  23.390  1.00  0.00     0.121 C 
BRANCH  17  18
ATOM     18  C   UNL A   1      29.799  25.044  23.118  1.00  0.00     0.057 C 
BRANCH  18  19
ATOM     19  C   UNL A   1      30.322  26.379  23.603  1.00  0.00    -0.042 A 
ATOM     20  C   UNL A   1      31.068  28.927  24.588  1.00  0.00     0.160 A 
ATOM     21  C   UNL A   1      31.116  27.789  25.397  1.00  0.00     0.051 A 
ATOM     22  C   UNL A   1      30.705  28.794  23.248  1.00  0.00     0.160 A 
ATOM     23  C   UNL A   1      30.758  26.531  24.915  1.00  0.00     0.008 A 
ATOM     24  C   UNL A   1      30.320  27.519  22.776  1.00  0.00     0.054 A 
BRANCH  20  25
ATOM     25  O   UNL A   1      31.502  30.109  25.126  1.00  0.00    -0.493 OA
ATOM     26  C   UNL A   1      32.826  30.026  25.660  1.00  0.00     0.278 C 
ENDBRANCH  20  25
BRANCH  22  27
ATOM     27  O   UNL A   1      30.660  29.764  22.283  1.00  0.00    -0.493 OA
ATOM     28  C   UNL A   1      29.426  30.430  22.043  1.00  0.00     0.278 C 
ENDBRANCH  22  27
ENDBRANCH  18  19
ENDBRANCH  17  18
ENDBRANCH  14  17
ENDBRANCH   8  13
ENDBRANCH   4   7
ENDBRANCH   2   3
ENDBRANCH   1   2
BRANCH   1  29
ATOM     29  C   UNL A   1      36.916  22.013  23.920  1.00  0.00     0.002 C 
BRANCH  29  30
ATOM     30  C   UNL A   1      36.807  20.691  24.689  1.00  0.00     0.002 C 
BRANCH  30  31
ATOM     31  C   UNL A   1      37.998  19.728  24.656  1.00  0.00     0.021 C 
BRANCH  31  32
ATOM     32  C   UNL A   1      38.831  19.601  25.928  1.00  0.00     0.116 C 
BRANCH  32  33
ATOM     33  N   UNL A   1      40.128  18.972  25.736  1.00  0.00    -0.352 N 
ATOM     34  C   UNL A   1      41.403  19.454  25.945  1.00  0.00     0.251 C 
ATOM     35  H   UNL A   1      40.089  18.047  25.400  1.00  0.00     0.163 HD
ATOM     36  O   UNL A   1      42.370  18.762  25.647  1.00  0.00    -0.269 OA
BRANCH  34  37
ATOM     37  C   UNL A   1      41.631  20.805  26.518  1.00  0.00     0.039 A 
ATOM     38  C   UNL A   1      41.570  20.999  27.900  1.00  0.00     0.014 A 
ATOM     39  C   UNL A   1      41.857  21.902  25.693  1.00  0.00     0.014 A 
ATOM     40  C   UNL A   1      41.822  22.267  28.446  1.00  0.00     0.010 A 
ATOM     41  C   UNL A   1      42.199  23.143  26.235  1.00  0.00     0.010 A 
ATOM     42  C   UNL A   1      42.183  23.346  27.619  1.00  0.00    -0.014 A 
BRANCH  42  43
ATOM     43  C   UNL A   1      42.570  24.676  28.171  1.00  0.00     0.031 A 
ATOM     44  C   UNL A   1      41.548  25.770  28.351  1.00  0.00     0.074 A 
ATOM     45  C   UNL A   1      43.869  24.936  28.428  1.00  0.00     0.049 A 
ATOM     46  N   UNL A   1      41.718  27.007  28.752  1.00  0.00    -0.248 NA
ATOM     47  C   UNL A   1      40.153  25.440  28.017  1.00  0.00     0.031 C 
ATOM     48  C   UNL A   1      44.974  23.994  28.236  1.00  0.00     0.029 A 
ATOM     49  N   UNL A   1      44.483  26.076  28.887  1.00  0.00    -0.354 N 
ATOM     50  C   UNL A   1      40.460  27.597  28.720  1.00  0.00     0.074 A 
ATOM     51  C   UNL A   1      39.545  26.602  28.200  1.00  0.00     0.031 C 
ATOM     52  C   UNL A   1      46.125  24.589  28.589  1.00  0.00     0.029 A 
ATOM     53  C   UNL A   1      45.849  25.962  28.997  1.00  0.00     0.049 A 
ATOM     54  H   UNL A   1      43.992  26.898  29.117  1.00  0.00     0.167 HD
ATOM     55  C   UNL A   1      40.091  28.841  29.114  1.00  0.00     0.037 A 
ATOM     56  C   UNL A   1      46.778  26.862  29.374  1.00  0.00     0.037 A 
ATOM     57  C   UNL A   1      40.997  29.833  29.635  1.00  0.00     0.049 A 
ATOM     58  C   UNL A   1      46.346  28.245  29.779  1.00  0.00     0.074 A 
ATOM     59  C   UNL A   1      40.710  31.104  30.103  1.00  0.00     0.029 A 
ATOM     60  N   UNL A   1      42.368  29.666  29.754  1.00  0.00    -0.354 N 
ATOM     61  N   UNL A   1      45.141  28.758  29.823  1.00  0.00    -0.248 NA
ATOM     62  C   UNL A   1      47.407  29.174  30.200  1.00  0.00     0.031 C 
ATOM     63  C   UNL A   1      41.910  31.724  30.462  1.00  0.00     0.029 A 
ATOM     64  C   UNL A   1      42.940  30.818  30.271  1.00  0.00     0.049 A 
ATOM     65  H   UNL A   1      42.863  28.851  29.507  1.00  0.00     0.167 HD
ATOM     66  C   UNL A   1      45.294  30.049  30.312  1.00  0.00     0.074 A 
ATOM     67  C   UNL A   1      46.706  30.241  30.559  1.00  0.00     0.031 C 
ATOM     68  C   UNL A   1      44.346  30.991  30.537  1.00  0.00     0.037 A 
BRANCH  55  69
ATOM     69  C   UNL A   1      38.634  29.200  29.022  1.00  0.00     0.057 A 
ATOM     70  C   UNL A   1      37.802  29.175  30.151  1.00  0.00     0.134 A 
ATOM     71  C   UNL A   1      38.069  29.638  27.817  1.00  0.00     0.134 A 
ATOM     72  F   UNL A   1      38.276  28.762  31.336  1.00  0.00    -0.206 F 
ATOM     73  C   UNL A   1      36.459  29.550  30.079  1.00  0.00     0.040 A 
ATOM     74  C   UNL A   1      36.735  30.043  27.740  1.00  0.00     0.040 A 
ATOM     75  F   UNL A   1      38.809  29.699  26.701  1.00  0.00    -0.206 F 
ATOM     76  C   UNL A   1      35.924  29.994  28.871  1.00  0.00     0.006 A 
ENDBRANCH  55  69
BRANCH  56  77
ATOM     77  C   UNL A   1      48.214  26.484  29.412  1.00  0.00     0.057 A 
ATOM     78  C   UNL A   1      48.772  25.881  30.546  1.00  0.00     0.134 A 
ATOM     79  C   UNL A   1      49.069  26.738  28.332  1.00  0.00     0.134 A 
ATOM     80  F   UNL A   1      48.008  25.628  31.620  1.00  0.00    -0.206 F 
ATOM     81  C   UNL A   1      50.131  25.574  30.618  1.00  0.00     0.040 A 
ATOM     82  C   UNL A   1      50.424  26.409  28.380  1.00  0.00     0.040 A 
ATOM     83  F   UNL A   1      48.596  27.306  27.213  1.00  0.00    -0.206 F 
ATOM     84  C   UNL A   1      50.961  25.835  29.531  1.00  0.00     0.006 A 
ENDBRANCH  56  77
BRANCH  68  85
ATOM     85  C   UNL A   1      44.791  32.295  31.134  1.00  0.00     0.057 A 
ATOM     86  C   UNL A   1      45.154  33.392  30.342  1.00  0.00     0.134 A 
ATOM     87  C   UNL A   1      44.814  32.467  32.525  1.00  0.00     0.134 A 
ATOM     88  F   UNL A   1      45.166  33.291  29.005  1.00  0.00    -0.206 F 
ATOM     89  C   UNL A   1      45.543  34.605  30.912  1.00  0.00     0.040 A 
ATOM     90  C   UNL A   1      45.175  33.684  33.105  1.00  0.00     0.040 A 
ATOM     91  F   UNL A   1      44.472  31.459  33.342  1.00  0.00    -0.206 F 
ATOM     92  C   UNL A   1      45.545  34.756  32.298  1.00  0.00     0.006 A 
ENDBRANCH  68  85
ENDBRANCH  42  43
ENDBRANCH  34  37
ENDBRANCH  32  33
ENDBRANCH  31  32
ENDBRANCH  30  31
ENDBRANCH  29  30
ENDBRANCH   1  29
TORSDOF 19
ENDMDL
MODEL 3
REMARK VINA RESULT:     -10.9      1.547      6.092
REMARK SMILES COc1ccc(CCNC(=O)c2cccnc2C(=O)NCCCCCCNC(=O)c2ccc(-c3c4nc(c(-c5c(F)cccc5F)c5ccc([nH]5)c(-c5c(F)cccc5F)c5nc(c(-c6c(F)cccc6F)c6ccc3[nH]6)C=C5)C=C4)cc2)cc1OC
REMARK SMILES IDX 22 1 21 2 20 3 18 4 19 5 17 7 12 8 13 9 14 10 16 11 15 12
REMARK SMILES IDX 10 13 9 14 11 16 8 17 7 18 6 19 3 20 4 21 85 22 5 23 84 24
REMARK SMILES IDX 2 25 1 26 86 27 87 28 23 29 24 30 25 31 26 32 27 33 28 34
REMARK SMILES IDX 29 36 30 37 31 38 83 39 32 40 82 41 33 42 34 43 35 44 76 45
REMARK SMILES IDX 36 46 81 47 75 48 77 49 37 50 80 51 74 52 73 53 38 55 64 56
REMARK SMILES IDX 47 57 63 58 48 59 51 60 62 61 78 62 49 63 50 64 61 66 79 67
REMARK SMILES IDX 52 68 39 69 40 70 45 71 41 72 42 73 44 74 46 75 43 76 65 77
REMARK SMILES IDX 66 78 71 79 67 80 68 81 70 82 72 83 69 84 53 85 54 86 59 87
REMARK SMILES IDX 55 88 56 89 58 90 60 91 57 92
REMARK H PARENT 20 6 9 15 27 35 77 54 51 65
REMARK Flexibility Score: inf
ROOT
ATOM      1  C   UNL A   1      37.230  23.016  25.344  1.00  0.00     0.021 C 
ENDROOT
BRANCH   1   2
ATOM      2  C   UNL A   1      35.989  23.646  25.958  1.00  0.00     0.116 C 
BRANCH   2   3
ATOM      3  N   UNL A   1      35.232  22.816  26.850  1.00  0.00    -0.351 N 
ATOM      4  C   UNL A   1      34.009  22.197  26.699  1.00  0.00     0.270 C 
ATOM      5  O   UNL A   1      33.697  21.454  27.639  1.00  0.00    -0.267 OA
ATOM      6  H   UNL A   1      35.659  22.662  27.724  1.00  0.00     0.163 HD
BRANCH   4   7
ATOM      7  C   UNL A   1      33.004  22.387  25.569  1.00  0.00     0.140 A 
ATOM      8  C   UNL A   1      31.867  23.193  25.495  1.00  0.00     0.071 A 
ATOM      9  C   UNL A   1      31.209  23.320  24.253  1.00  0.00     0.018 A 
ATOM     10  C   UNL A   1      31.638  22.605  23.144  1.00  0.00     0.021 A 
ATOM     11  N   UNL A   1      33.398  21.659  24.467  1.00  0.00    -0.250 NA
ATOM     12  C   UNL A   1      32.730  21.783  23.302  1.00  0.00     0.112 A 
BRANCH   8  13
ATOM     13  C   UNL A   1      31.359  24.074  26.550  1.00  0.00     0.253 C 
ATOM     14  N   UNL A   1      31.906  25.330  26.749  1.00  0.00    -0.352 N 
ATOM     15  H   UNL A   1      31.467  25.861  27.452  1.00  0.00     0.163 HD
ATOM     16  O   UNL A   1      30.456  23.670  27.278  1.00  0.00    -0.269 OA
BRANCH  14  17
ATOM     17  C   UNL A   1      33.030  26.005  26.089  1.00  0.00     0.121 C 
BRANCH  17  18
ATOM     18  C   UNL A   1      32.857  27.514  25.846  1.00  0.00     0.057 C 
BRANCH  18  19
ATOM     19  C   UNL A   1      32.027  27.928  24.650  1.00  0.00    -0.042 A 
ATOM     20  C   UNL A   1      30.395  28.899  22.549  1.00  0.00     0.160 A 
ATOM     21  C   UNL A   1      31.724  29.307  22.689  1.00  0.00     0.051 A 
ATOM     22  C   UNL A   1      29.881  27.945  23.426  1.00  0.00     0.160 A 
ATOM     23  C   UNL A   1      32.534  28.826  23.717  1.00  0.00     0.008 A 
ATOM     24  C   UNL A   1      30.702  27.483  24.479  1.00  0.00     0.054 A 
BRANCH  20  25
ATOM     25  O   UNL A   1      29.694  29.371  21.471  1.00  0.00    -0.493 OA
ATOM     26  C   UNL A   1      29.247  30.718  21.644  1.00  0.00     0.278 C 
ENDBRANCH  20  25
BRANCH  22  27
ATOM     27  O   UNL A   1      28.638  27.370  23.419  1.00  0.00    -0.493 OA
ATOM     28  C   UNL A   1      28.424  26.197  24.193  1.00  0.00     0.278 C 
ENDBRANCH  22  27
ENDBRANCH  18  19
ENDBRANCH  17  18
ENDBRANCH  14  17
ENDBRANCH   8  13
ENDBRANCH   4   7
ENDBRANCH   2   3
ENDBRANCH   1   2
BRANCH   1  29
ATOM     29  C   UNL A   1      37.043  21.910  24.304  1.00  0.00     0.002 C 
BRANCH  29  30
ATOM     30  C   UNL A   1      36.893  20.465  24.791  1.00  0.00     0.002 C 
BRANCH  30  31
ATOM     31  C   UNL A   1      38.144  19.584  24.856  1.00  0.00     0.021 C 
BRANCH  31  32
ATOM     32  C   UNL A   1      39.103  19.813  26.021  1.00  0.00     0.116 C 
BRANCH  32  33
ATOM     33  N   UNL A   1      40.365  19.101  25.908  1.00  0.00    -0.352 N 
ATOM     34  C   UNL A   1      41.663  19.537  26.070  1.00  0.00     0.251 C 
ATOM     35  H   UNL A   1      40.279  18.147  25.677  1.00  0.00     0.163 HD
ATOM     36  O   UNL A   1      42.593  18.767  25.857  1.00  0.00    -0.269 OA
BRANCH  34  37
ATOM     37  C   UNL A   1      41.961  20.930  26.490  1.00  0.00     0.039 A 
ATOM     38  C   UNL A   1      42.315  21.202  27.814  1.00  0.00     0.014 A 
ATOM     39  C   UNL A   1      41.845  21.987  25.594  1.00  0.00     0.014 A 
ATOM     40  C   UNL A   1      42.633  22.511  28.205  1.00  0.00     0.010 A 
ATOM     41  C   UNL A   1      42.248  23.275  25.954  1.00  0.00     0.010 A 
ATOM     42  C   UNL A   1      42.644  23.558  27.266  1.00  0.00    -0.014 A 
BRANCH  42  43
ATOM     43  C   UNL A   1      43.088  24.937  27.618  1.00  0.00     0.031 A 
ATOM     44  C   UNL A   1      42.110  25.958  28.142  1.00  0.00     0.074 A 
ATOM     45  C   UNL A   1      44.364  25.306  27.378  1.00  0.00     0.049 A 
ATOM     46  N   UNL A   1      42.305  27.222  28.434  1.00  0.00    -0.248 NA
ATOM     47  C   UNL A   1      40.724  25.508  28.346  1.00  0.00     0.031 C 
ATOM     48  C   UNL A   1      45.401  24.443  26.809  1.00  0.00     0.029 A 
ATOM     49  N   UNL A   1      45.001  26.509  27.564  1.00  0.00    -0.354 N 
ATOM     50  C   UNL A   1      41.075  27.712  28.856  1.00  0.00     0.074 A 
ATOM     51  C   UNL A   1      40.124  26.629  28.722  1.00  0.00     0.031 C 
ATOM     52  C   UNL A   1      46.545  25.138  26.708  1.00  0.00     0.029 A 
ATOM     53  C   UNL A   1      46.318  26.504  27.169  1.00  0.00     0.049 A 
ATOM     54  H   UNL A   1      44.556  27.301  27.945  1.00  0.00     0.167 HD
ATOM     55  C   UNL A   1      40.768  28.941  29.339  1.00  0.00     0.037 A 
ATOM     56  C   UNL A   1      47.238  27.489  27.166  1.00  0.00     0.037 A 
ATOM     57  C   UNL A   1      41.711  30.022  29.477  1.00  0.00     0.049 A 
ATOM     58  C   UNL A   1      46.864  28.852  27.681  1.00  0.00     0.074 A 
ATOM     59  C   UNL A   1      41.503  31.288  29.999  1.00  0.00     0.029 A 
ATOM     60  N   UNL A   1      43.040  29.965  29.089  1.00  0.00    -0.354 N 
ATOM     61  N   UNL A   1      45.717  29.274  28.154  1.00  0.00    -0.248 NA
ATOM     62  C   UNL A   1      47.920  29.877  27.670  1.00  0.00     0.031 C 
ATOM     63  C   UNL A   1      42.693  32.012  29.885  1.00  0.00     0.029 A 
ATOM     64  C   UNL A   1      43.658  31.180  29.344  1.00  0.00     0.049 A 
ATOM     65  H   UNL A   1      43.480  29.179  28.691  1.00  0.00     0.167 HD
ATOM     66  C   UNL A   1      45.924  30.594  28.533  1.00  0.00     0.074 A 
ATOM     67  C   UNL A   1      47.307  30.903  28.245  1.00  0.00     0.031 C 
ATOM     68  C   UNL A   1      45.044  31.471  29.075  1.00  0.00     0.037 A 
BRANCH  55  69
ATOM     69  C   UNL A   1      39.351  29.184  29.781  1.00  0.00     0.057 A 
ATOM     70  C   UNL A   1      38.367  29.618  28.880  1.00  0.00     0.134 A 
ATOM     71  C   UNL A   1      38.946  28.921  31.096  1.00  0.00     0.134 A 
ATOM     72  F   UNL A   1      38.686  29.894  27.606  1.00  0.00    -0.206 F 
ATOM     73  C   UNL A   1      37.042  29.803  29.277  1.00  0.00     0.040 A 
ATOM     74  C   UNL A   1      37.617  29.073  31.497  1.00  0.00     0.040 A 
ATOM     75  F   UNL A   1      39.831  28.491  32.008  1.00  0.00    -0.206 F 
ATOM     76  C   UNL A   1      36.662  29.522  30.587  1.00  0.00     0.006 A 
ENDBRANCH  55  69
BRANCH  56  77
ATOM     77  C   UNL A   1      48.617  27.222  26.682  1.00  0.00     0.057 A 
ATOM     78  C   UNL A   1      48.939  27.331  25.324  1.00  0.00     0.134 A 
ATOM     79  C   UNL A   1      49.637  26.826  27.556  1.00  0.00     0.134 A 
ATOM     80  F   UNL A   1      48.000  27.688  24.435  1.00  0.00    -0.206 F 
ATOM     81  C   UNL A   1      50.214  27.027  24.847  1.00  0.00     0.040 A 
ATOM     82  C   UNL A   1      50.925  26.547  27.097  1.00  0.00     0.040 A 
ATOM     83  F   UNL A   1      49.397  26.711  28.870  1.00  0.00    -0.206 F 
ATOM     84  C   UNL A   1      51.213  26.637  25.736  1.00  0.00     0.006 A 
ENDBRANCH  56  77
BRANCH  68  85
ATOM     85  C   UNL A   1      45.560  32.830  29.449  1.00  0.00     0.057 A 
ATOM     86  C   UNL A   1      46.138  33.090  30.698  1.00  0.00     0.134 A 
ATOM     87  C   UNL A   1      45.517  33.884  28.525  1.00  0.00     0.134 A 
ATOM     88  F   UNL A   1      46.199  32.130  31.632  1.00  0.00    -0.206 F 
ATOM     89  C   UNL A   1      46.635  34.354  31.022  1.00  0.00     0.040 A 
ATOM     90  C   UNL A   1      46.035  35.144  28.829  1.00  0.00     0.040 A 
ATOM     91  F   UNL A   1      44.983  33.701  27.308  1.00  0.00    -0.206 F 
ATOM     92  C   UNL A   1      46.593  35.383  30.082  1.00  0.00     0.006 A 
ENDBRANCH  68  85
ENDBRANCH  42  43
ENDBRANCH  34  37
ENDBRANCH  32  33
ENDBRANCH  31  32
ENDBRANCH  30  31
ENDBRANCH  29  30
ENDBRANCH   1  29
TORSDOF 19
ENDMDL
