MODEL 1
REMARK VINA RESULT:     -11.8      0.000      0.000
REMARK SMILES COc1ccccc1OC1CCN(c2cccc(C(=O)NCCCCCCNC(=O)c3ccc(-c4c5nc(c(-c6c(F)cccc6F)c6ccc([nH]6)c(-c6c(F)cccc6F)c6nc(c(-c7c(F)cccc7F)c7ccc4[nH]7)C=C6)C=C5)cc3)n2)CC1
REMARK SMILES IDX 23 1 22 2 21 3 19 4 20 5 18 7 14 8 15 9 85 10 16 11 17 12
REMARK SMILES IDX 13 13 10 14 11 15 87 16 12 17 86 18 9 19 8 20 3 21 4 22 5 23
REMARK SMILES IDX 7 24 6 25 2 26 1 27 24 28 25 29 26 30 27 31 28 32 29 33
REMARK SMILES IDX 30 35 31 36 32 37 84 38 33 39 83 40 34 41 35 42 36 43 77 44
REMARK SMILES IDX 37 45 82 46 76 47 78 48 38 49 81 50 75 51 74 52 39 54 65 55
REMARK SMILES IDX 48 56 64 57 49 58 52 59 63 60 79 61 50 62 51 63 62 65 80 66
REMARK SMILES IDX 53 67 40 68 41 69 46 70 42 71 43 72 45 73 47 74 44 75 66 76
REMARK SMILES IDX 67 77 72 78 68 79 69 80 71 81 73 82 70 83 54 84 55 85 60 86
REMARK SMILES IDX 56 87 57 88 59 89 61 90 58 91
REMARK H PARENT 21 6 28 34 78 53 52 64
REMARK Flexibility Score: inf
ROOT
ATOM      1  C   UNL A   1      30.307  27.205  24.616  1.00  0.00     0.021 C 
ENDROOT
BRANCH   1   2
ATOM      2  C   UNL A   1      31.057  26.784  25.869  1.00  0.00     0.116 C 
BRANCH   2   3
ATOM      3  N   UNL A   1      30.388  25.729  26.586  1.00  0.00    -0.351 N 
ATOM      4  C   UNL A   1      30.357  24.372  26.380  1.00  0.00     0.269 C 
ATOM      5  O   UNL A   1      29.605  23.725  27.113  1.00  0.00    -0.268 OA
ATOM      6  H   UNL A   1      29.861  26.035  27.358  1.00  0.00     0.163 HD
BRANCH   4   7
ATOM      7  C   UNL A   1      31.173  23.672  25.326  1.00  0.00     0.130 A 
ATOM      8  C   UNL A   1      33.207  22.624  24.964  1.00  0.00     0.129 A 
ATOM      9  C   UNL A   1      32.933  22.474  23.614  1.00  0.00     0.047 A 
ATOM     10  N   UNL A   1      32.309  23.132  25.818  1.00  0.00    -0.226 NA
ATOM     11  C   UNL A   1      31.747  22.981  23.107  1.00  0.00     0.006 A 
ATOM     12  C   UNL A   1      30.890  23.662  23.965  1.00  0.00     0.034 A 
BRANCH   8  13
ATOM     13  N   UNL A   1      34.468  22.384  25.455  1.00  0.00    -0.356 N 
ATOM     14  C   UNL A   1      38.217  21.829  25.290  1.00  0.00     0.177 C 
ATOM     15  C   UNL A   1      37.481  23.627  25.354  1.00  0.00     0.066 C 
ATOM     16  C   UNL A   1      36.978  20.357  25.003  1.00  0.00     0.066 C 
ATOM     17  C   UNL A   1      35.573  23.850  25.643  1.00  0.00     0.122 C 
ATOM     18  C   UNL A   1      35.083  20.651  25.311  1.00  0.00     0.122 C 
BRANCH  14  19
ATOM     19  O   UNL A   1      38.810  21.601  26.604  1.00  0.00    -0.486 OA
BRANCH  19  20
ATOM     20  C   UNL A   1      40.137  21.261  26.432  1.00  0.00     0.161 A 
ATOM     21  C   UNL A   1      41.135  22.223  26.650  1.00  0.00     0.160 A 
ATOM     22  C   UNL A   1      42.474  21.872  26.500  1.00  0.00     0.050 A 
ATOM     23  C   UNL A   1      42.810  20.568  26.132  1.00  0.00     0.004 A 
ATOM     24  C   UNL A   1      40.464  19.967  26.052  1.00  0.00     0.050 A 
ATOM     25  C   UNL A   1      41.808  19.621  25.904  1.00  0.00     0.004 A 
BRANCH  21  26
ATOM     26  O   UNL A   1      40.585  23.432  27.031  1.00  0.00    -0.493 OA
ATOM     27  C   UNL A   1      39.722  24.992  27.528  1.00  0.00     0.278 C 
ENDBRANCH  21  26
ENDBRANCH  19  20
ENDBRANCH  14  19
ENDBRANCH   8  13
ENDBRANCH   4   7
ENDBRANCH   2   3
ENDBRANCH   1   2
BRANCH   1  28
ATOM     28  C   UNL A   1      31.183  27.422  23.383  1.00  0.00     0.002 C 
BRANCH  28  29
ATOM     29  C   UNL A   1      32.688  27.246  23.607  1.00  0.00     0.002 C 
BRANCH  29  30
ATOM     30  C   UNL A   1      33.490  28.543  23.746  1.00  0.00     0.021 C 
BRANCH  30  31
ATOM     31  C   UNL A   1      33.909  28.876  25.171  1.00  0.00     0.116 C 
BRANCH  31  32
ATOM     32  N   UNL A   1      33.145  29.989  25.708  1.00  0.00    -0.352 N 
ATOM     33  C   UNL A   1      33.376  30.731  26.836  1.00  0.00     0.251 C 
ATOM     34  H   UNL A   1      32.351  30.245  25.188  1.00  0.00     0.163 HD
ATOM     35  O   UNL A   1      32.503  31.469  27.282  1.00  0.00    -0.269 OA
BRANCH  33  36
ATOM     36  C   UNL A   1      34.680  30.629  27.520  1.00  0.00     0.039 A 
ATOM     37  C   UNL A   1      35.476  31.770  27.630  1.00  0.00     0.014 A 
ATOM     38  C   UNL A   1      35.117  29.408  28.044  1.00  0.00     0.014 A 
ATOM     39  C   UNL A   1      36.692  31.697  28.309  1.00  0.00     0.010 A 
ATOM     40  C   UNL A   1      36.285  29.358  28.795  1.00  0.00     0.010 A 
ATOM     41  C   UNL A   1      37.090  30.498  28.924  1.00  0.00    -0.014 A 
BRANCH  41  42
ATOM     42  C   UNL A   1      38.350  30.419  29.701  1.00  0.00     0.031 A 
ATOM     43  C   UNL A   1      39.543  29.700  29.139  1.00  0.00     0.074 A 
ATOM     44  C   UNL A   1      38.397  30.938  30.943  1.00  0.00     0.049 A 
ATOM     45  N   UNL A   1      40.709  29.475  29.690  1.00  0.00    -0.248 NA
ATOM     46  C   UNL A   1      39.395  29.131  27.791  1.00  0.00     0.031 C 
ATOM     47  C   UNL A   1      37.287  31.609  31.619  1.00  0.00     0.029 A 
ATOM     48  N   UNL A   1      39.415  30.967  31.861  1.00  0.00    -0.354 N 
ATOM     49  C   UNL A   1      41.426  28.731  28.762  1.00  0.00     0.074 A 
ATOM     50  C   UNL A   1      40.540  28.485  27.644  1.00  0.00     0.031 C 
ATOM     51  C   UNL A   1      37.688  32.000  32.838  1.00  0.00     0.029 A 
ATOM     52  C   UNL A   1      39.066  31.567  33.047  1.00  0.00     0.049 A 
ATOM     53  H   UNL A   1      40.309  30.595  31.688  1.00  0.00     0.167 HD
ATOM     54  C   UNL A   1      42.713  28.313  28.823  1.00  0.00     0.037 A 
ATOM     55  C   UNL A   1      39.772  31.736  34.181  1.00  0.00     0.037 A 
ATOM     56  C   UNL A   1      43.587  28.563  29.940  1.00  0.00     0.049 A 
ATOM     57  C   UNL A   1      41.192  31.250  34.240  1.00  0.00     0.074 A 
ATOM     58  C   UNL A   1      44.924  28.235  30.081  1.00  0.00     0.029 A 
ATOM     59  N   UNL A   1      43.203  29.190  31.118  1.00  0.00    -0.354 N 
ATOM     60  N   UNL A   1      41.887  30.619  33.324  1.00  0.00    -0.248 NA
ATOM     61  C   UNL A   1      41.929  31.506  35.484  1.00  0.00     0.031 C 
ATOM     62  C   UNL A   1      45.330  28.601  31.369  1.00  0.00     0.029 A 
ATOM     63  C   UNL A   1      44.267  29.224  32.005  1.00  0.00     0.049 A 
ATOM     64  H   UNL A   1      42.308  29.557  31.297  1.00  0.00     0.167 HD
ATOM     65  C   UNL A   1      43.149  30.422  33.870  1.00  0.00     0.074 A 
ATOM     66  C   UNL A   1      43.125  31.016  35.192  1.00  0.00     0.031 C 
ATOM     67  C   UNL A   1      44.229  29.809  33.324  1.00  0.00     0.037 A 
BRANCH  54  68
ATOM     68  C   UNL A   1      43.235  27.523  27.654  1.00  0.00     0.057 A 
ATOM     69  C   UNL A   1      43.760  28.143  26.510  1.00  0.00     0.134 A 
ATOM     70  C   UNL A   1      43.201  26.123  27.665  1.00  0.00     0.134 A 
ATOM     71  F   UNL A   1      43.816  29.481  26.426  1.00  0.00    -0.206 F 
ATOM     72  C   UNL A   1      44.183  27.403  25.404  1.00  0.00     0.040 A 
ATOM     73  C   UNL A   1      43.656  25.371  26.580  1.00  0.00     0.040 A 
ATOM     74  F   UNL A   1      42.722  25.460  28.729  1.00  0.00    -0.206 F 
ATOM     75  C   UNL A   1      44.135  26.011  25.439  1.00  0.00     0.006 A 
ENDBRANCH  54  68
BRANCH  55  76
ATOM     76  C   UNL A   1      39.132  32.403  35.343  1.00  0.00     0.057 A 
ATOM     77  C   UNL A   1      38.424  31.673  36.303  1.00  0.00     0.134 A 
ATOM     78  C   UNL A   1      39.249  33.785  35.541  1.00  0.00     0.134 A 
ATOM     79  F   UNL A   1      38.266  30.349  36.163  1.00  0.00    -0.206 F 
ATOM     80  C   UNL A   1      37.847  32.292  37.413  1.00  0.00     0.040 A 
ATOM     81  C   UNL A   1      38.701  34.414  36.659  1.00  0.00     0.040 A 
ATOM     82  F   UNL A   1      39.926  34.539  34.662  1.00  0.00    -0.206 F 
ATOM     83  C   UNL A   1      37.993  33.666  37.598  1.00  0.00     0.006 A 
ENDBRANCH  55  76
BRANCH  67  84
ATOM     84  C   UNL A   1      45.488  29.771  34.145  1.00  0.00     0.057 A 
ATOM     85  C   UNL A   1      45.791  28.700  34.994  1.00  0.00     0.134 A 
ATOM     86  C   UNL A   1      46.431  30.803  34.047  1.00  0.00     0.134 A 
ATOM     87  F   UNL A   1      44.926  27.684  35.144  1.00  0.00    -0.206 F 
ATOM     88  C   UNL A   1      46.975  28.667  35.735  1.00  0.00     0.040 A 
ATOM     89  C   UNL A   1      47.632  30.766  34.756  1.00  0.00     0.040 A 
ATOM     90  F   UNL A   1      46.210  31.856  33.245  1.00  0.00    -0.206 F 
ATOM     91  C   UNL A   1      47.903  29.699  35.610  1.00  0.00     0.006 A 
ENDBRANCH  67  84
ENDBRANCH  41  42
ENDBRANCH  33  36
ENDBRANCH  31  32
ENDBRANCH  30  31
ENDBRANCH  29  30
ENDBRANCH  28  29
ENDBRANCH   1  28
TORSDOF 17
ENDMDL
MODEL 2
REMARK VINA RESULT:     -11.8      3.219      7.128
REMARK SMILES COc1ccccc1OC1CCN(c2cccc(C(=O)NCCCCCCNC(=O)c3ccc(-c4c5nc(c(-c6c(F)cccc6F)c6ccc([nH]6)c(-c6c(F)cccc6F)c6nc(c(-c7c(F)cccc7F)c7ccc4[nH]7)C=C6)C=C5)cc3)n2)CC1
REMARK SMILES IDX 23 1 22 2 21 3 19 4 20 5 18 7 14 8 15 9 85 10 16 11 17 12
REMARK SMILES IDX 13 13 10 14 11 15 87 16 12 17 86 18 9 19 8 20 3 21 4 22 5 23
REMARK SMILES IDX 7 24 6 25 2 26 1 27 24 28 25 29 26 30 27 31 28 32 29 33
REMARK SMILES IDX 30 35 31 36 32 37 84 38 33 39 83 40 34 41 35 42 36 43 77 44
REMARK SMILES IDX 37 45 82 46 76 47 78 48 38 49 81 50 75 51 74 52 39 54 65 55
REMARK SMILES IDX 48 56 64 57 49 58 52 59 63 60 79 61 50 62 51 63 62 65 80 66
REMARK SMILES IDX 53 67 40 68 41 69 46 70 42 71 43 72 45 73 47 74 44 75 66 76
REMARK SMILES IDX 67 77 72 78 68 79 69 80 71 81 73 82 70 83 54 84 55 85 60 86
REMARK SMILES IDX 56 87 57 88 59 89 61 90 58 91
REMARK H PARENT 21 6 28 34 78 53 52 64
REMARK Flexibility Score: inf
ROOT
ATOM      1  C   UNL A   1      33.653  28.986  22.740  1.00  0.00     0.021 C 
ENDROOT
BRANCH   1   2
ATOM      2  C   UNL A   1      32.386  28.607  21.990  1.00  0.00     0.116 C 
BRANCH   2   3
ATOM      3  N   UNL A   1      31.408  29.665  21.987  1.00  0.00    -0.351 N 
ATOM      4  C   UNL A   1      30.094  29.686  22.385  1.00  0.00     0.269 C 
ATOM      5  O   UNL A   1      29.473  30.728  22.166  1.00  0.00    -0.268 OA
ATOM      6  H   UNL A   1      31.740  30.524  21.638  1.00  0.00     0.163 HD
BRANCH   4   7
ATOM      7  C   UNL A   1      29.408  28.521  23.047  1.00  0.00     0.130 A 
ATOM      8  C   UNL A   1      29.808  26.463  24.032  1.00  0.00     0.129 A 
ATOM      9  C   UNL A   1      28.451  26.223  24.171  1.00  0.00     0.047 A 
ATOM     10  N   UNL A   1      30.278  27.626  23.561  1.00  0.00    -0.226 NA
ATOM     11  C   UNL A   1      27.548  27.158  23.692  1.00  0.00     0.006 A 
ATOM     12  C   UNL A   1      28.037  28.289  23.047  1.00  0.00     0.034 A 
BRANCH   8  13
ATOM     13  N   UNL A   1      30.724  25.461  24.243  1.00  0.00    -0.356 N 
ATOM     14  C   UNL A   1      34.110  23.961  25.067  1.00  0.00     0.177 C 
ATOM     15  C   UNL A   1      32.869  24.449  26.481  1.00  0.00     0.066 C 
ATOM     16  C   UNL A   1      33.693  24.546  23.260  1.00  0.00     0.066 C 
ATOM     17  C   UNL A   1      31.076  25.019  26.000  1.00  0.00     0.122 C 
ATOM     18  C   UNL A   1      31.879  25.104  22.849  1.00  0.00     0.122 C 
BRANCH  14  19
ATOM     19  O   UNL A   1      34.104  22.502  25.025  1.00  0.00    -0.486 OA
BRANCH  19  20
ATOM     20  C   UNL A   1      35.408  22.056  25.118  1.00  0.00     0.161 A 
ATOM     21  C   UNL A   1      35.690  20.693  24.940  1.00  0.00     0.160 A 
ATOM     22  C   UNL A   1      37.008  20.249  25.009  1.00  0.00     0.050 A 
ATOM     23  C   UNL A   1      38.033  21.162  25.256  1.00  0.00     0.004 A 
ATOM     24  C   UNL A   1      36.422  22.967  25.377  1.00  0.00     0.050 A 
ATOM     25  C   UNL A   1      37.741  22.516  25.444  1.00  0.00     0.004 A 
BRANCH  21  26
ATOM     26  O   UNL A   1      34.537  19.976  24.682  1.00  0.00    -0.493 OA
ATOM     27  C   UNL A   1      33.074  18.907  24.303  1.00  0.00     0.278 C 
ENDBRANCH  21  26
ENDBRANCH  19  20
ENDBRANCH  14  19
ENDBRANCH   8  13
ENDBRANCH   4   7
ENDBRANCH   2   3
ENDBRANCH   1   2
BRANCH   1  28
ATOM     28  C   UNL A   1      33.468  29.229  24.237  1.00  0.00     0.002 C 
BRANCH  28  29
ATOM     29  C   UNL A   1      33.405  27.968  25.104  1.00  0.00     0.002 C 
BRANCH  29  30
ATOM     30  C   UNL A   1      32.738  28.141  26.472  1.00  0.00     0.021 C 
BRANCH  30  31
ATOM     31  C   UNL A   1      33.689  28.543  27.591  1.00  0.00     0.116 C 
BRANCH  31  32
ATOM     32  N   UNL A   1      33.685  29.980  27.805  1.00  0.00    -0.352 N 
ATOM     33  C   UNL A   1      34.659  30.774  28.352  1.00  0.00     0.251 C 
ATOM     34  H   UNL A   1      32.870  30.448  27.516  1.00  0.00     0.163 HD
ATOM     35  O   UNL A   1      34.402  31.926  28.689  1.00  0.00    -0.269 OA
BRANCH  33  36
ATOM     36  C   UNL A   1      36.018  30.231  28.545  1.00  0.00     0.039 A 
ATOM     37  C   UNL A   1      36.907  30.240  27.469  1.00  0.00     0.014 A 
ATOM     38  C   UNL A   1      36.408  29.710  29.781  1.00  0.00     0.014 A 
ATOM     39  C   UNL A   1      38.206  29.768  27.647  1.00  0.00     0.010 A 
ATOM     40  C   UNL A   1      37.728  29.322  29.982  1.00  0.00     0.010 A 
ATOM     41  C   UNL A   1      38.636  29.335  28.913  1.00  0.00    -0.014 A 
BRANCH  41  42
ATOM     42  C   UNL A   1      40.032  28.887  29.136  1.00  0.00     0.031 A 
ATOM     43  C   UNL A   1      41.045  29.828  29.722  1.00  0.00     0.074 A 
ATOM     44  C   UNL A   1      40.402  27.652  28.747  1.00  0.00     0.049 A 
ATOM     45  N   UNL A   1      42.322  29.640  29.937  1.00  0.00    -0.248 NA
ATOM     46  C   UNL A   1      40.565  31.170  30.085  1.00  0.00     0.031 C 
ATOM     47  C   UNL A   1      39.524  26.668  28.114  1.00  0.00     0.029 A 
ATOM     48  N   UNL A   1      41.618  27.021  28.814  1.00  0.00    -0.354 N 
ATOM     49  C   UNL A   1      42.799  30.840  30.449  1.00  0.00     0.074 A 
ATOM     50  C   UNL A   1      41.689  31.769  30.446  1.00  0.00     0.031 C 
ATOM     51  C   UNL A   1      40.224  25.551  27.866  1.00  0.00     0.029 A 
ATOM     52  C   UNL A   1      41.609  25.756  28.279  1.00  0.00     0.049 A 
ATOM     53  H   UNL A   1      42.420  27.435  29.207  1.00  0.00     0.167 HD
ATOM     54  C   UNL A   1      44.040  31.135  30.904  1.00  0.00     0.037 A 
ATOM     55  C   UNL A   1      42.607  24.866  28.123  1.00  0.00     0.037 A 
ATOM     56  C   UNL A   1      45.138  30.203  30.902  1.00  0.00     0.049 A 
ATOM     57  C   UNL A   1      43.983  25.214  28.616  1.00  0.00     0.074 A 
ATOM     58  C   UNL A   1      46.421  30.379  31.391  1.00  0.00     0.029 A 
ATOM     59  N   UNL A   1      45.087  28.923  30.367  1.00  0.00    -0.354 N 
ATOM     60  N   UNL A   1      44.403  26.325  29.174  1.00  0.00    -0.248 NA
ATOM     61  C   UNL A   1      45.021  24.186  28.466  1.00  0.00     0.031 C 
ATOM     62  C   UNL A   1      47.164  29.232  31.091  1.00  0.00     0.029 A 
ATOM     63  C   UNL A   1      46.325  28.311  30.481  1.00  0.00     0.049 A 
ATOM     64  H   UNL A   1      44.289  28.509  29.967  1.00  0.00     0.167 HD
ATOM     65  C   UNL A   1      45.747  26.122  29.463  1.00  0.00     0.074 A 
ATOM     66  C   UNL A   1      46.065  24.776  29.032  1.00  0.00     0.031 C 
ATOM     67  C   UNL A   1      46.633  26.973  30.037  1.00  0.00     0.037 A 
BRANCH  54  68
ATOM     68  C   UNL A   1      44.270  32.530  31.417  1.00  0.00     0.057 A 
ATOM     69  C   UNL A   1      44.063  32.874  32.761  1.00  0.00     0.134 A 
ATOM     70  C   UNL A   1      44.694  33.548  30.553  1.00  0.00     0.134 A 
ATOM     71  F   UNL A   1      43.649  31.952  33.643  1.00  0.00    -0.206 F 
ATOM     72  C   UNL A   1      44.218  34.185  33.215  1.00  0.00     0.040 A 
ATOM     73  C   UNL A   1      44.889  34.855  31.003  1.00  0.00     0.040 A 
ATOM     74  F   UNL A   1      44.922  33.292  29.256  1.00  0.00    -0.206 F 
ATOM     75  C   UNL A   1      44.636  35.180  32.334  1.00  0.00     0.006 A 
ENDBRANCH  54  68
BRANCH  55  76
ATOM     76  C   UNL A   1      42.324  23.560  27.476  1.00  0.00     0.057 A 
ATOM     77  C   UNL A   1      42.409  23.402  26.089  1.00  0.00     0.134 A 
ATOM     78  C   UNL A   1      41.998  22.429  28.236  1.00  0.00     0.134 A 
ATOM     79  F   UNL A   1      42.703  24.450  25.307  1.00  0.00    -0.206 F 
ATOM     80  C   UNL A   1      42.173  22.169  25.478  1.00  0.00     0.040 A 
ATOM     81  C   UNL A   1      41.787  21.185  27.642  1.00  0.00     0.040 A 
ATOM     82  F   UNL A   1      41.913  22.513  29.572  1.00  0.00    -0.206 F 
ATOM     83  C   UNL A   1      41.870  21.053  26.257  1.00  0.00     0.006 A 
ENDBRANCH  55  76
BRANCH  67  84
ATOM     84  C   UNL A   1      48.031  26.465  30.259  1.00  0.00     0.057 A 
ATOM     85  C   UNL A   1      48.404  25.798  31.432  1.00  0.00     0.134 A 
ATOM     86  C   UNL A   1      49.005  26.608  29.262  1.00  0.00     0.134 A 
ATOM     87  F   UNL A   1      47.524  25.637  32.433  1.00  0.00    -0.206 F 
ATOM     88  C   UNL A   1      49.701  25.312  31.616  1.00  0.00     0.040 A 
ATOM     89  C   UNL A   1      50.294  26.099  29.419  1.00  0.00     0.040 A 
ATOM     90  F   UNL A   1      48.714  27.229  28.107  1.00  0.00    -0.206 F 
ATOM     91  C   UNL A   1      50.647  25.456  30.603  1.00  0.00     0.006 A 
ENDBRANCH  67  84
ENDBRANCH  41  42
ENDBRANCH  33  36
ENDBRANCH  31  32
ENDBRANCH  30  31
ENDBRANCH  29  30
ENDBRANCH  28  29
ENDBRANCH   1  28
TORSDOF 17
ENDMDL
MODEL 3
REMARK VINA RESULT:     -11.5      2.843      8.910
REMARK SMILES COc1ccccc1OC1CCN(c2cccc(C(=O)NCCCCCCNC(=O)c3ccc(-c4c5nc(c(-c6c(F)cccc6F)c6ccc([nH]6)c(-c6c(F)cccc6F)c6nc(c(-c7c(F)cccc7F)c7ccc4[nH]7)C=C6)C=C5)cc3)n2)CC1
REMARK SMILES IDX 23 1 22 2 21 3 19 4 20 5 18 7 14 8 15 9 85 10 16 11 17 12
REMARK SMILES IDX 13 13 10 14 11 15 87 16 12 17 86 18 9 19 8 20 3 21 4 22 5 23
REMARK SMILES IDX 7 24 6 25 2 26 1 27 24 28 25 29 26 30 27 31 28 32 29 33
REMARK SMILES IDX 30 35 31 36 32 37 84 38 33 39 83 40 34 41 35 42 36 43 77 44
REMARK SMILES IDX 37 45 82 46 76 47 78 48 38 49 81 50 75 51 74 52 39 54 65 55
REMARK SMILES IDX 48 56 64 57 49 58 52 59 63 60 79 61 50 62 51 63 62 65 80 66
REMARK SMILES IDX 53 67 40 68 41 69 46 70 42 71 43 72 45 73 47 74 44 75 66 76
REMARK SMILES IDX 67 77 72 78 68 79 69 80 71 81 73 82 70 83 54 84 55 85 60 86
REMARK SMILES IDX 56 87 57 88 59 89 61 90 58 91
REMARK H PARENT 21 6 28 34 78 53 52 64
REMARK Flexibility Score: inf
ROOT
ATOM      1  C   UNL A   1      33.397  21.995  23.810  1.00  0.00     0.021 C 
ENDROOT
BRANCH   1   2
ATOM      2  C   UNL A   1      32.495  22.262  22.617  1.00  0.00     0.116 C 
BRANCH   2   3
ATOM      3  N   UNL A   1      32.994  23.316  21.771  1.00  0.00    -0.351 N 
ATOM      4  C   UNL A   1      32.698  24.656  21.723  1.00  0.00     0.269 C 
ATOM      5  O   UNL A   1      33.223  25.299  20.811  1.00  0.00    -0.268 OA
ATOM      6  H   UNL A   1      33.665  23.024  21.112  1.00  0.00     0.163 HD
BRANCH   4   7
ATOM      7  C   UNL A   1      31.784  25.341  22.703  1.00  0.00     0.130 A 
ATOM      8  C   UNL A   1      31.623  27.189  24.092  1.00  0.00     0.129 A 
ATOM      9  C   UNL A   1      30.413  26.747  24.603  1.00  0.00     0.047 A 
ATOM     10  N   UNL A   1      32.251  26.545  23.099  1.00  0.00    -0.226 NA
ATOM     11  C   UNL A   1      29.900  25.536  24.166  1.00  0.00     0.006 A 
ATOM     12  C   UNL A   1      30.640  24.784  23.260  1.00  0.00     0.034 A 
BRANCH   8  13
ATOM     13  N   UNL A   1      32.295  28.232  24.681  1.00  0.00    -0.356 N 
ATOM     14  C   UNL A   1      33.256  30.615  27.472  1.00  0.00     0.177 C 
ATOM     15  C   UNL A   1      34.117  28.881  27.307  1.00  0.00     0.066 C 
ATOM     16  C   UNL A   1      31.693  30.955  26.366  1.00  0.00     0.066 C 
ATOM     17  C   UNL A   1      33.736  27.789  25.747  1.00  0.00     0.122 C 
ATOM     18  C   UNL A   1      31.372  29.823  24.821  1.00  0.00     0.122 C 
BRANCH  14  19
ATOM     19  O   UNL A   1      34.258  31.592  27.057  1.00  0.00    -0.486 OA
BRANCH  19  20
ATOM     20  C   UNL A   1      34.363  32.556  28.040  1.00  0.00     0.161 A 
ATOM     21  C   UNL A   1      35.486  32.571  28.882  1.00  0.00     0.160 A 
ATOM     22  C   UNL A   1      35.602  33.558  29.857  1.00  0.00     0.050 A 
ATOM     23  C   UNL A   1      34.600  34.520  29.989  1.00  0.00     0.004 A 
ATOM     24  C   UNL A   1      33.357  33.502  28.176  1.00  0.00     0.050 A 
ATOM     25  C   UNL A   1      33.480  34.490  29.154  1.00  0.00     0.004 A 
BRANCH  21  26
ATOM     26  O   UNL A   1      36.361  31.550  28.561  1.00  0.00    -0.493 OA
ATOM     27  C   UNL A   1      37.422  30.096  28.131  1.00  0.00     0.278 C 
ENDBRANCH  21  26
ENDBRANCH  19  20
ENDBRANCH  14  19
ENDBRANCH   8  13
ENDBRANCH   4   7
ENDBRANCH   2   3
ENDBRANCH   1   2
BRANCH   1  28
ATOM     28  C   UNL A   1      33.093  22.836  25.048  1.00  0.00     0.002 C 
BRANCH  28  29
ATOM     29  C   UNL A   1      34.009  24.046  25.261  1.00  0.00     0.002 C 
BRANCH  29  30
ATOM     30  C   UNL A   1      35.510  23.765  25.148  1.00  0.00     0.021 C 
BRANCH  30  31
ATOM     31  C   UNL A   1      36.124  23.108  26.377  1.00  0.00     0.116 C 
BRANCH  31  32
ATOM     32  N   UNL A   1      36.975  21.987  26.016  1.00  0.00    -0.352 N 
ATOM     33  C   UNL A   1      38.341  21.930  25.936  1.00  0.00     0.251 C 
ATOM     34  H   UNL A   1      36.503  21.151  25.801  1.00  0.00     0.163 HD
ATOM     35  O   UNL A   1      38.891  20.985  25.378  1.00  0.00    -0.269 OA
BRANCH  33  36
ATOM     36  C   UNL A   1      39.150  23.021  26.515  1.00  0.00     0.039 A 
ATOM     37  C   UNL A   1      40.118  22.710  27.470  1.00  0.00     0.014 A 
ATOM     38  C   UNL A   1      38.947  24.346  26.119  1.00  0.00     0.014 A 
ATOM     39  C   UNL A   1      40.916  23.725  27.996  1.00  0.00     0.010 A 
ATOM     40  C   UNL A   1      39.801  25.343  26.576  1.00  0.00     0.010 A 
ATOM     41  C   UNL A   1      40.785  25.044  27.529  1.00  0.00    -0.014 A 
BRANCH  41  42
ATOM     42  C   UNL A   1      41.667  26.125  28.032  1.00  0.00     0.031 A 
ATOM     43  C   UNL A   1      41.140  27.141  29.004  1.00  0.00     0.074 A 
ATOM     44  C   UNL A   1      42.924  26.228  27.560  1.00  0.00     0.049 A 
ATOM     45  N   UNL A   1      41.738  28.189  29.510  1.00  0.00    -0.248 NA
ATOM     46  C   UNL A   1      39.746  26.976  29.440  1.00  0.00     0.031 C 
ATOM     47  C   UNL A   1      43.531  25.336  26.572  1.00  0.00     0.029 A 
ATOM     48  N   UNL A   1      43.911  27.140  27.839  1.00  0.00    -0.354 N 
ATOM     49  C   UNL A   1      40.791  28.812  30.314  1.00  0.00     0.074 A 
ATOM     50  C   UNL A   1      39.561  28.063  30.171  1.00  0.00     0.031 C 
ATOM     51  C   UNL A   1      44.791  25.732  26.339  1.00  0.00     0.029 A 
ATOM     52  C   UNL A   1      45.065  26.932  27.125  1.00  0.00     0.049 A 
ATOM     53  H   UNL A   1      43.802  27.871  28.487  1.00  0.00     0.167 HD
ATOM     54  C   UNL A   1      40.939  29.893  31.116  1.00  0.00     0.037 A 
ATOM     55  C   UNL A   1      46.212  27.637  27.094  1.00  0.00     0.037 A 
ATOM     56  C   UNL A   1      42.168  30.632  31.251  1.00  0.00     0.049 A 
ATOM     57  C   UNL A   1      46.354  28.844  27.975  1.00  0.00     0.074 A 
ATOM     58  C   UNL A   1      42.443  31.707  32.077  1.00  0.00     0.029 A 
ATOM     59  N   UNL A   1      43.323  30.381  30.523  1.00  0.00    -0.354 N 
ATOM     60  N   UNL A   1      45.477  29.376  28.794  1.00  0.00    -0.248 NA
ATOM     61  C   UNL A   1      47.644  29.544  27.938  1.00  0.00     0.031 C 
ATOM     62  C   UNL A   1      43.741  32.149  31.801  1.00  0.00     0.029 A 
ATOM     63  C   UNL A   1      44.302  31.305  30.855  1.00  0.00     0.049 A 
ATOM     64  H   UNL A   1      43.433  29.655  29.868  1.00  0.00     0.167 HD
ATOM     65  C   UNL A   1      46.116  30.459  29.385  1.00  0.00     0.074 A 
ATOM     66  C   UNL A   1      47.458  30.496  28.842  1.00  0.00     0.031 C 
ATOM     67  C   UNL A   1      45.633  31.339  30.299  1.00  0.00     0.037 A 
BRANCH  54  68
ATOM     68  C   UNL A   1      39.729  30.346  31.888  1.00  0.00     0.057 A 
ATOM     69  C   UNL A   1      39.375  29.777  33.120  1.00  0.00     0.134 A 
ATOM     70  C   UNL A   1      38.900  31.357  31.387  1.00  0.00     0.134 A 
ATOM     71  F   UNL A   1      40.119  28.797  33.656  1.00  0.00    -0.206 F 
ATOM     72  C   UNL A   1      38.216  30.159  33.798  1.00  0.00     0.040 A 
ATOM     73  C   UNL A   1      37.758  31.775  32.074  1.00  0.00     0.040 A 
ATOM     74  F   UNL A   1      39.181  31.955  30.220  1.00  0.00    -0.206 F 
ATOM     75  C   UNL A   1      37.405  31.164  33.276  1.00  0.00     0.006 A 
ENDBRANCH  54  68
BRANCH  55  76
ATOM     76  C   UNL A   1      47.310  27.201  26.194  1.00  0.00     0.057 A 
ATOM     77  C   UNL A   1      48.332  26.360  26.648  1.00  0.00     0.134 A 
ATOM     78  C   UNL A   1      47.342  27.585  24.848  1.00  0.00     0.134 A 
ATOM     79  F   UNL A   1      48.365  25.969  27.931  1.00  0.00    -0.206 F 
ATOM     80  C   UNL A   1      49.351  25.924  25.799  1.00  0.00     0.040 A 
ATOM     81  C   UNL A   1      48.337  27.135  23.981  1.00  0.00     0.040 A 
ATOM     82  F   UNL A   1      46.384  28.381  24.349  1.00  0.00    -0.206 F 
ATOM     83  C   UNL A   1      49.349  26.304  24.458  1.00  0.00     0.006 A 
ENDBRANCH  55  76
BRANCH  67  84
ATOM     84  C   UNL A   1      46.572  32.404  30.791  1.00  0.00     0.057 A 
ATOM     85  C   UNL A   1      47.415  32.204  31.891  1.00  0.00     0.134 A 
ATOM     86  C   UNL A   1      46.664  33.634  30.125  1.00  0.00     0.134 A 
ATOM     87  F   UNL A   1      47.371  31.054  32.583  1.00  0.00    -0.206 F 
ATOM     88  C   UNL A   1      48.299  33.195  32.325  1.00  0.00     0.040 A 
ATOM     89  C   UNL A   1      47.565  34.619  30.528  1.00  0.00     0.040 A 
ATOM     90  F   UNL A   1      45.892  33.890  29.057  1.00  0.00    -0.206 F 
ATOM     91  C   UNL A   1      48.380  34.404  31.637  1.00  0.00     0.006 A 
ENDBRANCH  67  84
ENDBRANCH  41  42
ENDBRANCH  33  36
ENDBRANCH  31  32
ENDBRANCH  30  31
ENDBRANCH  29  30
ENDBRANCH  28  29
ENDBRANCH   1  28
TORSDOF 17
ENDMDL
