MODEL 1
REMARK VINA RESULT:     -12.8      0.000      0.000
REMARK SMILES C[C@@H]1CCc2c(C(=O)NNC(=O)[C@@H]3[C@@H]4CC[C@@H](C4)[C@@H]3C(=O)NCCCCCCNC(=O)c3ccc(-c4c5nc(c(-c6c(F)cccc6F)c6ccc([nH]6)c(-c6c(F)cccc6F)c6nc(c(-c7c(F)cccc7F)c7ccc4[nH]7)C=C6)C=C5)cc3)csc2C1
REMARK SMILES IDX 25 1 24 2 23 3 22 4 20 5 21 6 19 8 13 9 14 10 15 11 18 12
REMARK SMILES IDX 17 13 16 14 11 15 10 16 12 18 9 19 7 20 8 21 6 23 1 24 2 25
REMARK SMILES IDX 3 26 89 27 4 28 88 29 5 30 87 31 86 32 26 33 27 34 28 35
REMARK SMILES IDX 29 36 30 37 31 39 32 40 33 41 85 42 34 43 84 44 35 45 36 46
REMARK SMILES IDX 37 47 78 48 38 49 83 50 77 51 79 52 39 53 82 54 76 55 75 56
REMARK SMILES IDX 40 58 66 59 49 60 65 61 50 62 53 63 64 64 80 65 51 66 52 67
REMARK SMILES IDX 63 69 81 70 54 71 41 72 42 73 47 74 43 75 44 76 46 77 48 78
REMARK SMILES IDX 45 79 67 80 68 81 73 82 69 83 70 84 72 85 74 86 71 87 55 88
REMARK SMILES IDX 56 89 61 90 57 91 58 92 60 93 62 94 59 95
REMARK H PARENT 22 7 10 17 9 22 29 38 79 57 53 68
REMARK Flexibility Score: inf
ROOT
ATOM      1  C   UNL A   1      38.236  22.083  25.760  1.00  0.00     0.002 C 
ENDROOT
BRANCH   1   2
ATOM      2  C   UNL A   1      37.330  23.324  25.697  1.00  0.00     0.021 C 
BRANCH   2   3
ATOM      3  C   UNL A   1      36.552  23.512  24.380  1.00  0.00     0.116 C 
BRANCH   3   4
ATOM      4  N   UNL A   1      35.313  24.233  24.577  1.00  0.00    -0.356 N 
ATOM      5  C   UNL A   1      34.314  24.012  23.680  1.00  0.00     0.224 C 
ATOM      6  O   UNL A   1      34.238  24.775  22.717  1.00  0.00    -0.275 OA
ATOM      7  H   UNL A   1      35.198  24.858  25.329  1.00  0.00     0.163 HD
BRANCH   5   8
ATOM      8  C   UNL A   1      33.502  22.728  23.816  1.00  0.00     0.094 C 
ATOM      9  C   UNL A   1      32.232  22.808  24.677  1.00  0.00     0.096 C 
ATOM     10  C   UNL A   1      32.062  21.362  25.198  1.00  0.00     0.002 C 
ATOM     11  C   UNL A   1      32.973  21.118  26.399  1.00  0.00     0.005 C 
ATOM     12  C   UNL A   1      32.781  20.529  24.117  1.00  0.00     0.009 C 
ATOM     13  C   UNL A   1      34.088  21.341  24.231  1.00  0.00     0.002 C 
ATOM     14  C   UNL A   1      34.359  21.055  25.734  1.00  0.00     0.005 C 
BRANCH   9  15
ATOM     15  C   UNL A   1      32.074  23.926  25.711  1.00  0.00     0.242 C 
ATOM     16  N   UNL A   1      30.867  24.536  25.951  1.00  0.00    -0.267 N 
ATOM     17  H   UNL A   1      30.681  24.776  26.888  1.00  0.00     0.191 HD
ATOM     18  O   UNL A   1      33.035  24.207  26.436  1.00  0.00    -0.273 OA
BRANCH  16  19
ATOM     19  N   UNL A   1      29.885  24.852  25.036  1.00  0.00    -0.263 N 
ATOM     20  C   UNL A   1      29.723  26.042  24.361  1.00  0.00     0.270 C 
ATOM     21  O   UNL A   1      28.597  26.219  23.881  1.00  0.00    -0.267 OA
ATOM     22  H   UNL A   1      29.224  24.147  24.845  1.00  0.00     0.191 HD
BRANCH  20  23
ATOM     23  C   UNL A   1      30.767  27.070  24.238  1.00  0.00     0.055 A 
ATOM     24  C   UNL A   1      33.441  31.021  27.515  1.00  0.00     0.008 C 
ATOM     25  C   UNL A   1      32.588  30.078  26.682  1.00  0.00    -0.009 C 
ATOM     26  C   UNL A   1      32.383  28.749  27.424  1.00  0.00     0.008 C 
ATOM     27  C   UNL A   1      33.199  29.788  25.297  1.00  0.00     0.050 C 
ATOM     28  C   UNL A   1      31.343  27.906  26.701  1.00  0.00     0.038 C 
ATOM     29  C   UNL A   1      32.356  28.765  24.587  1.00  0.00     0.009 A 
ATOM     30  C   UNL A   1      31.484  27.882  25.204  1.00  0.00    -0.021 A 
ATOM     31  S   UNL A   1      32.410  28.590  22.904  1.00  0.00    -0.148 S 
ATOM     32  C   UNL A   1      31.224  27.371  22.958  1.00  0.00     0.079 A 
ENDBRANCH  20  23
ENDBRANCH  16  19
ENDBRANCH   9  15
ENDBRANCH   5   8
ENDBRANCH   3   4
ENDBRANCH   2   3
ENDBRANCH   1   2
BRANCH   1  33
ATOM     33  C   UNL A   1      37.839  20.916  24.845  1.00  0.00     0.002 C 
BRANCH  33  34
ATOM     34  C   UNL A   1      38.598  19.599  25.057  1.00  0.00     0.021 C 
BRANCH  34  35
ATOM     35  C   UNL A   1      39.613  19.647  26.185  1.00  0.00     0.116 C 
BRANCH  35  36
ATOM     36  N   UNL A   1      40.870  18.985  25.843  1.00  0.00    -0.352 N 
ATOM     37  C   UNL A   1      42.112  19.572  25.665  1.00  0.00     0.251 C 
ATOM     38  H   UNL A   1      40.830  18.009  25.725  1.00  0.00     0.163 HD
ATOM     39  O   UNL A   1      42.987  19.031  25.016  1.00  0.00    -0.269 OA
BRANCH  37  40
ATOM     40  C   UNL A   1      42.352  20.877  26.308  1.00  0.00     0.039 A 
ATOM     41  C   UNL A   1      42.602  22.036  25.567  1.00  0.00     0.014 A 
ATOM     42  C   UNL A   1      42.284  20.917  27.696  1.00  0.00     0.014 A 
ATOM     43  C   UNL A   1      42.719  23.247  26.245  1.00  0.00     0.010 A 
ATOM     44  C   UNL A   1      42.193  22.120  28.332  1.00  0.00     0.010 A 
ATOM     45  C   UNL A   1      42.501  23.277  27.631  1.00  0.00    -0.014 A 
BRANCH  45  46
ATOM     46  C   UNL A   1      42.477  24.527  28.380  1.00  0.00     0.031 A 
ATOM     47  C   UNL A   1      41.234  25.317  28.187  1.00  0.00     0.074 A 
ATOM     48  C   UNL A   1      43.381  24.800  29.347  1.00  0.00     0.049 A 
ATOM     49  N   UNL A   1      41.107  26.457  27.596  1.00  0.00    -0.248 NA
ATOM     50  C   UNL A   1      39.951  24.691  28.551  1.00  0.00     0.031 C 
ATOM     51  C   UNL A   1      44.469  23.943  29.843  1.00  0.00     0.029 A 
ATOM     52  N   UNL A   1      43.462  25.878  30.174  1.00  0.00    -0.354 N 
ATOM     53  C   UNL A   1      39.766  26.804  27.731  1.00  0.00     0.074 A 
ATOM     54  C   UNL A   1      39.079  25.601  28.114  1.00  0.00     0.031 C 
ATOM     55  C   UNL A   1      44.938  24.426  31.013  1.00  0.00     0.029 A 
ATOM     56  C   UNL A   1      44.321  25.714  31.257  1.00  0.00     0.049 A 
ATOM     57  H   UNL A   1      42.953  26.706  30.018  1.00  0.00     0.167 HD
ATOM     58  C   UNL A   1      39.397  28.113  27.813  1.00  0.00     0.037 A 
ATOM     59  C   UNL A   1      44.509  26.577  32.287  1.00  0.00     0.037 A 
ATOM     60  C   UNL A   1      40.458  28.968  27.328  1.00  0.00     0.049 A 
ATOM     61  C   UNL A   1      44.013  27.900  31.841  1.00  0.00     0.074 A 
ATOM     62  C   UNL A   1      41.135  29.111  26.133  1.00  0.00     0.029 A 
ATOM     63  N   UNL A   1      41.235  29.591  28.273  1.00  0.00    -0.354 N 
ATOM     64  N   UNL A   1      44.574  28.599  30.895  1.00  0.00    -0.248 NA
ATOM     65  C   UNL A   1      42.623  28.223  32.116  1.00  0.00     0.031 C 
ATOM     66  C   UNL A   1      42.485  29.389  26.503  1.00  0.00     0.029 A 
ATOM     67  C   UNL A   1      42.546  29.477  27.895  1.00  0.00     0.049 A 
ATOM     68  H   UNL A   1      40.907  30.043  29.084  1.00  0.00     0.167 HD
ATOM     69  C   UNL A   1      43.516  29.121  30.167  1.00  0.00     0.074 A 
ATOM     70  C   UNL A   1      42.343  28.934  31.021  1.00  0.00     0.031 C 
ATOM     71  C   UNL A   1      43.645  29.378  28.831  1.00  0.00     0.037 A 
BRANCH  58  72
ATOM     72  C   UNL A   1      38.308  28.637  28.730  1.00  0.00     0.057 A 
ATOM     73  C   UNL A   1      37.431  29.624  28.237  1.00  0.00     0.134 A 
ATOM     74  C   UNL A   1      38.271  28.465  30.130  1.00  0.00     0.134 A 
ATOM     75  F   UNL A   1      37.354  29.883  26.922  1.00  0.00    -0.206 F 
ATOM     76  C   UNL A   1      36.675  30.451  29.077  1.00  0.00     0.040 A 
ATOM     77  C   UNL A   1      37.482  29.254  30.973  1.00  0.00     0.040 A 
ATOM     78  F   UNL A   1      39.054  27.600  30.780  1.00  0.00    -0.206 F 
ATOM     79  C   UNL A   1      36.711  30.278  30.453  1.00  0.00     0.006 A 
ENDBRANCH  58  72
BRANCH  59  80
ATOM     80  C   UNL A   1      44.809  26.276  33.705  1.00  0.00     0.057 A 
ATOM     81  C   UNL A   1      43.822  25.806  34.582  1.00  0.00     0.134 A 
ATOM     82  C   UNL A   1      46.136  26.179  34.160  1.00  0.00     0.134 A 
ATOM     83  F   UNL A   1      42.532  25.810  34.217  1.00  0.00    -0.206 F 
ATOM     84  C   UNL A   1      44.136  25.258  35.834  1.00  0.00     0.040 A 
ATOM     85  C   UNL A   1      46.464  25.638  35.408  1.00  0.00     0.040 A 
ATOM     86  F   UNL A   1      47.163  26.523  33.370  1.00  0.00    -0.206 F 
ATOM     87  C   UNL A   1      45.462  25.164  36.246  1.00  0.00     0.006 A 
ENDBRANCH  59  80
BRANCH  71  88
ATOM     88  C   UNL A   1      45.032  29.336  28.243  1.00  0.00     0.057 A 
ATOM     89  C   UNL A   1      45.610  28.199  27.653  1.00  0.00     0.134 A 
ATOM     90  C   UNL A   1      45.753  30.530  28.139  1.00  0.00     0.134 A 
ATOM     91  F   UNL A   1      44.962  27.030  27.619  1.00  0.00    -0.206 F 
ATOM     92  C   UNL A   1      46.860  28.244  27.026  1.00  0.00     0.040 A 
ATOM     93  C   UNL A   1      46.987  30.595  27.487  1.00  0.00     0.040 A 
ATOM     94  F   UNL A   1      45.242  31.670  28.630  1.00  0.00    -0.206 F 
ATOM     95  C   UNL A   1      47.550  29.448  26.936  1.00  0.00     0.006 A 
ENDBRANCH  71  88
ENDBRANCH  45  46
ENDBRANCH  37  40
ENDBRANCH  35  36
ENDBRANCH  34  35
ENDBRANCH  33  34
ENDBRANCH   1  33
TORSDOF 16
ENDMDL
MODEL 2
REMARK VINA RESULT:     -12.5      1.845      5.535
REMARK SMILES C[C@@H]1CCc2c(C(=O)NNC(=O)[C@@H]3[C@@H]4CC[C@@H](C4)[C@@H]3C(=O)NCCCCCCNC(=O)c3ccc(-c4c5nc(c(-c6c(F)cccc6F)c6ccc([nH]6)c(-c6c(F)cccc6F)c6nc(c(-c7c(F)cccc7F)c7ccc4[nH]7)C=C6)C=C5)cc3)csc2C1
REMARK SMILES IDX 25 1 24 2 23 3 22 4 20 5 21 6 19 8 13 9 14 10 15 11 18 12
REMARK SMILES IDX 17 13 16 14 11 15 10 16 12 18 9 19 7 20 8 21 6 23 1 24 2 25
REMARK SMILES IDX 3 26 89 27 4 28 88 29 5 30 87 31 86 32 26 33 27 34 28 35
REMARK SMILES IDX 29 36 30 37 31 39 32 40 33 41 85 42 34 43 84 44 35 45 36 46
REMARK SMILES IDX 37 47 78 48 38 49 83 50 77 51 79 52 39 53 82 54 76 55 75 56
REMARK SMILES IDX 40 58 66 59 49 60 65 61 50 62 53 63 64 64 80 65 51 66 52 67
REMARK SMILES IDX 63 69 81 70 54 71 41 72 42 73 47 74 43 75 44 76 46 77 48 78
REMARK SMILES IDX 45 79 67 80 68 81 73 82 69 83 70 84 72 85 74 86 71 87 55 88
REMARK SMILES IDX 56 89 61 90 57 91 58 92 60 93 62 94 59 95
REMARK H PARENT 22 7 10 17 9 22 29 38 79 57 53 68
REMARK Flexibility Score: inf
ROOT
ATOM      1  C   UNL A   1      39.635  22.595  26.450  1.00  0.00     0.002 C 
ENDROOT
BRANCH   1   2
ATOM      2  C   UNL A   1      38.249  22.136  25.970  1.00  0.00     0.021 C 
BRANCH   2   3
ATOM      3  C   UNL A   1      37.478  23.149  25.102  1.00  0.00     0.116 C 
BRANCH   3   4
ATOM      4  N   UNL A   1      36.150  23.408  25.617  1.00  0.00    -0.356 N 
ATOM      5  C   UNL A   1      35.114  23.324  24.739  1.00  0.00     0.224 C 
ATOM      6  O   UNL A   1      34.757  24.362  24.182  1.00  0.00    -0.275 OA
ATOM      7  H   UNL A   1      36.002  23.635  26.564  1.00  0.00     0.163 HD
BRANCH   5   8
ATOM      8  C   UNL A   1      34.614  21.935  24.354  1.00  0.00     0.094 C 
ATOM      9  C   UNL A   1      33.185  21.852  23.796  1.00  0.00     0.096 C 
ATOM     10  C   UNL A   1      32.738  20.420  24.174  1.00  0.00     0.002 C 
ATOM     11  C   UNL A   1      32.274  20.373  25.628  1.00  0.00     0.005 C 
ATOM     12  C   UNL A   1      34.079  19.665  24.276  1.00  0.00     0.009 C 
ATOM     13  C   UNL A   1      34.677  20.676  25.276  1.00  0.00     0.002 C 
ATOM     14  C   UNL A   1      33.606  20.500  26.388  1.00  0.00     0.005 C 
BRANCH   9  15
ATOM     15  C   UNL A   1      32.183  22.974  24.080  1.00  0.00     0.242 C 
ATOM     16  N   UNL A   1      31.836  23.902  23.130  1.00  0.00    -0.267 N 
ATOM     17  H   UNL A   1      30.894  24.190  23.128  1.00  0.00     0.191 HD
ATOM     18  O   UNL A   1      31.579  22.975  25.158  1.00  0.00    -0.273 OA
BRANCH  16  19
ATOM     19  N   UNL A   1      32.649  24.480  22.177  1.00  0.00    -0.263 N 
ATOM     20  C   UNL A   1      32.654  25.795  21.769  1.00  0.00     0.270 C 
ATOM     21  O   UNL A   1      33.201  26.000  20.679  1.00  0.00    -0.267 OA
ATOM     22  H   UNL A   1      33.299  23.883  21.738  1.00  0.00     0.191 HD
BRANCH  20  23
ATOM     23  C   UNL A   1      32.028  26.895  22.518  1.00  0.00     0.055 A 
ATOM     24  C   UNL A   1      32.892  29.962  27.349  1.00  0.00     0.008 C 
ATOM     25  C   UNL A   1      32.644  29.013  26.188  1.00  0.00    -0.009 C 
ATOM     26  C   UNL A   1      33.949  28.761  25.419  1.00  0.00     0.008 C 
ATOM     27  C   UNL A   1      31.578  29.540  25.206  1.00  0.00     0.050 C 
ATOM     28  C   UNL A   1      33.748  27.637  24.412  1.00  0.00     0.038 C 
ATOM     29  C   UNL A   1      31.476  28.602  24.035  1.00  0.00     0.009 A 
ATOM     30  C   UNL A   1      32.459  27.706  23.642  1.00  0.00    -0.021 A 
ATOM     31  S   UNL A   1      30.101  28.566  23.049  1.00  0.00    -0.148 S 
ATOM     32  C   UNL A   1      30.762  27.310  22.112  1.00  0.00     0.079 A 
ENDBRANCH  20  23
ENDBRANCH  16  19
ENDBRANCH   9  15
ENDBRANCH   5   8
ENDBRANCH   3   4
ENDBRANCH   2   3
ENDBRANCH   1   2
BRANCH   1  33
ATOM     33  C   UNL A   1      40.442  21.566  27.254  1.00  0.00     0.002 C 
BRANCH  33  34
ATOM     34  C   UNL A   1      41.013  20.382  26.462  1.00  0.00     0.021 C 
BRANCH  34  35
ATOM     35  C   UNL A   1      42.290  19.809  27.048  1.00  0.00     0.116 C 
BRANCH  35  36
ATOM     36  N   UNL A   1      43.334  19.612  26.045  1.00  0.00    -0.352 N 
ATOM     37  C   UNL A   1      43.899  20.567  25.216  1.00  0.00     0.251 C 
ATOM     38  H   UNL A   1      43.675  18.694  25.945  1.00  0.00     0.163 HD
ATOM     39  O   UNL A   1      44.451  20.264  24.175  1.00  0.00    -0.269 OA
BRANCH  37  40
ATOM     40  C   UNL A   1      43.829  21.976  25.646  1.00  0.00     0.039 A 
ATOM     41  C   UNL A   1      43.048  22.921  24.974  1.00  0.00     0.014 A 
ATOM     42  C   UNL A   1      44.551  22.324  26.782  1.00  0.00     0.014 A 
ATOM     43  C   UNL A   1      42.957  24.206  25.503  1.00  0.00     0.010 A 
ATOM     44  C   UNL A   1      44.298  23.511  27.405  1.00  0.00     0.010 A 
ATOM     45  C   UNL A   1      43.580  24.486  26.729  1.00  0.00    -0.014 A 
BRANCH  45  46
ATOM     46  C   UNL A   1      43.414  25.767  27.401  1.00  0.00     0.031 A 
ATOM     47  C   UNL A   1      44.424  26.784  27.012  1.00  0.00     0.074 A 
ATOM     48  C   UNL A   1      42.299  26.068  28.105  1.00  0.00     0.049 A 
ATOM     49  N   UNL A   1      45.359  27.289  27.744  1.00  0.00    -0.248 NA
ATOM     50  C   UNL A   1      44.510  27.167  25.592  1.00  0.00     0.031 C 
ATOM     51  C   UNL A   1      41.091  25.249  28.289  1.00  0.00     0.029 A 
ATOM     52  N   UNL A   1      41.961  27.227  28.733  1.00  0.00    -0.354 N 
ATOM     53  C   UNL A   1      45.995  28.235  26.944  1.00  0.00     0.074 A 
ATOM     54  C   UNL A   1      45.588  27.953  25.594  1.00  0.00     0.031 C 
ATOM     55  C   UNL A   1      40.086  26.012  28.771  1.00  0.00     0.029 A 
ATOM     56  C   UNL A   1      40.622  27.317  29.103  1.00  0.00     0.049 A 
ATOM     57  H   UNL A   1      42.612  27.944  28.911  1.00  0.00     0.167 HD
ATOM     58  C   UNL A   1      46.553  29.346  27.501  1.00  0.00     0.037 A 
ATOM     59  C   UNL A   1      39.994  28.392  29.641  1.00  0.00     0.037 A 
ATOM     60  C   UNL A   1      46.748  29.156  28.920  1.00  0.00     0.049 A 
ATOM     61  C   UNL A   1      41.046  29.278  30.193  1.00  0.00     0.074 A 
ATOM     62  C   UNL A   1      47.454  28.264  29.704  1.00  0.00     0.029 A 
ATOM     63  N   UNL A   1      45.832  29.742  29.758  1.00  0.00    -0.354 N 
ATOM     64  N   UNL A   1      41.796  28.959  31.210  1.00  0.00    -0.248 NA
ATOM     65  C   UNL A   1      41.583  30.308  29.319  1.00  0.00     0.031 C 
ATOM     66  C   UNL A   1      46.620  28.024  30.836  1.00  0.00     0.029 A 
ATOM     67  C   UNL A   1      45.489  28.834  30.724  1.00  0.00     0.049 A 
ATOM     68  H   UNL A   1      45.482  30.659  29.679  1.00  0.00     0.167 HD
ATOM     69  C   UNL A   1      43.064  29.406  30.868  1.00  0.00     0.074 A 
ATOM     70  C   UNL A   1      42.851  30.311  29.738  1.00  0.00     0.031 C 
ATOM     71  C   UNL A   1      44.180  28.772  31.337  1.00  0.00     0.037 A 
BRANCH  58  72
ATOM     72  C   UNL A   1      46.496  30.730  26.882  1.00  0.00     0.057 A 
ATOM     73  C   UNL A   1      47.672  31.507  26.863  1.00  0.00     0.134 A 
ATOM     74  C   UNL A   1      45.314  31.448  26.601  1.00  0.00     0.134 A 
ATOM     75  F   UNL A   1      48.870  30.949  27.101  1.00  0.00    -0.206 F 
ATOM     76  C   UNL A   1      47.657  32.897  26.699  1.00  0.00     0.040 A 
ATOM     77  C   UNL A   1      45.295  32.829  26.388  1.00  0.00     0.040 A 
ATOM     78  F   UNL A   1      44.102  30.887  26.606  1.00  0.00    -0.206 F 
ATOM     79  C   UNL A   1      46.462  33.566  26.477  1.00  0.00     0.006 A 
ENDBRANCH  58  72
BRANCH  59  80
ATOM     80  C   UNL A   1      38.596  28.839  29.452  1.00  0.00     0.057 A 
ATOM     81  C   UNL A   1      37.717  28.980  30.535  1.00  0.00     0.134 A 
ATOM     82  C   UNL A   1      38.173  29.405  28.237  1.00  0.00     0.134 A 
ATOM     83  F   UNL A   1      38.053  28.518  31.748  1.00  0.00    -0.206 F 
ATOM     84  C   UNL A   1      36.494  29.656  30.420  1.00  0.00     0.040 A 
ATOM     85  C   UNL A   1      36.954  30.080  28.107  1.00  0.00     0.040 A 
ATOM     86  F   UNL A   1      38.971  29.401  27.159  1.00  0.00    -0.206 F 
ATOM     87  C   UNL A   1      36.113  30.217  29.205  1.00  0.00     0.006 A 
ENDBRANCH  59  80
BRANCH  71  88
ATOM     88  C   UNL A   1      43.996  27.760  32.438  1.00  0.00     0.057 A 
ATOM     89  C   UNL A   1      43.930  26.371  32.237  1.00  0.00     0.134 A 
ATOM     90  C   UNL A   1      44.035  28.199  33.765  1.00  0.00     0.134 A 
ATOM     91  F   UNL A   1      43.978  25.845  31.008  1.00  0.00    -0.206 F 
ATOM     92  C   UNL A   1      43.867  25.469  33.305  1.00  0.00     0.040 A 
ATOM     93  C   UNL A   1      44.006  27.307  34.841  1.00  0.00     0.040 A 
ATOM     94  F   UNL A   1      44.153  29.508  34.039  1.00  0.00    -0.206 F 
ATOM     95  C   UNL A   1      43.912  25.937  34.613  1.00  0.00     0.006 A 
ENDBRANCH  71  88
ENDBRANCH  45  46
ENDBRANCH  37  40
ENDBRANCH  35  36
ENDBRANCH  34  35
ENDBRANCH  33  34
ENDBRANCH   1  33
TORSDOF 16
ENDMDL
MODEL 3
REMARK VINA RESULT:     -12.1      1.878      5.694
REMARK SMILES C[C@@H]1CCc2c(C(=O)NNC(=O)[C@@H]3[C@@H]4CC[C@@H](C4)[C@@H]3C(=O)NCCCCCCNC(=O)c3ccc(-c4c5nc(c(-c6c(F)cccc6F)c6ccc([nH]6)c(-c6c(F)cccc6F)c6nc(c(-c7c(F)cccc7F)c7ccc4[nH]7)C=C6)C=C5)cc3)csc2C1
REMARK SMILES IDX 25 1 24 2 23 3 22 4 20 5 21 6 19 8 13 9 14 10 15 11 18 12
REMARK SMILES IDX 17 13 16 14 11 15 10 16 12 18 9 19 7 20 8 21 6 23 1 24 2 25
REMARK SMILES IDX 3 26 89 27 4 28 88 29 5 30 87 31 86 32 26 33 27 34 28 35
REMARK SMILES IDX 29 36 30 37 31 39 32 40 33 41 85 42 34 43 84 44 35 45 36 46
REMARK SMILES IDX 37 47 78 48 38 49 83 50 77 51 79 52 39 53 82 54 76 55 75 56
REMARK SMILES IDX 40 58 66 59 49 60 65 61 50 62 53 63 64 64 80 65 51 66 52 67
REMARK SMILES IDX 63 69 81 70 54 71 41 72 42 73 47 74 43 75 44 76 46 77 48 78
REMARK SMILES IDX 45 79 67 80 68 81 73 82 69 83 70 84 72 85 74 86 71 87 55 88
REMARK SMILES IDX 56 89 61 90 57 91 58 92 60 93 62 94 59 95
REMARK H PARENT 22 7 10 17 9 22 29 38 79 57 53 68
REMARK Flexibility Score: inf
ROOT
ATOM      1  C   UNL A   1      39.708  22.686  26.120  1.00  0.00     0.002 C 
ENDROOT
BRANCH   1   2
ATOM      2  C   UNL A   1      38.202  22.992  26.132  1.00  0.00     0.021 C 
BRANCH   2   3
ATOM      3  C   UNL A   1      37.324  22.040  25.296  1.00  0.00     0.116 C 
BRANCH   3   4
ATOM      4  N   UNL A   1      36.448  21.238  26.124  1.00  0.00    -0.356 N 
ATOM      5  C   UNL A   1      35.125  21.554  26.120  1.00  0.00     0.224 C 
ATOM      6  O   UNL A   1      34.723  22.325  26.991  1.00  0.00    -0.275 OA
ATOM      7  H   UNL A   1      36.796  20.495  26.668  1.00  0.00     0.163 HD
BRANCH   5   8
ATOM      8  C   UNL A   1      34.287  21.104  24.927  1.00  0.00     0.094 C 
ATOM      9  C   UNL A   1      34.136  22.112  23.777  1.00  0.00     0.096 C 
ATOM     10  C   UNL A   1      32.778  21.728  23.143  1.00  0.00     0.002 C 
ATOM     11  C   UNL A   1      31.626  22.328  23.946  1.00  0.00     0.005 C 
ATOM     12  C   UNL A   1      32.643  20.237  23.515  1.00  0.00     0.009 C 
ATOM     13  C   UNL A   1      32.850  20.501  25.022  1.00  0.00     0.002 C 
ATOM     14  C   UNL A   1      31.641  21.458  25.215  1.00  0.00     0.005 C 
BRANCH   9  15
ATOM     15  C   UNL A   1      34.371  23.603  24.027  1.00  0.00     0.242 C 
ATOM     16  N   UNL A   1      33.945  24.230  25.172  1.00  0.00    -0.267 N 
ATOM     17  H   UNL A   1      34.542  24.923  25.535  1.00  0.00     0.191 HD
ATOM     18  O   UNL A   1      35.071  24.238  23.229  1.00  0.00    -0.273 OA
BRANCH  16  19
ATOM     19  N   UNL A   1      32.779  24.003  25.873  1.00  0.00    -0.263 N 
ATOM     20  C   UNL A   1      31.906  24.946  26.369  1.00  0.00     0.270 C 
ATOM     21  O   UNL A   1      31.143  24.535  27.251  1.00  0.00    -0.267 OA
ATOM     22  H   UNL A   1      32.546  23.061  26.039  1.00  0.00     0.191 HD
BRANCH  20  23
ATOM     23  C   UNL A   1      31.881  26.353  25.945  1.00  0.00     0.055 A 
ATOM     24  C   UNL A   1      29.311  29.694  21.979  1.00  0.00     0.008 C 
ATOM     25  C   UNL A   1      30.064  28.731  22.882  1.00  0.00    -0.009 C 
ATOM     26  C   UNL A   1      29.094  27.714  23.501  1.00  0.00     0.008 C 
ATOM     27  C   UNL A   1      30.826  29.449  24.013  1.00  0.00     0.050 C 
ATOM     28  C   UNL A   1      29.877  26.617  24.210  1.00  0.00     0.038 C 
ATOM     29  C   UNL A   1      31.446  28.424  24.922  1.00  0.00     0.009 A 
ATOM     30  C   UNL A   1      31.035  27.104  25.035  1.00  0.00    -0.021 A 
ATOM     31  S   UNL A   1      32.746  28.811  25.934  1.00  0.00    -0.148 S 
ATOM     32  C   UNL A   1      32.828  27.209  26.501  1.00  0.00     0.079 A 
ENDBRANCH  20  23
ENDBRANCH  16  19
ENDBRANCH   9  15
ENDBRANCH   5   8
ENDBRANCH   3   4
ENDBRANCH   2   3
ENDBRANCH   1   2
BRANCH   1  33
ATOM     33  C   UNL A   1      40.159  21.505  26.990  1.00  0.00     0.002 C 
BRANCH  33  34
ATOM     34  C   UNL A   1      40.861  20.351  26.260  1.00  0.00     0.021 C 
BRANCH  34  35
ATOM     35  C   UNL A   1      42.114  19.853  26.958  1.00  0.00     0.116 C 
BRANCH  35  36
ATOM     36  N   UNL A   1      43.225  19.632  26.035  1.00  0.00    -0.352 N 
ATOM     37  C   UNL A   1      43.874  20.574  25.254  1.00  0.00     0.251 C 
ATOM     38  H   UNL A   1      43.549  18.706  25.957  1.00  0.00     0.163 HD
ATOM     39  O   UNL A   1      44.495  20.259  24.257  1.00  0.00    -0.269 OA
BRANCH  37  40
ATOM     40  C   UNL A   1      43.808  21.983  25.683  1.00  0.00     0.039 A 
ATOM     41  C   UNL A   1      43.120  22.953  24.948  1.00  0.00     0.014 A 
ATOM     42  C   UNL A   1      44.435  22.307  26.881  1.00  0.00     0.014 A 
ATOM     43  C   UNL A   1      43.020  24.240  25.473  1.00  0.00     0.010 A 
ATOM     44  C   UNL A   1      44.163  23.499  27.485  1.00  0.00     0.010 A 
ATOM     45  C   UNL A   1      43.538  24.498  26.752  1.00  0.00    -0.014 A 
BRANCH  45  46
ATOM     46  C   UNL A   1      43.351  25.781  27.413  1.00  0.00     0.031 A 
ATOM     47  C   UNL A   1      44.352  26.807  27.025  1.00  0.00     0.074 A 
ATOM     48  C   UNL A   1      42.226  26.075  28.104  1.00  0.00     0.049 A 
ATOM     49  N   UNL A   1      45.275  27.329  27.762  1.00  0.00    -0.248 NA
ATOM     50  C   UNL A   1      44.448  27.181  25.603  1.00  0.00     0.031 C 
ATOM     51  C   UNL A   1      41.025  25.242  28.282  1.00  0.00     0.029 A 
ATOM     52  N   UNL A   1      41.868  27.234  28.720  1.00  0.00    -0.354 N 
ATOM     53  C   UNL A   1      45.906  28.276  26.961  1.00  0.00     0.074 A 
ATOM     54  C   UNL A   1      45.515  27.980  25.609  1.00  0.00     0.031 C 
ATOM     55  C   UNL A   1      40.008  25.997  28.749  1.00  0.00     0.029 A 
ATOM     56  C   UNL A   1      40.524  27.311  29.076  1.00  0.00     0.049 A 
ATOM     57  H   UNL A   1      42.509  27.960  28.898  1.00  0.00     0.167 HD
ATOM     58  C   UNL A   1      46.447  29.397  27.514  1.00  0.00     0.037 A 
ATOM     59  C   UNL A   1      39.879  28.383  29.600  1.00  0.00     0.037 A 
ATOM     60  C   UNL A   1      46.630  29.221  28.937  1.00  0.00     0.049 A 
ATOM     61  C   UNL A   1      40.915  29.284  30.155  1.00  0.00     0.074 A 
ATOM     62  C   UNL A   1      47.339  28.343  29.734  1.00  0.00     0.029 A 
ATOM     63  N   UNL A   1      45.699  29.802  29.762  1.00  0.00    -0.354 N 
ATOM     64  N   UNL A   1      41.660  28.982  31.182  1.00  0.00    -0.248 NA
ATOM     65  C   UNL A   1      41.448  30.314  29.279  1.00  0.00     0.031 C 
ATOM     66  C   UNL A   1      46.497  28.101  30.860  1.00  0.00     0.029 A 
ATOM     67  C   UNL A   1      45.358  28.898  30.731  1.00  0.00     0.049 A 
ATOM     68  H   UNL A   1      45.339  30.714  29.673  1.00  0.00     0.167 HD
ATOM     69  C   UNL A   1      42.925  29.442  30.848  1.00  0.00     0.074 A 
ATOM     70  C   UNL A   1      42.712  30.336  29.709  1.00  0.00     0.031 C 
ATOM     71  C   UNL A   1      44.044  28.824  31.333  1.00  0.00     0.037 A 
BRANCH  58  72
ATOM     72  C   UNL A   1      46.379  30.776  26.885  1.00  0.00     0.057 A 
ATOM     73  C   UNL A   1      47.544  31.570  26.878  1.00  0.00     0.134 A 
ATOM     74  C   UNL A   1      45.191  31.475  26.581  1.00  0.00     0.134 A 
ATOM     75  F   UNL A   1      48.746  31.031  27.138  1.00  0.00    -0.206 F 
ATOM     76  C   UNL A   1      47.511  32.959  26.704  1.00  0.00     0.040 A 
ATOM     77  C   UNL A   1      45.155  32.854  26.358  1.00  0.00     0.040 A 
ATOM     78  F   UNL A   1      43.987  30.897  26.571  1.00  0.00    -0.206 F 
ATOM     79  C   UNL A   1      46.310  33.609  26.459  1.00  0.00     0.006 A 
ENDBRANCH  58  72
BRANCH  59  80
ATOM     80  C   UNL A   1      38.478  28.812  29.395  1.00  0.00     0.057 A 
ATOM     81  C   UNL A   1      37.589  28.956  30.469  1.00  0.00     0.134 A 
ATOM     82  C   UNL A   1      38.058  29.357  28.170  1.00  0.00     0.134 A 
ATOM     83  F   UNL A   1      37.921  28.513  31.691  1.00  0.00    -0.206 F 
ATOM     84  C   UNL A   1      36.359  29.617  30.337  1.00  0.00     0.040 A 
ATOM     85  C   UNL A   1      36.832  30.016  28.022  1.00  0.00     0.040 A 
ATOM     86  F   UNL A   1      38.864  29.348  27.098  1.00  0.00    -0.206 F 
ATOM     87  C   UNL A   1      35.982  30.158  29.111  1.00  0.00     0.006 A 
ENDBRANCH  59  80
BRANCH  71  88
ATOM     88  C   UNL A   1      43.862  27.818  32.440  1.00  0.00     0.057 A 
ATOM     89  C   UNL A   1      43.817  26.427  32.249  1.00  0.00     0.134 A 
ATOM     90  C   UNL A   1      43.880  28.268  33.764  1.00  0.00     0.134 A 
ATOM     91  F   UNL A   1      43.887  25.892  31.025  1.00  0.00    -0.206 F 
ATOM     92  C   UNL A   1      43.754  25.533  33.323  1.00  0.00     0.040 A 
ATOM     93  C   UNL A   1      43.851  27.384  34.846  1.00  0.00     0.040 A 
ATOM     94  F   UNL A   1      43.977  29.580  34.028  1.00  0.00    -0.206 F 
ATOM     95  C   UNL A   1      43.778  26.012  34.628  1.00  0.00     0.006 A 
ENDBRANCH  71  88
ENDBRANCH  45  46
ENDBRANCH  37  40
ENDBRANCH  35  36
ENDBRANCH  34  35
ENDBRANCH  33  34
ENDBRANCH   1  33
TORSDOF 16
ENDMDL
