MODEL 1
REMARK VINA RESULT:     -11.2      0.000      0.000
REMARK SMILES COCC[C@@]1(C(=O)NCCCCCCNC(=O)c2ccc(-c3c4nc(c(-c5c(F)cccc5F)c5ccc([nH]5)c(-c5c(F)cccc5F)c5nc(c(-c6c(F)cccc6F)c6ccc3[nH]6)C=C5)C=C4)cc2)CCC[N@@H+](Cc2cccc3c2OC(C)(C)C3)C1
REMARK SMILES IDX 11 1 10 2 9 3 8 4 6 5 7 6 5 8 72 9 88 10 73 11 75 12 74 13
REMARK SMILES IDX 4 15 3 16 2 17 1 18 76 19 77 20 78 21 82 22 79 23 81 24
REMARK SMILES IDX 83 25 80 26 87 27 84 28 85 29 86 30 12 31 13 32 14 33 15 34
REMARK SMILES IDX 16 35 17 37 18 38 19 39 71 40 20 41 70 42 21 43 22 44 23 45
REMARK SMILES IDX 64 46 24 47 69 48 63 49 65 50 25 51 68 52 62 53 61 54 26 56
REMARK SMILES IDX 52 57 35 58 51 59 36 60 39 61 50 62 66 63 37 64 38 65 49 67
REMARK SMILES IDX 67 68 40 69 27 70 28 71 33 72 29 73 30 74 32 75 34 76 31 77
REMARK SMILES IDX 53 78 54 79 59 80 55 81 56 82 58 83 60 84 57 85 41 86 42 87
REMARK SMILES IDX 47 88 43 89 44 90 46 91 48 92 45 93
REMARK H PARENT 8 7 75 14 15 36 65 55 39 66
REMARK Flexibility Score: inf
ROOT
ATOM      1  C   UNL A   1      34.620  29.646  27.639  1.00  0.00     0.002 C 
ENDROOT
BRANCH   1   2
ATOM      2  C   UNL A   1      33.473  28.769  27.117  1.00  0.00     0.021 C 
BRANCH   2   3
ATOM      3  C   UNL A   1      33.570  28.336  25.651  1.00  0.00     0.116 C 
BRANCH   3   4
ATOM      4  N   UNL A   1      33.040  26.988  25.435  1.00  0.00    -0.355 N 
ATOM      5  C   UNL A   1      33.231  26.350  24.220  1.00  0.00     0.232 C 
ATOM      6  O   UNL A   1      34.289  25.759  24.013  1.00  0.00    -0.274 OA
ATOM      7  H   UNL A   1      32.547  26.533  26.155  1.00  0.00     0.163 HD
BRANCH   5   8
ATOM      8  C   UNL A   1      31.997  26.272  23.284  1.00  0.00     0.100 C 
ATOM      9  C   UNL A   1      30.677  26.191  24.096  1.00  0.00     0.029 C 
ATOM     10  C   UNL A   1      32.091  24.984  22.414  1.00  0.00     0.279 C 
ATOM     11  C   UNL A   1      30.461  24.854  24.797  1.00  0.00     0.063 C 
ATOM     12  N   UNL A   1      31.976  23.757  23.233  1.00  0.00    -0.330 N 
ATOM     13  C   UNL A   1      30.653  23.679  23.849  1.00  0.00     0.262 C 
ATOM     14  H   UNL A   1      32.675  23.846  23.970  1.00  0.00     0.348 HD
BRANCH   8  15
ATOM     15  C   UNL A   1      32.032  27.553  22.360  1.00  0.00     0.051 C 
BRANCH  15  16
ATOM     16  C   UNL A   1      31.155  28.748  22.776  1.00  0.00     0.161 C 
BRANCH  16  17
ATOM     17  O   UNL A   1      29.964  28.781  22.001  1.00  0.00    -0.385 OA
ATOM     18  C   UNL A   1      29.366  30.071  21.919  1.00  0.00     0.194 C 
ENDBRANCH  16  17
ENDBRANCH  15  16
ENDBRANCH   8  15
BRANCH  12  19
ATOM     19  C   UNL A   1      32.378  22.505  22.560  1.00  0.00     0.303 C 
BRANCH  19  20
ATOM     20  C   UNL A   1      32.718  21.362  23.471  1.00  0.00     0.049 A 
ATOM     21  C   UNL A   1      32.225  20.072  23.243  1.00  0.00     0.013 A 
ATOM     22  C   UNL A   1      33.694  21.503  24.438  1.00  0.00     0.132 A 
ATOM     23  C   UNL A   1      32.833  18.965  23.851  1.00  0.00     0.001 A 
ATOM     24  C   UNL A   1      34.407  20.413  24.900  1.00  0.00    -0.001 A 
ATOM     25  O   UNL A   1      34.103  22.691  24.991  1.00  0.00    -0.487 OA
ATOM     26  C   UNL A   1      33.986  19.128  24.626  1.00  0.00     0.008 A 
ATOM     27  C   UNL A   1      35.631  20.932  25.563  1.00  0.00     0.087 C 
ATOM     28  C   UNL A   1      35.071  22.295  26.010  1.00  0.00     0.108 C 
ATOM     29  C   UNL A   1      34.403  22.147  27.391  1.00  0.00     0.057 C 
ATOM     30  C   UNL A   1      36.118  23.408  26.065  1.00  0.00     0.057 C 
ENDBRANCH  19  20
ENDBRANCH  12  19
ENDBRANCH   5   8
ENDBRANCH   3   4
ENDBRANCH   2   3
ENDBRANCH   1   2
BRANCH   1  31
ATOM     31  C   UNL A   1      34.468  31.170  27.591  1.00  0.00     0.002 C 
BRANCH  31  32
ATOM     32  C   UNL A   1      33.058  31.766  27.666  1.00  0.00     0.021 C 
BRANCH  32  33
ATOM     33  C   UNL A   1      32.808  33.052  26.876  1.00  0.00     0.116 C 
BRANCH  33  34
ATOM     34  N   UNL A   1      32.517  34.188  27.741  1.00  0.00    -0.352 N 
ATOM     35  C   UNL A   1      33.112  34.624  28.895  1.00  0.00     0.251 C 
ATOM     36  H   UNL A   1      31.758  34.740  27.443  1.00  0.00     0.163 HD
ATOM     37  O   UNL A   1      32.553  35.501  29.564  1.00  0.00    -0.269 OA
BRANCH  35  38
ATOM     38  C   UNL A   1      34.400  34.076  29.377  1.00  0.00     0.039 A 
ATOM     39  C   UNL A   1      34.404  33.308  30.550  1.00  0.00     0.014 A 
ATOM     40  C   UNL A   1      35.612  34.378  28.751  1.00  0.00     0.014 A 
ATOM     41  C   UNL A   1      35.602  32.793  31.054  1.00  0.00     0.010 A 
ATOM     42  C   UNL A   1      36.806  33.828  29.231  1.00  0.00     0.010 A 
ATOM     43  C   UNL A   1      36.812  33.023  30.381  1.00  0.00    -0.014 A 
BRANCH  43  44
ATOM     44  C   UNL A   1      38.078  32.394  30.843  1.00  0.00     0.031 A 
ATOM     45  C   UNL A   1      38.601  31.139  30.200  1.00  0.00     0.074 A 
ATOM     46  C   UNL A   1      38.730  32.923  31.897  1.00  0.00     0.049 A 
ATOM     47  N   UNL A   1      39.639  30.412  30.529  1.00  0.00    -0.248 NA
ATOM     48  C   UNL A   1      37.851  30.626  29.044  1.00  0.00     0.031 C 
ATOM     49  C   UNL A   1      38.317  34.121  32.630  1.00  0.00     0.029 A 
ATOM     50  N   UNL A   1      39.868  32.512  32.546  1.00  0.00    -0.354 N 
ATOM     51  C   UNL A   1      39.662  29.352  29.634  1.00  0.00     0.074 A 
ATOM     52  C   UNL A   1      38.514  29.512  28.765  1.00  0.00     0.031 C 
ATOM     53  C   UNL A   1      39.192  34.351  33.623  1.00  0.00     0.029 A 
ATOM     54  C   UNL A   1      40.204  33.300  33.620  1.00  0.00     0.049 A 
ATOM     55  H   UNL A   1      40.394  31.727  32.267  1.00  0.00     0.167 HD
ATOM     56  C   UNL A   1      40.563  28.345  29.535  1.00  0.00     0.037 A 
ATOM     57  C   UNL A   1      41.203  33.182  34.516  1.00  0.00     0.037 A 
ATOM     58  C   UNL A   1      41.718  28.194  30.383  1.00  0.00     0.049 A 
ATOM     59  C   UNL A   1      42.168  32.038  34.404  1.00  0.00     0.074 A 
ATOM     60  C   UNL A   1      42.727  27.249  30.305  1.00  0.00     0.029 A 
ATOM     61  N   UNL A   1      42.012  29.003  31.468  1.00  0.00    -0.354 N 
ATOM     62  N   UNL A   1      42.210  31.076  33.515  1.00  0.00    -0.248 NA
ATOM     63  C   UNL A   1      43.223  31.957  35.427  1.00  0.00     0.031 C 
ATOM     64  C   UNL A   1      43.612  27.462  31.369  1.00  0.00     0.029 A 
ATOM     65  C   UNL A   1      43.170  28.560  32.088  1.00  0.00     0.049 A 
ATOM     66  H   UNL A   1      41.479  29.779  31.756  1.00  0.00     0.167 HD
ATOM     67  C   UNL A   1      43.297  30.285  33.861  1.00  0.00     0.074 A 
ATOM     68  C   UNL A   1      43.900  30.888  35.032  1.00  0.00     0.031 C 
ATOM     69  C   UNL A   1      43.752  29.158  33.262  1.00  0.00     0.037 A 
BRANCH  56  70
ATOM     70  C   UNL A   1      40.339  27.316  28.466  1.00  0.00     0.057 A 
ATOM     71  C   UNL A   1      40.967  27.402  27.217  1.00  0.00     0.134 A 
ATOM     72  C   UNL A   1      39.526  26.201  28.706  1.00  0.00     0.134 A 
ATOM     73  F   UNL A   1      41.752  28.449  26.924  1.00  0.00    -0.206 F 
ATOM     74  C   UNL A   1      40.778  26.426  26.238  1.00  0.00     0.040 A 
ATOM     75  C   UNL A   1      39.347  25.207  27.742  1.00  0.00     0.040 A 
ATOM     76  F   UNL A   1      38.903  26.053  29.885  1.00  0.00    -0.206 F 
ATOM     77  C   UNL A   1      39.971  25.321  26.502  1.00  0.00     0.006 A 
ENDBRANCH  56  70
BRANCH  57  78
ATOM     78  C   UNL A   1      41.338  34.180  35.604  1.00  0.00     0.057 A 
ATOM     79  C   UNL A   1      42.126  35.323  35.438  1.00  0.00     0.134 A 
ATOM     80  C   UNL A   1      40.683  34.015  36.831  1.00  0.00     0.134 A 
ATOM     81  F   UNL A   1      42.795  35.521  34.293  1.00  0.00    -0.206 F 
ATOM     82  C   UNL A   1      42.267  36.266  36.458  1.00  0.00     0.040 A 
ATOM     83  C   UNL A   1      40.798  34.960  37.851  1.00  0.00     0.040 A 
ATOM     84  F   UNL A   1      39.913  32.940  37.048  1.00  0.00    -0.206 F 
ATOM     85  C   UNL A   1      41.596  36.088  37.666  1.00  0.00     0.006 A 
ENDBRANCH  57  78
BRANCH  69  86
ATOM     86  C   UNL A   1      44.959  28.504  33.864  1.00  0.00     0.057 A 
ATOM     87  C   UNL A   1      46.256  28.884  33.498  1.00  0.00     0.134 A 
ATOM     88  C   UNL A   1      44.826  27.511  34.842  1.00  0.00     0.134 A 
ATOM     89  F   UNL A   1      46.449  29.819  32.554  1.00  0.00    -0.206 F 
ATOM     90  C   UNL A   1      47.379  28.288  34.072  1.00  0.00     0.040 A 
ATOM     91  C   UNL A   1      45.941  26.922  35.439  1.00  0.00     0.040 A 
ATOM     92  F   UNL A   1      43.611  27.106  35.241  1.00  0.00    -0.206 F 
ATOM     93  C   UNL A   1      47.223  27.308  35.051  1.00  0.00     0.006 A 
ENDBRANCH  69  86
ENDBRANCH  43  44
ENDBRANCH  35  38
ENDBRANCH  33  34
ENDBRANCH  32  33
ENDBRANCH  31  32
ENDBRANCH   1  31
TORSDOF 18
ENDMDL
MODEL 2
REMARK VINA RESULT:     -11.1      0.937      5.892
REMARK SMILES COCC[C@@]1(C(=O)NCCCCCCNC(=O)c2ccc(-c3c4nc(c(-c5c(F)cccc5F)c5ccc([nH]5)c(-c5c(F)cccc5F)c5nc(c(-c6c(F)cccc6F)c6ccc3[nH]6)C=C5)C=C4)cc2)CCC[N@@H+](Cc2cccc3c2OC(C)(C)C3)C1
REMARK SMILES IDX 11 1 10 2 9 3 8 4 6 5 7 6 5 8 72 9 88 10 73 11 75 12 74 13
REMARK SMILES IDX 4 15 3 16 2 17 1 18 76 19 77 20 78 21 82 22 79 23 81 24
REMARK SMILES IDX 83 25 80 26 87 27 84 28 85 29 86 30 12 31 13 32 14 33 15 34
REMARK SMILES IDX 16 35 17 37 18 38 19 39 71 40 20 41 70 42 21 43 22 44 23 45
REMARK SMILES IDX 64 46 24 47 69 48 63 49 65 50 25 51 68 52 62 53 61 54 26 56
REMARK SMILES IDX 52 57 35 58 51 59 36 60 39 61 50 62 66 63 37 64 38 65 49 67
REMARK SMILES IDX 67 68 40 69 27 70 28 71 33 72 29 73 30 74 32 75 34 76 31 77
REMARK SMILES IDX 53 78 54 79 59 80 55 81 56 82 58 83 60 84 57 85 41 86 42 87
REMARK SMILES IDX 47 88 43 89 44 90 46 91 48 92 45 93
REMARK H PARENT 8 7 75 14 15 36 65 55 39 66
REMARK Flexibility Score: inf
ROOT
ATOM      1  C   UNL A   1      34.448  29.577  27.630  1.00  0.00     0.002 C 
ENDROOT
BRANCH   1   2
ATOM      2  C   UNL A   1      34.415  28.832  26.288  1.00  0.00     0.021 C 
BRANCH   2   3
ATOM      3  C   UNL A   1      33.052  28.747  25.598  1.00  0.00     0.116 C 
BRANCH   3   4
ATOM      4  N   UNL A   1      32.629  27.363  25.372  1.00  0.00    -0.355 N 
ATOM      5  C   UNL A   1      32.953  26.718  24.190  1.00  0.00     0.232 C 
ATOM      6  O   UNL A   1      34.059  26.195  24.076  1.00  0.00    -0.274 OA
ATOM      7  H   UNL A   1      32.113  26.890  26.064  1.00  0.00     0.163 HD
BRANCH   5   8
ATOM      8  C   UNL A   1      31.801  26.542  23.166  1.00  0.00     0.100 C 
ATOM      9  C   UNL A   1      30.434  26.367  23.879  1.00  0.00     0.029 C 
ATOM     10  C   UNL A   1      32.055  25.260  22.321  1.00  0.00     0.279 C 
ATOM     11  C   UNL A   1      30.267  25.021  24.577  1.00  0.00     0.063 C 
ATOM     12  N   UNL A   1      31.972  24.032  23.143  1.00  0.00    -0.330 N 
ATOM     13  C   UNL A   1      30.616  23.858  23.660  1.00  0.00     0.262 C 
ATOM     14  H   UNL A   1      32.606  24.178  23.928  1.00  0.00     0.348 HD
BRANCH   8  15
ATOM     15  C   UNL A   1      31.809  27.817  22.233  1.00  0.00     0.051 C 
BRANCH  15  16
ATOM     16  C   UNL A   1      30.855  28.968  22.602  1.00  0.00     0.161 C 
BRANCH  16  17
ATOM     17  O   UNL A   1      29.804  29.065  21.651  1.00  0.00    -0.385 OA
ATOM     18  C   UNL A   1      28.970  30.205  21.828  1.00  0.00     0.194 C 
ENDBRANCH  16  17
ENDBRANCH  15  16
ENDBRANCH   8  15
BRANCH  12  19
ATOM     19  C   UNL A   1      32.515  22.810  22.515  1.00  0.00     0.303 C 
BRANCH  19  20
ATOM     20  C   UNL A   1      32.788  21.670  23.451  1.00  0.00     0.049 A 
ATOM     21  C   UNL A   1      32.246  20.398  23.234  1.00  0.00     0.013 A 
ATOM     22  C   UNL A   1      33.749  21.786  24.437  1.00  0.00     0.132 A 
ATOM     23  C   UNL A   1      32.795  19.277  23.872  1.00  0.00     0.001 A 
ATOM     24  C   UNL A   1      34.406  20.676  24.931  1.00  0.00    -0.001 A 
ATOM     25  O   UNL A   1      34.195  22.966  24.979  1.00  0.00    -0.487 OA
ATOM     26  C   UNL A   1      33.937  19.405  24.670  1.00  0.00     0.008 A 
ATOM     27  C   UNL A   1      35.637  21.155  25.612  1.00  0.00     0.087 C 
ATOM     28  C   UNL A   1      35.125  22.548  26.024  1.00  0.00     0.108 C 
ATOM     29  C   UNL A   1      34.423  22.450  27.394  1.00  0.00     0.057 C 
ATOM     30  C   UNL A   1      36.216  23.617  26.084  1.00  0.00     0.057 C 
ENDBRANCH  19  20
ENDBRANCH  12  19
ENDBRANCH   5   8
ENDBRANCH   3   4
ENDBRANCH   2   3
ENDBRANCH   1   2
BRANCH   1  31
ATOM     31  C   UNL A   1      34.344  31.106  27.632  1.00  0.00     0.002 C 
BRANCH  31  32
ATOM     32  C   UNL A   1      32.955  31.743  27.750  1.00  0.00     0.021 C 
BRANCH  32  33
ATOM     33  C   UNL A   1      32.730  33.057  26.999  1.00  0.00     0.116 C 
BRANCH  33  34
ATOM     34  N   UNL A   1      32.521  34.183  27.899  1.00  0.00    -0.352 N 
ATOM     35  C   UNL A   1      33.201  34.589  29.016  1.00  0.00     0.251 C 
ATOM     36  H   UNL A   1      31.754  34.753  27.662  1.00  0.00     0.163 HD
ATOM     37  O   UNL A   1      32.705  35.465  29.735  1.00  0.00    -0.269 OA
BRANCH  35  38
ATOM     38  C   UNL A   1      34.508  34.010  29.401  1.00  0.00     0.039 A 
ATOM     39  C   UNL A   1      34.588  33.264  30.584  1.00  0.00     0.014 A 
ATOM     40  C   UNL A   1      35.672  34.263  28.669  1.00  0.00     0.014 A 
ATOM     41  C   UNL A   1      35.808  32.722  30.998  1.00  0.00     0.010 A 
ATOM     42  C   UNL A   1      36.885  33.685  29.059  1.00  0.00     0.010 A 
ATOM     43  C   UNL A   1      36.964  32.901  30.221  1.00  0.00    -0.014 A 
BRANCH  43  44
ATOM     44  C   UNL A   1      38.245  32.242  30.590  1.00  0.00     0.031 A 
ATOM     45  C   UNL A   1      39.215  32.904  31.530  1.00  0.00     0.074 A 
ATOM     46  C   UNL A   1      38.567  31.064  30.022  1.00  0.00     0.049 A 
ATOM     47  N   UNL A   1      40.411  32.514  31.894  1.00  0.00    -0.248 NA
ATOM     48  C   UNL A   1      38.792  34.180  32.127  1.00  0.00     0.031 C 
ATOM     49  C   UNL A   1      37.731  30.327  29.074  1.00  0.00     0.029 A 
ATOM     50  N   UNL A   1      39.693  30.287  30.147  1.00  0.00    -0.354 N 
ATOM     51  C   UNL A   1      40.889  33.496  32.751  1.00  0.00     0.074 A 
ATOM     52  C   UNL A   1      39.866  34.519  32.827  1.00  0.00     0.031 C 
ATOM     53  C   UNL A   1      38.368  29.203  28.707  1.00  0.00     0.029 A 
ATOM     54  C   UNL A   1      39.671  29.158  29.364  1.00  0.00     0.049 A 
ATOM     55  H   UNL A   1      40.444  30.517  30.740  1.00  0.00     0.167 HD
ATOM     56  C   UNL A   1      42.065  33.536  33.422  1.00  0.00     0.037 A 
ATOM     57  C   UNL A   1      40.600  28.201  29.179  1.00  0.00     0.037 A 
ATOM     58  C   UNL A   1      43.075  32.511  33.365  1.00  0.00     0.049 A 
ATOM     59  C   UNL A   1      41.909  28.287  29.909  1.00  0.00     0.074 A 
ATOM     60  C   UNL A   1      44.263  32.431  34.072  1.00  0.00     0.029 A 
ATOM     61  N   UNL A   1      43.021  31.393  32.549  1.00  0.00    -0.354 N 
ATOM     62  N   UNL A   1      42.322  29.192  30.762  1.00  0.00    -0.248 NA
ATOM     63  C   UNL A   1      42.887  27.220  29.645  1.00  0.00     0.031 C 
ATOM     64  C   UNL A   1      44.948  31.284  33.653  1.00  0.00     0.029 A 
ATOM     65  C   UNL A   1      44.169  30.633  32.710  1.00  0.00     0.049 A 
ATOM     66  H   UNL A   1      42.277  31.170  31.943  1.00  0.00     0.167 HD
ATOM     67  C   UNL A   1      43.597  28.802  31.144  1.00  0.00     0.074 A 
ATOM     68  C   UNL A   1      43.886  27.566  30.446  1.00  0.00     0.031 C 
ATOM     69  C   UNL A   1      44.453  29.414  31.998  1.00  0.00     0.037 A 
BRANCH  56  70
ATOM     70  C   UNL A   1      42.330  34.736  34.284  1.00  0.00     0.057 A 
ATOM     71  C   UNL A   1      42.870  35.916  33.758  1.00  0.00     0.134 A 
ATOM     72  C   UNL A   1      41.994  34.727  35.644  1.00  0.00     0.134 A 
ATOM     73  F   UNL A   1      43.217  35.986  32.465  1.00  0.00    -0.206 F 
ATOM     74  C   UNL A   1      43.084  37.039  34.559  1.00  0.00     0.040 A 
ATOM     75  C   UNL A   1      42.185  35.851  36.450  1.00  0.00     0.040 A 
ATOM     76  F   UNL A   1      41.465  33.631  36.208  1.00  0.00    -0.206 F 
ATOM     77  C   UNL A   1      42.736  37.010  35.908  1.00  0.00     0.006 A 
ENDBRANCH  56  70
BRANCH  57  78
ATOM     78  C   UNL A   1      40.324  27.075  28.255  1.00  0.00     0.057 A 
ATOM     79  C   UNL A   1      40.846  27.064  26.958  1.00  0.00     0.134 A 
ATOM     80  C   UNL A   1      39.534  25.987  28.645  1.00  0.00     0.134 A 
ATOM     81  F   UNL A   1      41.590  28.091  26.521  1.00  0.00    -0.206 F 
ATOM     82  C   UNL A   1      40.586  26.014  26.075  1.00  0.00     0.040 A 
ATOM     83  C   UNL A   1      39.284  24.921  27.781  1.00  0.00     0.040 A 
ATOM     84  F   UNL A   1      39.006  25.941  29.877  1.00  0.00    -0.206 F 
ATOM     85  C   UNL A   1      39.808  24.935  26.490  1.00  0.00     0.006 A 
ENDBRANCH  57  78
BRANCH  69  86
ATOM     86  C   UNL A   1      45.782  28.758  32.221  1.00  0.00     0.057 A 
ATOM     87  C   UNL A   1      46.899  29.087  31.444  1.00  0.00     0.134 A 
ATOM     88  C   UNL A   1      45.957  27.815  33.242  1.00  0.00     0.134 A 
ATOM     89  F   UNL A   1      46.792  29.972  30.441  1.00  0.00    -0.206 F 
ATOM     90  C   UNL A   1      48.141  28.490  31.664  1.00  0.00     0.040 A 
ATOM     91  C   UNL A   1      47.198  27.227  33.485  1.00  0.00     0.040 A 
ATOM     92  F   UNL A   1      44.927  27.460  34.025  1.00  0.00    -0.206 F 
ATOM     93  C   UNL A   1      48.294  27.561  32.692  1.00  0.00     0.006 A 
ENDBRANCH  69  86
ENDBRANCH  43  44
ENDBRANCH  35  38
ENDBRANCH  33  34
ENDBRANCH  32  33
ENDBRANCH  31  32
ENDBRANCH   1  31
TORSDOF 18
ENDMDL
MODEL 3
REMARK VINA RESULT:     -11.0      4.722      9.899
REMARK SMILES COCC[C@@]1(C(=O)NCCCCCCNC(=O)c2ccc(-c3c4nc(c(-c5c(F)cccc5F)c5ccc([nH]5)c(-c5c(F)cccc5F)c5nc(c(-c6c(F)cccc6F)c6ccc3[nH]6)C=C5)C=C4)cc2)CCC[N@@H+](Cc2cccc3c2OC(C)(C)C3)C1
REMARK SMILES IDX 11 1 10 2 9 3 8 4 6 5 7 6 5 8 72 9 88 10 73 11 75 12 74 13
REMARK SMILES IDX 4 15 3 16 2 17 1 18 76 19 77 20 78 21 82 22 79 23 81 24
REMARK SMILES IDX 83 25 80 26 87 27 84 28 85 29 86 30 12 31 13 32 14 33 15 34
REMARK SMILES IDX 16 35 17 37 18 38 19 39 71 40 20 41 70 42 21 43 22 44 23 45
REMARK SMILES IDX 64 46 24 47 69 48 63 49 65 50 25 51 68 52 62 53 61 54 26 56
REMARK SMILES IDX 52 57 35 58 51 59 36 60 39 61 50 62 66 63 37 64 38 65 49 67
REMARK SMILES IDX 67 68 40 69 27 70 28 71 33 72 29 73 30 74 32 75 34 76 31 77
REMARK SMILES IDX 53 78 54 79 59 80 55 81 56 82 58 83 60 84 57 85 41 86 42 87
REMARK SMILES IDX 47 88 43 89 44 90 46 91 48 92 45 93
REMARK H PARENT 8 7 75 14 15 36 65 55 39 66
REMARK Flexibility Score: inf
ROOT
ATOM      1  C   UNL A   1      38.506  23.389  26.584  1.00  0.00     0.002 C 
ENDROOT
BRANCH   1   2
ATOM      2  C   UNL A   1      37.344  23.886  25.713  1.00  0.00     0.021 C 
BRANCH   2   3
ATOM      3  C   UNL A   1      36.065  23.046  25.751  1.00  0.00     0.116 C 
BRANCH   3   4
ATOM      4  N   UNL A   1      34.974  23.660  24.991  1.00  0.00    -0.355 N 
ATOM      5  C   UNL A   1      33.733  23.846  25.578  1.00  0.00     0.232 C 
ATOM      6  O   UNL A   1      33.544  24.837  26.280  1.00  0.00    -0.274 OA
ATOM      7  H   UNL A   1      35.123  23.943  24.060  1.00  0.00     0.163 HD
BRANCH   5   8
ATOM      8  C   UNL A   1      32.611  22.870  25.135  1.00  0.00     0.100 C 
ATOM      9  C   UNL A   1      32.756  22.486  23.638  1.00  0.00     0.029 C 
ATOM     10  C   UNL A   1      31.228  23.564  25.307  1.00  0.00     0.279 C 
ATOM     11  C   UNL A   1      32.411  23.615  22.672  1.00  0.00     0.063 C 
ATOM     12  N   UNL A   1      31.067  24.711  24.386  1.00  0.00    -0.330 N 
ATOM     13  C   UNL A   1      31.068  24.251  22.998  1.00  0.00     0.262 C 
ATOM     14  H   UNL A   1      31.883  25.305  24.534  1.00  0.00     0.348 HD
BRANCH   8  15
ATOM     15  C   UNL A   1      32.701  21.601  26.070  1.00  0.00     0.051 C 
BRANCH  15  16
ATOM     16  C   UNL A   1      33.221  20.296  25.441  1.00  0.00     0.161 C 
BRANCH  16  17
ATOM     17  O   UNL A   1      32.150  19.384  25.236  1.00  0.00    -0.385 OA
ATOM     18  C   UNL A   1      32.531  18.190  24.561  1.00  0.00     0.194 C 
ENDBRANCH  16  17
ENDBRANCH  15  16
ENDBRANCH   8  15
BRANCH  12  19
ATOM     19  C   UNL A   1      29.947  25.621  24.695  1.00  0.00     0.303 C 
BRANCH  19  20
ATOM     20  C   UNL A   1      30.024  26.979  24.062  1.00  0.00     0.049 A 
ATOM     21  C   UNL A   1      28.951  27.512  23.339  1.00  0.00     0.013 A 
ATOM     22  C   UNL A   1      31.074  27.829  24.351  1.00  0.00     0.132 A 
ATOM     23  C   UNL A   1      28.883  28.890  23.085  1.00  0.00     0.001 A 
ATOM     24  C   UNL A   1      30.932  29.200  24.261  1.00  0.00    -0.001 A 
ATOM     25  O   UNL A   1      32.312  27.442  24.801  1.00  0.00    -0.487 OA
ATOM     26  C   UNL A   1      29.844  29.756  23.618  1.00  0.00     0.008 A 
ATOM     27  C   UNL A   1      32.040  29.814  25.038  1.00  0.00     0.087 C 
ATOM     28  C   UNL A   1      33.073  28.685  24.863  1.00  0.00     0.108 C 
ATOM     29  C   UNL A   1      33.872  28.920  23.565  1.00  0.00     0.057 C 
ATOM     30  C   UNL A   1      34.039  28.542  26.039  1.00  0.00     0.057 C 
ENDBRANCH  19  20
ENDBRANCH  12  19
ENDBRANCH   5   8
ENDBRANCH   3   4
ENDBRANCH   2   3
ENDBRANCH   1   2
BRANCH   1  31
ATOM     31  C   UNL A   1      39.446  22.316  26.024  1.00  0.00     0.002 C 
BRANCH  31  32
ATOM     32  C   UNL A   1      39.206  20.856  26.422  1.00  0.00     0.021 C 
BRANCH  32  33
ATOM     33  C   UNL A   1      39.460  19.795  25.348  1.00  0.00     0.116 C 
BRANCH  33  34
ATOM     34  N   UNL A   1      40.516  18.865  25.725  1.00  0.00    -0.352 N 
ATOM     35  C   UNL A   1      41.809  19.075  26.123  1.00  0.00     0.251 C 
ATOM     36  H   UNL A   1      40.252  17.917  25.688  1.00  0.00     0.163 HD
ATOM     37  O   UNL A   1      42.580  18.110  26.193  1.00  0.00    -0.269 OA
BRANCH  35  38
ATOM     38  C   UNL A   1      42.323  20.420  26.466  1.00  0.00     0.039 A 
ATOM     39  C   UNL A   1      42.865  21.210  25.443  1.00  0.00     0.014 A 
ATOM     40  C   UNL A   1      42.366  20.880  27.785  1.00  0.00     0.014 A 
ATOM     41  C   UNL A   1      43.385  22.476  25.728  1.00  0.00     0.010 A 
ATOM     42  C   UNL A   1      42.847  22.164  28.064  1.00  0.00     0.010 A 
ATOM     43  C   UNL A   1      43.353  22.979  27.039  1.00  0.00    -0.014 A 
BRANCH  43  44
ATOM     44  C   UNL A   1      43.803  24.363  27.340  1.00  0.00     0.031 A 
ATOM     45  C   UNL A   1      42.819  25.430  27.735  1.00  0.00     0.074 A 
ATOM     46  C   UNL A   1      45.105  24.680  27.194  1.00  0.00     0.049 A 
ATOM     47  N   UNL A   1      43.025  26.705  27.952  1.00  0.00    -0.248 NA
ATOM     48  C   UNL A   1      41.418  25.012  27.894  1.00  0.00     0.031 C 
ATOM     49  C   UNL A   1      46.159  23.749  26.791  1.00  0.00     0.029 A 
ATOM     50  N   UNL A   1      45.760  25.876  27.352  1.00  0.00    -0.354 N 
ATOM     51  C   UNL A   1      41.783  27.245  28.259  1.00  0.00     0.074 A 
ATOM     52  C   UNL A   1      40.823  26.164  28.170  1.00  0.00     0.031 C 
ATOM     53  C   UNL A   1      47.329  24.406  26.739  1.00  0.00     0.029 A 
ATOM     54  C   UNL A   1      47.102  25.810  27.068  1.00  0.00     0.049 A 
ATOM     55  H   UNL A   1      45.310  26.703  27.642  1.00  0.00     0.167 HD
ATOM     56  C   UNL A   1      41.473  28.520  28.597  1.00  0.00     0.037 A 
ATOM     57  C   UNL A   1      48.044  26.772  27.055  1.00  0.00     0.037 A 
ATOM     58  C   UNL A   1      42.428  29.592  28.708  1.00  0.00     0.049 A 
ATOM     59  C   UNL A   1      47.668  28.183  27.401  1.00  0.00     0.074 A 
ATOM     60  C   UNL A   1      42.216  30.897  29.121  1.00  0.00     0.029 A 
ATOM     61  N   UNL A   1      43.774  29.487  28.396  1.00  0.00    -0.354 N 
ATOM     62  N   UNL A   1      46.500  28.666  27.747  1.00  0.00    -0.248 NA
ATOM     63  C   UNL A   1      48.742  29.188  27.348  1.00  0.00     0.031 C 
ATOM     64  C   UNL A   1      43.427  31.593  29.020  1.00  0.00     0.029 A 
ATOM     65  C   UNL A   1      44.399  30.711  28.576  1.00  0.00     0.049 A 
ATOM     66  H   UNL A   1      44.222  28.664  28.092  1.00  0.00     0.167 HD
ATOM     67  C   UNL A   1      46.697  30.023  27.963  1.00  0.00     0.074 A 
ATOM     68  C   UNL A   1      48.102  30.286  27.727  1.00  0.00     0.031 C 
ATOM     69  C   UNL A   1      45.793  30.965  28.324  1.00  0.00     0.037 A 
BRANCH  56  70
ATOM     70  C   UNL A   1      40.032  28.832  28.875  1.00  0.00     0.057 A 
ATOM     71  C   UNL A   1      39.156  29.231  27.858  1.00  0.00     0.134 A 
ATOM     72  C   UNL A   1      39.503  28.683  30.163  1.00  0.00     0.134 A 
ATOM     73  F   UNL A   1      39.602  29.398  26.604  1.00  0.00    -0.206 F 
ATOM     74  C   UNL A   1      37.809  29.490  28.117  1.00  0.00     0.040 A 
ATOM     75  C   UNL A   1      38.154  28.918  30.430  1.00  0.00     0.040 A 
ATOM     76  F   UNL A   1      40.287  28.295  31.181  1.00  0.00    -0.206 F 
ATOM     77  C   UNL A   1      37.303  29.328  29.405  1.00  0.00     0.006 A 
ENDBRANCH  56  70
BRANCH  57  78
ATOM     78  C   UNL A   1      49.442  26.429  26.697  1.00  0.00     0.057 A 
ATOM     79  C   UNL A   1      50.334  25.947  27.659  1.00  0.00     0.134 A 
ATOM     80  C   UNL A   1      49.916  26.575  25.387  1.00  0.00     0.134 A 
ATOM     81  F   UNL A   1      49.941  25.809  28.934  1.00  0.00    -0.206 F 
ATOM     82  C   UNL A   1      51.654  25.628  27.337  1.00  0.00     0.040 A 
ATOM     83  C   UNL A   1      51.227  26.240  25.046  1.00  0.00     0.040 A 
ATOM     84  F   UNL A   1      49.107  27.032  24.421  1.00  0.00    -0.206 F 
ATOM     85  C   UNL A   1      52.101  25.769  26.024  1.00  0.00     0.006 A 
ENDBRANCH  57  78
BRANCH  69  86
ATOM     86  C   UNL A   1      46.296  32.369  28.482  1.00  0.00     0.057 A 
ATOM     87  C   UNL A   1      46.256  33.283  27.423  1.00  0.00     0.134 A 
ATOM     88  C   UNL A   1      46.793  32.821  29.711  1.00  0.00     0.134 A 
ATOM     89  F   UNL A   1      45.806  32.906  26.216  1.00  0.00    -0.206 F 
ATOM     90  C   UNL A   1      46.707  34.595  27.575  1.00  0.00     0.040 A 
ATOM     91  C   UNL A   1      47.227  34.135  29.882  1.00  0.00     0.040 A 
ATOM     92  F   UNL A   1      46.853  31.995  30.766  1.00  0.00    -0.206 F 
ATOM     93  C   UNL A   1      47.188  35.026  28.811  1.00  0.00     0.006 A 
ENDBRANCH  69  86
ENDBRANCH  43  44
ENDBRANCH  35  38
ENDBRANCH  33  34
ENDBRANCH  32  33
ENDBRANCH  31  32
ENDBRANCH   1  31
TORSDOF 18
ENDMDL
