MODEL 1
REMARK VINA RESULT:     -11.7      0.000      0.000
REMARK SMILES CCOc1cccc(C(=O)Nc2ccc(Cl)c(C(=O)NCCCCCCNC(=O)c3ccc(-c4c5nc(c(-c6c(F)cccc6F)c6ccc([nH]6)c(-c6c(F)cccc6F)c6nc(c(-c7c(F)cccc7F)c7ccc4[nH]7)C=C6)C=C5)cc3)c2)c1
REMARK SMILES IDX 22 1 21 2 20 3 18 4 19 5 17 7 12 8 13 9 84 10 14 11 15 12
REMARK SMILES IDX 16 13 11 14 9 15 10 16 8 18 4 19 5 20 85 21 6 22 7 23 3 24
REMARK SMILES IDX 2 25 1 26 23 27 24 28 25 29 26 30 27 31 28 32 29 34 30 35
REMARK SMILES IDX 31 36 83 37 32 38 82 39 33 40 34 41 35 42 76 43 36 44 81 45
REMARK SMILES IDX 75 46 77 47 37 48 80 49 74 50 73 51 38 53 64 54 47 55 63 56
REMARK SMILES IDX 48 57 51 58 62 59 78 60 49 61 50 62 61 64 79 65 52 66 39 67
REMARK SMILES IDX 40 68 45 69 41 70 42 71 44 72 46 73 43 74 65 75 66 76 71 77
REMARK SMILES IDX 67 78 68 79 70 80 72 81 69 82 53 83 54 84 59 85 55 86 56 87
REMARK SMILES IDX 58 88 60 89 57 90
REMARK H PARENT 20 6 11 17 27 33 77 52 51 63
REMARK Flexibility Score: inf
ROOT
ATOM      1  C   UNL A   1      37.457  22.924  25.625  1.00  0.00     0.021 C 
ENDROOT
BRANCH   1   2
ATOM      2  C   UNL A   1      36.282  23.899  25.693  1.00  0.00     0.116 C 
BRANCH   2   3
ATOM      3  N   UNL A   1      35.676  24.019  24.385  1.00  0.00    -0.352 N 
ATOM      4  C   UNL A   1      34.395  23.908  23.907  1.00  0.00     0.252 C 
ATOM      5  O   UNL A   1      34.299  23.793  22.686  1.00  0.00    -0.269 OA
ATOM      6  H   UNL A   1      36.329  24.229  23.679  1.00  0.00     0.163 HD
BRANCH   4   7
ATOM      7  C   UNL A   1      33.166  23.972  24.764  1.00  0.00     0.060 A 
ATOM      8  C   UNL A   1      31.700  25.187  26.299  1.00  0.00     0.042 A 
ATOM      9  C   UNL A   1      30.753  24.172  26.232  1.00  0.00     0.028 A 
ATOM     10  C   UNL A   1      32.939  25.021  25.670  1.00  0.00     0.041 A 
ATOM     11  C   UNL A   1      30.984  23.077  25.407  1.00  0.00     0.023 A 
ATOM     12  C   UNL A   1      32.161  22.989  24.646  1.00  0.00     0.053 A 
ATOM     13  Cl  UNL A   1      32.209  21.656  23.539  1.00  0.00    -0.083 Cl
BRANCH   8  14
ATOM     14  N   UNL A   1      31.346  26.363  26.971  1.00  0.00    -0.322 N 
ATOM     15  C   UNL A   1      31.551  27.695  26.656  1.00  0.00     0.255 C 
ATOM     16  O   UNL A   1      31.382  28.529  27.547  1.00  0.00    -0.269 OA
ATOM     17  H   UNL A   1      30.864  26.217  27.817  1.00  0.00     0.170 HD
BRANCH  15  18
ATOM     18  C   UNL A   1      31.859  28.187  25.273  1.00  0.00     0.043 A 
ATOM     19  C   UNL A   1      31.241  28.892  23.030  1.00  0.00     0.120 A 
ATOM     20  C   UNL A   1      32.587  28.974  22.676  1.00  0.00     0.046 A 
ATOM     21  C   UNL A   1      30.882  28.564  24.340  1.00  0.00     0.060 A 
ATOM     22  C   UNL A   1      33.574  28.725  23.627  1.00  0.00     0.005 A 
ATOM     23  C   UNL A   1      33.211  28.313  24.912  1.00  0.00     0.014 A 
BRANCH  19  24
ATOM     24  O   UNL A   1      30.349  28.914  21.994  1.00  0.00    -0.494 OA
BRANCH  24  25
ATOM     25  C   UNL A   1      29.520  30.070  21.870  1.00  0.00     0.226 C 
ATOM     26  C   UNL A   1      28.047  29.753  22.063  1.00  0.00     0.049 C 
ENDBRANCH  24  25
ENDBRANCH  19  24
ENDBRANCH  15  18
ENDBRANCH   8  14
ENDBRANCH   4   7
ENDBRANCH   2   3
ENDBRANCH   1   2
BRANCH   1  27
ATOM     27  C   UNL A   1      37.338  21.966  24.436  1.00  0.00     0.002 C 
BRANCH  27  28
ATOM     28  C   UNL A   1      36.943  20.536  24.822  1.00  0.00     0.002 C 
BRANCH  28  29
ATOM     29  C   UNL A   1      38.115  19.560  24.958  1.00  0.00     0.021 C 
BRANCH  29  30
ATOM     30  C   UNL A   1      39.188  20.007  25.945  1.00  0.00     0.116 C 
BRANCH  30  31
ATOM     31  N   UNL A   1      40.366  19.156  25.878  1.00  0.00    -0.352 N 
ATOM     32  C   UNL A   1      41.684  19.494  26.017  1.00  0.00     0.251 C 
ATOM     33  H   UNL A   1      40.190  18.202  25.708  1.00  0.00     0.163 HD
ATOM     34  O   UNL A   1      42.568  18.695  25.704  1.00  0.00    -0.269 OA
BRANCH  32  35
ATOM     35  C   UNL A   1      42.047  20.827  26.535  1.00  0.00     0.039 A 
ATOM     36  C   UNL A   1      42.388  21.836  25.632  1.00  0.00     0.014 A 
ATOM     37  C   UNL A   1      42.056  21.074  27.912  1.00  0.00     0.014 A 
ATOM     38  C   UNL A   1      42.691  23.111  26.109  1.00  0.00     0.010 A 
ATOM     39  C   UNL A   1      42.285  22.364  28.379  1.00  0.00     0.010 A 
ATOM     40  C   UNL A   1      42.613  23.392  27.483  1.00  0.00    -0.014 A 
BRANCH  40  41
ATOM     41  C   UNL A   1      42.876  24.756  28.002  1.00  0.00     0.031 A 
ATOM     42  C   UNL A   1      44.267  25.154  28.408  1.00  0.00     0.074 A 
ATOM     43  C   UNL A   1      41.850  25.615  28.165  1.00  0.00     0.049 A 
ATOM     44  N   UNL A   1      44.686  26.276  28.937  1.00  0.00    -0.248 NA
ATOM     45  C   UNL A   1      45.326  24.149  28.220  1.00  0.00     0.031 C 
ATOM     46  C   UNL A   1      40.450  25.328  27.849  1.00  0.00     0.029 A 
ATOM     47  N   UNL A   1      41.827  26.899  28.644  1.00  0.00    -0.354 N 
ATOM     48  C   UNL A   1      46.046  26.105  29.158  1.00  0.00     0.074 A 
ATOM     49  C   UNL A   1      46.375  24.756  28.755  1.00  0.00     0.031 C 
ATOM     50  C   UNL A   1      39.708  26.415  28.118  1.00  0.00     0.029 A 
ATOM     51  C   UNL A   1      40.572  27.458  28.662  1.00  0.00     0.049 A 
ATOM     52  H   UNL A   1      42.634  27.377  28.946  1.00  0.00     0.167 HD
ATOM     53  C   UNL A   1      46.945  27.001  29.633  1.00  0.00     0.037 A 
ATOM     54  C   UNL A   1      40.164  28.671  29.078  1.00  0.00     0.037 A 
ATOM     55  C   UNL A   1      46.616  28.350  30.010  1.00  0.00     0.049 A 
ATOM     56  C   UNL A   1      41.181  29.642  29.613  1.00  0.00     0.074 A 
ATOM     57  C   UNL A   1      47.465  29.356  30.440  1.00  0.00     0.029 A 
ATOM     58  N   UNL A   1      45.336  28.881  30.005  1.00  0.00    -0.354 N 
ATOM     59  N   UNL A   1      42.476  29.494  29.746  1.00  0.00    -0.248 NA
ATOM     60  C   UNL A   1      40.678  30.951  30.051  1.00  0.00     0.031 C 
ATOM     61  C   UNL A   1      46.691  30.480  30.744  1.00  0.00     0.029 A 
ATOM     62  C   UNL A   1      45.367  30.193  30.451  1.00  0.00     0.049 A 
ATOM     63  H   UNL A   1      44.524  28.399  29.727  1.00  0.00     0.167 HD
ATOM     64  C   UNL A   1      42.948  30.698  30.252  1.00  0.00     0.074 A 
ATOM     65  C   UNL A   1      41.799  31.570  30.389  1.00  0.00     0.031 C 
ATOM     66  C   UNL A   1      44.216  31.052  30.573  1.00  0.00     0.037 A 
BRANCH  53  67
ATOM     67  C   UNL A   1      48.369  26.548  29.773  1.00  0.00     0.057 A 
ATOM     68  C   UNL A   1      49.325  26.787  28.776  1.00  0.00     0.134 A 
ATOM     69  C   UNL A   1      48.802  25.899  30.937  1.00  0.00     0.134 A 
ATOM     70  F   UNL A   1      48.976  27.394  27.632  1.00  0.00    -0.206 F 
ATOM     71  C   UNL A   1      50.650  26.373  28.920  1.00  0.00     0.040 A 
ATOM     72  C   UNL A   1      50.131  25.506  31.104  1.00  0.00     0.040 A 
ATOM     73  F   UNL A   1      47.941  25.644  31.934  1.00  0.00    -0.206 F 
ATOM     74  C   UNL A   1      51.058  25.737  30.091  1.00  0.00     0.006 A 
ENDBRANCH  53  67
BRANCH  54  75
ATOM     75  C   UNL A   1      38.731  29.049  28.985  1.00  0.00     0.057 A 
ATOM     76  C   UNL A   1      38.191  29.536  27.789  1.00  0.00     0.134 A 
ATOM     77  C   UNL A   1      37.873  28.949  30.085  1.00  0.00     0.134 A 
ATOM     78  F   UNL A   1      38.967  29.671  26.703  1.00  0.00    -0.206 F 
ATOM     79  C   UNL A   1      36.856  29.931  27.695  1.00  0.00     0.040 A 
ATOM     80  C   UNL A   1      36.529  29.315  30.000  1.00  0.00     0.040 A 
ATOM     81  F   UNL A   1      38.325  28.482  31.258  1.00  0.00    -0.206 F 
ATOM     82  C   UNL A   1      36.018  29.817  28.804  1.00  0.00     0.006 A 
ENDBRANCH  54  75
BRANCH  66  83
ATOM     83  C   UNL A   1      44.436  32.452  31.064  1.00  0.00     0.057 A 
ATOM     84  C   UNL A   1      44.698  33.513  30.189  1.00  0.00     0.134 A 
ATOM     85  C   UNL A   1      44.347  32.748  32.431  1.00  0.00     0.134 A 
ATOM     86  F   UNL A   1      44.810  33.296  28.870  1.00  0.00    -0.206 F 
ATOM     87  C   UNL A   1      44.887  34.815  30.658  1.00  0.00     0.040 A 
ATOM     88  C   UNL A   1      44.505  34.049  32.909  1.00  0.00     0.040 A 
ATOM     89  F   UNL A   1      44.090  31.779  33.323  1.00  0.00    -0.206 F 
ATOM     90  C   UNL A   1      44.783  35.086  32.021  1.00  0.00     0.006 A 
ENDBRANCH  66  83
ENDBRANCH  40  41
ENDBRANCH  32  35
ENDBRANCH  30  31
ENDBRANCH  29  30
ENDBRANCH  28  29
ENDBRANCH  27  28
ENDBRANCH   1  27
TORSDOF 17
ENDMDL
MODEL 2
REMARK VINA RESULT:     -11.7      2.666      4.649
REMARK SMILES CCOc1cccc(C(=O)Nc2ccc(Cl)c(C(=O)NCCCCCCNC(=O)c3ccc(-c4c5nc(c(-c6c(F)cccc6F)c6ccc([nH]6)c(-c6c(F)cccc6F)c6nc(c(-c7c(F)cccc7F)c7ccc4[nH]7)C=C6)C=C5)cc3)c2)c1
REMARK SMILES IDX 22 1 21 2 20 3 18 4 19 5 17 7 12 8 13 9 84 10 14 11 15 12
REMARK SMILES IDX 16 13 11 14 9 15 10 16 8 18 4 19 5 20 85 21 6 22 7 23 3 24
REMARK SMILES IDX 2 25 1 26 23 27 24 28 25 29 26 30 27 31 28 32 29 34 30 35
REMARK SMILES IDX 31 36 83 37 32 38 82 39 33 40 34 41 35 42 76 43 36 44 81 45
REMARK SMILES IDX 75 46 77 47 37 48 80 49 74 50 73 51 38 53 64 54 47 55 63 56
REMARK SMILES IDX 48 57 51 58 62 59 78 60 49 61 50 62 61 64 79 65 52 66 39 67
REMARK SMILES IDX 40 68 45 69 41 70 42 71 44 72 46 73 43 74 65 75 66 76 71 77
REMARK SMILES IDX 67 78 68 79 70 80 72 81 69 82 53 83 54 84 59 85 55 86 56 87
REMARK SMILES IDX 58 88 60 89 57 90
REMARK H PARENT 20 6 11 17 27 33 77 52 51 63
REMARK Flexibility Score: inf
ROOT
ATOM      1  C   UNL A   1      34.368  23.305  22.308  1.00  0.00     0.021 C 
ENDROOT
BRANCH   1   2
ATOM      2  C   UNL A   1      32.843  23.329  22.211  1.00  0.00     0.116 C 
BRANCH   2   3
ATOM      3  N   UNL A   1      32.416  24.581  21.625  1.00  0.00    -0.352 N 
ATOM      4  C   UNL A   1      31.803  25.709  22.112  1.00  0.00     0.252 C 
ATOM      5  O   UNL A   1      31.335  26.461  21.258  1.00  0.00    -0.269 OA
ATOM      6  H   UNL A   1      32.608  24.638  20.662  1.00  0.00     0.163 HD
BRANCH   4   7
ATOM      7  C   UNL A   1      31.732  26.070  23.565  1.00  0.00     0.060 A 
ATOM      8  C   UNL A   1      30.934  25.625  25.833  1.00  0.00     0.042 A 
ATOM      9  C   UNL A   1      31.747  26.632  26.341  1.00  0.00     0.028 A 
ATOM     10  C   UNL A   1      30.841  25.440  24.450  1.00  0.00     0.041 A 
ATOM     11  C   UNL A   1      32.582  27.333  25.477  1.00  0.00     0.023 A 
ATOM     12  C   UNL A   1      32.609  27.033  24.105  1.00  0.00     0.053 A 
ATOM     13  Cl  UNL A   1      33.830  27.872  23.206  1.00  0.00    -0.083 Cl
BRANCH   8  14
ATOM     14  N   UNL A   1      30.266  24.806  26.752  1.00  0.00    -0.322 N 
ATOM     15  C   UNL A   1      30.373  23.452  27.017  1.00  0.00     0.255 C 
ATOM     16  O   UNL A   1      29.481  22.924  27.684  1.00  0.00    -0.269 OA
ATOM     17  H   UNL A   1      29.604  25.276  27.309  1.00  0.00     0.170 HD
BRANCH  15  18
ATOM     18  C   UNL A   1      31.561  22.618  26.636  1.00  0.00     0.043 A 
ATOM     19  C   UNL A   1      32.719  20.991  25.252  1.00  0.00     0.120 A 
ATOM     20  C   UNL A   1      33.808  21.014  26.121  1.00  0.00     0.046 A 
ATOM     21  C   UNL A   1      31.630  21.838  25.474  1.00  0.00     0.060 A 
ATOM     22  C   UNL A   1      33.810  21.878  27.213  1.00  0.00     0.005 A 
ATOM     23  C   UNL A   1      32.683  22.660  27.481  1.00  0.00     0.014 A 
BRANCH  19  24
ATOM     24  O   UNL A   1      32.692  19.959  24.356  1.00  0.00    -0.494 OA
BRANCH  24  25
ATOM     25  C   UNL A   1      33.420  18.778  24.696  1.00  0.00     0.226 C 
ATOM     26  C   UNL A   1      32.510  17.617  25.057  1.00  0.00     0.049 C 
ENDBRANCH  24  25
ENDBRANCH  19  24
ENDBRANCH  15  18
ENDBRANCH   8  14
ENDBRANCH   4   7
ENDBRANCH   2   3
ENDBRANCH   1   2
BRANCH   1  27
ATOM     27  C   UNL A   1      34.855  23.577  23.735  1.00  0.00     0.002 C 
BRANCH  27  28
ATOM     28  C   UNL A   1      36.166  22.866  24.094  1.00  0.00     0.002 C 
BRANCH  28  29
ATOM     29  C   UNL A   1      37.078  23.644  25.046  1.00  0.00     0.021 C 
BRANCH  29  30
ATOM     30  C   UNL A   1      37.387  22.916  26.349  1.00  0.00     0.116 C 
BRANCH  30  31
ATOM     31  N   UNL A   1      38.622  22.153  26.256  1.00  0.00    -0.352 N 
ATOM     32  C   UNL A   1      39.916  22.589  26.347  1.00  0.00     0.251 C 
ATOM     33  H   UNL A   1      38.512  21.186  26.107  1.00  0.00     0.163 HD
ATOM     34  O   UNL A   1      40.846  21.852  26.018  1.00  0.00    -0.269 OA
BRANCH  32  35
ATOM     35  C   UNL A   1      40.194  23.954  26.833  1.00  0.00     0.039 A 
ATOM     36  C   UNL A   1      40.402  24.158  28.199  1.00  0.00     0.014 A 
ATOM     37  C   UNL A   1      40.242  25.029  25.940  1.00  0.00     0.014 A 
ATOM     38  C   UNL A   1      40.709  25.437  28.663  1.00  0.00     0.010 A 
ATOM     39  C   UNL A   1      40.620  26.288  26.395  1.00  0.00     0.010 A 
ATOM     40  C   UNL A   1      40.849  26.505  27.761  1.00  0.00    -0.014 A 
BRANCH  40  41
ATOM     41  C   UNL A   1      41.230  27.859  28.231  1.00  0.00     0.031 A 
ATOM     42  C   UNL A   1      42.677  28.267  28.262  1.00  0.00     0.074 A 
ATOM     43  C   UNL A   1      40.279  28.698  28.687  1.00  0.00     0.049 A 
ATOM     44  N   UNL A   1      43.212  29.381  28.692  1.00  0.00    -0.248 NA
ATOM     45  C   UNL A   1      43.654  27.284  27.768  1.00  0.00     0.031 C 
ATOM     46  C   UNL A   1      38.847  28.398  28.748  1.00  0.00     0.029 A 
ATOM     47  N   UNL A   1      40.375  29.969  29.191  1.00  0.00    -0.354 N 
ATOM     48  C   UNL A   1      44.584  29.226  28.536  1.00  0.00     0.074 A 
ATOM     49  C   UNL A   1      44.803  27.893  28.021  1.00  0.00     0.031 C 
ATOM     50  C   UNL A   1      38.196  29.466  29.237  1.00  0.00     0.029 A 
ATOM     51  C   UNL A   1      39.166  30.508  29.560  1.00  0.00     0.049 A 
ATOM     52  H   UNL A   1      41.229  30.450  29.281  1.00  0.00     0.167 HD
ATOM     53  C   UNL A   1      45.570  30.122  28.780  1.00  0.00     0.037 A 
ATOM     54  C   UNL A   1      38.875  31.703  30.105  1.00  0.00     0.037 A 
ATOM     55  C   UNL A   1      45.343  31.456  29.270  1.00  0.00     0.049 A 
ATOM     56  C   UNL A   1      39.990  32.675  30.377  1.00  0.00     0.074 A 
ATOM     57  C   UNL A   1      46.268  32.463  29.487  1.00  0.00     0.029 A 
ATOM     58  N   UNL A   1      44.104  31.968  29.624  1.00  0.00    -0.354 N 
ATOM     59  N   UNL A   1      41.275  32.543  30.155  1.00  0.00    -0.248 NA
ATOM     60  C   UNL A   1      39.612  33.965  30.972  1.00  0.00     0.031 C 
ATOM     61  C   UNL A   1      45.595  33.568  30.020  1.00  0.00     0.029 A 
ATOM     62  C   UNL A   1      44.243  33.268  30.083  1.00  0.00     0.049 A 
ATOM     63  H   UNL A   1      43.252  31.480  29.558  1.00  0.00     0.167 HD
ATOM     64  C   UNL A   1      41.855  33.741  30.551  1.00  0.00     0.074 A 
ATOM     65  C   UNL A   1      40.778  34.592  31.015  1.00  0.00     0.031 C 
ATOM     66  C   UNL A   1      43.160  34.106  30.532  1.00  0.00     0.037 A 
BRANCH  53  67
ATOM     67  C   UNL A   1      46.983  29.688  28.522  1.00  0.00     0.057 A 
ATOM     68  C   UNL A   1      47.759  29.064  29.508  1.00  0.00     0.134 A 
ATOM     69  C   UNL A   1      47.563  29.858  27.258  1.00  0.00     0.134 A 
ATOM     70  F   UNL A   1      47.268  28.879  30.743  1.00  0.00    -0.206 F 
ATOM     71  C   UNL A   1      49.069  28.651  29.255  1.00  0.00     0.040 A 
ATOM     72  C   UNL A   1      48.861  29.423  26.985  1.00  0.00     0.040 A 
ATOM     73  F   UNL A   1      46.875  30.442  26.266  1.00  0.00    -0.206 F 
ATOM     74  C   UNL A   1      49.621  28.824  27.988  1.00  0.00     0.006 A 
ENDBRANCH  53  67
BRANCH  54  75
ATOM     75  C   UNL A   1      37.466  32.061  30.409  1.00  0.00     0.057 A 
ATOM     76  C   UNL A   1      36.696  32.791  29.496  1.00  0.00     0.134 A 
ATOM     77  C   UNL A   1      36.861  31.700  31.618  1.00  0.00     0.134 A 
ATOM     78  F   UNL A   1      37.224  33.181  28.326  1.00  0.00    -0.206 F 
ATOM     79  C   UNL A   1      35.383  33.168  29.782  1.00  0.00     0.040 A 
ATOM     80  C   UNL A   1      35.541  32.047  31.907  1.00  0.00     0.040 A 
ATOM     81  F   UNL A   1      37.542  30.994  32.532  1.00  0.00    -0.206 F 
ATOM     82  C   UNL A   1      34.800  32.792  30.991  1.00  0.00     0.006 A 
ENDBRANCH  54  75
BRANCH  66  83
ATOM     83  C   UNL A   1      43.493  35.496  30.988  1.00  0.00     0.057 A 
ATOM     84  C   UNL A   1      43.626  36.560  30.088  1.00  0.00     0.134 A 
ATOM     85  C   UNL A   1      43.645  35.780  32.351  1.00  0.00     0.134 A 
ATOM     86  F   UNL A   1      43.507  36.353  28.767  1.00  0.00    -0.206 F 
ATOM     87  C   UNL A   1      43.922  37.853  30.525  1.00  0.00     0.040 A 
ATOM     88  C   UNL A   1      43.911  37.072  32.803  1.00  0.00     0.040 A 
ATOM     89  F   UNL A   1      43.521  34.808  33.268  1.00  0.00    -0.206 F 
ATOM     90  C   UNL A   1      44.058  38.112  31.888  1.00  0.00     0.006 A 
ENDBRANCH  66  83
ENDBRANCH  40  41
ENDBRANCH  32  35
ENDBRANCH  30  31
ENDBRANCH  29  30
ENDBRANCH  28  29
ENDBRANCH  27  28
ENDBRANCH   1  27
TORSDOF 17
ENDMDL
MODEL 3
REMARK VINA RESULT:     -11.7      4.126      9.285
REMARK SMILES CCOc1cccc(C(=O)Nc2ccc(Cl)c(C(=O)NCCCCCCNC(=O)c3ccc(-c4c5nc(c(-c6c(F)cccc6F)c6ccc([nH]6)c(-c6c(F)cccc6F)c6nc(c(-c7c(F)cccc7F)c7ccc4[nH]7)C=C6)C=C5)cc3)c2)c1
REMARK SMILES IDX 22 1 21 2 20 3 18 4 19 5 17 7 12 8 13 9 84 10 14 11 15 12
REMARK SMILES IDX 16 13 11 14 9 15 10 16 8 18 4 19 5 20 85 21 6 22 7 23 3 24
REMARK SMILES IDX 2 25 1 26 23 27 24 28 25 29 26 30 27 31 28 32 29 34 30 35
REMARK SMILES IDX 31 36 83 37 32 38 82 39 33 40 34 41 35 42 76 43 36 44 81 45
REMARK SMILES IDX 75 46 77 47 37 48 80 49 74 50 73 51 38 53 64 54 47 55 63 56
REMARK SMILES IDX 48 57 51 58 62 59 78 60 49 61 50 62 61 64 79 65 52 66 39 67
REMARK SMILES IDX 40 68 45 69 41 70 42 71 44 72 46 73 43 74 65 75 66 76 71 77
REMARK SMILES IDX 67 78 68 79 70 80 72 81 69 82 53 83 54 84 59 85 55 86 56 87
REMARK SMILES IDX 58 88 60 89 57 90
REMARK H PARENT 20 6 11 17 27 33 77 52 51 63
REMARK Flexibility Score: inf
ROOT
ATOM      1  C   UNL A   1      34.547  29.365  27.486  1.00  0.00     0.021 C 
ENDROOT
BRANCH   1   2
ATOM      2  C   UNL A   1      33.660  28.280  26.878  1.00  0.00     0.116 C 
BRANCH   2   3
ATOM      3  N   UNL A   1      33.930  28.171  25.460  1.00  0.00    -0.352 N 
ATOM      4  C   UNL A   1      33.328  27.515  24.416  1.00  0.00     0.252 C 
ATOM      5  O   UNL A   1      34.008  27.422  23.395  1.00  0.00    -0.269 OA
ATOM      6  H   UNL A   1      34.723  28.683  25.182  1.00  0.00     0.163 HD
BRANCH   4   7
ATOM      7  C   UNL A   1      31.928  26.981  24.450  1.00  0.00     0.060 A 
ATOM      8  C   UNL A   1      30.203  25.591  25.485  1.00  0.00     0.042 A 
ATOM      9  C   UNL A   1      29.238  26.117  24.635  1.00  0.00     0.028 A 
ATOM     10  C   UNL A   1      31.548  25.931  25.303  1.00  0.00     0.041 A 
ATOM     11  C   UNL A   1      29.598  27.100  23.720  1.00  0.00     0.023 A 
ATOM     12  C   UNL A   1      30.923  27.562  23.649  1.00  0.00     0.053 A 
ATOM     13  Cl  UNL A   1      31.162  28.910  22.587  1.00  0.00    -0.083 Cl
BRANCH   8  14
ATOM     14  N   UNL A   1      29.768  24.761  26.527  1.00  0.00    -0.322 N 
ATOM     15  C   UNL A   1      30.135  23.476  26.886  1.00  0.00     0.255 C 
ATOM     16  O   UNL A   1      29.408  22.871  27.677  1.00  0.00    -0.269 OA
ATOM     17  H   UNL A   1      29.081  25.163  27.106  1.00  0.00     0.170 HD
BRANCH  15  18
ATOM     18  C   UNL A   1      31.417  22.823  26.459  1.00  0.00     0.043 A 
ATOM     19  C   UNL A   1      32.748  21.383  25.024  1.00  0.00     0.120 A 
ATOM     20  C   UNL A   1      33.852  21.560  25.856  1.00  0.00     0.046 A 
ATOM     21  C   UNL A   1      31.557  22.064  25.289  1.00  0.00     0.060 A 
ATOM     22  C   UNL A   1      33.767  22.412  26.954  1.00  0.00     0.005 A 
ATOM     23  C   UNL A   1      32.550  23.023  27.266  1.00  0.00     0.014 A 
BRANCH  19  24
ATOM     24  O   UNL A   1      32.839  20.360  24.121  1.00  0.00    -0.494 OA
BRANCH  24  25
ATOM     25  C   UNL A   1      33.436  19.143  24.569  1.00  0.00     0.226 C 
ATOM     26  C   UNL A   1      32.433  18.007  24.674  1.00  0.00     0.049 C 
ENDBRANCH  24  25
ENDBRANCH  19  24
ENDBRANCH  15  18
ENDBRANCH   8  14
ENDBRANCH   4   7
ENDBRANCH   2   3
ENDBRANCH   1   2
BRANCH   1  27
ATOM     27  C   UNL A   1      33.950  30.763  27.300  1.00  0.00     0.002 C 
BRANCH  27  28
ATOM     28  C   UNL A   1      32.420  30.780  27.191  1.00  0.00     0.002 C 
BRANCH  28  29
ATOM     29  C   UNL A   1      31.785  32.170  27.284  1.00  0.00     0.021 C 
BRANCH  29  30
ATOM     30  C   UNL A   1      32.717  33.310  26.890  1.00  0.00     0.116 C 
BRANCH  30  31
ATOM     31  N   UNL A   1      32.533  34.472  27.747  1.00  0.00    -0.352 N 
ATOM     32  C   UNL A   1      33.119  34.761  28.948  1.00  0.00     0.251 C 
ATOM     33  H   UNL A   1      31.896  35.146  27.414  1.00  0.00     0.163 HD
ATOM     34  O   UNL A   1      32.682  35.673  29.651  1.00  0.00    -0.269 OA
BRANCH  32  35
ATOM     35  C   UNL A   1      34.274  33.967  29.408  1.00  0.00     0.039 A 
ATOM     36  C   UNL A   1      35.555  34.322  28.980  1.00  0.00     0.014 A 
ATOM     37  C   UNL A   1      34.089  32.868  30.253  1.00  0.00     0.014 A 
ATOM     38  C   UNL A   1      36.658  33.605  29.443  1.00  0.00     0.010 A 
ATOM     39  C   UNL A   1      35.194  32.201  30.771  1.00  0.00     0.010 A 
ATOM     40  C   UNL A   1      36.488  32.558  30.364  1.00  0.00    -0.014 A 
BRANCH  40  41
ATOM     41  C   UNL A   1      37.654  31.821  30.910  1.00  0.00     0.031 A 
ATOM     42  C   UNL A   1      38.168  32.137  32.287  1.00  0.00     0.074 A 
ATOM     43  C   UNL A   1      38.285  30.912  30.142  1.00  0.00     0.049 A 
ATOM     44  N   UNL A   1      39.207  31.646  32.914  1.00  0.00    -0.248 NA
ATOM     45  C   UNL A   1      37.435  33.159  33.050  1.00  0.00     0.031 C 
ATOM     46  C   UNL A   1      37.906  30.551  28.775  1.00  0.00     0.029 A 
ATOM     47  N   UNL A   1      39.382  30.131  30.400  1.00  0.00    -0.354 N 
ATOM     48  C   UNL A   1      39.259  32.308  34.134  1.00  0.00     0.074 A 
ATOM     49  C   UNL A   1      38.182  33.273  34.139  1.00  0.00     0.031 C 
ATOM     50  C   UNL A   1      38.741  29.602  28.323  1.00  0.00     0.029 A 
ATOM     51  C   UNL A   1      39.736  29.316  29.353  1.00  0.00     0.049 A 
ATOM     52  H   UNL A   1      39.870  30.152  31.255  1.00  0.00     0.167 HD
ATOM     53  C   UNL A   1      40.116  32.114  35.165  1.00  0.00     0.037 A 
ATOM     54  C   UNL A   1      40.754  28.443  29.233  1.00  0.00     0.037 A 
ATOM     55  C   UNL A   1      41.172  31.137  35.163  1.00  0.00     0.049 A 
ATOM     56  C   UNL A   1      41.698  28.256  30.389  1.00  0.00     0.074 A 
ATOM     57  C   UNL A   1      42.051  30.816  36.183  1.00  0.00     0.029 A 
ATOM     58  N   UNL A   1      41.493  30.323  34.088  1.00  0.00    -0.354 N 
ATOM     59  N   UNL A   1      41.691  28.835  31.565  1.00  0.00    -0.248 NA
ATOM     60  C   UNL A   1      42.789  27.289  30.202  1.00  0.00     0.031 C 
ATOM     61  C   UNL A   1      42.938  29.845  35.707  1.00  0.00     0.029 A 
ATOM     62  C   UNL A   1      42.576  29.520  34.409  1.00  0.00     0.049 A 
ATOM     63  H   UNL A   1      41.023  30.318  33.223  1.00  0.00     0.167 HD
ATOM     64  C   UNL A   1      42.753  28.282  32.268  1.00  0.00     0.074 A 
ATOM     65  C   UNL A   1      43.373  27.311  31.390  1.00  0.00     0.031 C 
ATOM     66  C   UNL A   1      43.176  28.551  33.528  1.00  0.00     0.037 A 
BRANCH  53  67
ATOM     67  C   UNL A   1      39.947  32.979  36.380  1.00  0.00     0.057 A 
ATOM     68  C   UNL A   1      40.665  34.172  36.547  1.00  0.00     0.134 A 
ATOM     69  C   UNL A   1      39.024  32.638  37.378  1.00  0.00     0.134 A 
ATOM     70  F   UNL A   1      41.571  34.553  35.635  1.00  0.00    -0.206 F 
ATOM     71  C   UNL A   1      40.492  34.977  37.675  1.00  0.00     0.040 A 
ATOM     72  C   UNL A   1      38.822  33.450  38.495  1.00  0.00     0.040 A 
ATOM     73  F   UNL A   1      38.299  31.514  37.278  1.00  0.00    -0.206 F 
ATOM     74  C   UNL A   1      39.562  34.620  38.649  1.00  0.00     0.006 A 
ENDBRANCH  53  67
BRANCH  54  75
ATOM     75  C   UNL A   1      40.922  27.659  27.983  1.00  0.00     0.057 A 
ATOM     76  C   UNL A   1      40.335  26.397  27.839  1.00  0.00     0.134 A 
ATOM     77  C   UNL A   1      41.682  28.141  26.912  1.00  0.00     0.134 A 
ATOM     78  F   UNL A   1      39.608  25.873  28.838  1.00  0.00    -0.206 F 
ATOM     79  C   UNL A   1      40.514  25.632  26.686  1.00  0.00     0.040 A 
ATOM     80  C   UNL A   1      41.849  27.400  25.741  1.00  0.00     0.040 A 
ATOM     81  F   UNL A   1      42.265  29.347  26.982  1.00  0.00    -0.206 F 
ATOM     82  C   UNL A   1      41.272  26.136  25.630  1.00  0.00     0.006 A 
ENDBRANCH  54  75
BRANCH  66  83
ATOM     83  C   UNL A   1      44.340  27.759  34.047  1.00  0.00     0.057 A 
ATOM     84  C   UNL A   1      44.175  26.499  34.636  1.00  0.00     0.134 A 
ATOM     85  C   UNL A   1      45.646  28.248  33.920  1.00  0.00     0.134 A 
ATOM     86  F   UNL A   1      42.949  25.979  34.800  1.00  0.00    -0.206 F 
ATOM     87  C   UNL A   1      45.267  25.765  35.102  1.00  0.00     0.040 A 
ATOM     88  C   UNL A   1      46.748  27.511  34.355  1.00  0.00     0.040 A 
ATOM     89  F   UNL A   1      45.874  29.444  33.356  1.00  0.00    -0.206 F 
ATOM     90  C   UNL A   1      46.559  26.268  34.955  1.00  0.00     0.006 A 
ENDBRANCH  66  83
ENDBRANCH  40  41
ENDBRANCH  32  35
ENDBRANCH  30  31
ENDBRANCH  29  30
ENDBRANCH  28  29
ENDBRANCH  27  28
ENDBRANCH   1  27
TORSDOF 17
ENDMDL
