MODEL 1
REMARK VINA RESULT:     -11.3      0.000      0.000
REMARK SMILES CC[NH+]1CC[NH+]([C@@H]2CC(=O)N(c3ccc(C(=O)NCCCCCCNC(=O)c4ccc(-c5c6nc(c(-c7c(F)cccc7F)c7ccc([nH]7)c(-c7c(F)cccc7F)c7nc(c(-c8c(F)cccc8F)c8ccc5[nH]8)C=C7)C=C6)cc4)cc3)C2=O)CC1
REMARK SMILES IDX 21 1 20 2 19 3 18 4 16 5 17 6 15 8 12 9 13 10 83 11 14 12
REMARK SMILES IDX 82 13 11 14 7 15 8 16 84 17 9 18 85 19 10 20 6 21 3 22 4 23
REMARK SMILES IDX 87 24 5 26 86 27 2 29 1 30 22 31 23 32 24 33 25 34 26 35
REMARK SMILES IDX 27 37 28 38 29 39 81 40 30 41 80 42 31 43 32 44 33 45 74 46
REMARK SMILES IDX 34 47 79 48 73 49 75 50 35 51 78 52 72 53 71 54 36 56 62 57
REMARK SMILES IDX 45 58 61 59 46 60 49 61 60 62 76 63 47 64 48 65 59 67 77 68
REMARK SMILES IDX 50 69 37 70 38 71 43 72 39 73 40 74 42 75 44 76 41 77 63 78
REMARK SMILES IDX 64 79 69 80 65 81 66 82 68 83 70 84 67 85 51 86 52 87 57 88
REMARK SMILES IDX 53 89 54 90 56 91 58 92 55 93
REMARK H PARENT 18 7 3 25 6 28 25 36 75 55 49 66
REMARK Flexibility Score: inf
ROOT
ATOM      1  C   UNL A   1      41.258  22.171  26.718  1.00  0.00     0.002 C 
ENDROOT
BRANCH   1   2
ATOM      2  C   UNL A   1      40.173  23.061  27.332  1.00  0.00     0.021 C 
BRANCH   2   3
ATOM      3  C   UNL A   1      38.922  23.150  26.452  1.00  0.00     0.116 C 
BRANCH   3   4
ATOM      4  N   UNL A   1      38.617  21.843  25.903  1.00  0.00    -0.352 N 
ATOM      5  C   UNL A   1      37.535  21.362  25.214  1.00  0.00     0.251 C 
ATOM      6  O   UNL A   1      37.544  20.174  24.892  1.00  0.00    -0.269 OA
ATOM      7  H   UNL A   1      39.324  21.174  26.053  1.00  0.00     0.163 HD
BRANCH   5   8
ATOM      8  C   UNL A   1      36.394  22.221  24.791  1.00  0.00     0.039 A 
ATOM      9  C   UNL A   1      34.100  23.694  24.111  1.00  0.00     0.052 A 
ATOM     10  C   UNL A   1      34.348  23.368  25.447  1.00  0.00     0.027 A 
ATOM     11  C   UNL A   1      35.023  23.333  23.131  1.00  0.00     0.027 A 
ATOM     12  C   UNL A   1      35.471  22.602  25.777  1.00  0.00     0.016 A 
ATOM     13  C   UNL A   1      36.193  22.670  23.485  1.00  0.00     0.016 A 
BRANCH   9  14
ATOM     14  N   UNL A   1      32.962  24.421  23.732  1.00  0.00    -0.245 N 
ATOM     15  C   UNL A   1      31.595  26.154  22.944  1.00  0.00     0.285 C 
ATOM     16  C   UNL A   1      30.759  24.892  23.131  1.00  0.00     0.176 C 
ATOM     17  C   UNL A   1      33.022  25.693  23.217  1.00  0.00     0.292 C 
ATOM     18  C   UNL A   1      31.701  23.891  23.715  1.00  0.00     0.240 C 
ATOM     19  O   UNL A   1      34.027  26.350  22.984  1.00  0.00    -0.267 OA
ATOM     20  O   UNL A   1      31.341  22.784  24.101  1.00  0.00    -0.274 OA
BRANCH  15  21
ATOM     21  N   UNL A   1      31.286  27.377  23.706  1.00  0.00    -0.315 N 
ATOM     22  N   UNL A   1      29.324  29.378  22.593  1.00  0.00    -0.326 N 
ATOM     23  C   UNL A   1      30.729  29.322  22.134  1.00  0.00     0.324 C 
ATOM     24  C   UNL A   1      28.918  28.091  23.188  1.00  0.00     0.324 C 
ATOM     25  H   UNL A   1      28.721  29.534  21.785  1.00  0.00     0.348 HD
ATOM     26  C   UNL A   1      31.739  28.628  23.082  1.00  0.00     0.325 C 
ATOM     27  C   UNL A   1      29.915  27.520  24.212  1.00  0.00     0.325 C 
ATOM     28  H   UNL A   1      31.863  27.214  24.531  1.00  0.00     0.349 HD
BRANCH  22  29
ATOM     29  C   UNL A   1      29.112  30.515  23.501  1.00  0.00     0.259 C 
ATOM     30  C   UNL A   1      27.669  31.014  23.475  1.00  0.00     0.071 C 
ENDBRANCH  22  29
ENDBRANCH  15  21
ENDBRANCH   9  14
ENDBRANCH   5   8
ENDBRANCH   3   4
ENDBRANCH   2   3
ENDBRANCH   1   2
BRANCH   1  31
ATOM     31  C   UNL A   1      41.955  21.248  27.726  1.00  0.00     0.002 C 
BRANCH  31  32
ATOM     32  C   UNL A   1      42.226  19.834  27.207  1.00  0.00     0.021 C 
BRANCH  32  33
ATOM     33  C   UNL A   1      42.062  19.693  25.698  1.00  0.00     0.116 C 
BRANCH  33  34
ATOM     34  N   UNL A   1      43.203  19.012  25.103  1.00  0.00    -0.352 N 
ATOM     35  C   UNL A   1      44.361  19.540  24.597  1.00  0.00     0.251 C 
ATOM     36  H   UNL A   1      43.131  18.031  25.058  1.00  0.00     0.163 HD
ATOM     37  O   UNL A   1      45.095  18.863  23.886  1.00  0.00    -0.269 OA
BRANCH  35  38
ATOM     38  C   UNL A   1      44.716  20.939  24.907  1.00  0.00     0.039 A 
ATOM     39  C   UNL A   1      44.422  21.936  23.975  1.00  0.00     0.014 A 
ATOM     40  C   UNL A   1      45.335  21.261  26.119  1.00  0.00     0.014 A 
ATOM     41  C   UNL A   1      44.691  23.268  24.287  1.00  0.00     0.010 A 
ATOM     42  C   UNL A   1      45.531  22.594  26.459  1.00  0.00     0.010 A 
ATOM     43  C   UNL A   1      45.209  23.610  25.548  1.00  0.00    -0.014 A 
BRANCH  43  44
ATOM     44  C   UNL A   1      45.385  25.028  25.944  1.00  0.00     0.031 A 
ATOM     45  C   UNL A   1      46.743  25.665  25.917  1.00  0.00     0.074 A 
ATOM     46  C   UNL A   1      44.325  25.716  26.408  1.00  0.00     0.049 A 
ATOM     47  N   UNL A   1      47.099  26.868  26.290  1.00  0.00    -0.248 NA
ATOM     48  C   UNL A   1      47.854  24.830  25.435  1.00  0.00     0.031 C 
ATOM     49  C   UNL A   1      42.966  25.186  26.541  1.00  0.00     0.029 A 
ATOM     50  N   UNL A   1      44.226  27.003  26.872  1.00  0.00    -0.354 N 
ATOM     51  C   UNL A   1      48.473  26.932  26.095  1.00  0.00     0.074 A 
ATOM     52  C   UNL A   1      48.893  25.627  25.629  1.00  0.00     0.031 C 
ATOM     53  C   UNL A   1      42.168  26.142  27.040  1.00  0.00     0.029 A 
ATOM     54  C   UNL A   1      42.965  27.336  27.303  1.00  0.00     0.049 A 
ATOM     55  H   UNL A   1      44.986  27.628  26.895  1.00  0.00     0.167 HD
ATOM     56  C   UNL A   1      49.304  27.987  26.269  1.00  0.00     0.037 A 
ATOM     57  C   UNL A   1      42.504  28.468  27.866  1.00  0.00     0.037 A 
ATOM     58  C   UNL A   1      48.876  29.282  26.734  1.00  0.00     0.049 A 
ATOM     59  C   UNL A   1      43.443  29.622  28.068  1.00  0.00     0.074 A 
ATOM     60  C   UNL A   1      49.623  30.437  26.879  1.00  0.00     0.029 A 
ATOM     61  N   UNL A   1      47.585  29.587  27.146  1.00  0.00    -0.354 N 
ATOM     62  N   UNL A   1      44.724  29.700  27.796  1.00  0.00    -0.248 NA
ATOM     63  C   UNL A   1      42.875  30.845  28.648  1.00  0.00     0.031 C 
ATOM     64  C   UNL A   1      48.802  31.422  27.439  1.00  0.00     0.029 A 
ATOM     65  C   UNL A   1      47.526  30.901  27.586  1.00  0.00     0.049 A 
ATOM     66  H   UNL A   1      46.824  28.963  27.130  1.00  0.00     0.167 HD
ATOM     67  C   UNL A   1      45.112  30.982  28.158  1.00  0.00     0.074 A 
ATOM     68  C   UNL A   1      43.926  31.654  28.649  1.00  0.00     0.031 C 
ATOM     69  C   UNL A   1      46.341  31.552  28.090  1.00  0.00     0.037 A 
BRANCH  56  70
ATOM     70  C   UNL A   1      50.761  27.773  25.968  1.00  0.00     0.057 A 
ATOM     71  C   UNL A   1      51.686  27.445  26.969  1.00  0.00     0.134 A 
ATOM     72  C   UNL A   1      51.246  27.895  24.660  1.00  0.00     0.134 A 
ATOM     73  F   UNL A   1      51.293  27.320  28.245  1.00  0.00    -0.206 F 
ATOM     74  C   UNL A   1      53.045  27.290  26.687  1.00  0.00     0.040 A 
ATOM     75  C   UNL A   1      52.597  27.710  24.360  1.00  0.00     0.040 A 
ATOM     76  F   UNL A   1      50.417  28.199  23.650  1.00  0.00    -0.206 F 
ATOM     77  C   UNL A   1      53.503  27.419  25.377  1.00  0.00     0.006 A 
ENDBRANCH  56  70
BRANCH  57  78
ATOM     78  C   UNL A   1      41.079  28.550  28.274  1.00  0.00     0.057 A 
ATOM     79  C   UNL A   1      40.088  28.951  27.371  1.00  0.00     0.134 A 
ATOM     80  C   UNL A   1      40.670  28.193  29.564  1.00  0.00     0.134 A 
ATOM     81  F   UNL A   1      40.418  29.321  26.125  1.00  0.00    -0.206 F 
ATOM     82  C   UNL A   1      38.742  29.000  27.739  1.00  0.00     0.040 A 
ATOM     83  C   UNL A   1      39.326  28.211  29.938  1.00  0.00     0.040 A 
ATOM     84  F   UNL A   1      41.571  27.789  30.472  1.00  0.00    -0.206 F 
ATOM     85  C   UNL A   1      38.357  28.620  29.024  1.00  0.00     0.006 A 
ENDBRANCH  57  78
BRANCH  69  86
ATOM     86  C   UNL A   1      46.465  32.974  28.555  1.00  0.00     0.057 A 
ATOM     87  C   UNL A   1      46.252  34.056  27.692  1.00  0.00     0.134 A 
ATOM     88  C   UNL A   1      46.762  33.266  29.894  1.00  0.00     0.134 A 
ATOM     89  F   UNL A   1      45.980  33.847  26.394  1.00  0.00    -0.206 F 
ATOM     90  C   UNL A   1      46.350  35.375  28.136  1.00  0.00     0.040 A 
ATOM     91  C   UNL A   1      46.833  34.581  30.357  1.00  0.00     0.040 A 
ATOM     92  F   UNL A   1      46.970  32.278  30.776  1.00  0.00    -0.206 F 
ATOM     93  C   UNL A   1      46.632  35.640  29.474  1.00  0.00     0.006 A 
ENDBRANCH  69  86
ENDBRANCH  43  44
ENDBRANCH  35  38
ENDBRANCH  33  34
ENDBRANCH  32  33
ENDBRANCH  31  32
ENDBRANCH   1  31
TORSDOF 16
ENDMDL
MODEL 2
REMARK VINA RESULT:     -11.0      1.324      2.242
REMARK SMILES CC[NH+]1CC[NH+]([C@@H]2CC(=O)N(c3ccc(C(=O)NCCCCCCNC(=O)c4ccc(-c5c6nc(c(-c7c(F)cccc7F)c7ccc([nH]7)c(-c7c(F)cccc7F)c7nc(c(-c8c(F)cccc8F)c8ccc5[nH]8)C=C7)C=C6)cc4)cc3)C2=O)CC1
REMARK SMILES IDX 21 1 20 2 19 3 18 4 16 5 17 6 15 8 12 9 13 10 83 11 14 12
REMARK SMILES IDX 82 13 11 14 7 15 8 16 84 17 9 18 85 19 10 20 6 21 3 22 4 23
REMARK SMILES IDX 87 24 5 26 86 27 2 29 1 30 22 31 23 32 24 33 25 34 26 35
REMARK SMILES IDX 27 37 28 38 29 39 81 40 30 41 80 42 31 43 32 44 33 45 74 46
REMARK SMILES IDX 34 47 79 48 73 49 75 50 35 51 78 52 72 53 71 54 36 56 62 57
REMARK SMILES IDX 45 58 61 59 46 60 49 61 60 62 76 63 47 64 48 65 59 67 77 68
REMARK SMILES IDX 50 69 37 70 38 71 43 72 39 73 40 74 42 75 44 76 41 77 63 78
REMARK SMILES IDX 64 79 69 80 65 81 66 82 68 83 70 84 67 85 51 86 52 87 57 88
REMARK SMILES IDX 53 89 54 90 56 91 58 92 55 93
REMARK H PARENT 18 7 3 25 6 28 25 36 75 55 49 66
REMARK Flexibility Score: inf
ROOT
ATOM      1  C   UNL A   1      41.588  21.169  26.633  1.00  0.00     0.002 C 
ENDROOT
BRANCH   1   2
ATOM      2  C   UNL A   1      40.686  22.191  27.332  1.00  0.00     0.021 C 
BRANCH   2   3
ATOM      3  C   UNL A   1      39.443  22.537  26.504  1.00  0.00     0.116 C 
BRANCH   3   4
ATOM      4  N   UNL A   1      39.001  21.365  25.774  1.00  0.00    -0.352 N 
ATOM      5  C   UNL A   1      37.818  21.054  25.158  1.00  0.00     0.251 C 
ATOM      6  O   UNL A   1      37.721  19.947  24.629  1.00  0.00    -0.269 OA
ATOM      7  H   UNL A   1      39.683  20.658  25.707  1.00  0.00     0.163 HD
BRANCH   5   8
ATOM      8  C   UNL A   1      36.682  22.012  25.051  1.00  0.00     0.039 A 
ATOM      9  C   UNL A   1      34.574  23.870  25.074  1.00  0.00     0.052 A 
ATOM     10  C   UNL A   1      35.836  24.242  25.544  1.00  0.00     0.027 A 
ATOM     11  C   UNL A   1      34.385  22.594  24.546  1.00  0.00     0.027 A 
ATOM     12  C   UNL A   1      36.873  23.302  25.566  1.00  0.00     0.016 A 
ATOM     13  C   UNL A   1      35.451  21.705  24.468  1.00  0.00     0.016 A 
BRANCH   9  14
ATOM     14  N   UNL A   1      33.496  24.767  25.078  1.00  0.00    -0.245 N 
ATOM     15  C   UNL A   1      32.036  26.486  24.441  1.00  0.00     0.285 C 
ATOM     16  C   UNL A   1      31.442  25.726  25.622  1.00  0.00     0.176 C 
ATOM     17  C   UNL A   1      33.285  25.688  24.081  1.00  0.00     0.292 C 
ATOM     18  C   UNL A   1      32.484  24.725  25.998  1.00  0.00     0.240 C 
ATOM     19  O   UNL A   1      33.947  25.844  23.065  1.00  0.00    -0.267 OA
ATOM     20  O   UNL A   1      32.392  24.007  26.988  1.00  0.00    -0.274 OA
BRANCH  15  21
ATOM     21  N   UNL A   1      32.348  27.922  24.553  1.00  0.00    -0.315 N 
ATOM     22  N   UNL A   1      33.200  29.065  27.210  1.00  0.00    -0.326 N 
ATOM     23  C   UNL A   1      31.779  28.806  26.889  1.00  0.00     0.324 C 
ATOM     24  C   UNL A   1      34.084  28.246  26.360  1.00  0.00     0.324 C 
ATOM     25  H   UNL A   1      33.375  28.786  28.175  1.00  0.00     0.348 HD
ATOM     26  C   UNL A   1      31.418  28.696  25.387  1.00  0.00     0.325 C 
ATOM     27  C   UNL A   1      33.738  28.281  24.861  1.00  0.00     0.325 C 
ATOM     28  H   UNL A   1      32.206  28.204  23.583  1.00  0.00     0.349 HD
BRANCH  22  29
ATOM     29  C   UNL A   1      33.504  30.502  27.127  1.00  0.00     0.259 C 
ATOM     30  C   UNL A   1      34.714  30.886  27.975  1.00  0.00     0.071 C 
ENDBRANCH  22  29
ENDBRANCH  15  21
ENDBRANCH   9  14
ENDBRANCH   5   8
ENDBRANCH   3   4
ENDBRANCH   2   3
ENDBRANCH   1   2
BRANCH   1  31
ATOM     31  C   UNL A   1      42.077  20.039  27.548  1.00  0.00     0.002 C 
BRANCH  31  32
ATOM     32  C   UNL A   1      42.652  18.829  26.808  1.00  0.00     0.021 C 
BRANCH  32  33
ATOM     33  C   UNL A   1      42.667  18.988  25.292  1.00  0.00     0.116 C 
BRANCH  33  34
ATOM     34  N   UNL A   1      43.976  18.671  24.740  1.00  0.00    -0.352 N 
ATOM     35  C   UNL A   1      44.989  19.515  24.366  1.00  0.00     0.251 C 
ATOM     36  H   UNL A   1      44.160  17.711  24.617  1.00  0.00     0.163 HD
ATOM     37  O   UNL A   1      45.910  19.110  23.667  1.00  0.00    -0.269 OA
BRANCH  35  38
ATOM     38  C   UNL A   1      44.956  20.924  24.805  1.00  0.00     0.039 A 
ATOM     39  C   UNL A   1      45.286  21.231  26.126  1.00  0.00     0.014 A 
ATOM     40  C   UNL A   1      44.600  21.936  23.909  1.00  0.00     0.014 A 
ATOM     41  C   UNL A   1      45.324  22.565  26.531  1.00  0.00     0.010 A 
ATOM     42  C   UNL A   1      44.713  23.267  24.293  1.00  0.00     0.010 A 
ATOM     43  C   UNL A   1      45.078  23.594  25.606  1.00  0.00    -0.014 A 
BRANCH  43  44
ATOM     44  C   UNL A   1      45.234  25.019  25.987  1.00  0.00     0.031 A 
ATOM     45  C   UNL A   1      46.584  25.672  25.958  1.00  0.00     0.074 A 
ATOM     46  C   UNL A   1      44.164  25.699  26.439  1.00  0.00     0.049 A 
ATOM     47  N   UNL A   1      46.925  26.883  26.319  1.00  0.00    -0.248 NA
ATOM     48  C   UNL A   1      47.708  24.845  25.489  1.00  0.00     0.031 C 
ATOM     49  C   UNL A   1      42.812  25.153  26.573  1.00  0.00     0.029 A 
ATOM     50  N   UNL A   1      44.048  26.990  26.889  1.00  0.00    -0.354 N 
ATOM     51  C   UNL A   1      48.299  26.962  26.128  1.00  0.00     0.074 A 
ATOM     52  C   UNL A   1      48.737  25.657  25.679  1.00  0.00     0.031 C 
ATOM     53  C   UNL A   1      42.000  26.105  27.058  1.00  0.00     0.029 A 
ATOM     54  C   UNL A   1      42.781  27.312  27.311  1.00  0.00     0.049 A 
ATOM     55  H   UNL A   1      44.800  27.624  26.908  1.00  0.00     0.167 HD
ATOM     56  C   UNL A   1      49.116  28.029  26.293  1.00  0.00     0.037 A 
ATOM     57  C   UNL A   1      42.304  28.444  27.860  1.00  0.00     0.037 A 
ATOM     58  C   UNL A   1      48.670  29.324  26.742  1.00  0.00     0.049 A 
ATOM     59  C   UNL A   1      43.228  29.612  28.052  1.00  0.00     0.074 A 
ATOM     60  C   UNL A   1      49.402  30.489  26.877  1.00  0.00     0.029 A 
ATOM     61  N   UNL A   1      47.374  29.617  27.146  1.00  0.00    -0.354 N 
ATOM     62  N   UNL A   1      44.509  29.703  27.783  1.00  0.00    -0.248 NA
ATOM     63  C   UNL A   1      42.642  30.834  28.616  1.00  0.00     0.031 C 
ATOM     64  C   UNL A   1      48.567  31.470  27.423  1.00  0.00     0.029 A 
ATOM     65  C   UNL A   1      47.297  30.935  27.571  1.00  0.00     0.049 A 
ATOM     66  H   UNL A   1      46.621  28.984  27.134  1.00  0.00     0.167 HD
ATOM     67  C   UNL A   1      44.880  30.993  28.133  1.00  0.00     0.074 A 
ATOM     68  C   UNL A   1      43.684  31.655  28.612  1.00  0.00     0.031 C 
ATOM     69  C   UNL A   1      46.102  31.577  28.063  1.00  0.00     0.037 A 
BRANCH  56  70
ATOM     70  C   UNL A   1      50.576  27.829  26.001  1.00  0.00     0.057 A 
ATOM     71  C   UNL A   1      51.088  27.889  24.697  1.00  0.00     0.134 A 
ATOM     72  C   UNL A   1      51.484  27.574  27.036  1.00  0.00     0.134 A 
ATOM     73  F   UNL A   1      50.274  28.122  23.656  1.00  0.00    -0.206 F 
ATOM     74  C   UNL A   1      52.439  27.659  24.429  1.00  0.00     0.040 A 
ATOM     75  C   UNL A   1      52.843  27.375  26.785  1.00  0.00     0.040 A 
ATOM     76  F   UNL A   1      51.067  27.510  28.309  1.00  0.00    -0.206 F 
ATOM     77  C   UNL A   1      53.322  27.405  25.477  1.00  0.00     0.006 A 
ENDBRANCH  56  70
BRANCH  57  78
ATOM     78  C   UNL A   1      40.876  28.514  28.260  1.00  0.00     0.057 A 
ATOM     79  C   UNL A   1      40.467  28.169  29.553  1.00  0.00     0.134 A 
ATOM     80  C   UNL A   1      39.893  28.964  27.371  1.00  0.00     0.134 A 
ATOM     81  F   UNL A   1      41.359  27.716  30.446  1.00  0.00    -0.206 F 
ATOM     82  C   UNL A   1      39.131  28.263  29.945  1.00  0.00     0.040 A 
ATOM     83  C   UNL A   1      38.558  29.089  27.757  1.00  0.00     0.040 A 
ATOM     84  F   UNL A   1      40.224  29.321  26.121  1.00  0.00    -0.206 F 
ATOM     85  C   UNL A   1      38.173  28.734  29.047  1.00  0.00     0.006 A 
ENDBRANCH  57  78
BRANCH  69  86
ATOM     86  C   UNL A   1      46.207  33.006  28.513  1.00  0.00     0.057 A 
ATOM     87  C   UNL A   1      45.951  34.075  27.645  1.00  0.00     0.134 A 
ATOM     88  C   UNL A   1      46.529  33.316  29.841  1.00  0.00     0.134 A 
ATOM     89  F   UNL A   1      45.652  33.848  26.356  1.00  0.00    -0.206 F 
ATOM     90  C   UNL A   1      46.031  35.400  28.075  1.00  0.00     0.040 A 
ATOM     91  C   UNL A   1      46.583  34.637  30.291  1.00  0.00     0.040 A 
ATOM     92  F   UNL A   1      46.779  32.342  30.727  1.00  0.00    -0.206 F 
ATOM     93  C   UNL A   1      46.339  35.684  29.404  1.00  0.00     0.006 A 
ENDBRANCH  69  86
ENDBRANCH  43  44
ENDBRANCH  35  38
ENDBRANCH  33  34
ENDBRANCH  32  33
ENDBRANCH  31  32
ENDBRANCH   1  31
TORSDOF 16
ENDMDL
MODEL 3
REMARK VINA RESULT:     -10.9      4.692      8.574
REMARK SMILES CC[NH+]1CC[NH+]([C@@H]2CC(=O)N(c3ccc(C(=O)NCCCCCCNC(=O)c4ccc(-c5c6nc(c(-c7c(F)cccc7F)c7ccc([nH]7)c(-c7c(F)cccc7F)c7nc(c(-c8c(F)cccc8F)c8ccc5[nH]8)C=C7)C=C6)cc4)cc3)C2=O)CC1
REMARK SMILES IDX 21 1 20 2 19 3 18 4 16 5 17 6 15 8 12 9 13 10 83 11 14 12
REMARK SMILES IDX 82 13 11 14 7 15 8 16 84 17 9 18 85 19 10 20 6 21 3 22 4 23
REMARK SMILES IDX 87 24 5 26 86 27 2 29 1 30 22 31 23 32 24 33 25 34 26 35
REMARK SMILES IDX 27 37 28 38 29 39 81 40 30 41 80 42 31 43 32 44 33 45 74 46
REMARK SMILES IDX 34 47 79 48 73 49 75 50 35 51 78 52 72 53 71 54 36 56 62 57
REMARK SMILES IDX 45 58 61 59 46 60 49 61 60 62 76 63 47 64 48 65 59 67 77 68
REMARK SMILES IDX 50 69 37 70 38 71 43 72 39 73 40 74 42 75 44 76 41 77 63 78
REMARK SMILES IDX 64 79 69 80 65 81 66 82 68 83 70 84 67 85 51 86 52 87 57 88
REMARK SMILES IDX 53 89 54 90 56 91 58 92 55 93
REMARK H PARENT 18 7 3 25 6 28 25 36 75 55 49 66
REMARK Flexibility Score: inf
ROOT
ATOM      1  C   UNL A   1      40.379  21.769  26.778  1.00  0.00     0.002 C 
ENDROOT
BRANCH   1   2
ATOM      2  C   UNL A   1      39.795  23.125  27.184  1.00  0.00     0.021 C 
BRANCH   2   3
ATOM      3  C   UNL A   1      38.476  23.434  26.468  1.00  0.00     0.116 C 
BRANCH   3   4
ATOM      4  N   UNL A   1      37.867  22.199  26.014  1.00  0.00    -0.352 N 
ATOM      5  C   UNL A   1      36.588  21.886  25.634  1.00  0.00     0.251 C 
ATOM      6  O   UNL A   1      36.354  20.720  25.317  1.00  0.00    -0.269 OA
ATOM      7  H   UNL A   1      38.492  21.439  25.971  1.00  0.00     0.163 HD
BRANCH   5   8
ATOM      8  C   UNL A   1      35.501  22.899  25.530  1.00  0.00     0.039 A 
ATOM      9  C   UNL A   1      33.616  24.967  25.278  1.00  0.00     0.052 A 
ATOM     10  C   UNL A   1      34.527  24.726  24.247  1.00  0.00     0.027 A 
ATOM     11  C   UNL A   1      33.613  24.143  26.402  1.00  0.00     0.027 A 
ATOM     12  C   UNL A   1      35.489  23.720  24.393  1.00  0.00     0.016 A 
ATOM     13  C   UNL A   1      34.500  23.074  26.486  1.00  0.00     0.016 A 
BRANCH   9  14
ATOM     14  N   UNL A   1      32.665  25.995  25.192  1.00  0.00    -0.245 N 
ATOM     15  C   UNL A   1      30.682  27.152  24.721  1.00  0.00     0.285 C 
ATOM     16  C   UNL A   1      31.585  28.023  25.589  1.00  0.00     0.176 C 
ATOM     17  C   UNL A   1      31.414  25.816  24.655  1.00  0.00     0.292 C 
ATOM     18  C   UNL A   1      32.842  27.232  25.750  1.00  0.00     0.240 C 
ATOM     19  O   UNL A   1      30.938  24.777  24.220  1.00  0.00    -0.267 OA
ATOM     20  O   UNL A   1      33.842  27.676  26.303  1.00  0.00    -0.274 OA
BRANCH  15  21
ATOM     21  N   UNL A   1      30.282  27.595  23.374  1.00  0.00    -0.315 N 
ATOM     22  N   UNL A   1      28.441  29.963  23.063  1.00  0.00    -0.326 N 
ATOM     23  C   UNL A   1      27.932  28.615  23.402  1.00  0.00     0.324 C 
ATOM     24  C   UNL A   1      29.866  30.087  23.420  1.00  0.00     0.324 C 
ATOM     25  H   UNL A   1      27.935  30.653  23.618  1.00  0.00     0.348 HD
ATOM     26  C   UNL A   1      28.857  27.421  23.060  1.00  0.00     0.325 C 
ATOM     27  C   UNL A   1      30.747  28.920  22.942  1.00  0.00     0.325 C 
ATOM     28  H   UNL A   1      30.810  26.928  22.811  1.00  0.00     0.349 HD
BRANCH  22  29
ATOM     29  C   UNL A   1      28.179  30.284  21.652  1.00  0.00     0.259 C 
ATOM     30  C   UNL A   1      28.054  31.787  21.416  1.00  0.00     0.071 C 
ENDBRANCH  22  29
ENDBRANCH  15  21
ENDBRANCH   9  14
ENDBRANCH   5   8
ENDBRANCH   3   4
ENDBRANCH   2   3
ENDBRANCH   1   2
BRANCH   1  31
ATOM     31  C   UNL A   1      41.881  21.627  27.051  1.00  0.00     0.002 C 
BRANCH  31  32
ATOM     32  C   UNL A   1      42.772  21.842  25.825  1.00  0.00     0.021 C 
BRANCH  32  33
ATOM     33  C   UNL A   1      42.649  23.234  25.215  1.00  0.00     0.116 C 
BRANCH  33  34
ATOM     34  N   UNL A   1      43.958  23.822  24.971  1.00  0.00    -0.352 N 
ATOM     35  C   UNL A   1      44.452  25.036  25.369  1.00  0.00     0.251 C 
ATOM     36  H   UNL A   1      44.577  23.267  24.444  1.00  0.00     0.163 HD
ATOM     37  O   UNL A   1      45.464  25.496  24.852  1.00  0.00    -0.269 OA
BRANCH  35  38
ATOM     38  C   UNL A   1      43.748  25.795  26.422  1.00  0.00     0.039 A 
ATOM     39  C   UNL A   1      42.989  25.100  27.366  1.00  0.00     0.014 A 
ATOM     40  C   UNL A   1      43.842  27.189  26.473  1.00  0.00     0.014 A 
ATOM     41  C   UNL A   1      42.376  25.802  28.404  1.00  0.00     0.010 A 
ATOM     42  C   UNL A   1      43.295  27.877  27.550  1.00  0.00     0.010 A 
ATOM     43  C   UNL A   1      42.559  27.190  28.526  1.00  0.00    -0.014 A 
BRANCH  43  44
ATOM     44  C   UNL A   1      42.020  27.933  29.690  1.00  0.00     0.031 A 
ATOM     45  C   UNL A   1      40.759  28.736  29.565  1.00  0.00     0.074 A 
ATOM     46  C   UNL A   1      42.718  27.947  30.841  1.00  0.00     0.049 A 
ATOM     47  N   UNL A   1      40.175  29.502  30.451  1.00  0.00    -0.248 NA
ATOM     48  C   UNL A   1      40.080  28.699  28.260  1.00  0.00     0.031 C 
ATOM     49  C   UNL A   1      43.989  27.256  31.066  1.00  0.00     0.029 A 
ATOM     50  N   UNL A   1      42.468  28.580  32.032  1.00  0.00    -0.354 N 
ATOM     51  C   UNL A   1      39.066  30.041  29.811  1.00  0.00     0.074 A 
ATOM     52  C   UNL A   1      39.094  29.565  28.445  1.00  0.00     0.031 C 
ATOM     53  C   UNL A   1      44.402  27.491  32.320  1.00  0.00     0.029 A 
ATOM     54  C   UNL A   1      43.449  28.384  32.973  1.00  0.00     0.049 A 
ATOM     55  H   UNL A   1      41.664  29.122  32.197  1.00  0.00     0.167 HD
ATOM     56  C   UNL A   1      38.102  30.844  30.322  1.00  0.00     0.037 A 
ATOM     57  C   UNL A   1      43.580  28.882  34.217  1.00  0.00     0.037 A 
ATOM     58  C   UNL A   1      38.083  31.314  31.684  1.00  0.00     0.049 A 
ATOM     59  C   UNL A   1      42.510  29.785  34.761  1.00  0.00     0.074 A 
ATOM     60  C   UNL A   1      37.118  32.074  32.320  1.00  0.00     0.029 A 
ATOM     61  N   UNL A   1      39.087  31.082  32.615  1.00  0.00    -0.354 N 
ATOM     62  N   UNL A   1      41.419  30.217  34.176  1.00  0.00    -0.248 NA
ATOM     63  C   UNL A   1      42.685  30.264  36.138  1.00  0.00     0.031 C 
ATOM     64  C   UNL A   1      37.567  32.356  33.615  1.00  0.00     0.029 A 
ATOM     65  C   UNL A   1      38.784  31.720  33.808  1.00  0.00     0.049 A 
ATOM     66  H   UNL A   1      39.895  30.544  32.452  1.00  0.00     0.167 HD
ATOM     67  C   UNL A   1      40.771  31.007  35.114  1.00  0.00     0.074 A 
ATOM     68  C   UNL A   1      41.581  30.977  36.314  1.00  0.00     0.031 C 
ATOM     69  C   UNL A   1      39.609  31.696  34.992  1.00  0.00     0.037 A 
BRANCH  56  70
ATOM     70  C   UNL A   1      37.001  31.274  29.394  1.00  0.00     0.057 A 
ATOM     71  C   UNL A   1      35.940  30.422  29.054  1.00  0.00     0.134 A 
ATOM     72  C   UNL A   1      37.000  32.556  28.832  1.00  0.00     0.134 A 
ATOM     73  F   UNL A   1      35.882  29.177  29.549  1.00  0.00    -0.206 F 
ATOM     74  C   UNL A   1      34.945  30.814  28.156  1.00  0.00     0.040 A 
ATOM     75  C   UNL A   1      35.992  32.972  27.959  1.00  0.00     0.040 A 
ATOM     76  F   UNL A   1      37.979  33.428  29.118  1.00  0.00    -0.206 F 
ATOM     77  C   UNL A   1      34.967  32.096  27.610  1.00  0.00     0.006 A 
ENDBRANCH  56  70
BRANCH  57  78
ATOM     78  C   UNL A   1      44.775  28.527  35.022  1.00  0.00     0.057 A 
ATOM     79  C   UNL A   1      44.792  27.387  35.833  1.00  0.00     0.134 A 
ATOM     80  C   UNL A   1      45.942  29.299  34.968  1.00  0.00     0.134 A 
ATOM     81  F   UNL A   1      43.701  26.616  35.938  1.00  0.00    -0.206 F 
ATOM     82  C   UNL A   1      45.925  27.031  36.567  1.00  0.00     0.040 A 
ATOM     83  C   UNL A   1      47.090  28.940  35.675  1.00  0.00     0.040 A 
ATOM     84  F   UNL A   1      45.993  30.397  34.200  1.00  0.00    -0.206 F 
ATOM     85  C   UNL A   1      47.082  27.804  36.481  1.00  0.00     0.006 A 
ENDBRANCH  57  78
BRANCH  69  86
ATOM     86  C   UNL A   1      39.142  32.472  36.189  1.00  0.00     0.057 A 
ATOM     87  C   UNL A   1      38.283  31.913  37.143  1.00  0.00     0.134 A 
ATOM     88  C   UNL A   1      39.589  33.782  36.412  1.00  0.00     0.134 A 
ATOM     89  F   UNL A   1      37.805  30.669  36.983  1.00  0.00    -0.206 F 
ATOM     90  C   UNL A   1      37.868  32.634  38.265  1.00  0.00     0.040 A 
ATOM     91  C   UNL A   1      39.206  34.502  37.545  1.00  0.00     0.040 A 
ATOM     92  F   UNL A   1      40.419  34.376  35.543  1.00  0.00    -0.206 F 
ATOM     93  C   UNL A   1      38.337  33.929  38.472  1.00  0.00     0.006 A 
ENDBRANCH  69  86
ENDBRANCH  43  44
ENDBRANCH  35  38
ENDBRANCH  33  34
ENDBRANCH  32  33
ENDBRANCH  31  32
ENDBRANCH   1  31
TORSDOF 16
ENDMDL
