MODEL 1
REMARK VINA RESULT:     -11.2      0.000      0.000
REMARK SMILES C[C@@H](C(=O)NCCCCCCNC(=O)c1ccc(-c2c3nc(c(-c4c(F)cccc4F)c4ccc([nH]4)c(-c4c(F)cccc4F)c4nc(c(-c5c(F)cccc5F)c5ccc2[nH]5)C=C4)C=C3)cc1)c1ccc(Cc2cccs2)cc1F
REMARK SMILES IDX 8 1 7 2 6 3 5 4 3 5 4 6 2 8 1 9 69 10 70 11 80 12 71 13
REMARK SMILES IDX 79 14 81 15 72 16 73 17 74 18 75 19 78 20 76 21 77 22 9 23
REMARK SMILES IDX 10 24 11 25 12 26 13 27 14 29 15 30 16 31 68 32 17 33 67 34
REMARK SMILES IDX 18 35 19 36 20 37 61 38 21 39 66 40 60 41 62 42 22 43 65 44
REMARK SMILES IDX 59 45 58 46 23 48 49 49 32 50 48 51 33 52 36 53 47 54 63 55
REMARK SMILES IDX 34 56 35 57 46 59 64 60 37 61 24 62 25 63 30 64 26 65 27 66
REMARK SMILES IDX 29 67 31 68 28 69 50 70 51 71 56 72 52 73 53 74 55 75 57 76
REMARK SMILES IDX 54 77 38 78 39 79 44 80 40 81 41 82 43 83 45 84 42 85
REMARK H PARENT 5 7 12 28 62 47 36 58
REMARK Flexibility Score: inf
ROOT
ATOM      1  C   UNL A   1      36.268  21.748  24.409  1.00  0.00     0.002 C 
ENDROOT
BRANCH   1   2
ATOM      2  C   UNL A   1      36.560  22.863  25.422  1.00  0.00     0.021 C 
BRANCH   2   3
ATOM      3  C   UNL A   1      35.404  23.847  25.622  1.00  0.00     0.116 C 
BRANCH   3   4
ATOM      4  N   UNL A   1      35.084  24.523  24.383  1.00  0.00    -0.356 N 
ATOM      5  C   UNL A   1      33.915  24.585  23.683  1.00  0.00     0.227 C 
ATOM      6  O   UNL A   1      33.949  25.201  22.617  1.00  0.00    -0.274 OA
ATOM      7  H   UNL A   1      35.833  25.019  23.980  1.00  0.00     0.163 HD
BRANCH   5   8
ATOM      8  C   UNL A   1      32.630  23.978  24.271  1.00  0.00     0.108 C 
ATOM      9  C   UNL A   1      32.454  24.241  25.770  1.00  0.00     0.023 C 
BRANCH   8  10
ATOM     10  C   UNL A   1      32.531  22.486  23.982  1.00  0.00    -0.000 A 
ATOM     11  C   UNL A   1      32.294  22.033  22.677  1.00  0.00     0.008 A 
ATOM     12  C   UNL A   1      32.686  21.531  24.995  1.00  0.00     0.127 A 
ATOM     13  C   UNL A   1      32.195  20.665  22.408  1.00  0.00     0.004 A 
ATOM     14  C   UNL A   1      32.574  20.168  24.736  1.00  0.00     0.043 A 
ATOM     15  F   UNL A   1      32.938  21.917  26.254  1.00  0.00    -0.207 F 
ATOM     16  C   UNL A   1      32.321  19.718  23.436  1.00  0.00    -0.040 A 
BRANCH  16  17
ATOM     17  C   UNL A   1      32.177  18.240  23.148  1.00  0.00     0.082 C 
BRANCH  17  18
ATOM     18  C   UNL A   1      33.115  17.384  23.956  1.00  0.00     0.009 A 
ATOM     19  C   UNL A   1      34.481  17.224  23.807  1.00  0.00     0.016 A 
ATOM     20  S   UNL A   1      32.526  16.470  25.283  1.00  0.00    -0.149 S 
ATOM     21  C   UNL A   1      35.039  16.348  24.779  1.00  0.00     0.012 A 
ATOM     22  C   UNL A   1      34.085  15.875  25.652  1.00  0.00     0.065 A 
ENDBRANCH  17  18
ENDBRANCH  16  17
ENDBRANCH   8  10
ENDBRANCH   5   8
ENDBRANCH   3   4
ENDBRANCH   2   3
ENDBRANCH   1   2
BRANCH   1  23
ATOM     23  C   UNL A   1      36.273  20.327  24.982  1.00  0.00     0.002 C 
BRANCH  23  24
ATOM     24  C   UNL A   1      37.596  19.574  24.837  1.00  0.00     0.021 C 
BRANCH  24  25
ATOM     25  C   UNL A   1      38.773  20.200  25.578  1.00  0.00     0.116 C 
BRANCH  25  26
ATOM     26  N   UNL A   1      39.889  19.280  25.714  1.00  0.00    -0.352 N 
ATOM     27  C   UNL A   1      41.180  19.534  26.094  1.00  0.00     0.251 C 
ATOM     28  H   UNL A   1      39.688  18.339  25.504  1.00  0.00     0.163 HD
ATOM     29  O   UNL A   1      42.037  18.657  25.980  1.00  0.00    -0.269 OA
BRANCH  27  30
ATOM     30  C   UNL A   1      41.557  20.860  26.627  1.00  0.00     0.039 A 
ATOM     31  C   UNL A   1      42.004  21.840  25.736  1.00  0.00     0.014 A 
ATOM     32  C   UNL A   1      41.511  21.129  27.998  1.00  0.00     0.014 A 
ATOM     33  C   UNL A   1      42.376  23.097  26.215  1.00  0.00     0.010 A 
ATOM     34  C   UNL A   1      41.818  22.405  28.468  1.00  0.00     0.010 A 
ATOM     35  C   UNL A   1      42.273  23.394  27.584  1.00  0.00    -0.014 A 
BRANCH  35  36
ATOM     36  C   UNL A   1      42.680  24.721  28.109  1.00  0.00     0.031 A 
ATOM     37  C   UNL A   1      41.644  25.784  28.352  1.00  0.00     0.074 A 
ATOM     38  C   UNL A   1      43.982  24.985  28.329  1.00  0.00     0.049 A 
ATOM     39  N   UNL A   1      41.801  27.012  28.779  1.00  0.00    -0.248 NA
ATOM     40  C   UNL A   1      40.248  25.430  28.047  1.00  0.00     0.031 C 
ATOM     41  C   UNL A   1      45.086  24.055  28.091  1.00  0.00     0.029 A 
ATOM     42  N   UNL A   1      44.596  26.117  28.803  1.00  0.00    -0.354 N 
ATOM     43  C   UNL A   1      40.533  27.580  28.773  1.00  0.00     0.074 A 
ATOM     44  C   UNL A   1      39.625  26.581  28.253  1.00  0.00     0.031 C 
ATOM     45  C   UNL A   1      46.240  24.643  28.449  1.00  0.00     0.029 A 
ATOM     46  C   UNL A   1      45.960  25.998  28.914  1.00  0.00     0.049 A 
ATOM     47  H   UNL A   1      44.105  26.937  29.040  1.00  0.00     0.167 HD
ATOM     48  C   UNL A   1      40.154  28.814  29.183  1.00  0.00     0.037 A 
ATOM     49  C   UNL A   1      46.878  26.882  29.348  1.00  0.00     0.037 A 
ATOM     50  C   UNL A   1      41.053  29.792  29.739  1.00  0.00     0.049 A 
ATOM     51  C   UNL A   1      46.429  28.236  29.820  1.00  0.00     0.074 A 
ATOM     52  C   UNL A   1      40.757  31.042  30.252  1.00  0.00     0.029 A 
ATOM     53  N   UNL A   1      42.424  29.625  29.856  1.00  0.00    -0.354 N 
ATOM     54  N   UNL A   1      45.218  28.734  29.876  1.00  0.00    -0.248 NA
ATOM     55  C   UNL A   1      47.477  29.149  30.299  1.00  0.00     0.031 C 
ATOM     56  C   UNL A   1      41.954  31.647  30.647  1.00  0.00     0.029 A 
ATOM     57  C   UNL A   1      42.991  30.757  30.418  1.00  0.00     0.049 A 
ATOM     58  H   UNL A   1      42.921  28.821  29.580  1.00  0.00     0.167 HD
ATOM     59  C   UNL A   1      45.353  30.002  30.427  1.00  0.00     0.074 A 
ATOM     60  C   UNL A   1      46.763  30.193  30.696  1.00  0.00     0.031 C 
ATOM     61  C   UNL A   1      44.395  30.924  30.691  1.00  0.00     0.037 A 
BRANCH  48  62
ATOM     62  C   UNL A   1      38.703  29.172  29.048  1.00  0.00     0.057 A 
ATOM     63  C   UNL A   1      37.816  29.090  30.131  1.00  0.00     0.134 A 
ATOM     64  C   UNL A   1      38.190  29.625  27.827  1.00  0.00     0.134 A 
ATOM     65  F   UNL A   1      38.240  28.651  31.326  1.00  0.00    -0.206 F 
ATOM     66  C   UNL A   1      36.466  29.417  29.994  1.00  0.00     0.040 A 
ATOM     67  C   UNL A   1      36.848  29.980  27.686  1.00  0.00     0.040 A 
ATOM     68  F   UNL A   1      38.986  29.732  26.751  1.00  0.00    -0.206 F 
ATOM     69  C   UNL A   1      35.980  29.869  28.770  1.00  0.00     0.006 A 
ENDBRANCH  48  62
BRANCH  49  70
ATOM     70  C   UNL A   1      48.310  26.498  29.404  1.00  0.00     0.057 A 
ATOM     71  C   UNL A   1      49.174  26.797  28.343  1.00  0.00     0.134 A 
ATOM     72  C   UNL A   1      48.847  25.821  30.504  1.00  0.00     0.134 A 
ATOM     73  F   UNL A   1      48.712  27.428  27.254  1.00  0.00    -0.206 F 
ATOM     74  C   UNL A   1      50.517  26.418  28.366  1.00  0.00     0.040 A 
ATOM     75  C   UNL A   1      50.194  25.457  30.550  1.00  0.00     0.040 A 
ATOM     76  F   UNL A   1      48.072  25.514  31.555  1.00  0.00    -0.206 F 
ATOM     77  C   UNL A   1      51.031  25.748  29.475  1.00  0.00     0.006 A 
ENDBRANCH  49  70
BRANCH  61  78
ATOM     78  C   UNL A   1      44.836  32.202  31.342  1.00  0.00     0.057 A 
ATOM     79  C   UNL A   1      45.196  33.328  30.592  1.00  0.00     0.134 A 
ATOM     80  C   UNL A   1      44.869  32.313  32.737  1.00  0.00     0.134 A 
ATOM     81  F   UNL A   1      45.197  33.282  29.252  1.00  0.00    -0.206 F 
ATOM     82  C   UNL A   1      45.599  34.514  31.210  1.00  0.00     0.040 A 
ATOM     83  C   UNL A   1      45.246  33.500  33.365  1.00  0.00     0.040 A 
ATOM     84  F   UNL A   1      44.528  31.273  33.512  1.00  0.00    -0.206 F 
ATOM     85  C   UNL A   1      45.619  34.604  32.600  1.00  0.00     0.006 A 
ENDBRANCH  61  78
ENDBRANCH  35  36
ENDBRANCH  27  30
ENDBRANCH  25  26
ENDBRANCH  24  25
ENDBRANCH  23  24
ENDBRANCH   1  23
TORSDOF 16
ENDMDL
MODEL 2
REMARK VINA RESULT:     -11.0      5.296     10.012
REMARK SMILES C[C@@H](C(=O)NCCCCCCNC(=O)c1ccc(-c2c3nc(c(-c4c(F)cccc4F)c4ccc([nH]4)c(-c4c(F)cccc4F)c4nc(c(-c5c(F)cccc5F)c5ccc2[nH]5)C=C4)C=C3)cc1)c1ccc(Cc2cccs2)cc1F
REMARK SMILES IDX 8 1 7 2 6 3 5 4 3 5 4 6 2 8 1 9 69 10 70 11 80 12 71 13
REMARK SMILES IDX 79 14 81 15 72 16 73 17 74 18 75 19 78 20 76 21 77 22 9 23
REMARK SMILES IDX 10 24 11 25 12 26 13 27 14 29 15 30 16 31 68 32 17 33 67 34
REMARK SMILES IDX 18 35 19 36 20 37 61 38 21 39 66 40 60 41 62 42 22 43 65 44
REMARK SMILES IDX 59 45 58 46 23 48 49 49 32 50 48 51 33 52 36 53 47 54 63 55
REMARK SMILES IDX 34 56 35 57 46 59 64 60 37 61 24 62 25 63 30 64 26 65 27 66
REMARK SMILES IDX 29 67 31 68 28 69 50 70 51 71 56 72 52 73 53 74 55 75 57 76
REMARK SMILES IDX 54 77 38 78 39 79 44 80 40 81 41 82 43 83 45 84 42 85
REMARK H PARENT 5 7 12 28 62 47 36 58
REMARK Flexibility Score: inf
ROOT
ATOM      1  C   UNL A   1      31.700  29.553  25.264  1.00  0.00     0.002 C 
ENDROOT
BRANCH   1   2
ATOM      2  C   UNL A   1      33.129  29.014  25.116  1.00  0.00     0.021 C 
BRANCH   2   3
ATOM      3  C   UNL A   1      33.268  27.516  25.396  1.00  0.00     0.116 C 
BRANCH   3   4
ATOM      4  N   UNL A   1      33.841  26.831  24.258  1.00  0.00    -0.356 N 
ATOM      5  C   UNL A   1      33.399  25.746  23.560  1.00  0.00     0.227 C 
ATOM      6  O   UNL A   1      34.132  25.343  22.655  1.00  0.00    -0.274 OA
ATOM      7  H   UNL A   1      34.690  27.211  23.934  1.00  0.00     0.163 HD
BRANCH   5   8
ATOM      8  C   UNL A   1      32.018  25.142  23.865  1.00  0.00     0.108 C 
ATOM      9  C   UNL A   1      31.740  23.833  23.119  1.00  0.00     0.023 C 
BRANCH   8  10
ATOM     10  C   UNL A   1      30.899  26.142  23.609  1.00  0.00    -0.000 A 
ATOM     11  C   UNL A   1      29.743  26.127  24.403  1.00  0.00     0.008 A 
ATOM     12  C   UNL A   1      30.992  27.105  22.596  1.00  0.00     0.127 A 
ATOM     13  C   UNL A   1      28.710  27.039  24.168  1.00  0.00     0.004 A 
ATOM     14  C   UNL A   1      29.960  28.006  22.348  1.00  0.00     0.043 A 
ATOM     15  F   UNL A   1      32.089  27.172  21.828  1.00  0.00    -0.207 F 
ATOM     16  C   UNL A   1      28.801  27.979  23.130  1.00  0.00    -0.040 A 
BRANCH  16  17
ATOM     17  C   UNL A   1      27.666  28.940  22.855  1.00  0.00     0.082 C 
BRANCH  17  18
ATOM     18  C   UNL A   1      28.108  30.376  22.786  1.00  0.00     0.009 A 
ATOM     19  C   UNL A   1      28.521  31.202  23.816  1.00  0.00     0.016 A 
ATOM     20  S   UNL A   1      28.181  31.187  21.276  1.00  0.00    -0.149 S 
ATOM     21  C   UNL A   1      28.891  32.499  23.364  1.00  0.00     0.012 A 
ATOM     22  C   UNL A   1      28.764  32.623  21.999  1.00  0.00     0.065 A 
ENDBRANCH  17  18
ENDBRANCH  16  17
ENDBRANCH   8  10
ENDBRANCH   5   8
ENDBRANCH   3   4
ENDBRANCH   2   3
ENDBRANCH   1   2
BRANCH   1  23
ATOM     23  C   UNL A   1      31.404  30.266  26.587  1.00  0.00     0.002 C 
BRANCH  23  24
ATOM     24  C   UNL A   1      31.368  31.793  26.508  1.00  0.00     0.021 C 
BRANCH  24  25
ATOM     25  C   UNL A   1      32.687  32.481  26.843  1.00  0.00     0.116 C 
BRANCH  25  26
ATOM     26  N   UNL A   1      32.492  33.837  27.326  1.00  0.00    -0.352 N 
ATOM     27  C   UNL A   1      33.090  34.476  28.378  1.00  0.00     0.251 C 
ATOM     28  H   UNL A   1      31.835  34.373  26.825  1.00  0.00     0.163 HD
ATOM     29  O   UNL A   1      32.669  35.572  28.752  1.00  0.00    -0.269 OA
BRANCH  27  30
ATOM     30  C   UNL A   1      34.232  33.854  29.082  1.00  0.00     0.039 A 
ATOM     31  C   UNL A   1      35.528  34.261  28.751  1.00  0.00     0.014 A 
ATOM     32  C   UNL A   1      34.035  32.847  30.032  1.00  0.00     0.014 A 
ATOM     33  C   UNL A   1      36.623  33.681  29.394  1.00  0.00     0.010 A 
ATOM     34  C   UNL A   1      35.124  32.318  30.721  1.00  0.00     0.010 A 
ATOM     35  C   UNL A   1      36.429  32.714  30.394  1.00  0.00    -0.014 A 
BRANCH  35  36
ATOM     36  C   UNL A   1      37.585  32.079  31.073  1.00  0.00     0.031 A 
ATOM     37  C   UNL A   1      38.352  30.982  30.387  1.00  0.00     0.074 A 
ATOM     38  C   UNL A   1      37.920  32.458  32.321  1.00  0.00     0.049 A 
ATOM     39  N   UNL A   1      39.370  30.284  30.824  1.00  0.00    -0.248 NA
ATOM     40  C   UNL A   1      37.896  30.598  29.041  1.00  0.00     0.031 C 
ATOM     41  C   UNL A   1      37.229  33.477  33.111  1.00  0.00     0.029 A 
ATOM     42  N   UNL A   1      38.930  32.026  33.144  1.00  0.00    -0.354 N 
ATOM     43  C   UNL A   1      39.660  29.369  29.820  1.00  0.00     0.074 A 
ATOM     44  C   UNL A   1      38.681  29.565  28.773  1.00  0.00     0.031 C 
ATOM     45  C   UNL A   1      37.853  33.614  34.293  1.00  0.00     0.029 A 
ATOM     46  C   UNL A   1      38.969  32.675  34.355  1.00  0.00     0.049 A 
ATOM     47  H   UNL A   1      39.566  31.317  32.892  1.00  0.00     0.167 HD
ATOM     48  C   UNL A   1      40.664  28.462  29.763  1.00  0.00     0.037 A 
ATOM     49  C   UNL A   1      39.814  32.530  35.393  1.00  0.00     0.037 A 
ATOM     50  C   UNL A   1      41.662  28.296  30.788  1.00  0.00     0.049 A 
ATOM     51  C   UNL A   1      40.934  31.532  35.296  1.00  0.00     0.074 A 
ATOM     52  C   UNL A   1      42.762  27.457  30.792  1.00  0.00     0.029 A 
ATOM     53  N   UNL A   1      41.681  28.988  31.989  1.00  0.00    -0.354 N 
ATOM     54  N   UNL A   1      41.240  30.724  34.311  1.00  0.00    -0.248 NA
ATOM     55  C   UNL A   1      41.833  31.435  36.454  1.00  0.00     0.031 C 
ATOM     56  C   UNL A   1      43.427  27.615  32.013  1.00  0.00     0.029 A 
ATOM     57  C   UNL A   1      42.764  28.583  32.751  1.00  0.00     0.049 A 
ATOM     58  H   UNL A   1      41.021  29.667  32.260  1.00  0.00     0.167 HD
ATOM     59  C   UNL A   1      42.384  30.048  34.715  1.00  0.00     0.074 A 
ATOM     60  C   UNL A   1      42.722  30.547  36.031  1.00  0.00     0.031 C 
ATOM     61  C   UNL A   1      43.093  29.100  34.053  1.00  0.00     0.037 A 
BRANCH  48  62
ATOM     62  C   UNL A   1      40.732  27.581  28.550  1.00  0.00     0.057 A 
ATOM     63  C   UNL A   1      40.019  26.376  28.468  1.00  0.00     0.134 A 
ATOM     64  C   UNL A   1      41.503  27.951  27.442  1.00  0.00     0.134 A 
ATOM     65  F   UNL A   1      39.272  25.957  29.501  1.00  0.00    -0.206 F 
ATOM     66  C   UNL A   1      40.095  25.559  27.339  1.00  0.00     0.040 A 
ATOM     67  C   UNL A   1      41.565  27.154  26.297  1.00  0.00     0.040 A 
ATOM     68  F   UNL A   1      42.207  29.093  27.451  1.00  0.00    -0.206 F 
ATOM     69  C   UNL A   1      40.865  25.951  26.247  1.00  0.00     0.006 A 
ENDBRANCH  48  62
BRANCH  49  70
ATOM     70  C   UNL A   1      39.665  33.385  36.596  1.00  0.00     0.057 A 
ATOM     71  C   UNL A   1      40.362  34.595  36.707  1.00  0.00     0.134 A 
ATOM     72  C   UNL A   1      38.837  33.017  37.662  1.00  0.00     0.134 A 
ATOM     73  F   UNL A   1      41.185  34.991  35.725  1.00  0.00    -0.206 F 
ATOM     74  C   UNL A   1      40.257  35.398  37.843  1.00  0.00     0.040 A 
ATOM     75  C   UNL A   1      38.704  33.822  38.794  1.00  0.00     0.040 A 
ATOM     76  F   UNL A   1      38.137  31.874  37.612  1.00  0.00    -0.206 F 
ATOM     77  C   UNL A   1      39.422  35.012  38.890  1.00  0.00     0.006 A 
ENDBRANCH  49  70
BRANCH  61  78
ATOM     78  C   UNL A   1      44.329  28.578  34.724  1.00  0.00     0.057 A 
ATOM     79  C   UNL A   1      44.303  27.443  35.543  1.00  0.00     0.134 A 
ATOM     80  C   UNL A   1      45.565  29.204  34.521  1.00  0.00     0.134 A 
ATOM     81  F   UNL A   1      43.148  26.807  35.787  1.00  0.00    -0.206 F 
ATOM     82  C   UNL A   1      45.461  26.963  36.157  1.00  0.00     0.040 A 
ATOM     83  C   UNL A   1      46.733  28.719  35.109  1.00  0.00     0.040 A 
ATOM     84  F   UNL A   1      45.659  30.291  33.741  1.00  0.00    -0.206 F 
ATOM     85  C   UNL A   1      46.682  27.598  35.937  1.00  0.00     0.006 A 
ENDBRANCH  61  78
ENDBRANCH  35  36
ENDBRANCH  27  30
ENDBRANCH  25  26
ENDBRANCH  24  25
ENDBRANCH  23  24
ENDBRANCH   1  23
TORSDOF 16
ENDMDL
MODEL 3
REMARK VINA RESULT:     -11.0      2.809      7.393
REMARK SMILES C[C@@H](C(=O)NCCCCCCNC(=O)c1ccc(-c2c3nc(c(-c4c(F)cccc4F)c4ccc([nH]4)c(-c4c(F)cccc4F)c4nc(c(-c5c(F)cccc5F)c5ccc2[nH]5)C=C4)C=C3)cc1)c1ccc(Cc2cccs2)cc1F
REMARK SMILES IDX 8 1 7 2 6 3 5 4 3 5 4 6 2 8 1 9 69 10 70 11 80 12 71 13
REMARK SMILES IDX 79 14 81 15 72 16 73 17 74 18 75 19 78 20 76 21 77 22 9 23
REMARK SMILES IDX 10 24 11 25 12 26 13 27 14 29 15 30 16 31 68 32 17 33 67 34
REMARK SMILES IDX 18 35 19 36 20 37 61 38 21 39 66 40 60 41 62 42 22 43 65 44
REMARK SMILES IDX 59 45 58 46 23 48 49 49 32 50 48 51 33 52 36 53 47 54 63 55
REMARK SMILES IDX 34 56 35 57 46 59 64 60 37 61 24 62 25 63 30 64 26 65 27 66
REMARK SMILES IDX 29 67 31 68 28 69 50 70 51 71 56 72 52 73 53 74 55 75 57 76
REMARK SMILES IDX 54 77 38 78 39 79 44 80 40 81 41 82 43 83 45 84 42 85
REMARK H PARENT 5 7 12 28 62 47 36 58
REMARK Flexibility Score: inf
ROOT
ATOM      1  C   UNL A   1      41.621  21.623  27.098  1.00  0.00     0.002 C 
ENDROOT
BRANCH   1   2
ATOM      2  C   UNL A   1      40.482  22.433  26.464  1.00  0.00     0.021 C 
BRANCH   2   3
ATOM      3  C   UNL A   1      39.219  21.619  26.172  1.00  0.00     0.116 C 
BRANCH   3   4
ATOM      4  N   UNL A   1      38.478  22.197  25.071  1.00  0.00    -0.356 N 
ATOM      5  C   UNL A   1      37.223  21.929  24.610  1.00  0.00     0.227 C 
ATOM      6  O   UNL A   1      36.866  22.550  23.607  1.00  0.00    -0.274 OA
ATOM      7  H   UNL A   1      38.959  22.898  24.575  1.00  0.00     0.163 HD
BRANCH   5   8
ATOM      8  C   UNL A   1      36.307  20.961  25.378  1.00  0.00     0.108 C 
ATOM      9  C   UNL A   1      36.317  19.533  24.824  1.00  0.00     0.023 C 
BRANCH   8  10
ATOM     10  C   UNL A   1      34.880  21.485  25.460  1.00  0.00    -0.000 A 
ATOM     11  C   UNL A   1      33.843  20.817  24.793  1.00  0.00     0.008 A 
ATOM     12  C   UNL A   1      34.558  22.626  26.206  1.00  0.00     0.127 A 
ATOM     13  C   UNL A   1      32.532  21.297  24.860  1.00  0.00     0.004 A 
ATOM     14  C   UNL A   1      33.257  23.117  26.265  1.00  0.00     0.043 A 
ATOM     15  F   UNL A   1      35.513  23.283  26.881  1.00  0.00    -0.207 F 
ATOM     16  C   UNL A   1      32.227  22.459  25.585  1.00  0.00    -0.040 A 
BRANCH  16  17
ATOM     17  C   UNL A   1      30.813  22.997  25.625  1.00  0.00     0.082 C 
BRANCH  17  18
ATOM     18  C   UNL A   1      30.651  24.295  24.882  1.00  0.00     0.009 A 
ATOM     19  C   UNL A   1      30.711  24.521  23.519  1.00  0.00     0.016 A 
ATOM     20  S   UNL A   1      30.309  25.743  25.736  1.00  0.00    -0.149 S 
ATOM     21  C   UNL A   1      30.482  25.884  23.180  1.00  0.00     0.012 A 
ATOM     22  C   UNL A   1      30.239  26.657  24.293  1.00  0.00     0.065 A 
ENDBRANCH  17  18
ENDBRANCH  16  17
ENDBRANCH   8  10
ENDBRANCH   5   8
ENDBRANCH   3   4
ENDBRANCH   2   3
ENDBRANCH   1   2
BRANCH   1  23
ATOM     23  C   UNL A   1      41.395  20.109  27.151  1.00  0.00     0.002 C 
BRANCH  23  24
ATOM     24  C   UNL A   1      41.936  19.329  25.952  1.00  0.00     0.021 C 
BRANCH  24  25
ATOM     25  C   UNL A   1      43.328  18.737  26.150  1.00  0.00     0.116 C 
BRANCH  25  26
ATOM     26  N   UNL A   1      44.043  18.586  24.895  1.00  0.00    -0.352 N 
ATOM     27  C   UNL A   1      44.645  19.542  24.121  1.00  0.00     0.251 C 
ATOM     28  H   UNL A   1      44.104  17.666  24.551  1.00  0.00     0.163 HD
ATOM     29  O   UNL A   1      45.052  19.254  22.994  1.00  0.00    -0.269 OA
BRANCH  27  30
ATOM     30  C   UNL A   1      44.798  20.925  24.622  1.00  0.00     0.039 A 
ATOM     31  C   UNL A   1      44.185  21.966  23.918  1.00  0.00     0.014 A 
ATOM     32  C   UNL A   1      45.573  21.204  25.751  1.00  0.00     0.014 A 
ATOM     33  C   UNL A   1      44.324  23.281  24.365  1.00  0.00     0.010 A 
ATOM     34  C   UNL A   1      45.655  22.508  26.234  1.00  0.00     0.010 A 
ATOM     35  C   UNL A   1      45.048  23.562  25.534  1.00  0.00    -0.014 A 
BRANCH  35  36
ATOM     36  C   UNL A   1      45.216  24.957  26.011  1.00  0.00     0.031 A 
ATOM     37  C   UNL A   1      46.566  25.618  25.944  1.00  0.00     0.074 A 
ATOM     38  C   UNL A   1      44.168  25.615  26.542  1.00  0.00     0.049 A 
ATOM     39  N   UNL A   1      46.922  26.815  26.335  1.00  0.00    -0.248 NA
ATOM     40  C   UNL A   1      47.668  24.817  25.388  1.00  0.00     0.031 C 
ATOM     41  C   UNL A   1      42.820  25.070  26.705  1.00  0.00     0.029 A 
ATOM     42  N   UNL A   1      44.075  26.889  27.044  1.00  0.00    -0.354 N 
ATOM     43  C   UNL A   1      48.287  26.902  26.094  1.00  0.00     0.074 A 
ATOM     44  C   UNL A   1      48.706  25.620  25.569  1.00  0.00     0.031 C 
ATOM     45  C   UNL A   1      42.027  26.013  27.240  1.00  0.00     0.029 A 
ATOM     46  C   UNL A   1      42.815  27.217  27.483  1.00  0.00     0.049 A 
ATOM     47  H   UNL A   1      44.839  27.509  27.087  1.00  0.00     0.167 HD
ATOM     48  C   UNL A   1      49.115  27.959  26.271  1.00  0.00     0.037 A 
ATOM     49  C   UNL A   1      42.350  28.363  28.015  1.00  0.00     0.037 A 
ATOM     50  C   UNL A   1      48.690  29.246  26.754  1.00  0.00     0.049 A 
ATOM     51  C   UNL A   1      43.284  29.529  28.181  1.00  0.00     0.074 A 
ATOM     52  C   UNL A   1      49.435  30.403  26.900  1.00  0.00     0.029 A 
ATOM     53  N   UNL A   1      47.400  29.546  27.167  1.00  0.00    -0.354 N 
ATOM     54  N   UNL A   1      44.557  29.620  27.881  1.00  0.00    -0.248 NA
ATOM     55  C   UNL A   1      42.712  30.758  28.749  1.00  0.00     0.031 C 
ATOM     56  C   UNL A   1      48.605  31.394  27.435  1.00  0.00     0.029 A 
ATOM     57  C   UNL A   1      47.332  30.865  27.583  1.00  0.00     0.049 A 
ATOM     58  H   UNL A   1      46.645  28.914  27.164  1.00  0.00     0.167 HD
ATOM     59  C   UNL A   1      44.929  30.921  28.192  1.00  0.00     0.074 A 
ATOM     60  C   UNL A   1      43.745  31.586  28.696  1.00  0.00     0.031 C 
ATOM     61  C   UNL A   1      46.142  31.514  28.069  1.00  0.00     0.037 A 
BRANCH  48  62
ATOM     62  C   UNL A   1      50.566  27.765  25.938  1.00  0.00     0.057 A 
ATOM     63  C   UNL A   1      51.520  27.473  26.923  1.00  0.00     0.134 A 
ATOM     64  C   UNL A   1      51.011  27.849  24.613  1.00  0.00     0.134 A 
ATOM     65  F   UNL A   1      51.161  27.392  28.213  1.00  0.00    -0.206 F 
ATOM     66  C   UNL A   1      52.869  27.303  26.605  1.00  0.00     0.040 A 
ATOM     67  C   UNL A   1      52.352  27.653  24.280  1.00  0.00     0.040 A 
ATOM     68  F   UNL A   1      50.150  28.119  23.620  1.00  0.00    -0.206 F 
ATOM     69  C   UNL A   1      53.286  27.387  25.279  1.00  0.00     0.006 A 
ENDBRANCH  48  62
BRANCH  49  70
ATOM     70  C   UNL A   1      40.919  28.482  28.385  1.00  0.00     0.057 A 
ATOM     71  C   UNL A   1      40.477  28.121  29.664  1.00  0.00     0.134 A 
ATOM     72  C   UNL A   1      39.961  28.948  27.478  1.00  0.00     0.134 A 
ATOM     73  F   UNL A   1      41.346  27.650  30.570  1.00  0.00    -0.206 F 
ATOM     74  C   UNL A   1      39.130  28.199  30.020  1.00  0.00     0.040 A 
ATOM     75  C   UNL A   1      38.614  29.054  27.829  1.00  0.00     0.040 A 
ATOM     76  F   UNL A   1      40.324  29.318  26.241  1.00  0.00    -0.206 F 
ATOM     77  C   UNL A   1      38.195  28.671  29.101  1.00  0.00     0.006 A 
ENDBRANCH  49  70
BRANCH  61  78
ATOM     78  C   UNL A   1      46.236  32.964  28.442  1.00  0.00     0.057 A 
ATOM     79  C   UNL A   1      45.993  33.984  27.514  1.00  0.00     0.134 A 
ATOM     80  C   UNL A   1      46.545  33.341  29.754  1.00  0.00     0.134 A 
ATOM     81  F   UNL A   1      45.706  33.689  26.237  1.00  0.00    -0.206 F 
ATOM     82  C   UNL A   1      46.077  35.330  27.874  1.00  0.00     0.040 A 
ATOM     83  C   UNL A   1      46.608  34.682  30.133  1.00  0.00     0.040 A 
ATOM     84  F   UNL A   1      46.781  32.412  30.693  1.00  0.00    -0.206 F 
ATOM     85  C   UNL A   1      46.380  35.682  29.189  1.00  0.00     0.006 A 
ENDBRANCH  61  78
ENDBRANCH  35  36
ENDBRANCH  27  30
ENDBRANCH  25  26
ENDBRANCH  24  25
ENDBRANCH  23  24
ENDBRANCH   1  23
TORSDOF 16
ENDMDL
