MODEL 1
REMARK VINA RESULT:     -10.8      0.000      0.000
REMARK SMILES CC[C@H]1CC(=O)N(CCn2cc(C(=O)NCCCCCCNC(=O)c3ccc(-c4c5nc(c(-c6c(F)cccc6F)c6ccc([nH]6)c(-c6c(F)cccc6F)c6nc(c(-c7c(F)cccc7F)c7ccc4[nH]7)C=C6)C=C5)cc3)nn2)C1
REMARK SMILES IDX 17 1 16 2 15 3 13 4 14 5 12 7 10 8 11 9 80 10 79 11 9 12
REMARK SMILES IDX 8 13 7 14 3 15 4 16 81 17 5 18 6 19 2 20 1 21 18 22 19 23
REMARK SMILES IDX 20 24 21 25 22 26 23 27 24 29 25 30 26 31 78 32 27 33 77 34
REMARK SMILES IDX 28 35 29 36 30 37 71 38 31 39 76 40 70 41 72 42 32 43 75 44
REMARK SMILES IDX 69 45 68 46 33 48 59 49 42 50 58 51 43 52 46 53 57 54 73 55
REMARK SMILES IDX 44 56 45 57 56 59 74 60 47 61 34 62 35 63 40 64 36 65 37 66
REMARK SMILES IDX 39 67 41 68 38 69 60 70 61 71 66 72 62 73 63 74 65 75 67 76
REMARK SMILES IDX 64 77 48 78 49 79 54 80 50 81 51 82 53 83 55 84 52 85
REMARK H PARENT 15 6 22 28 72 47 46 58
REMARK Flexibility Score: inf
ROOT
ATOM      1  C   UNL A   1      39.107  23.222  26.621  1.00  0.00     0.021 C 
ENDROOT
BRANCH   1   2
ATOM      2  C   UNL A   1      37.771  23.186  25.885  1.00  0.00     0.116 C 
BRANCH   2   3
ATOM      3  N   UNL A   1      37.322  21.819  25.725  1.00  0.00    -0.351 N 
ATOM      4  C   UNL A   1      36.279  21.310  24.988  1.00  0.00     0.273 C 
ATOM      5  O   UNL A   1      36.142  20.089  24.950  1.00  0.00    -0.267 OA
ATOM      6  H   UNL A   1      37.845  21.149  26.221  1.00  0.00     0.163 HD
BRANCH   4   7
ATOM      7  C   UNL A   1      35.419  22.216  24.244  1.00  0.00     0.170 A 
ATOM      8  N   UNL A   1      33.838  23.491  23.492  1.00  0.00    -0.250 N 
ATOM      9  C   UNL A   1      34.078  22.513  24.411  1.00  0.00     0.145 A 
ATOM     10  N   UNL A   1      34.944  23.777  22.787  1.00  0.00    -0.067 NA
ATOM     11  N   UNL A   1      35.899  22.955  23.191  1.00  0.00    -0.125 NA
BRANCH   8  12
ATOM     12  C   UNL A   1      32.597  24.200  23.252  1.00  0.00     0.167 C 
BRANCH  12  13
ATOM     13  C   UNL A   1      31.716  24.381  24.492  1.00  0.00     0.143 C 
BRANCH  13  14
ATOM     14  N   UNL A   1      31.879  25.672  25.148  1.00  0.00    -0.341 N 
ATOM     15  C   UNL A   1      32.779  27.355  26.513  1.00  0.00     0.017 C 
ATOM     16  C   UNL A   1      31.538  27.894  25.795  1.00  0.00     0.105 C 
ATOM     17  C   UNL A   1      33.127  26.094  25.732  1.00  0.00     0.123 C 
ATOM     18  C   UNL A   1      30.918  26.670  25.161  1.00  0.00     0.222 C 
ATOM     19  O   UNL A   1      29.806  26.608  24.680  1.00  0.00    -0.275 OA
BRANCH  15  20
ATOM     20  C   UNL A   1      33.983  28.301  26.589  1.00  0.00     0.002 C 
ATOM     21  C   UNL A   1      33.642  29.775  26.460  1.00  0.00     0.004 C 
ENDBRANCH  15  20
ENDBRANCH  13  14
ENDBRANCH  12  13
ENDBRANCH   8  12
ENDBRANCH   4   7
ENDBRANCH   2   3
ENDBRANCH   1   2
BRANCH   1  22
ATOM     22  C   UNL A   1      39.926  21.937  26.457  1.00  0.00     0.002 C 
BRANCH  22  23
ATOM     23  C   UNL A   1      40.897  21.624  27.607  1.00  0.00     0.002 C 
BRANCH  23  24
ATOM     24  C   UNL A   1      41.899  20.487  27.356  1.00  0.00     0.021 C 
BRANCH  24  25
ATOM     25  C   UNL A   1      41.955  20.038  25.905  1.00  0.00     0.116 C 
BRANCH  25  26
ATOM     26  N   UNL A   1      43.321  19.754  25.470  1.00  0.00    -0.352 N 
ATOM     27  C   UNL A   1      44.298  20.644  25.079  1.00  0.00     0.251 C 
ATOM     28  H   UNL A   1      43.576  18.804  25.455  1.00  0.00     0.163 HD
ATOM     29  O   UNL A   1      45.243  20.280  24.390  1.00  0.00    -0.269 OA
BRANCH  27  30
ATOM     30  C   UNL A   1      44.193  22.045  25.515  1.00  0.00     0.039 A 
ATOM     31  C   UNL A   1      43.337  22.942  24.873  1.00  0.00     0.014 A 
ATOM     32  C   UNL A   1      44.962  22.447  26.604  1.00  0.00     0.014 A 
ATOM     33  C   UNL A   1      43.214  24.229  25.388  1.00  0.00     0.010 A 
ATOM     34  C   UNL A   1      44.706  23.645  27.214  1.00  0.00     0.010 A 
ATOM     35  C   UNL A   1      43.888  24.565  26.575  1.00  0.00    -0.014 A 
BRANCH  35  36
ATOM     36  C   UNL A   1      43.627  25.834  27.246  1.00  0.00     0.031 A 
ATOM     37  C   UNL A   1      44.584  26.899  26.844  1.00  0.00     0.074 A 
ATOM     38  C   UNL A   1      42.512  26.074  27.974  1.00  0.00     0.049 A 
ATOM     39  N   UNL A   1      45.542  27.397  27.550  1.00  0.00    -0.248 NA
ATOM     40  C   UNL A   1      44.612  27.321  25.431  1.00  0.00     0.031 C 
ATOM     41  C   UNL A   1      41.344  25.197  28.138  1.00  0.00     0.029 A 
ATOM     42  N   UNL A   1      42.125  27.203  28.637  1.00  0.00    -0.354 N 
ATOM     43  C   UNL A   1      46.110  28.393  26.758  1.00  0.00     0.074 A 
ATOM     44  C   UNL A   1      45.669  28.137  25.415  1.00  0.00     0.031 C 
ATOM     45  C   UNL A   1      40.303  25.905  28.628  1.00  0.00     0.029 A 
ATOM     46  C   UNL A   1      40.775  27.227  28.988  1.00  0.00     0.049 A 
ATOM     47  H   UNL A   1      42.746  27.937  28.850  1.00  0.00     0.167 HD
ATOM     48  C   UNL A   1      46.589  29.528  27.339  1.00  0.00     0.037 A 
ATOM     49  C   UNL A   1      40.095  28.271  29.524  1.00  0.00     0.037 A 
ATOM     50  C   UNL A   1      46.710  29.338  28.765  1.00  0.00     0.049 A 
ATOM     51  C   UNL A   1      41.097  29.182  30.121  1.00  0.00     0.074 A 
ATOM     52  C   UNL A   1      47.508  28.616  29.624  1.00  0.00     0.029 A 
ATOM     53  N   UNL A   1      45.565  29.660  29.442  1.00  0.00    -0.354 N 
ATOM     54  N   UNL A   1      41.820  28.875  31.160  1.00  0.00    -0.248 NA
ATOM     55  C   UNL A   1      41.573  30.312  29.338  1.00  0.00     0.031 C 
ATOM     56  C   UNL A   1      46.705  28.354  30.777  1.00  0.00     0.029 A 
ATOM     57  C   UNL A   1      45.468  28.977  30.620  1.00  0.00     0.049 A 
ATOM     58  H   UNL A   1      44.894  30.306  29.121  1.00  0.00     0.167 HD
ATOM     59  C   UNL A   1      43.045  29.460  30.908  1.00  0.00     0.074 A 
ATOM     60  C   UNL A   1      42.782  30.466  29.884  1.00  0.00     0.031 C 
ATOM     61  C   UNL A   1      44.199  28.845  31.302  1.00  0.00     0.037 A 
BRANCH  48  62
ATOM     62  C   UNL A   1      46.407  30.929  26.774  1.00  0.00     0.057 A 
ATOM     63  C   UNL A   1      47.508  31.808  26.789  1.00  0.00     0.134 A 
ATOM     64  C   UNL A   1      45.161  31.549  26.540  1.00  0.00     0.134 A 
ATOM     65  F   UNL A   1      48.749  31.353  27.019  1.00  0.00    -0.206 F 
ATOM     66  C   UNL A   1      47.368  33.198  26.662  1.00  0.00     0.040 A 
ATOM     67  C   UNL A   1      45.018  32.930  26.364  1.00  0.00     0.040 A 
ATOM     68  F   UNL A   1      44.003  30.884  26.572  1.00  0.00    -0.206 F 
ATOM     69  C   UNL A   1      46.118  33.765  26.456  1.00  0.00     0.006 A 
ENDBRANCH  48  62
BRANCH  49  70
ATOM     70  C   UNL A   1      38.686  28.686  29.336  1.00  0.00     0.057 A 
ATOM     71  C   UNL A   1      37.802  28.765  30.423  1.00  0.00     0.134 A 
ATOM     72  C   UNL A   1      38.265  29.315  28.151  1.00  0.00     0.134 A 
ATOM     73  F   UNL A   1      38.128  28.223  31.605  1.00  0.00    -0.206 F 
ATOM     74  C   UNL A   1      36.593  29.470  30.353  1.00  0.00     0.040 A 
ATOM     75  C   UNL A   1      37.059  30.020  28.069  1.00  0.00     0.040 A 
ATOM     76  F   UNL A   1      39.056  29.350  27.070  1.00  0.00    -0.206 F 
ATOM     77  C   UNL A   1      36.226  30.116  29.178  1.00  0.00     0.006 A 
ENDBRANCH  49  70
BRANCH  61  78
ATOM     78  C   UNL A   1      44.108  27.865  32.432  1.00  0.00     0.057 A 
ATOM     79  C   UNL A   1      43.979  26.476  32.294  1.00  0.00     0.134 A 
ATOM     80  C   UNL A   1      44.228  28.366  33.735  1.00  0.00     0.134 A 
ATOM     81  F   UNL A   1      43.938  25.899  31.086  1.00  0.00    -0.206 F 
ATOM     82  C   UNL A   1      43.928  25.632  33.408  1.00  0.00     0.040 A 
ATOM     83  C   UNL A   1      44.216  27.532  34.852  1.00  0.00     0.040 A 
ATOM     84  F   UNL A   1      44.394  29.682  33.939  1.00  0.00    -0.206 F 
ATOM     85  C   UNL A   1      44.051  26.159  34.691  1.00  0.00     0.006 A 
ENDBRANCH  61  78
ENDBRANCH  35  36
ENDBRANCH  27  30
ENDBRANCH  25  26
ENDBRANCH  24  25
ENDBRANCH  23  24
ENDBRANCH  22  23
ENDBRANCH   1  22
TORSDOF 17
ENDMDL
MODEL 2
REMARK VINA RESULT:     -10.6      2.271      3.645
REMARK SMILES CC[C@H]1CC(=O)N(CCn2cc(C(=O)NCCCCCCNC(=O)c3ccc(-c4c5nc(c(-c6c(F)cccc6F)c6ccc([nH]6)c(-c6c(F)cccc6F)c6nc(c(-c7c(F)cccc7F)c7ccc4[nH]7)C=C6)C=C5)cc3)nn2)C1
REMARK SMILES IDX 17 1 16 2 15 3 13 4 14 5 12 7 10 8 11 9 80 10 79 11 9 12
REMARK SMILES IDX 8 13 7 14 3 15 4 16 81 17 5 18 6 19 2 20 1 21 18 22 19 23
REMARK SMILES IDX 20 24 21 25 22 26 23 27 24 29 25 30 26 31 78 32 27 33 77 34
REMARK SMILES IDX 28 35 29 36 30 37 71 38 31 39 76 40 70 41 72 42 32 43 75 44
REMARK SMILES IDX 69 45 68 46 33 48 59 49 42 50 58 51 43 52 46 53 57 54 73 55
REMARK SMILES IDX 44 56 45 57 56 59 74 60 47 61 34 62 35 63 40 64 36 65 37 66
REMARK SMILES IDX 39 67 41 68 38 69 60 70 61 71 66 72 62 73 63 74 65 75 67 76
REMARK SMILES IDX 64 77 48 78 49 79 54 80 50 81 51 82 53 83 55 84 52 85
REMARK H PARENT 15 6 22 28 72 47 46 58
REMARK Flexibility Score: inf
ROOT
ATOM      1  C   UNL A   1      39.680  20.299  25.983  1.00  0.00     0.021 C 
ENDROOT
BRANCH   1   2
ATOM      2  C   UNL A   1      38.546  21.230  25.565  1.00  0.00     0.116 C 
BRANCH   2   3
ATOM      3  N   UNL A   1      38.768  22.561  26.090  1.00  0.00    -0.351 N 
ATOM      4  C   UNL A   1      37.906  23.627  26.193  1.00  0.00     0.273 C 
ATOM      5  O   UNL A   1      38.312  24.644  26.752  1.00  0.00    -0.267 OA
ATOM      6  H   UNL A   1      39.677  22.729  26.425  1.00  0.00     0.163 HD
BRANCH   4   7
ATOM      7  C   UNL A   1      36.546  23.499  25.695  1.00  0.00     0.170 A 
ATOM      8  N   UNL A   1      34.408  23.299  25.410  1.00  0.00    -0.250 N 
ATOM      9  C   UNL A   1      35.377  23.179  26.362  1.00  0.00     0.145 A 
ATOM     10  N   UNL A   1      34.932  23.653  24.227  1.00  0.00    -0.067 NA
ATOM     11  N   UNL A   1      36.246  23.711  24.372  1.00  0.00    -0.125 NA
BRANCH   8  12
ATOM     12  C   UNL A   1      32.980  23.112  25.567  1.00  0.00     0.167 C 
BRANCH  12  13
ATOM     13  C   UNL A   1      32.272  22.539  24.335  1.00  0.00     0.143 C 
BRANCH  13  14
ATOM     14  N   UNL A   1      32.427  21.098  24.183  1.00  0.00    -0.341 N 
ATOM     15  C   UNL A   1      33.009  18.878  24.673  1.00  0.00     0.017 C 
ATOM     16  C   UNL A   1      32.333  18.934  23.300  1.00  0.00     0.105 C 
ATOM     17  C   UNL A   1      32.655  20.219  25.303  1.00  0.00     0.123 C 
ATOM     18  C   UNL A   1      32.239  20.411  22.995  1.00  0.00     0.222 C 
ATOM     19  O   UNL A   1      31.968  20.896  21.916  1.00  0.00    -0.275 OA
BRANCH  15  20
ATOM     20  C   UNL A   1      32.594  17.719  25.586  1.00  0.00     0.002 C 
ATOM     21  C   UNL A   1      33.508  16.508  25.529  1.00  0.00     0.004 C 
ENDBRANCH  15  20
ENDBRANCH  13  14
ENDBRANCH  12  13
ENDBRANCH   8  12
ENDBRANCH   4   7
ENDBRANCH   2   3
ENDBRANCH   1   2
BRANCH   1  22
ATOM     22  C   UNL A   1      40.668  20.947  26.960  1.00  0.00     0.002 C 
BRANCH  22  23
ATOM     23  C   UNL A   1      42.115  20.436  26.869  1.00  0.00     0.002 C 
BRANCH  23  24
ATOM     24  C   UNL A   1      42.329  19.155  26.049  1.00  0.00     0.021 C 
BRANCH  24  25
ATOM     25  C   UNL A   1      43.769  18.671  26.046  1.00  0.00     0.116 C 
BRANCH  25  26
ATOM     26  N   UNL A   1      44.350  18.683  24.705  1.00  0.00    -0.352 N 
ATOM     27  C   UNL A   1      44.578  19.762  23.879  1.00  0.00     0.251 C 
ATOM     28  H   UNL A   1      44.613  17.805  24.345  1.00  0.00     0.163 HD
ATOM     29  O   UNL A   1      44.705  19.615  22.669  1.00  0.00    -0.269 OA
BRANCH  27  30
ATOM     30  C   UNL A   1      44.678  21.102  24.479  1.00  0.00     0.039 A 
ATOM     31  C   UNL A   1      43.806  22.128  24.111  1.00  0.00     0.014 A 
ATOM     32  C   UNL A   1      45.661  21.311  25.443  1.00  0.00     0.014 A 
ATOM     33  C   UNL A   1      43.893  23.346  24.779  1.00  0.00     0.010 A 
ATOM     34  C   UNL A   1      45.626  22.439  26.218  1.00  0.00     0.010 A 
ATOM     35  C   UNL A   1      44.794  23.485  25.848  1.00  0.00    -0.014 A 
BRANCH  35  36
ATOM     36  C   UNL A   1      44.771  24.675  26.692  1.00  0.00     0.031 A 
ATOM     37  C   UNL A   1      45.973  25.529  26.505  1.00  0.00     0.074 A 
ATOM     38  C   UNL A   1      43.682  25.068  27.393  1.00  0.00     0.049 A 
ATOM     39  N   UNL A   1      46.958  25.685  27.325  1.00  0.00    -0.248 NA
ATOM     40  C   UNL A   1      46.214  26.122  25.177  1.00  0.00     0.031 C 
ATOM     41  C   UNL A   1      42.337  24.476  27.364  1.00  0.00     0.029 A 
ATOM     42  N   UNL A   1      43.507  26.154  28.201  1.00  0.00    -0.354 N 
ATOM     43  C   UNL A   1      47.799  26.618  26.725  1.00  0.00     0.074 A 
ATOM     44  C   UNL A   1      47.426  26.661  25.338  1.00  0.00     0.031 C 
ATOM     45  C   UNL A   1      41.445  25.336  27.904  1.00  0.00     0.029 A 
ATOM     46  C   UNL A   1      42.173  26.447  28.485  1.00  0.00     0.049 A 
ATOM     47  H   UNL A   1      44.257  26.684  28.554  1.00  0.00     0.167 HD
ATOM     48  C   UNL A   1      48.472  27.517  27.495  1.00  0.00     0.037 A 
ATOM     49  C   UNL A   1      41.704  27.538  29.141  1.00  0.00     0.037 A 
ATOM     50  C   UNL A   1      48.428  27.110  28.879  1.00  0.00     0.049 A 
ATOM     51  C   UNL A   1      42.831  28.096  29.918  1.00  0.00     0.074 A 
ATOM     52  C   UNL A   1      48.968  26.110  29.656  1.00  0.00     0.029 A 
ATOM     53  N   UNL A   1      47.333  27.597  29.541  1.00  0.00    -0.354 N 
ATOM     54  N   UNL A   1      43.378  27.487  30.933  1.00  0.00    -0.248 NA
ATOM     55  C   UNL A   1      43.614  29.179  29.342  1.00  0.00     0.031 C 
ATOM     56  C   UNL A   1      48.034  25.887  30.714  1.00  0.00     0.029 A 
ATOM     57  C   UNL A   1      46.986  26.800  30.594  1.00  0.00     0.049 A 
ATOM     58  H   UNL A   1      46.854  28.420  29.290  1.00  0.00     0.167 HD
ATOM     59  C   UNL A   1      44.720  27.796  30.833  1.00  0.00     0.074 A 
ATOM     60  C   UNL A   1      44.777  28.967  29.964  1.00  0.00     0.031 C 
ATOM     61  C   UNL A   1      45.668  26.878  31.185  1.00  0.00     0.037 A 
BRANCH  48  62
ATOM     62  C   UNL A   1      48.659  28.986  27.143  1.00  0.00     0.057 A 
ATOM     63  C   UNL A   1      49.947  29.546  27.256  1.00  0.00     0.134 A 
ATOM     64  C   UNL A   1      47.615  29.929  27.034  1.00  0.00     0.134 A 
ATOM     65  F   UNL A   1      51.029  28.762  27.385  1.00  0.00    -0.206 F 
ATOM     66  C   UNL A   1      50.167  30.928  27.334  1.00  0.00     0.040 A 
ATOM     67  C   UNL A   1      47.829  31.311  27.063  1.00  0.00     0.040 A 
ATOM     68  F   UNL A   1      46.325  29.582  27.001  1.00  0.00    -0.206 F 
ATOM     69  C   UNL A   1      49.105  31.817  27.246  1.00  0.00     0.006 A 
ENDBRANCH  48  62
BRANCH  49  70
ATOM     70  C   UNL A   1      40.445  28.295  28.949  1.00  0.00     0.057 A 
ATOM     71  C   UNL A   1      40.146  28.906  27.722  1.00  0.00     0.134 A 
ATOM     72  C   UNL A   1      39.376  28.168  29.853  1.00  0.00     0.134 A 
ATOM     73  F   UNL A   1      41.092  29.044  26.783  1.00  0.00    -0.206 F 
ATOM     74  C   UNL A   1      38.849  29.320  27.390  1.00  0.00     0.040 A 
ATOM     75  C   UNL A   1      38.077  28.581  29.534  1.00  0.00     0.040 A 
ATOM     76  F   UNL A   1      39.537  27.550  31.030  1.00  0.00    -0.206 F 
ATOM     77  C   UNL A   1      37.805  29.142  28.291  1.00  0.00     0.006 A 
ENDBRANCH  49  70
BRANCH  61  78
ATOM     78  C   UNL A   1      45.264  25.801  32.146  1.00  0.00     0.057 A 
ATOM     79  C   UNL A   1      44.719  24.560  31.791  1.00  0.00     0.134 A 
ATOM     80  C   UNL A   1      45.513  26.021  33.506  1.00  0.00     0.134 A 
ATOM     81  F   UNL A   1      44.520  24.228  30.508  1.00  0.00    -0.206 F 
ATOM     82  C   UNL A   1      44.394  23.601  32.757  1.00  0.00     0.040 A 
ATOM     83  C   UNL A   1      45.229  25.060  34.475  1.00  0.00     0.040 A 
ATOM     84  F   UNL A   1      46.071  27.173  33.914  1.00  0.00    -0.206 F 
ATOM     85  C   UNL A   1      44.654  23.849  34.102  1.00  0.00     0.006 A 
ENDBRANCH  61  78
ENDBRANCH  35  36
ENDBRANCH  27  30
ENDBRANCH  25  26
ENDBRANCH  24  25
ENDBRANCH  23  24
ENDBRANCH  22  23
ENDBRANCH   1  22
TORSDOF 17
ENDMDL
MODEL 3
REMARK VINA RESULT:     -10.5      3.377      9.147
REMARK SMILES CC[C@H]1CC(=O)N(CCn2cc(C(=O)NCCCCCCNC(=O)c3ccc(-c4c5nc(c(-c6c(F)cccc6F)c6ccc([nH]6)c(-c6c(F)cccc6F)c6nc(c(-c7c(F)cccc7F)c7ccc4[nH]7)C=C6)C=C5)cc3)nn2)C1
REMARK SMILES IDX 17 1 16 2 15 3 13 4 14 5 12 7 10 8 11 9 80 10 79 11 9 12
REMARK SMILES IDX 8 13 7 14 3 15 4 16 81 17 5 18 6 19 2 20 1 21 18 22 19 23
REMARK SMILES IDX 20 24 21 25 22 26 23 27 24 29 25 30 26 31 78 32 27 33 77 34
REMARK SMILES IDX 28 35 29 36 30 37 71 38 31 39 76 40 70 41 72 42 32 43 75 44
REMARK SMILES IDX 69 45 68 46 33 48 59 49 42 50 58 51 43 52 46 53 57 54 73 55
REMARK SMILES IDX 44 56 45 57 56 59 74 60 47 61 34 62 35 63 40 64 36 65 37 66
REMARK SMILES IDX 39 67 41 68 38 69 60 70 61 71 66 72 62 73 63 74 65 75 67 76
REMARK SMILES IDX 64 77 48 78 49 79 54 80 50 81 51 82 53 83 55 84 52 85
REMARK H PARENT 15 6 22 28 72 47 46 58
REMARK Flexibility Score: inf
ROOT
ATOM      1  C   UNL A   1      34.864  30.308  27.411  1.00  0.00     0.021 C 
ENDROOT
BRANCH   1   2
ATOM      2  C   UNL A   1      34.212  29.064  26.815  1.00  0.00     0.116 C 
BRANCH   2   3
ATOM      3  N   UNL A   1      33.185  29.440  25.866  1.00  0.00    -0.351 N 
ATOM      4  C   UNL A   1      32.143  28.705  25.352  1.00  0.00     0.273 C 
ATOM      5  O   UNL A   1      31.347  29.276  24.608  1.00  0.00    -0.267 OA
ATOM      6  H   UNL A   1      33.241  30.366  25.539  1.00  0.00     0.163 HD
BRANCH   4   7
ATOM      7  C   UNL A   1      31.988  27.313  25.742  1.00  0.00     0.170 A 
ATOM      8  N   UNL A   1      32.168  25.185  26.102  1.00  0.00    -0.250 N 
ATOM      9  C   UNL A   1      32.690  26.190  25.343  1.00  0.00     0.145 A 
ATOM     10  N   UNL A   1      31.198  25.640  26.909  1.00  0.00    -0.067 NA
ATOM     11  N   UNL A   1      31.030  26.927  26.648  1.00  0.00    -0.125 NA
BRANCH   8  12
ATOM     12  C   UNL A   1      32.561  23.791  26.121  1.00  0.00     0.167 C 
BRANCH  12  13
ATOM     13  C   UNL A   1      32.886  23.200  24.744  1.00  0.00     0.143 C 
BRANCH  13  14
ATOM     14  N   UNL A   1      34.313  23.051  24.489  1.00  0.00    -0.341 N 
ATOM     15  C   UNL A   1      36.576  22.544  24.845  1.00  0.00     0.017 C 
ATOM     16  C   UNL A   1      36.391  23.065  23.416  1.00  0.00     0.105 C 
ATOM     17  C   UNL A   1      35.160  22.201  25.289  1.00  0.00     0.123 C 
ATOM     18  C   UNL A   1      34.972  23.585  23.394  1.00  0.00     0.222 C 
ATOM     19  O   UNL A   1      34.485  24.277  22.525  1.00  0.00    -0.275 OA
BRANCH  15  20
ATOM     20  C   UNL A   1      37.508  21.338  25.012  1.00  0.00     0.002 C 
ATOM     21  C   UNL A   1      38.796  21.630  25.762  1.00  0.00     0.004 C 
ENDBRANCH  15  20
ENDBRANCH  13  14
ENDBRANCH  12  13
ENDBRANCH   8  12
ENDBRANCH   4   7
ENDBRANCH   2   3
ENDBRANCH   1   2
BRANCH   1  22
ATOM     22  C   UNL A   1      33.864  31.426  27.724  1.00  0.00     0.002 C 
BRANCH  22  23
ATOM     23  C   UNL A   1      34.487  32.794  28.046  1.00  0.00     0.002 C 
BRANCH  23  24
ATOM     24  C   UNL A   1      33.504  33.912  28.429  1.00  0.00     0.021 C 
BRANCH  24  25
ATOM     25  C   UNL A   1      34.181  35.141  29.012  1.00  0.00     0.116 C 
BRANCH  25  26
ATOM     26  N   UNL A   1      33.657  35.482  30.333  1.00  0.00    -0.352 N 
ATOM     27  C   UNL A   1      33.838  34.816  31.526  1.00  0.00     0.251 C 
ATOM     28  H   UNL A   1      33.101  36.294  30.376  1.00  0.00     0.163 HD
ATOM     29  O   UNL A   1      33.060  34.972  32.460  1.00  0.00    -0.269 OA
BRANCH  27  30
ATOM     30  C   UNL A   1      34.995  33.918  31.664  1.00  0.00     0.039 A 
ATOM     31  C   UNL A   1      34.841  32.530  31.647  1.00  0.00     0.014 A 
ATOM     32  C   UNL A   1      36.255  34.496  31.794  1.00  0.00     0.014 A 
ATOM     33  C   UNL A   1      35.982  31.735  31.691  1.00  0.00     0.010 A 
ATOM     34  C   UNL A   1      37.376  33.723  31.655  1.00  0.00     0.010 A 
ATOM     35  C   UNL A   1      37.250  32.342  31.674  1.00  0.00    -0.014 A 
BRANCH  35  36
ATOM     36  C   UNL A   1      38.458  31.540  31.520  1.00  0.00     0.031 A 
ATOM     37  C   UNL A   1      39.083  31.195  32.824  1.00  0.00     0.074 A 
ATOM     38  C   UNL A   1      38.839  30.986  30.345  1.00  0.00     0.049 A 
ATOM     39  N   UNL A   1      40.172  31.675  33.322  1.00  0.00    -0.248 NA
ATOM     40  C   UNL A   1      38.312  30.375  33.778  1.00  0.00     0.031 C 
ATOM     41  C   UNL A   1      38.098  30.983  29.076  1.00  0.00     0.029 A 
ATOM     42  N   UNL A   1      39.921  30.206  30.055  1.00  0.00    -0.354 N 
ATOM     43  C   UNL A   1      40.361  31.001  34.527  1.00  0.00     0.074 A 
ATOM     44  C   UNL A   1      39.094  30.413  34.859  1.00  0.00     0.031 C 
ATOM     45  C   UNL A   1      38.613  30.049  28.246  1.00  0.00     0.029 A 
ATOM     46  C   UNL A   1      39.826  29.524  28.841  1.00  0.00     0.049 A 
ATOM     47  H   UNL A   1      40.701  30.132  30.650  1.00  0.00     0.167 HD
ATOM     48  C   UNL A   1      41.623  30.698  34.941  1.00  0.00     0.037 A 
ATOM     49  C   UNL A   1      40.682  28.583  28.371  1.00  0.00     0.037 A 
ATOM     50  C   UNL A   1      42.587  31.445  34.171  1.00  0.00     0.049 A 
ATOM     51  C   UNL A   1      41.958  28.753  29.098  1.00  0.00     0.074 A 
ATOM     52  C   UNL A   1      42.991  32.757  34.056  1.00  0.00     0.029 A 
ATOM     53  N   UNL A   1      42.974  30.796  33.029  1.00  0.00    -0.354 N 
ATOM     54  N   UNL A   1      42.730  29.794  28.963  1.00  0.00    -0.248 NA
ATOM     55  C   UNL A   1      42.212  27.933  30.274  1.00  0.00     0.031 C 
ATOM     56  C   UNL A   1      43.458  32.907  32.714  1.00  0.00     0.029 A 
ATOM     57  C   UNL A   1      43.391  31.672  32.069  1.00  0.00     0.049 A 
ATOM     58  H   UNL A   1      42.954  29.818  32.914  1.00  0.00     0.167 HD
ATOM     59  C   UNL A   1      43.241  30.006  30.229  1.00  0.00     0.074 A 
ATOM     60  C   UNL A   1      43.039  28.746  30.936  1.00  0.00     0.031 C 
ATOM     61  C   UNL A   1      43.465  31.275  30.680  1.00  0.00     0.037 A 
BRANCH  48  62
ATOM     62  C   UNL A   1      42.025  29.378  35.584  1.00  0.00     0.057 A 
ATOM     63  C   UNL A   1      42.982  29.398  36.618  1.00  0.00     0.134 A 
ATOM     64  C   UNL A   1      41.785  28.103  35.028  1.00  0.00     0.134 A 
ATOM     65  F   UNL A   1      43.319  30.549  37.221  1.00  0.00    -0.206 F 
ATOM     66  C   UNL A   1      43.698  28.257  37.009  1.00  0.00     0.040 A 
ATOM     67  C   UNL A   1      42.460  26.951  35.445  1.00  0.00     0.040 A 
ATOM     68  F   UNL A   1      40.972  27.908  33.986  1.00  0.00    -0.206 F 
ATOM     69  C   UNL A   1      43.444  27.028  36.416  1.00  0.00     0.006 A 
ENDBRANCH  48  62
BRANCH  49  70
ATOM     70  C   UNL A   1      40.416  27.383  27.544  1.00  0.00     0.057 A 
ATOM     71  C   UNL A   1      41.108  27.161  26.344  1.00  0.00     0.134 A 
ATOM     72  C   UNL A   1      39.716  26.281  28.066  1.00  0.00     0.134 A 
ATOM     73  F   UNL A   1      41.831  28.142  25.785  1.00  0.00    -0.206 F 
ATOM     74  C   UNL A   1      41.146  25.905  25.724  1.00  0.00     0.040 A 
ATOM     75  C   UNL A   1      39.744  25.022  27.455  1.00  0.00     0.040 A 
ATOM     76  F   UNL A   1      39.068  26.366  29.235  1.00  0.00    -0.206 F 
ATOM     77  C   UNL A   1      40.477  24.825  26.290  1.00  0.00     0.006 A 
ENDBRANCH  49  70
BRANCH  61  78
ATOM     78  C   UNL A   1      43.665  32.348  29.653  1.00  0.00     0.057 A 
ATOM     79  C   UNL A   1      42.718  33.316  29.295  1.00  0.00     0.134 A 
ATOM     80  C   UNL A   1      44.924  32.437  29.046  1.00  0.00     0.134 A 
ATOM     81  F   UNL A   1      41.513  33.361  29.882  1.00  0.00    -0.206 F 
ATOM     82  C   UNL A   1      43.000  34.300  28.342  1.00  0.00     0.040 A 
ATOM     83  C   UNL A   1      45.231  33.434  28.122  1.00  0.00     0.040 A 
ATOM     84  F   UNL A   1      45.893  31.565  29.370  1.00  0.00    -0.206 F 
ATOM     85  C   UNL A   1      44.262  34.363  27.756  1.00  0.00     0.006 A 
ENDBRANCH  61  78
ENDBRANCH  35  36
ENDBRANCH  27  30
ENDBRANCH  25  26
ENDBRANCH  24  25
ENDBRANCH  23  24
ENDBRANCH  22  23
ENDBRANCH   1  22
TORSDOF 17
ENDMDL
