MODEL 1
REMARK VINA RESULT:     -10.7      0.000      0.000
REMARK SMILES CCOC(=O)NC(=O)COc1csc(C(=O)NCCCCCCNC(=O)c2ccc(-c3c4nc(c(-c5c(F)cccc5F)c5ccc([nH]5)c(-c5c(F)cccc5F)c5nc(c(-c6c(F)cccc6F)c6ccc3[nH]6)C=C5)C=C4)cc2)c1
REMARK SMILES IDX 19 1 18 2 17 3 15 4 16 5 14 7 11 8 12 9 81 10 13 11 10 12
REMARK SMILES IDX 9 13 7 14 4 15 5 16 6 17 8 19 3 20 2 21 1 22 20 23 21 24
REMARK SMILES IDX 22 25 23 26 24 27 25 28 26 30 27 31 28 32 80 33 29 34 79 35
REMARK SMILES IDX 30 36 31 37 32 38 73 39 33 40 78 41 72 42 74 43 34 44 77 45
REMARK SMILES IDX 71 46 70 47 35 49 61 50 44 51 60 52 45 53 48 54 59 55 75 56
REMARK SMILES IDX 46 57 47 58 58 60 76 61 49 62 36 63 37 64 42 65 38 66 39 67
REMARK SMILES IDX 41 68 43 69 40 70 62 71 63 72 68 73 64 74 65 75 67 76 69 77
REMARK SMILES IDX 66 78 50 79 51 80 56 81 52 82 53 83 55 84 57 85 54 86
REMARK H PARENT 17 6 6 18 24 29 74 48 48 59
REMARK Flexibility Score: inf
ROOT
ATOM      1  C   UNL A   1      33.498  28.650  26.894  1.00  0.00     0.021 C 
ENDROOT
BRANCH   1   2
ATOM      2  C   UNL A   1      34.210  27.817  25.826  1.00  0.00     0.116 C 
BRANCH   2   3
ATOM      3  N   UNL A   1      34.193  28.511  24.556  1.00  0.00    -0.351 N 
ATOM      4  C   UNL A   1      33.730  28.154  23.313  1.00  0.00     0.261 C 
ATOM      5  O   UNL A   1      33.869  29.012  22.437  1.00  0.00    -0.268 OA
ATOM      6  H   UNL A   1      34.586  29.414  24.590  1.00  0.00     0.163 HD
BRANCH   4   7
ATOM      7  C   UNL A   1      33.088  26.867  23.081  1.00  0.00     0.096 A 
ATOM      8  C   UNL A   1      32.470  24.616  23.102  1.00  0.00     0.131 A 
ATOM      9  C   UNL A   1      31.321  25.179  22.607  1.00  0.00     0.112 A 
ATOM     10  C   UNL A   1      33.505  25.566  23.287  1.00  0.00     0.072 A 
ATOM     11  S   UNL A   1      31.493  26.872  22.415  1.00  0.00    -0.135 S 
BRANCH   8  12
ATOM     12  O   UNL A   1      32.602  23.338  23.519  1.00  0.00    -0.483 OA
BRANCH  12  13
ATOM     13  C   UNL A   1      32.667  23.170  24.921  1.00  0.00     0.329 C 
BRANCH  13  14
ATOM     14  C   UNL A   1      31.970  21.938  25.488  1.00  0.00     0.267 C 
ATOM     15  C   UNL A   1      30.272  23.129  26.963  1.00  0.00     0.413 C 
ATOM     16  O   UNL A   1      29.283  22.950  27.661  1.00  0.00    -0.224 OA
ATOM     17  N   UNL A   1      30.906  22.067  26.352  1.00  0.00    -0.258 N 
ATOM     18  H   UNL A   1      30.504  21.200  26.589  1.00  0.00     0.176 HD
ATOM     19  O   UNL A   1      32.362  20.802  25.204  1.00  0.00    -0.271 OA
BRANCH  15  20
ATOM     20  O   UNL A   1      30.845  24.332  26.731  1.00  0.00    -0.450 OA
BRANCH  20  21
ATOM     21  C   UNL A   1      30.020  25.327  26.105  1.00  0.00     0.231 C 
ATOM     22  C   UNL A   1      30.736  26.664  26.004  1.00  0.00     0.049 C 
ENDBRANCH  20  21
ENDBRANCH  15  20
ENDBRANCH  13  14
ENDBRANCH  12  13
ENDBRANCH   8  12
ENDBRANCH   4   7
ENDBRANCH   2   3
ENDBRANCH   1   2
BRANCH   1  23
ATOM     23  C   UNL A   1      33.250  30.099  26.450  1.00  0.00     0.002 C 
BRANCH  23  24
ATOM     24  C   UNL A   1      31.771  30.498  26.371  1.00  0.00     0.002 C 
BRANCH  24  25
ATOM     25  C   UNL A   1      31.483  31.951  26.756  1.00  0.00     0.021 C 
BRANCH  25  26
ATOM     26  C   UNL A   1      32.677  32.667  27.376  1.00  0.00     0.116 C 
BRANCH  26  27
ATOM     27  N   UNL A   1      32.408  34.084  27.573  1.00  0.00    -0.352 N 
ATOM     28  C   UNL A   1      32.956  34.942  28.494  1.00  0.00     0.251 C 
ATOM     29  H   UNL A   1      31.743  34.479  26.964  1.00  0.00     0.163 HD
ATOM     30  O   UNL A   1      32.460  36.045  28.697  1.00  0.00    -0.269 OA
BRANCH  28  31
ATOM     31  C   UNL A   1      34.145  34.510  29.248  1.00  0.00     0.039 A 
ATOM     32  C   UNL A   1      33.987  33.935  30.510  1.00  0.00     0.014 A 
ATOM     33  C   UNL A   1      35.416  34.645  28.682  1.00  0.00     0.014 A 
ATOM     34  C   UNL A   1      35.103  33.432  31.179  1.00  0.00     0.010 A 
ATOM     35  C   UNL A   1      36.512  34.071  29.312  1.00  0.00     0.010 A 
ATOM     36  C   UNL A   1      36.367  33.460  30.568  1.00  0.00    -0.014 A 
BRANCH  36  37
ATOM     37  C   UNL A   1      37.558  32.855  31.211  1.00  0.00     0.031 A 
ATOM     38  C   UNL A   1      38.216  31.656  30.590  1.00  0.00     0.074 A 
ATOM     39  C   UNL A   1      37.982  33.322  32.401  1.00  0.00     0.049 A 
ATOM     40  N   UNL A   1      39.183  30.909  31.057  1.00  0.00    -0.248 NA
ATOM     41  C   UNL A   1      37.690  31.217  29.288  1.00  0.00     0.031 C 
ATOM     42  C   UNL A   1      37.394  34.449  33.127  1.00  0.00     0.029 A 
ATOM     43  N   UNL A   1      38.993  32.890  33.220  1.00  0.00    -0.354 N 
ATOM     44  C   UNL A   1      39.365  29.902  30.118  1.00  0.00     0.074 A 
ATOM     45  C   UNL A   1      38.371  30.100  29.086  1.00  0.00     0.031 C 
ATOM     46  C   UNL A   1      38.063  34.627  34.277  1.00  0.00     0.029 A 
ATOM     47  C   UNL A   1      39.094  33.599  34.392  1.00  0.00     0.049 A 
ATOM     48  H   UNL A   1      39.591  32.141  32.990  1.00  0.00     0.167 HD
ATOM     49  C   UNL A   1      40.289  28.912  30.110  1.00  0.00     0.037 A 
ATOM     50  C   UNL A   1      39.910  33.430  35.449  1.00  0.00     0.037 A 
ATOM     51  C   UNL A   1      41.284  28.732  31.133  1.00  0.00     0.049 A 
ATOM     52  C   UNL A   1      40.925  32.321  35.422  1.00  0.00     0.074 A 
ATOM     53  C   UNL A   1      42.310  27.804  31.184  1.00  0.00     0.029 A 
ATOM     54  N   UNL A   1      41.373  29.491  32.292  1.00  0.00    -0.354 N 
ATOM     55  N   UNL A   1      41.135  31.416  34.496  1.00  0.00    -0.248 NA
ATOM     56  C   UNL A   1      41.818  32.212  36.584  1.00  0.00     0.031 C 
ATOM     57  C   UNL A   1      42.979  27.961  32.402  1.00  0.00     0.029 A 
ATOM     58  C   UNL A   1      42.416  29.030  33.079  1.00  0.00     0.049 A 
ATOM     59  H   UNL A   1      40.782  30.244  32.520  1.00  0.00     0.167 HD
ATOM     60  C   UNL A   1      42.204  30.651  34.946  1.00  0.00     0.074 A 
ATOM     61  C   UNL A   1      42.602  31.204  36.225  1.00  0.00     0.031 C 
ATOM     62  C   UNL A   1      42.804  29.591  34.350  1.00  0.00     0.037 A 
BRANCH  49  63
ATOM     63  C   UNL A   1      40.247  27.938  28.966  1.00  0.00     0.057 A 
ATOM     64  C   UNL A   1      40.950  28.159  27.773  1.00  0.00     0.134 A 
ATOM     65  C   UNL A   1      39.502  26.756  29.063  1.00  0.00     0.134 A 
ATOM     66  F   UNL A   1      41.676  29.276  27.607  1.00  0.00    -0.206 F 
ATOM     67  C   UNL A   1      40.881  27.262  26.706  1.00  0.00     0.040 A 
ATOM     68  C   UNL A   1      39.454  25.834  28.015  1.00  0.00     0.040 A 
ATOM     69  F   UNL A   1      38.811  26.475  30.177  1.00  0.00    -0.206 F 
ATOM     70  C   UNL A   1      40.135  26.091  26.828  1.00  0.00     0.006 A 
ENDBRANCH  49  63
BRANCH  50  71
ATOM     71  C   UNL A   1      39.808  34.349  36.611  1.00  0.00     0.057 A 
ATOM     72  C   UNL A   1      39.037  34.016  37.731  1.00  0.00     0.134 A 
ATOM     73  C   UNL A   1      40.493  35.570  36.640  1.00  0.00     0.134 A 
ATOM     74  F   UNL A   1      38.346  32.867  37.756  1.00  0.00    -0.206 F 
ATOM     75  C   UNL A   1      38.941  34.868  38.832  1.00  0.00     0.040 A 
ATOM     76  C   UNL A   1      40.426  36.420  37.745  1.00  0.00     0.040 A 
ATOM     77  F   UNL A   1      41.257  35.943  35.603  1.00  0.00    -0.206 F 
ATOM     78  C   UNL A   1      39.643  36.072  38.843  1.00  0.00     0.006 A 
ENDBRANCH  50  71
BRANCH  62  79
ATOM     79  C   UNL A   1      43.984  28.981  35.052  1.00  0.00     0.057 A 
ATOM     80  C   UNL A   1      43.846  27.918  35.954  1.00  0.00     0.134 A 
ATOM     81  C   UNL A   1      45.281  29.432  34.779  1.00  0.00     0.134 A 
ATOM     82  F   UNL A   1      42.631  27.445  36.269  1.00  0.00    -0.206 F 
ATOM     83  C   UNL A   1      44.956  27.341  36.574  1.00  0.00     0.040 A 
ATOM     84  C   UNL A   1      46.400  28.843  35.369  1.00  0.00     0.040 A 
ATOM     85  F   UNL A   1      45.484  30.441  33.917  1.00  0.00    -0.206 F 
ATOM     86  C   UNL A   1      46.238  27.798  36.275  1.00  0.00     0.006 A 
ENDBRANCH  62  79
ENDBRANCH  36  37
ENDBRANCH  28  31
ENDBRANCH  26  27
ENDBRANCH  25  26
ENDBRANCH  24  25
ENDBRANCH  23  24
ENDBRANCH   1  23
TORSDOF 18
ENDMDL
MODEL 2
REMARK VINA RESULT:     -10.6      0.551      6.192
REMARK SMILES CCOC(=O)NC(=O)COc1csc(C(=O)NCCCCCCNC(=O)c2ccc(-c3c4nc(c(-c5c(F)cccc5F)c5ccc([nH]5)c(-c5c(F)cccc5F)c5nc(c(-c6c(F)cccc6F)c6ccc3[nH]6)C=C5)C=C4)cc2)c1
REMARK SMILES IDX 19 1 18 2 17 3 15 4 16 5 14 7 11 8 12 9 81 10 13 11 10 12
REMARK SMILES IDX 9 13 7 14 4 15 5 16 6 17 8 19 3 20 2 21 1 22 20 23 21 24
REMARK SMILES IDX 22 25 23 26 24 27 25 28 26 30 27 31 28 32 80 33 29 34 79 35
REMARK SMILES IDX 30 36 31 37 32 38 73 39 33 40 78 41 72 42 74 43 34 44 77 45
REMARK SMILES IDX 71 46 70 47 35 49 61 50 44 51 60 52 45 53 48 54 59 55 75 56
REMARK SMILES IDX 46 57 47 58 58 60 76 61 49 62 36 63 37 64 42 65 38 66 39 67
REMARK SMILES IDX 41 68 43 69 40 70 62 71 63 72 68 73 64 74 65 75 67 76 69 77
REMARK SMILES IDX 66 78 50 79 51 80 56 81 52 82 53 83 55 84 57 85 54 86
REMARK H PARENT 17 6 6 18 24 29 74 48 48 59
REMARK Flexibility Score: inf
ROOT
ATOM      1  C   UNL A   1      32.693  28.592  26.951  1.00  0.00     0.021 C 
ENDROOT
BRANCH   1   2
ATOM      2  C   UNL A   1      33.898  28.026  26.198  1.00  0.00     0.116 C 
BRANCH   2   3
ATOM      3  N   UNL A   1      34.007  28.641  24.891  1.00  0.00    -0.351 N 
ATOM      4  C   UNL A   1      33.913  28.132  23.618  1.00  0.00     0.261 C 
ATOM      5  O   UNL A   1      34.050  28.959  22.714  1.00  0.00    -0.268 OA
ATOM      6  H   UNL A   1      34.180  29.610  24.920  1.00  0.00     0.163 HD
BRANCH   4   7
ATOM      7  C   UNL A   1      33.629  26.723  23.382  1.00  0.00     0.096 A 
ATOM      8  C   UNL A   1      33.347  24.414  23.574  1.00  0.00     0.131 A 
ATOM      9  C   UNL A   1      32.557  24.666  22.481  1.00  0.00     0.112 A 
ATOM     10  C   UNL A   1      34.027  25.570  24.031  1.00  0.00     0.072 A 
ATOM     11  S   UNL A   1      32.609  26.321  22.046  1.00  0.00    -0.135 S 
BRANCH   8  12
ATOM     12  O   UNL A   1      33.391  23.251  24.260  1.00  0.00    -0.483 OA
BRANCH  12  13
ATOM     13  C   UNL A   1      33.402  23.388  25.667  1.00  0.00     0.329 C 
BRANCH  13  14
ATOM     14  C   UNL A   1      32.856  22.208  26.465  1.00  0.00     0.267 C 
ATOM     15  C   UNL A   1      30.609  23.216  27.109  1.00  0.00     0.413 C 
ATOM     16  O   UNL A   1      29.530  22.957  27.625  1.00  0.00    -0.224 OA
ATOM     17  N   UNL A   1      31.595  22.256  27.017  1.00  0.00    -0.258 N 
ATOM     18  H   UNL A   1      31.338  21.407  27.446  1.00  0.00     0.176 HD
ATOM     19  O   UNL A   1      33.542  21.199  26.653  1.00  0.00    -0.271 OA
BRANCH  15  20
ATOM     20  O   UNL A   1      30.955  24.423  26.607  1.00  0.00    -0.450 OA
BRANCH  20  21
ATOM     21  C   UNL A   1      29.907  25.185  25.986  1.00  0.00     0.231 C 
ATOM     22  C   UNL A   1      30.458  26.387  25.238  1.00  0.00     0.049 C 
ENDBRANCH  20  21
ENDBRANCH  15  20
ENDBRANCH  13  14
ENDBRANCH  12  13
ENDBRANCH   8  12
ENDBRANCH   4   7
ENDBRANCH   2   3
ENDBRANCH   1   2
BRANCH   1  23
ATOM     23  C   UNL A   1      32.708  30.126  27.027  1.00  0.00     0.002 C 
BRANCH  23  24
ATOM     24  C   UNL A   1      31.527  30.812  26.326  1.00  0.00     0.002 C 
BRANCH  24  25
ATOM     25  C   UNL A   1      31.404  32.311  26.608  1.00  0.00     0.021 C 
BRANCH  25  26
ATOM     26  C   UNL A   1      32.633  32.908  27.284  1.00  0.00     0.116 C 
BRANCH  26  27
ATOM     27  N   UNL A   1      32.427  34.309  27.625  1.00  0.00    -0.352 N 
ATOM     28  C   UNL A   1      32.968  35.029  28.661  1.00  0.00     0.251 C 
ATOM     29  H   UNL A   1      31.819  34.806  27.032  1.00  0.00     0.163 HD
ATOM     30  O   UNL A   1      32.520  36.129  28.962  1.00  0.00    -0.269 OA
BRANCH  28  31
ATOM     31  C   UNL A   1      34.091  34.449  29.419  1.00  0.00     0.039 A 
ATOM     32  C   UNL A   1      33.836  33.770  30.611  1.00  0.00     0.014 A 
ATOM     33  C   UNL A   1      35.393  34.552  28.922  1.00  0.00     0.014 A 
ATOM     34  C   UNL A   1      34.885  33.132  31.274  1.00  0.00     0.010 A 
ATOM     35  C   UNL A   1      36.420  33.849  29.539  1.00  0.00     0.010 A 
ATOM     36  C   UNL A   1      36.176  33.134  30.722  1.00  0.00    -0.014 A 
BRANCH  36  37
ATOM     37  C   UNL A   1      37.295  32.393  31.352  1.00  0.00     0.031 A 
ATOM     38  C   UNL A   1      37.869  32.870  32.656  1.00  0.00     0.074 A 
ATOM     39  C   UNL A   1      37.857  31.355  30.703  1.00  0.00     0.049 A 
ATOM     40  N   UNL A   1      38.921  32.439  33.304  1.00  0.00    -0.248 NA
ATOM     41  C   UNL A   1      37.190  34.007  33.297  1.00  0.00     0.031 C 
ATOM     42  C   UNL A   1      37.421  30.830  29.408  1.00  0.00     0.029 A 
ATOM     43  N   UNL A   1      38.934  30.572  31.034  1.00  0.00    -0.354 N 
ATOM     44  C   UNL A   1      39.042  33.265  34.413  1.00  0.00     0.074 A 
ATOM     45  C   UNL A   1      37.993  34.256  34.320  1.00  0.00     0.031 C 
ATOM     46  C   UNL A   1      38.214  29.803  29.061  1.00  0.00     0.029 A 
ATOM     47  C   UNL A   1      39.241  29.629  30.083  1.00  0.00     0.049 A 
ATOM     48  H   UNL A   1      39.438  30.676  31.873  1.00  0.00     0.167 HD
ATOM     49  C   UNL A   1      39.938  33.194  35.426  1.00  0.00     0.037 A 
ATOM     50  C   UNL A   1      40.248  28.738  30.030  1.00  0.00     0.037 A 
ATOM     51  C   UNL A   1      40.969  32.194  35.519  1.00  0.00     0.049 A 
ATOM     52  C   UNL A   1      41.235  28.678  31.163  1.00  0.00     0.074 A 
ATOM     53  C   UNL A   1      41.883  31.990  36.538  1.00  0.00     0.029 A 
ATOM     54  N   UNL A   1      41.231  31.236  34.550  1.00  0.00    -0.354 N 
ATOM     55  N   UNL A   1      41.299  29.419  32.243  1.00  0.00    -0.248 NA
ATOM     56  C   UNL A   1      42.288  27.657  31.072  1.00  0.00     0.031 C 
ATOM     57  C   UNL A   1      42.736  30.950  36.158  1.00  0.00     0.029 A 
ATOM     58  C   UNL A   1      42.312  30.459  34.932  1.00  0.00     0.049 A 
ATOM     59  H   UNL A   1      40.723  31.125  33.714  1.00  0.00     0.167 HD
ATOM     60  C   UNL A   1      42.374  28.934  32.976  1.00  0.00     0.074 A 
ATOM     61  C   UNL A   1      42.929  27.830  32.219  1.00  0.00     0.031 C 
ATOM     62  C   UNL A   1      42.854  29.361  34.170  1.00  0.00     0.037 A 
BRANCH  49  63
ATOM     63  C   UNL A   1      39.848  34.239  36.503  1.00  0.00     0.057 A 
ATOM     64  C   UNL A   1      40.529  35.461  36.415  1.00  0.00     0.134 A 
ATOM     65  C   UNL A   1      39.059  34.023  37.640  1.00  0.00     0.134 A 
ATOM     66  F   UNL A   1      41.313  35.729  35.359  1.00  0.00    -0.206 F 
ATOM     67  C   UNL A   1      40.462  36.411  37.435  1.00  0.00     0.040 A 
ATOM     68  C   UNL A   1      38.955  34.982  38.650  1.00  0.00     0.040 A 
ATOM     69  F   UNL A   1      38.373  32.881  37.788  1.00  0.00    -0.206 F 
ATOM     70  C   UNL A   1      39.667  36.175  38.555  1.00  0.00     0.006 A 
ENDBRANCH  49  63
BRANCH  50  71
ATOM     71  C   UNL A   1      40.358  27.820  28.868  1.00  0.00     0.057 A 
ATOM     72  C   UNL A   1      39.661  26.608  28.835  1.00  0.00     0.134 A 
ATOM     73  C   UNL A   1      41.146  28.142  27.755  1.00  0.00     0.134 A 
ATOM     74  F   UNL A   1      38.902  26.237  29.877  1.00  0.00    -0.206 F 
ATOM     75  C   UNL A   1      39.751  25.742  27.744  1.00  0.00     0.040 A 
ATOM     76  C   UNL A   1      41.225  27.298  26.647  1.00  0.00     0.040 A 
ATOM     77  F   UNL A   1      41.831  29.295  27.720  1.00  0.00    -0.206 F 
ATOM     78  C   UNL A   1      40.530  26.090  26.642  1.00  0.00     0.006 A 
ENDBRANCH  50  71
BRANCH  62  79
ATOM     79  C   UNL A   1      44.014  28.609  34.758  1.00  0.00     0.057 A 
ATOM     80  C   UNL A   1      45.341  29.009  34.557  1.00  0.00     0.134 A 
ATOM     81  C   UNL A   1      43.792  27.496  35.580  1.00  0.00     0.134 A 
ATOM     82  F   UNL A   1      45.624  30.059  33.772  1.00  0.00    -0.206 F 
ATOM     83  C   UNL A   1      46.406  28.317  35.137  1.00  0.00     0.040 A 
ATOM     84  C   UNL A   1      44.847  26.815  36.190  1.00  0.00     0.040 A 
ATOM     85  F   UNL A   1      42.544  27.065  35.822  1.00  0.00    -0.206 F 
ATOM     86  C   UNL A   1      46.159  27.222  35.963  1.00  0.00     0.006 A 
ENDBRANCH  62  79
ENDBRANCH  36  37
ENDBRANCH  28  31
ENDBRANCH  26  27
ENDBRANCH  25  26
ENDBRANCH  24  25
ENDBRANCH  23  24
ENDBRANCH   1  23
TORSDOF 18
ENDMDL
MODEL 3
REMARK VINA RESULT:     -10.5      1.466      2.265
REMARK SMILES CCOC(=O)NC(=O)COc1csc(C(=O)NCCCCCCNC(=O)c2ccc(-c3c4nc(c(-c5c(F)cccc5F)c5ccc([nH]5)c(-c5c(F)cccc5F)c5nc(c(-c6c(F)cccc6F)c6ccc3[nH]6)C=C5)C=C4)cc2)c1
REMARK SMILES IDX 19 1 18 2 17 3 15 4 16 5 14 7 11 8 12 9 81 10 13 11 10 12
REMARK SMILES IDX 9 13 7 14 4 15 5 16 6 17 8 19 3 20 2 21 1 22 20 23 21 24
REMARK SMILES IDX 22 25 23 26 24 27 25 28 26 30 27 31 28 32 80 33 29 34 79 35
REMARK SMILES IDX 30 36 31 37 32 38 73 39 33 40 78 41 72 42 74 43 34 44 77 45
REMARK SMILES IDX 71 46 70 47 35 49 61 50 44 51 60 52 45 53 48 54 59 55 75 56
REMARK SMILES IDX 46 57 47 58 58 60 76 61 49 62 36 63 37 64 42 65 38 66 39 67
REMARK SMILES IDX 41 68 43 69 40 70 62 71 63 72 68 73 64 74 65 75 67 76 69 77
REMARK SMILES IDX 66 78 50 79 51 80 56 81 52 82 53 83 55 84 57 85 54 86
REMARK H PARENT 17 6 6 18 24 29 74 48 48 59
REMARK Flexibility Score: inf
ROOT
ATOM      1  C   UNL A   1      31.903  27.857  26.730  1.00  0.00     0.021 C 
ENDROOT
BRANCH   1   2
ATOM      2  C   UNL A   1      31.899  27.766  25.203  1.00  0.00     0.116 C 
BRANCH   2   3
ATOM      3  N   UNL A   1      30.576  27.426  24.724  1.00  0.00    -0.351 N 
ATOM      4  C   UNL A   1      30.070  26.299  24.122  1.00  0.00     0.261 C 
ATOM      5  O   UNL A   1      28.869  26.348  23.849  1.00  0.00    -0.268 OA
ATOM      6  H   UNL A   1      29.909  28.139  24.857  1.00  0.00     0.163 HD
BRANCH   4   7
ATOM      7  C   UNL A   1      30.904  25.131  23.874  1.00  0.00     0.096 A 
ATOM      8  C   UNL A   1      31.803  22.979  23.772  1.00  0.00     0.131 A 
ATOM      9  C   UNL A   1      32.492  23.579  22.749  1.00  0.00     0.112 A 
ATOM     10  C   UNL A   1      30.966  23.886  24.469  1.00  0.00     0.072 A 
ATOM     11  S   UNL A   1      32.079  25.235  22.611  1.00  0.00    -0.135 S 
BRANCH   8  12
ATOM     12  O   UNL A   1      31.778  21.654  24.032  1.00  0.00    -0.483 OA
BRANCH  12  13
ATOM     13  C   UNL A   1      32.364  21.275  25.261  1.00  0.00     0.329 C 
BRANCH  13  14
ATOM     14  C   UNL A   1      33.045  19.910  25.294  1.00  0.00     0.267 C 
ATOM     15  C   UNL A   1      35.447  20.697  25.001  1.00  0.00     0.413 C 
ATOM     16  O   UNL A   1      36.612  20.322  25.023  1.00  0.00    -0.224 OA
ATOM     17  N   UNL A   1      34.415  19.806  25.204  1.00  0.00    -0.258 N 
ATOM     18  H   UNL A   1      34.731  18.878  25.307  1.00  0.00     0.176 HD
ATOM     19  O   UNL A   1      32.380  18.873  25.377  1.00  0.00    -0.271 OA
BRANCH  15  20
ATOM     20  O   UNL A   1      35.051  21.970  24.771  1.00  0.00    -0.450 OA
BRANCH  20  21
ATOM     21  C   UNL A   1      35.723  22.998  25.516  1.00  0.00     0.231 C 
ATOM     22  C   UNL A   1      35.085  24.358  25.290  1.00  0.00     0.049 C 
ENDBRANCH  20  21
ENDBRANCH  15  20
ENDBRANCH  13  14
ENDBRANCH  12  13
ENDBRANCH   8  12
ENDBRANCH   4   7
ENDBRANCH   2   3
ENDBRANCH   1   2
BRANCH   1  23
ATOM     23  C   UNL A   1      31.973  29.305  27.238  1.00  0.00     0.002 C 
BRANCH  23  24
ATOM     24  C   UNL A   1      31.935  30.371  26.135  1.00  0.00     0.002 C 
BRANCH  24  25
ATOM     25  C   UNL A   1      31.611  31.784  26.627  1.00  0.00     0.021 C 
BRANCH  25  26
ATOM     26  C   UNL A   1      32.785  32.476  27.311  1.00  0.00     0.116 C 
BRANCH  26  27
ATOM     27  N   UNL A   1      32.507  33.884  27.554  1.00  0.00    -0.352 N 
ATOM     28  C   UNL A   1      33.032  34.709  28.517  1.00  0.00     0.251 C 
ATOM     29  H   UNL A   1      31.854  34.300  26.945  1.00  0.00     0.163 HD
ATOM     30  O   UNL A   1      32.528  35.803  28.749  1.00  0.00    -0.269 OA
BRANCH  28  31
ATOM     31  C   UNL A   1      34.207  34.253  29.280  1.00  0.00     0.039 A 
ATOM     32  C   UNL A   1      34.022  33.614  30.507  1.00  0.00     0.014 A 
ATOM     33  C   UNL A   1      35.490  34.430  28.754  1.00  0.00     0.014 A 
ATOM     34  C   UNL A   1      35.127  33.090  31.179  1.00  0.00     0.010 A 
ATOM     35  C   UNL A   1      36.576  33.837  29.384  1.00  0.00     0.010 A 
ATOM     36  C   UNL A   1      36.406  33.163  30.604  1.00  0.00    -0.014 A 
BRANCH  36  37
ATOM     37  C   UNL A   1      37.587  32.539  31.247  1.00  0.00     0.031 A 
ATOM     38  C   UNL A   1      38.274  31.379  30.586  1.00  0.00     0.074 A 
ATOM     39  C   UNL A   1      37.976  32.952  32.470  1.00  0.00     0.049 A 
ATOM     40  N   UNL A   1      39.238  30.620  31.041  1.00  0.00    -0.248 NA
ATOM     41  C   UNL A   1      37.786  30.999  29.252  1.00  0.00     0.031 C 
ATOM     42  C   UNL A   1      37.357  34.035  33.234  1.00  0.00     0.029 A 
ATOM     43  N   UNL A   1      38.970  32.490  33.293  1.00  0.00    -0.354 N 
ATOM     44  C   UNL A   1      39.456  29.662  30.060  1.00  0.00     0.074 A 
ATOM     45  C   UNL A   1      38.486  29.899  29.013  1.00  0.00     0.031 C 
ATOM     46  C   UNL A   1      37.994  34.163  34.408  1.00  0.00     0.029 A 
ATOM     47  C   UNL A   1      39.034  33.142  34.500  1.00  0.00     0.049 A 
ATOM     48  H   UNL A   1      39.583  31.759  33.042  1.00  0.00     0.167 HD
ATOM     49  C   UNL A   1      40.390  28.682  30.027  1.00  0.00     0.037 A 
ATOM     50  C   UNL A   1      39.824  32.930  35.568  1.00  0.00     0.037 A 
ATOM     51  C   UNL A   1      41.361  28.463  31.066  1.00  0.00     0.049 A 
ATOM     52  C   UNL A   1      40.852  31.834  35.513  1.00  0.00     0.074 A 
ATOM     53  C   UNL A   1      42.396  27.544  31.099  1.00  0.00     0.029 A 
ATOM     54  N   UNL A   1      41.412  29.165  32.262  1.00  0.00    -0.354 N 
ATOM     55  N   UNL A   1      41.096  30.978  34.550  1.00  0.00    -0.248 NA
ATOM     56  C   UNL A   1      41.717  31.677  36.691  1.00  0.00     0.031 C 
ATOM     57  C   UNL A   1      43.032  27.648  32.339  1.00  0.00     0.029 A 
ATOM     58  C   UNL A   1      42.440  28.677  33.053  1.00  0.00     0.049 A 
ATOM     59  H   UNL A   1      40.807  29.900  32.511  1.00  0.00     0.167 HD
ATOM     60  C   UNL A   1      42.162  30.203  34.990  1.00  0.00     0.074 A 
ATOM     61  C   UNL A   1      42.521  30.696  36.304  1.00  0.00     0.031 C 
ATOM     62  C   UNL A   1      42.789  29.179  34.359  1.00  0.00     0.037 A 
BRANCH  49  63
ATOM     63  C   UNL A   1      40.389  27.765  28.836  1.00  0.00     0.057 A 
ATOM     64  C   UNL A   1      39.639  26.581  28.806  1.00  0.00     0.134 A 
ATOM     65  C   UNL A   1      41.141  28.078  27.696  1.00  0.00     0.134 A 
ATOM     66  F   UNL A   1      38.904  26.214  29.868  1.00  0.00    -0.206 F 
ATOM     67  C   UNL A   1      39.669  25.723  27.706  1.00  0.00     0.040 A 
ATOM     68  C   UNL A   1      41.151  27.245  26.576  1.00  0.00     0.040 A 
ATOM     69  F   UNL A   1      41.876  29.198  27.650  1.00  0.00    -0.206 F 
ATOM     70  C   UNL A   1      40.422  26.058  26.583  1.00  0.00     0.006 A 
ENDBRANCH  49  63
BRANCH  50  71
ATOM     71  C   UNL A   1      39.682  33.790  36.771  1.00  0.00     0.057 A 
ATOM     72  C   UNL A   1      38.865  33.407  37.840  1.00  0.00     0.134 A 
ATOM     73  C   UNL A   1      40.374  35.002  36.888  1.00  0.00     0.134 A 
ATOM     74  F   UNL A   1      38.166  32.265  37.780  1.00  0.00    -0.206 F 
ATOM     75  C   UNL A   1      38.731  34.203  38.979  1.00  0.00     0.040 A 
ATOM     76  C   UNL A   1      40.268  35.795  38.031  1.00  0.00     0.040 A 
ATOM     77  F   UNL A   1      41.181  35.420  35.903  1.00  0.00    -0.206 F 
ATOM     78  C   UNL A   1      39.440  35.399  39.079  1.00  0.00     0.006 A 
ENDBRANCH  50  71
BRANCH  62  79
ATOM     79  C   UNL A   1      43.957  28.547  35.061  1.00  0.00     0.057 A 
ATOM     80  C   UNL A   1      43.814  27.418  35.877  1.00  0.00     0.134 A 
ATOM     81  C   UNL A   1      45.252  29.048  34.873  1.00  0.00     0.134 A 
ATOM     82  F   UNL A   1      42.602  26.894  36.110  1.00  0.00    -0.206 F 
ATOM     83  C   UNL A   1      44.915  26.824  36.497  1.00  0.00     0.040 A 
ATOM     84  C   UNL A   1      46.363  28.445  35.462  1.00  0.00     0.040 A 
ATOM     85  F   UNL A   1      45.460  30.122  34.094  1.00  0.00    -0.206 F 
ATOM     86  C   UNL A   1      46.195  27.332  36.283  1.00  0.00     0.006 A 
ENDBRANCH  62  79
ENDBRANCH  36  37
ENDBRANCH  28  31
ENDBRANCH  26  27
ENDBRANCH  25  26
ENDBRANCH  24  25
ENDBRANCH  23  24
ENDBRANCH   1  23
TORSDOF 18
ENDMDL
