MODEL 1
REMARK VINA RESULT:     -11.9      0.000      0.000
REMARK SMILES C#Cc1cc(Cl)c2c(c1)C=C(C(=O)NCCCCCCNC(=O)c1ccc(-c3c4nc(c(-c5c(F)cccc5F)c5ccc([nH]5)c(-c5c(F)cccc5F)c5nc(c(-c6c(F)cccc6F)c6ccc3[nH]6)C=C5)C=C4)cc1)[C@@H](C(F)(F)F)O2
REMARK SMILES IDX 18 1 17 2 16 3 15 4 14 5 12 6 13 7 11 9 3 10 4 11 9 12 5 13
REMARK SMILES IDX 8 14 6 15 7 16 10 17 83 18 78 19 2 20 1 21 79 22 80 23 81 24
REMARK SMILES IDX 82 25 19 26 20 27 21 28 22 29 23 31 24 32 25 33 77 34 26 35
REMARK SMILES IDX 76 36 27 37 28 38 29 39 70 40 30 41 75 42 69 43 71 44 31 45
REMARK SMILES IDX 74 46 68 47 67 48 32 50 58 51 41 52 57 53 42 54 45 55 56 56
REMARK SMILES IDX 72 57 43 58 44 59 55 61 73 62 46 63 33 64 34 65 39 66 35 67
REMARK SMILES IDX 36 68 38 69 40 70 37 71 59 72 60 73 65 74 61 75 62 76 64 77
REMARK SMILES IDX 66 78 63 79 47 80 48 81 53 82 49 83 50 84 52 85 54 86 51 87
REMARK H PARENT 14 8 21 30 71 49 45 60
REMARK Flexibility Score: inf
ROOT
ATOM      1  C   UNL A   1      31.703  30.233  25.519  1.00  0.00     0.002 C 
ENDROOT
BRANCH   1   2
ATOM      2  C   UNL A   1      32.963  29.529  26.044  1.00  0.00     0.002 C 
BRANCH   2   3
ATOM      3  C   UNL A   1      33.706  28.700  24.996  1.00  0.00     0.021 C 
BRANCH   3   4
ATOM      4  C   UNL A   1      33.910  27.253  25.425  1.00  0.00     0.116 C 
BRANCH   4   5
ATOM      5  N   UNL A   1      33.699  26.332  24.323  1.00  0.00    -0.352 N 
ATOM      6  C   UNL A   1      32.691  26.019  23.474  1.00  0.00     0.251 C 
ATOM      7  O   UNL A   1      32.953  25.159  22.629  1.00  0.00    -0.270 OA
ATOM      8  H   UNL A   1      34.503  25.793  24.144  1.00  0.00     0.163 HD
BRANCH   6   9
ATOM      9  C   UNL A   1      31.329  26.631  23.510  1.00  0.00     0.067 C 
ATOM     10  C   UNL A   1      28.425  30.310  22.309  1.00  0.00     0.027 A 
ATOM     11  C   UNL A   1      27.320  29.609  22.792  1.00  0.00     0.041 A 
ATOM     12  C   UNL A   1      29.700  29.735  22.348  1.00  0.00     0.029 A 
ATOM     13  C   UNL A   1      27.490  28.334  23.316  1.00  0.00     0.084 A 
ATOM     14  C   UNL A   1      29.874  28.450  22.875  1.00  0.00     0.020 A 
ATOM     15  Cl  UNL A   1      26.102  27.483  23.896  1.00  0.00    -0.080 Cl
ATOM     16  C   UNL A   1      28.764  27.758  23.365  1.00  0.00     0.146 A 
ATOM     17  C   UNL A   1      31.185  27.808  22.875  1.00  0.00     0.025 C 
ATOM     18  O   UNL A   1      28.858  26.492  23.859  1.00  0.00    -0.474 OA
ATOM     19  C   UNL A   1      30.169  26.013  24.230  1.00  0.00     0.314 C 
BRANCH  10  20
ATOM     20  C   UNL A   1      28.237  31.615  21.760  1.00  0.00    -0.070 C 
ATOM     21  C   UNL A   1      28.051  32.718  21.318  1.00  0.00     0.010 C 
ENDBRANCH  10  20
BRANCH  19  22
ATOM     22  C   UNL A   1      30.316  26.083  25.761  1.00  0.00     0.429 C 
ATOM     23  F   UNL A   1      29.149  25.751  26.367  1.00  0.00    -0.167 F 
ATOM     24  F   UNL A   1      31.248  25.227  26.243  1.00  0.00    -0.167 F 
ATOM     25  F   UNL A   1      30.663  27.318  26.189  1.00  0.00    -0.167 F 
ENDBRANCH  19  22
ENDBRANCH   6   9
ENDBRANCH   4   5
ENDBRANCH   3   4
ENDBRANCH   2   3
ENDBRANCH   1   2
BRANCH   1  26
ATOM     26  C   UNL A   1      31.388  31.568  26.199  1.00  0.00     0.021 C 
BRANCH  26  27
ATOM     27  C   UNL A   1      32.430  31.993  27.223  1.00  0.00     0.116 C 
BRANCH  27  28
ATOM     28  N   UNL A   1      32.424  33.434  27.420  1.00  0.00    -0.352 N 
ATOM     29  C   UNL A   1      33.183  34.193  28.271  1.00  0.00     0.251 C 
ATOM     30  H   UNL A   1      31.784  33.935  26.864  1.00  0.00     0.163 HD
ATOM     31  O   UNL A   1      32.887  35.359  28.500  1.00  0.00    -0.269 OA
BRANCH  29  32
ATOM     32  C   UNL A   1      34.359  33.581  28.917  1.00  0.00     0.039 A 
ATOM     33  C   UNL A   1      34.165  32.697  29.978  1.00  0.00     0.014 A 
ATOM     34  C   UNL A   1      35.648  33.877  28.462  1.00  0.00     0.014 A 
ATOM     35  C   UNL A   1      35.267  32.070  30.554  1.00  0.00     0.010 A 
ATOM     36  C   UNL A   1      36.735  33.185  28.977  1.00  0.00     0.010 A 
ATOM     37  C   UNL A   1      36.557  32.288  30.040  1.00  0.00    -0.014 A 
BRANCH  37  38
ATOM     38  C   UNL A   1      37.735  31.605  30.625  1.00  0.00     0.031 A 
ATOM     39  C   UNL A   1      38.162  31.924  32.029  1.00  0.00     0.074 A 
ATOM     40  C   UNL A   1      38.428  30.720  29.884  1.00  0.00     0.049 A 
ATOM     41  N   UNL A   1      39.173  31.449  32.710  1.00  0.00    -0.248 NA
ATOM     42  C   UNL A   1      37.361  32.920  32.761  1.00  0.00     0.031 C 
ATOM     43  C   UNL A   1      38.121  30.352  28.501  1.00  0.00     0.029 A 
ATOM     44  N   UNL A   1      39.530  29.965  30.192  1.00  0.00    -0.354 N 
ATOM     45  C   UNL A   1      39.125  32.083  33.944  1.00  0.00     0.074 A 
ATOM     46  C   UNL A   1      38.034  33.029  33.897  1.00  0.00     0.031 C 
ATOM     47  C   UNL A   1      38.988  29.412  28.094  1.00  0.00     0.029 A 
ATOM     48  C   UNL A   1      39.940  29.146  29.169  1.00  0.00     0.049 A 
ATOM     49  H   UNL A   1      39.985  30.006  31.065  1.00  0.00     0.167 HD
ATOM     50  C   UNL A   1      39.901  31.868  35.032  1.00  0.00     0.037 A 
ATOM     51  C   UNL A   1      40.970  28.278  29.103  1.00  0.00     0.037 A 
ATOM     52  C   UNL A   1      40.979  30.917  35.076  1.00  0.00     0.049 A 
ATOM     53  C   UNL A   1      41.853  28.102  30.308  1.00  0.00     0.074 A 
ATOM     54  C   UNL A   1      41.804  30.604  36.140  1.00  0.00     0.029 A 
ATOM     55  N   UNL A   1      41.382  30.128  34.009  1.00  0.00    -0.354 N 
ATOM     56  N   UNL A   1      41.761  28.665  31.489  1.00  0.00    -0.248 NA
ATOM     57  C   UNL A   1      42.981  27.170  30.173  1.00  0.00     0.031 C 
ATOM     58  C   UNL A   1      42.747  29.674  35.700  1.00  0.00     0.029 A 
ATOM     59  C   UNL A   1      42.467  29.352  34.382  1.00  0.00     0.049 A 
ATOM     60  H   UNL A   1      40.960  30.119  33.119  1.00  0.00     0.167 HD
ATOM     61  C   UNL A   1      42.800  28.137  32.245  1.00  0.00     0.074 A 
ATOM     62  C   UNL A   1      43.497  27.194  31.395  1.00  0.00     0.031 C 
ATOM     63  C   UNL A   1      43.147  28.411  33.527  1.00  0.00     0.037 A 
BRANCH  50  64
ATOM     64  C   UNL A   1      39.607  32.664  36.271  1.00  0.00     0.057 A 
ATOM     65  C   UNL A   1      40.268  33.868  36.547  1.00  0.00     0.134 A 
ATOM     66  C   UNL A   1      38.604  32.261  37.161  1.00  0.00     0.134 A 
ATOM     67  F   UNL A   1      41.249  34.306  35.742  1.00  0.00    -0.206 F 
ATOM     68  C   UNL A   1      39.951  34.636  37.669  1.00  0.00     0.040 A 
ATOM     69  C   UNL A   1      38.256  33.036  38.268  1.00  0.00     0.040 A 
ATOM     70  F   UNL A   1      37.928  31.120  36.956  1.00  0.00    -0.206 F 
ATOM     71  C   UNL A   1      38.933  34.226  38.526  1.00  0.00     0.006 A 
ENDBRANCH  50  64
BRANCH  51  72
ATOM     72  C   UNL A   1      41.197  27.492  27.864  1.00  0.00     0.057 A 
ATOM     73  C   UNL A   1      40.642  26.217  27.706  1.00  0.00     0.134 A 
ATOM     74  C   UNL A   1      41.960  27.995  26.802  1.00  0.00     0.134 A 
ATOM     75  F   UNL A   1      39.916  25.670  28.693  1.00  0.00    -0.206 F 
ATOM     76  C   UNL A   1      40.844  25.467  26.547  1.00  0.00     0.040 A 
ATOM     77  C   UNL A   1      42.145  27.270  25.625  1.00  0.00     0.040 A 
ATOM     78  F   UNL A   1      42.515  29.214  26.885  1.00  0.00    -0.206 F 
ATOM     79  C   UNL A   1      41.591  25.998  25.497  1.00  0.00     0.006 A 
ENDBRANCH  51  72
BRANCH  63  80
ATOM     80  C   UNL A   1      44.320  27.675  34.107  1.00  0.00     0.057 A 
ATOM     81  C   UNL A   1      45.606  28.229  34.121  1.00  0.00     0.134 A 
ATOM     82  C   UNL A   1      44.145  26.435  34.737  1.00  0.00     0.134 A 
ATOM     83  F   UNL A   1      45.845  29.408  33.529  1.00  0.00    -0.206 F 
ATOM     84  C   UNL A   1      46.677  27.571  34.729  1.00  0.00     0.040 A 
ATOM     85  C   UNL A   1      45.199  25.784  35.377  1.00  0.00     0.040 A 
ATOM     86  F   UNL A   1      42.936  25.852  34.773  1.00  0.00    -0.206 F 
ATOM     87  C   UNL A   1      46.472  26.351  35.370  1.00  0.00     0.006 A 
ENDBRANCH  63  80
ENDBRANCH  37  38
ENDBRANCH  29  32
ENDBRANCH  27  28
ENDBRANCH  26  27
ENDBRANCH   1  26
TORSDOF 15
ENDMDL
MODEL 2
REMARK VINA RESULT:     -11.9      0.937      6.235
REMARK SMILES C#Cc1cc(Cl)c2c(c1)C=C(C(=O)NCCCCCCNC(=O)c1ccc(-c3c4nc(c(-c5c(F)cccc5F)c5ccc([nH]5)c(-c5c(F)cccc5F)c5nc(c(-c6c(F)cccc6F)c6ccc3[nH]6)C=C5)C=C4)cc1)[C@@H](C(F)(F)F)O2
REMARK SMILES IDX 18 1 17 2 16 3 15 4 14 5 12 6 13 7 11 9 3 10 4 11 9 12 5 13
REMARK SMILES IDX 8 14 6 15 7 16 10 17 83 18 78 19 2 20 1 21 79 22 80 23 81 24
REMARK SMILES IDX 82 25 19 26 20 27 21 28 22 29 23 31 24 32 25 33 77 34 26 35
REMARK SMILES IDX 76 36 27 37 28 38 29 39 70 40 30 41 75 42 69 43 71 44 31 45
REMARK SMILES IDX 74 46 68 47 67 48 32 50 58 51 41 52 57 53 42 54 45 55 56 56
REMARK SMILES IDX 72 57 43 58 44 59 55 61 73 62 46 63 33 64 34 65 39 66 35 67
REMARK SMILES IDX 36 68 38 69 40 70 37 71 59 72 60 73 65 74 61 75 62 76 64 77
REMARK SMILES IDX 66 78 63 79 47 80 48 81 53 82 49 83 50 84 52 85 54 86 51 87
REMARK H PARENT 14 8 21 30 71 49 45 60
REMARK Flexibility Score: inf
ROOT
ATOM      1  C   UNL A   1      31.697  30.372  25.852  1.00  0.00     0.002 C 
ENDROOT
BRANCH   1   2
ATOM      2  C   UNL A   1      32.794  29.527  26.515  1.00  0.00     0.002 C 
BRANCH   2   3
ATOM      3  C   UNL A   1      33.711  28.797  25.532  1.00  0.00     0.021 C 
BRANCH   3   4
ATOM      4  C   UNL A   1      33.901  27.328  25.883  1.00  0.00     0.116 C 
BRANCH   4   5
ATOM      5  N   UNL A   1      33.815  26.480  24.708  1.00  0.00    -0.352 N 
ATOM      6  C   UNL A   1      32.885  26.183  23.768  1.00  0.00     0.251 C 
ATOM      7  O   UNL A   1      33.249  25.399  22.887  1.00  0.00    -0.270 OA
ATOM      8  H   UNL A   1      34.655  25.993  24.551  1.00  0.00     0.163 HD
BRANCH   6   9
ATOM      9  C   UNL A   1      31.494  26.728  23.746  1.00  0.00     0.067 C 
ATOM     10  C   UNL A   1      28.479  30.294  22.481  1.00  0.00     0.027 A 
ATOM     11  C   UNL A   1      27.386  29.529  22.889  1.00  0.00     0.041 A 
ATOM     12  C   UNL A   1      29.777  29.780  22.574  1.00  0.00     0.029 A 
ATOM     13  C   UNL A   1      27.591  28.249  23.390  1.00  0.00     0.084 A 
ATOM     14  C   UNL A   1      29.987  28.492  23.079  1.00  0.00     0.020 A 
ATOM     15  Cl  UNL A   1      26.219  27.318  23.876  1.00  0.00    -0.080 Cl
ATOM     16  C   UNL A   1      28.888  27.734  23.493  1.00  0.00     0.146 A 
ATOM     17  C   UNL A   1      31.326  27.913  23.133  1.00  0.00     0.025 C 
ATOM     18  O   UNL A   1      29.019  26.461  23.961  1.00  0.00    -0.474 OA
ATOM     19  C   UNL A   1      30.331  26.036  24.389  1.00  0.00     0.314 C 
BRANCH  10  20
ATOM     20  C   UNL A   1      28.255  31.603  21.955  1.00  0.00    -0.070 C 
ATOM     21  C   UNL A   1      28.034  32.702  21.522  1.00  0.00     0.010 C 
ENDBRANCH  10  20
BRANCH  19  22
ATOM     22  C   UNL A   1      30.395  26.073  25.927  1.00  0.00     0.429 C 
ATOM     23  F   UNL A   1      29.221  25.654  26.462  1.00  0.00    -0.167 F 
ATOM     24  F   UNL A   1      31.352  25.262  26.436  1.00  0.00    -0.167 F 
ATOM     25  F   UNL A   1      30.642  27.314  26.403  1.00  0.00    -0.167 F 
ENDBRANCH  19  22
ENDBRANCH   6   9
ENDBRANCH   4   5
ENDBRANCH   3   4
ENDBRANCH   2   3
ENDBRANCH   1   2
BRANCH   1  26
ATOM     26  C   UNL A   1      31.442  31.726  26.519  1.00  0.00     0.021 C 
BRANCH  26  27
ATOM     27  C   UNL A   1      32.700  32.380  27.073  1.00  0.00     0.116 C 
BRANCH  27  28
ATOM     28  N   UNL A   1      32.464  33.771  27.421  1.00  0.00    -0.352 N 
ATOM     29  C   UNL A   1      33.019  34.515  28.429  1.00  0.00     0.251 C 
ATOM     30  H   UNL A   1      31.815  34.247  26.854  1.00  0.00     0.163 HD
ATOM     31  O   UNL A   1      32.535  35.595  28.748  1.00  0.00    -0.269 OA
BRANCH  29  32
ATOM     32  C   UNL A   1      34.204  33.992  29.133  1.00  0.00     0.039 A 
ATOM     33  C   UNL A   1      34.022  33.183  30.255  1.00  0.00     0.014 A 
ATOM     34  C   UNL A   1      35.490  34.296  28.674  1.00  0.00     0.014 A 
ATOM     35  C   UNL A   1      35.135  32.637  30.891  1.00  0.00     0.010 A 
ATOM     36  C   UNL A   1      36.590  33.680  29.254  1.00  0.00     0.010 A 
ATOM     37  C   UNL A   1      36.424  32.858  30.378  1.00  0.00    -0.014 A 
BRANCH  37  38
ATOM     38  C   UNL A   1      37.614  32.260  31.028  1.00  0.00     0.031 A 
ATOM     39  C   UNL A   1      38.272  31.056  30.417  1.00  0.00     0.074 A 
ATOM     40  C   UNL A   1      38.083  32.787  32.175  1.00  0.00     0.049 A 
ATOM     41  N   UNL A   1      39.307  30.378  30.843  1.00  0.00    -0.248 NA
ATOM     42  C   UNL A   1      37.682  30.530  29.174  1.00  0.00     0.031 C 
ATOM     43  C   UNL A   1      37.508  33.938  32.873  1.00  0.00     0.029 A 
ATOM     44  N   UNL A   1      39.152  32.426  32.954  1.00  0.00    -0.354 N 
ATOM     45  C   UNL A   1      39.491  29.356  29.922  1.00  0.00     0.074 A 
ATOM     46  C   UNL A   1      38.422  29.454  28.955  1.00  0.00     0.031 C 
ATOM     47  C   UNL A   1      38.255  34.214  33.953  1.00  0.00     0.029 A 
ATOM     48  C   UNL A   1      39.331  33.232  34.051  1.00  0.00     0.049 A 
ATOM     49  H   UNL A   1      39.737  31.661  32.745  1.00  0.00     0.167 HD
ATOM     50  C   UNL A   1      40.485  28.439  29.869  1.00  0.00     0.037 A 
ATOM     51  C   UNL A   1      40.259  33.184  35.028  1.00  0.00     0.037 A 
ATOM     52  C   UNL A   1      41.553  28.354  30.829  1.00  0.00     0.049 A 
ATOM     53  C   UNL A   1      41.319  32.118  34.976  1.00  0.00     0.074 A 
ATOM     54  C   UNL A   1      42.624  27.481  30.845  1.00  0.00     0.029 A 
ATOM     55  N   UNL A   1      41.683  29.171  31.943  1.00  0.00    -0.354 N 
ATOM     56  N   UNL A   1      41.516  31.194  34.067  1.00  0.00    -0.248 NA
ATOM     57  C   UNL A   1      42.285  32.088  36.082  1.00  0.00     0.031 C 
ATOM     58  C   UNL A   1      43.367  27.724  32.002  1.00  0.00     0.029 A 
ATOM     59  C   UNL A   1      42.800  28.797  32.671  1.00  0.00     0.049 A 
ATOM     60  H   UNL A   1      41.073  29.906  32.180  1.00  0.00     0.167 HD
ATOM     61  C   UNL A   1      42.643  30.490  34.477  1.00  0.00     0.074 A 
ATOM     62  C   UNL A   1      43.096  31.109  35.705  1.00  0.00     0.031 C 
ATOM     63  C   UNL A   1      43.244  29.427  33.890  1.00  0.00     0.037 A 
BRANCH  50  64
ATOM     64  C   UNL A   1      40.477  27.462  28.729  1.00  0.00     0.057 A 
ATOM     65  C   UNL A   1      39.657  26.326  28.739  1.00  0.00     0.134 A 
ATOM     66  C   UNL A   1      41.243  27.694  27.579  1.00  0.00     0.134 A 
ATOM     67  F   UNL A   1      38.908  26.037  29.814  1.00  0.00    -0.206 F 
ATOM     68  C   UNL A   1      39.607  25.451  27.653  1.00  0.00     0.040 A 
ATOM     69  C   UNL A   1      41.178  26.844  26.475  1.00  0.00     0.040 A 
ATOM     70  F   UNL A   1      42.048  28.765  27.501  1.00  0.00    -0.206 F 
ATOM     71  C   UNL A   1      40.361  25.716  26.511  1.00  0.00     0.006 A 
ENDBRANCH  50  64
BRANCH  51  72
ATOM     72  C   UNL A   1      40.241  34.196  36.115  1.00  0.00     0.057 A 
ATOM     73  C   UNL A   1      40.943  35.400  35.993  1.00  0.00     0.134 A 
ATOM     74  C   UNL A   1      39.513  33.994  37.295  1.00  0.00     0.134 A 
ATOM     75  F   UNL A   1      41.674  35.647  34.896  1.00  0.00    -0.206 F 
ATOM     76  C   UNL A   1      40.933  36.360  37.006  1.00  0.00     0.040 A 
ATOM     77  C   UNL A   1      39.469  34.959  38.303  1.00  0.00     0.040 A 
ATOM     78  F   UNL A   1      38.811  32.865  37.474  1.00  0.00    -0.206 F 
ATOM     79  C   UNL A   1      40.186  36.145  38.162  1.00  0.00     0.006 A 
ENDBRANCH  51  72
BRANCH  63  80
ATOM     80  C   UNL A   1      44.472  28.866  34.549  1.00  0.00     0.057 A 
ATOM     81  C   UNL A   1      44.400  27.811  35.466  1.00  0.00     0.134 A 
ATOM     82  C   UNL A   1      45.747  29.328  34.195  1.00  0.00     0.134 A 
ATOM     83  F   UNL A   1      43.211  27.326  35.854  1.00  0.00    -0.206 F 
ATOM     84  C   UNL A   1      45.551  27.244  36.017  1.00  0.00     0.040 A 
ATOM     85  C   UNL A   1      46.905  28.748  34.713  1.00  0.00     0.040 A 
ATOM     86  F   UNL A   1      45.889  30.329  33.311  1.00  0.00    -0.206 F 
ATOM     87  C   UNL A   1      46.808  27.705  35.631  1.00  0.00     0.006 A 
ENDBRANCH  63  80
ENDBRANCH  37  38
ENDBRANCH  29  32
ENDBRANCH  27  28
ENDBRANCH  26  27
ENDBRANCH   1  26
TORSDOF 15
ENDMDL
MODEL 3
REMARK VINA RESULT:     -11.9      4.063      8.248
REMARK SMILES C#Cc1cc(Cl)c2c(c1)C=C(C(=O)NCCCCCCNC(=O)c1ccc(-c3c4nc(c(-c5c(F)cccc5F)c5ccc([nH]5)c(-c5c(F)cccc5F)c5nc(c(-c6c(F)cccc6F)c6ccc3[nH]6)C=C5)C=C4)cc1)[C@@H](C(F)(F)F)O2
REMARK SMILES IDX 18 1 17 2 16 3 15 4 14 5 12 6 13 7 11 9 3 10 4 11 9 12 5 13
REMARK SMILES IDX 8 14 6 15 7 16 10 17 83 18 78 19 2 20 1 21 79 22 80 23 81 24
REMARK SMILES IDX 82 25 19 26 20 27 21 28 22 29 23 31 24 32 25 33 77 34 26 35
REMARK SMILES IDX 76 36 27 37 28 38 29 39 70 40 30 41 75 42 69 43 71 44 31 45
REMARK SMILES IDX 74 46 68 47 67 48 32 50 58 51 41 52 57 53 42 54 45 55 56 56
REMARK SMILES IDX 72 57 43 58 44 59 55 61 73 62 46 63 33 64 34 65 39 66 35 67
REMARK SMILES IDX 36 68 38 69 40 70 37 71 59 72 60 73 65 74 61 75 62 76 64 77
REMARK SMILES IDX 66 78 63 79 47 80 48 81 53 82 49 83 50 84 52 85 54 86 51 87
REMARK H PARENT 14 8 21 30 71 49 45 60
REMARK Flexibility Score: inf
ROOT
ATOM      1  C   UNL A   1      35.607  22.197  24.202  1.00  0.00     0.002 C 
ENDROOT
BRANCH   1   2
ATOM      2  C   UNL A   1      34.197  22.357  23.617  1.00  0.00     0.002 C 
BRANCH   2   3
ATOM      3  C   UNL A   1      33.090  21.702  24.444  1.00  0.00     0.021 C 
BRANCH   3   4
ATOM      4  C   UNL A   1      31.738  22.376  24.259  1.00  0.00     0.116 C 
BRANCH   4   5
ATOM      5  N   UNL A   1      31.073  22.603  25.530  1.00  0.00    -0.352 N 
ATOM      6  C   UNL A   1      30.689  23.671  26.269  1.00  0.00     0.251 C 
ATOM      7  O   UNL A   1      30.102  23.408  27.322  1.00  0.00    -0.270 OA
ATOM      8  H   UNL A   1      30.837  21.755  25.971  1.00  0.00     0.163 HD
BRANCH   6   9
ATOM      9  C   UNL A   1      30.935  25.096  25.894  1.00  0.00     0.067 C 
ATOM     10  C   UNL A   1      29.642  28.960  23.285  1.00  0.00     0.027 A 
ATOM     11  C   UNL A   1      30.583  29.741  23.956  1.00  0.00     0.041 A 
ATOM     12  C   UNL A   1      29.479  27.610  23.615  1.00  0.00     0.029 A 
ATOM     13  C   UNL A   1      31.363  29.171  24.955  1.00  0.00     0.084 A 
ATOM     14  C   UNL A   1      30.263  27.034  24.620  1.00  0.00     0.020 A 
ATOM     15  Cl  UNL A   1      32.513  30.165  25.778  1.00  0.00    -0.080 Cl
ATOM     16  C   UNL A   1      31.210  27.820  25.282  1.00  0.00     0.146 A 
ATOM     17  C   UNL A   1      30.073  25.642  25.019  1.00  0.00     0.025 C 
ATOM     18  O   UNL A   1      31.981  27.331  26.293  1.00  0.00    -0.474 OA
ATOM     19  C   UNL A   1      32.088  25.896  26.420  1.00  0.00     0.314 C 
BRANCH  10  20
ATOM     20  C   UNL A   1      28.836  29.559  22.270  1.00  0.00    -0.070 C 
ATOM     21  C   UNL A   1      28.155  30.092  21.434  1.00  0.00     0.010 C 
ENDBRANCH  10  20
BRANCH  19  22
ATOM     22  C   UNL A   1      33.440  25.439  25.842  1.00  0.00     0.429 C 
ATOM     23  F   UNL A   1      33.836  24.278  26.422  1.00  0.00    -0.167 F 
ATOM     24  F   UNL A   1      33.392  25.199  24.511  1.00  0.00    -0.167 F 
ATOM     25  F   UNL A   1      34.419  26.350  26.040  1.00  0.00    -0.167 F 
ENDBRANCH  19  22
ENDBRANCH   6   9
ENDBRANCH   4   5
ENDBRANCH   3   4
ENDBRANCH   2   3
ENDBRANCH   1   2
BRANCH   1  26
ATOM     26  C   UNL A   1      36.380  23.506  24.374  1.00  0.00     0.021 C 
BRANCH  26  27
ATOM     27  C   UNL A   1      37.019  23.663  25.746  1.00  0.00     0.116 C 
BRANCH  27  28
ATOM     28  N   UNL A   1      37.997  22.618  25.999  1.00  0.00    -0.352 N 
ATOM     29  C   UNL A   1      39.306  22.735  26.387  1.00  0.00     0.251 C 
ATOM     30  H   UNL A   1      37.675  21.696  25.872  1.00  0.00     0.163 HD
ATOM     31  O   UNL A   1      40.067  21.777  26.315  1.00  0.00    -0.269 OA
BRANCH  29  32
ATOM     32  C   UNL A   1      39.789  24.035  26.885  1.00  0.00     0.039 A 
ATOM     33  C   UNL A   1      40.267  24.975  25.971  1.00  0.00     0.014 A 
ATOM     34  C   UNL A   1      39.758  24.323  28.254  1.00  0.00     0.014 A 
ATOM     35  C   UNL A   1      40.671  26.227  26.428  1.00  0.00     0.010 A 
ATOM     36  C   UNL A   1      40.075  25.601  28.695  1.00  0.00     0.010 A 
ATOM     37  C   UNL A   1      40.551  26.559  27.788  1.00  0.00    -0.014 A 
BRANCH  37  38
ATOM     38  C   UNL A   1      40.949  27.898  28.283  1.00  0.00     0.031 A 
ATOM     39  C   UNL A   1      42.402  28.276  28.329  1.00  0.00     0.074 A 
ATOM     40  C   UNL A   1      40.005  28.758  28.710  1.00  0.00     0.049 A 
ATOM     41  N   UNL A   1      42.951  29.388  28.745  1.00  0.00    -0.248 NA
ATOM     42  C   UNL A   1      43.370  27.267  27.864  1.00  0.00     0.031 C 
ATOM     43  C   UNL A   1      38.567  28.489  28.737  1.00  0.00     0.029 A 
ATOM     44  N   UNL A   1      40.114  30.035  29.199  1.00  0.00    -0.354 N 
ATOM     45  C   UNL A   1      44.319  29.213  28.588  1.00  0.00     0.074 A 
ATOM     46  C   UNL A   1      44.526  27.866  28.108  1.00  0.00     0.031 C 
ATOM     47  C   UNL A   1      37.924  29.582  29.177  1.00  0.00     0.029 A 
ATOM     48  C   UNL A   1      38.906  30.610  29.509  1.00  0.00     0.049 A 
ATOM     49  H   UNL A   1      40.977  30.495  29.316  1.00  0.00     0.167 HD
ATOM     50  C   UNL A   1      45.312  30.110  28.791  1.00  0.00     0.037 A 
ATOM     51  C   UNL A   1      38.623  31.830  30.008  1.00  0.00     0.037 A 
ATOM     52  C   UNL A   1      45.098  31.453  29.258  1.00  0.00     0.049 A 
ATOM     53  C   UNL A   1      39.751  32.787  30.280  1.00  0.00     0.074 A 
ATOM     54  C   UNL A   1      46.035  32.448  29.466  1.00  0.00     0.029 A 
ATOM     55  N   UNL A   1      43.862  31.989  29.589  1.00  0.00    -0.354 N 
ATOM     56  N   UNL A   1      41.035  32.630  30.072  1.00  0.00    -0.248 NA
ATOM     57  C   UNL A   1      39.391  34.090  30.855  1.00  0.00     0.031 C 
ATOM     58  C   UNL A   1      45.377  33.564  29.986  1.00  0.00     0.029 A 
ATOM     59  C   UNL A   1      44.019  33.291  30.034  1.00  0.00     0.049 A 
ATOM     60  H   UNL A   1      43.002  31.515  29.519  1.00  0.00     0.167 HD
ATOM     61  C   UNL A   1      41.634  33.822  30.464  1.00  0.00     0.074 A 
ATOM     62  C   UNL A   1      40.569  34.698  30.903  1.00  0.00     0.031 C 
ATOM     63  C   UNL A   1      42.948  34.157  30.462  1.00  0.00     0.037 A 
BRANCH  50  64
ATOM     64  C   UNL A   1      46.719  29.677  28.497  1.00  0.00     0.057 A 
ATOM     65  C   UNL A   1      47.298  29.860  27.234  1.00  0.00     0.134 A 
ATOM     66  C   UNL A   1      47.528  29.135  29.505  1.00  0.00     0.134 A 
ATOM     67  F   UNL A   1      46.574  30.361  26.221  1.00  0.00    -0.206 F 
ATOM     68  C   UNL A   1      48.625  29.510  26.980  1.00  0.00     0.040 A 
ATOM     69  C   UNL A   1      48.865  28.812  29.272  1.00  0.00     0.040 A 
ATOM     70  F   UNL A   1      47.040  28.936  30.738  1.00  0.00    -0.206 F 
ATOM     71  C   UNL A   1      49.416  28.996  28.005  1.00  0.00     0.006 A 
ENDBRANCH  50  64
BRANCH  51  72
ATOM     72  C   UNL A   1      37.210  32.220  30.249  1.00  0.00     0.057 A 
ATOM     73  C   UNL A   1      36.472  32.899  29.274  1.00  0.00     0.134 A 
ATOM     74  C   UNL A   1      36.558  31.915  31.451  1.00  0.00     0.134 A 
ATOM     75  F   UNL A   1      37.044  33.237  28.108  1.00  0.00    -0.206 F 
ATOM     76  C   UNL A   1      35.143  33.270  29.486  1.00  0.00     0.040 A 
ATOM     77  C   UNL A   1      35.221  32.252  31.665  1.00  0.00     0.040 A 
ATOM     78  F   UNL A   1      37.205  31.259  32.426  1.00  0.00    -0.206 F 
ATOM     79  C   UNL A   1      34.510  32.937  30.682  1.00  0.00     0.006 A 
ENDBRANCH  51  72
BRANCH  63  80
ATOM     80  C   UNL A   1      43.319  35.534  30.931  1.00  0.00     0.057 A 
ATOM     81  C   UNL A   1      43.565  35.814  32.280  1.00  0.00     0.134 A 
ATOM     82  C   UNL A   1      43.518  36.573  30.010  1.00  0.00     0.134 A 
ATOM     83  F   UNL A   1      43.387  34.867  33.214  1.00  0.00    -0.206 F 
ATOM     84  C   UNL A   1      43.983  37.079  32.699  1.00  0.00     0.040 A 
ATOM     85  C   UNL A   1      43.967  37.830  30.412  1.00  0.00     0.040 A 
ATOM     86  F   UNL A   1      43.312  36.371  28.699  1.00  0.00    -0.206 F 
ATOM     87  C   UNL A   1      44.197  38.087  31.761  1.00  0.00     0.006 A 
ENDBRANCH  63  80
ENDBRANCH  37  38
ENDBRANCH  29  32
ENDBRANCH  27  28
ENDBRANCH  26  27
ENDBRANCH   1  26
TORSDOF 15
ENDMDL
