MODEL 1
REMARK VINA RESULT:     -10.7      0.000      0.000
REMARK SMILES COCC[C@H](NC(=O)c1ccc(C)cc1F)C(=O)NCCCCCCNC(=O)c1ccc(-c2c3nc(c(-c4c(F)cccc4F)c4ccc([nH]4)c(-c4c(F)cccc4F)c4nc(c(-c5c(F)cccc5F)c5ccc2[nH]5)C=C4)C=C3)cc1
REMARK SMILES IDX 22 1 21 2 20 3 19 4 17 5 18 6 5 8 4 9 3 10 2 11 1 12 6 13
REMARK SMILES IDX 7 14 8 16 9 17 10 18 15 19 11 20 14 21 16 22 12 23 13 24
REMARK SMILES IDX 23 25 24 26 25 27 26 28 27 29 28 31 29 32 30 33 82 34 31 35
REMARK SMILES IDX 81 36 32 37 33 38 34 39 75 40 35 41 80 42 74 43 76 44 36 45
REMARK SMILES IDX 79 46 73 47 72 48 37 50 63 51 46 52 62 53 47 54 50 55 61 56
REMARK SMILES IDX 77 57 48 58 49 59 60 61 78 62 51 63 38 64 39 65 44 66 40 67
REMARK SMILES IDX 41 68 43 69 45 70 42 71 64 72 65 73 70 74 66 75 67 76 69 77
REMARK SMILES IDX 71 78 68 79 52 80 53 81 58 82 54 83 55 84 57 85 59 86 56 87
REMARK H PARENT 19 7 6 15 26 30 76 49 50 60
REMARK Flexibility Score: inf
ROOT
ATOM      1  C   UNL A   1      35.628  19.475  24.957  1.00  0.00     0.002 C 
ENDROOT
BRANCH   1   2
ATOM      2  C   UNL A   1      34.572  18.463  24.488  1.00  0.00     0.021 C 
BRANCH   2   3
ATOM      3  C   UNL A   1      33.145  18.929  24.743  1.00  0.00     0.116 C 
BRANCH   3   4
ATOM      4  N   UNL A   1      32.526  19.440  23.539  1.00  0.00    -0.354 N 
ATOM      5  C   UNL A   1      32.187  20.701  23.163  1.00  0.00     0.242 C 
ATOM      6  O   UNL A   1      31.724  20.837  22.025  1.00  0.00    -0.273 OA
ATOM      7  H   UNL A   1      32.311  18.750  22.872  1.00  0.00     0.163 HD
BRANCH   5   8
ATOM      8  C   UNL A   1      32.313  21.915  24.097  1.00  0.00     0.173 C 
BRANCH   8   9
ATOM      9  C   UNL A   1      31.344  22.149  25.267  1.00  0.00     0.063 C 
BRANCH   9  10
ATOM     10  C   UNL A   1      31.781  22.832  26.561  1.00  0.00     0.162 C 
BRANCH  10  11
ATOM     11  O   UNL A   1      30.744  23.457  27.305  1.00  0.00    -0.385 OA
ATOM     12  C   UNL A   1      29.487  22.804  27.266  1.00  0.00     0.194 C 
ENDBRANCH  10  11
ENDBRANCH   9  10
ENDBRANCH   8   9
BRANCH   8  13
ATOM     13  N   UNL A   1      32.432  23.080  23.202  1.00  0.00    -0.340 N 
ATOM     14  C   UNL A   1      33.520  23.825  22.831  1.00  0.00     0.254 C 
ATOM     15  H   UNL A   1      31.582  23.374  22.802  1.00  0.00     0.164 HD
ATOM     16  O   UNL A   1      33.427  24.571  21.860  1.00  0.00    -0.269 OA
BRANCH  14  17
ATOM     17  C   UNL A   1      34.753  23.797  23.624  1.00  0.00     0.075 A 
ATOM     18  C   UNL A   1      35.896  23.107  23.214  1.00  0.00     0.017 A 
ATOM     19  C   UNL A   1      34.758  24.495  24.830  1.00  0.00     0.136 A 
ATOM     20  C   UNL A   1      37.002  23.035  24.066  1.00  0.00     0.004 A 
ATOM     21  C   UNL A   1      35.867  24.448  25.667  1.00  0.00     0.043 A 
ATOM     22  F   UNL A   1      33.683  25.189  25.232  1.00  0.00    -0.206 F 
ATOM     23  C   UNL A   1      36.986  23.689  25.307  1.00  0.00    -0.048 A 
ATOM     24  C   UNL A   1      38.148  23.591  26.250  1.00  0.00     0.044 C 
ENDBRANCH  14  17
ENDBRANCH   8  13
ENDBRANCH   5   8
ENDBRANCH   3   4
ENDBRANCH   2   3
ENDBRANCH   1   2
BRANCH   1  25
ATOM     25  C   UNL A   1      37.070  18.951  24.988  1.00  0.00     0.002 C 
BRANCH  25  26
ATOM     26  C   UNL A   1      38.153  20.011  24.781  1.00  0.00     0.021 C 
BRANCH  26  27
ATOM     27  C   UNL A   1      39.133  20.146  25.938  1.00  0.00     0.116 C 
BRANCH  27  28
ATOM     28  N   UNL A   1      40.142  19.100  25.934  1.00  0.00    -0.352 N 
ATOM     29  C   UNL A   1      41.500  19.214  26.100  1.00  0.00     0.251 C 
ATOM     30  H   UNL A   1      39.805  18.186  25.794  1.00  0.00     0.163 HD
ATOM     31  O   UNL A   1      42.231  18.251  25.918  1.00  0.00    -0.269 OA
BRANCH  29  32
ATOM     32  C   UNL A   1      42.070  20.524  26.469  1.00  0.00     0.039 A 
ATOM     33  C   UNL A   1      42.524  21.368  25.454  1.00  0.00     0.014 A 
ATOM     34  C   UNL A   1      42.138  20.924  27.807  1.00  0.00     0.014 A 
ATOM     35  C   UNL A   1      43.000  22.639  25.779  1.00  0.00     0.010 A 
ATOM     36  C   UNL A   1      42.537  22.218  28.121  1.00  0.00     0.010 A 
ATOM     37  C   UNL A   1      42.981  23.085  27.111  1.00  0.00    -0.014 A 
BRANCH  37  38
ATOM     38  C   UNL A   1      43.430  24.454  27.463  1.00  0.00     0.031 A 
ATOM     39  C   UNL A   1      42.427  25.495  27.872  1.00  0.00     0.074 A 
ATOM     40  C   UNL A   1      44.736  24.771  27.368  1.00  0.00     0.049 A 
ATOM     41  N   UNL A   1      42.619  26.752  28.181  1.00  0.00    -0.248 NA
ATOM     42  C   UNL A   1      41.017  25.077  27.916  1.00  0.00     0.031 C 
ATOM     43  C   UNL A   1      45.799  23.861  26.935  1.00  0.00     0.029 A 
ATOM     44  N   UNL A   1      45.391  25.948  27.624  1.00  0.00    -0.354 N 
ATOM     45  C   UNL A   1      41.359  27.274  28.444  1.00  0.00     0.074 A 
ATOM     46  C   UNL A   1      40.403  26.216  28.199  1.00  0.00     0.031 C 
ATOM     47  C   UNL A   1      46.975  24.505  26.983  1.00  0.00     0.029 A 
ATOM     48  C   UNL A   1      46.747  25.882  27.410  1.00  0.00     0.049 A 
ATOM     49  H   UNL A   1      44.934  26.764  27.930  1.00  0.00     0.167 HD
ATOM     50  C   UNL A   1      41.029  28.514  28.875  1.00  0.00     0.037 A 
ATOM     51  C   UNL A   1      47.697  26.827  27.538  1.00  0.00     0.037 A 
ATOM     52  C   UNL A   1      41.987  29.559  29.133  1.00  0.00     0.049 A 
ATOM     53  C   UNL A   1      47.303  28.202  28.003  1.00  0.00     0.074 A 
ATOM     54  C   UNL A   1      41.761  30.832  29.624  1.00  0.00     0.029 A 
ATOM     55  N   UNL A   1      43.351  29.451  28.912  1.00  0.00    -0.354 N 
ATOM     56  N   UNL A   1      46.116  28.660  28.320  1.00  0.00    -0.248 NA
ATOM     57  C   UNL A   1      48.384  29.188  28.137  1.00  0.00     0.031 C 
ATOM     58  C   UNL A   1      42.981  31.514  29.649  1.00  0.00     0.029 A 
ATOM     59  C   UNL A   1      43.978  30.645  29.231  1.00  0.00     0.049 A 
ATOM     60  H   UNL A   1      43.808  28.645  28.577  1.00  0.00     0.167 HD
ATOM     61  C   UNL A   1      46.310  29.976  28.718  1.00  0.00     0.074 A 
ATOM     62  C   UNL A   1      47.731  30.236  28.619  1.00  0.00     0.031 C 
ATOM     63  C   UNL A   1      45.395  30.887  29.131  1.00  0.00     0.037 A 
BRANCH  50  64
ATOM     64  C   UNL A   1      39.572  28.808  29.093  1.00  0.00     0.057 A 
ATOM     65  C   UNL A   1      38.963  28.643  30.344  1.00  0.00     0.134 A 
ATOM     66  C   UNL A   1      38.775  29.289  28.047  1.00  0.00     0.134 A 
ATOM     67  F   UNL A   1      39.665  28.174  31.387  1.00  0.00    -0.206 F 
ATOM     68  C   UNL A   1      37.607  28.916  30.539  1.00  0.00     0.040 A 
ATOM     69  C   UNL A   1      37.427  29.596  28.237  1.00  0.00     0.040 A 
ATOM     70  F   UNL A   1      39.295  29.477  26.824  1.00  0.00    -0.206 F 
ATOM     71  C   UNL A   1      36.837  29.401  29.484  1.00  0.00     0.006 A 
ENDBRANCH  50  64
BRANCH  51  72
ATOM     72  C   UNL A   1      49.115  26.500  27.243  1.00  0.00     0.057 A 
ATOM     73  C   UNL A   1      49.641  26.657  25.954  1.00  0.00     0.134 A 
ATOM     74  C   UNL A   1      49.977  26.017  28.233  1.00  0.00     0.134 A 
ATOM     75  F   UNL A   1      48.860  27.099  24.957  1.00  0.00    -0.206 F 
ATOM     76  C   UNL A   1      50.963  26.322  25.657  1.00  0.00     0.040 A 
ATOM     77  C   UNL A   1      51.309  25.705  27.957  1.00  0.00     0.040 A 
ATOM     78  F   UNL A   1      49.540  25.854  29.491  1.00  0.00    -0.206 F 
ATOM     79  C   UNL A   1      51.803  25.849  26.662  1.00  0.00     0.006 A 
ENDBRANCH  51  72
BRANCH  63  80
ATOM     80  C   UNL A   1      45.905  32.237  29.543  1.00  0.00     0.057 A 
ATOM     81  C   UNL A   1      45.992  33.307  28.643  1.00  0.00     0.134 A 
ATOM     82  C   UNL A   1      46.283  32.480  30.871  1.00  0.00     0.134 A 
ATOM     83  F   UNL A   1      45.659  33.139  27.354  1.00  0.00    -0.206 F 
ATOM     84  C   UNL A   1      46.460  34.560  29.041  1.00  0.00     0.040 A 
ATOM     85  C   UNL A   1      46.722  33.736  31.288  1.00  0.00     0.040 A 
ATOM     86  F   UNL A   1      46.216  31.503  31.788  1.00  0.00    -0.206 F 
ATOM     87  C   UNL A   1      46.819  34.779  30.370  1.00  0.00     0.006 A 
ENDBRANCH  63  80
ENDBRANCH  37  38
ENDBRANCH  29  32
ENDBRANCH  27  28
ENDBRANCH  26  27
ENDBRANCH  25  26
ENDBRANCH   1  25
TORSDOF 18
ENDMDL
MODEL 2
REMARK VINA RESULT:     -10.6      0.544      6.156
REMARK SMILES COCC[C@H](NC(=O)c1ccc(C)cc1F)C(=O)NCCCCCCNC(=O)c1ccc(-c2c3nc(c(-c4c(F)cccc4F)c4ccc([nH]4)c(-c4c(F)cccc4F)c4nc(c(-c5c(F)cccc5F)c5ccc2[nH]5)C=C4)C=C3)cc1
REMARK SMILES IDX 22 1 21 2 20 3 19 4 17 5 18 6 5 8 4 9 3 10 2 11 1 12 6 13
REMARK SMILES IDX 7 14 8 16 9 17 10 18 15 19 11 20 14 21 16 22 12 23 13 24
REMARK SMILES IDX 23 25 24 26 25 27 26 28 27 29 28 31 29 32 30 33 82 34 31 35
REMARK SMILES IDX 81 36 32 37 33 38 34 39 75 40 35 41 80 42 74 43 76 44 36 45
REMARK SMILES IDX 79 46 73 47 72 48 37 50 63 51 46 52 62 53 47 54 50 55 61 56
REMARK SMILES IDX 77 57 48 58 49 59 60 61 78 62 51 63 38 64 39 65 44 66 40 67
REMARK SMILES IDX 41 68 43 69 45 70 42 71 64 72 65 73 70 74 66 75 67 76 69 77
REMARK SMILES IDX 71 78 68 79 52 80 53 81 58 82 54 83 55 84 57 85 59 86 56 87
REMARK H PARENT 19 7 6 15 26 30 76 49 50 60
REMARK Flexibility Score: inf
ROOT
ATOM      1  C   UNL A   1      35.589  19.591  24.982  1.00  0.00     0.002 C 
ENDROOT
BRANCH   1   2
ATOM      2  C   UNL A   1      34.377  18.673  24.762  1.00  0.00     0.021 C 
BRANCH   2   3
ATOM      3  C   UNL A   1      33.046  19.391  24.938  1.00  0.00     0.116 C 
BRANCH   3   4
ATOM      4  N   UNL A   1      32.508  19.839  23.671  1.00  0.00    -0.354 N 
ATOM      5  C   UNL A   1      32.153  21.072  23.226  1.00  0.00     0.242 C 
ATOM      6  O   UNL A   1      31.779  21.153  22.050  1.00  0.00    -0.273 OA
ATOM      7  H   UNL A   1      32.374  19.120  23.013  1.00  0.00     0.163 HD
BRANCH   5   8
ATOM      8  C   UNL A   1      32.156  22.319  24.125  1.00  0.00     0.173 C 
BRANCH   8   9
ATOM      9  C   UNL A   1      31.048  22.584  25.157  1.00  0.00     0.063 C 
BRANCH   9  10
ATOM     10  C   UNL A   1      31.273  23.465  26.384  1.00  0.00     0.162 C 
BRANCH  10  11
ATOM     11  O   UNL A   1      30.347  24.529  26.552  1.00  0.00    -0.385 OA
ATOM     12  C   UNL A   1      30.374  25.525  25.544  1.00  0.00     0.194 C 
ENDBRANCH  10  11
ENDBRANCH   9  10
ENDBRANCH   8   9
BRANCH   8  13
ATOM     13  N   UNL A   1      32.379  23.454  23.211  1.00  0.00    -0.340 N 
ATOM     14  C   UNL A   1      33.531  24.075  22.809  1.00  0.00     0.254 C 
ATOM     15  H   UNL A   1      31.556  23.830  22.822  1.00  0.00     0.164 HD
ATOM     16  O   UNL A   1      33.498  24.814  21.829  1.00  0.00    -0.269 OA
BRANCH  14  17
ATOM     17  C   UNL A   1      34.770  23.927  23.579  1.00  0.00     0.075 A 
ATOM     18  C   UNL A   1      35.851  23.167  23.126  1.00  0.00     0.017 A 
ATOM     19  C   UNL A   1      34.846  24.581  24.806  1.00  0.00     0.136 A 
ATOM     20  C   UNL A   1      36.961  22.984  23.956  1.00  0.00     0.004 A 
ATOM     21  C   UNL A   1      35.961  24.422  25.623  1.00  0.00     0.043 A 
ATOM     22  F   UNL A   1      33.833  25.340  25.250  1.00  0.00    -0.206 F 
ATOM     23  C   UNL A   1      37.013  23.593  25.218  1.00  0.00    -0.048 A 
ATOM     24  C   UNL A   1      38.178  23.376  26.137  1.00  0.00     0.044 C 
ENDBRANCH  14  17
ENDBRANCH   8  13
ENDBRANCH   5   8
ENDBRANCH   3   4
ENDBRANCH   2   3
ENDBRANCH   1   2
BRANCH   1  25
ATOM     25  C   UNL A   1      36.951  18.884  25.002  1.00  0.00     0.002 C 
BRANCH  25  26
ATOM     26  C   UNL A   1      38.146  19.763  24.628  1.00  0.00     0.021 C 
BRANCH  26  27
ATOM     27  C   UNL A   1      39.124  20.016  25.767  1.00  0.00     0.116 C 
BRANCH  27  28
ATOM     28  N   UNL A   1      40.176  19.016  25.826  1.00  0.00    -0.352 N 
ATOM     29  C   UNL A   1      41.521  19.193  26.040  1.00  0.00     0.251 C 
ATOM     30  H   UNL A   1      39.885  18.086  25.695  1.00  0.00     0.163 HD
ATOM     31  O   UNL A   1      42.299  18.260  25.910  1.00  0.00    -0.269 OA
BRANCH  29  32
ATOM     32  C   UNL A   1      42.019  20.536  26.401  1.00  0.00     0.039 A 
ATOM     33  C   UNL A   1      42.333  21.431  25.377  1.00  0.00     0.014 A 
ATOM     34  C   UNL A   1      42.156  20.913  27.739  1.00  0.00     0.014 A 
ATOM     35  C   UNL A   1      42.737  22.727  25.698  1.00  0.00     0.010 A 
ATOM     36  C   UNL A   1      42.480  22.227  28.056  1.00  0.00     0.010 A 
ATOM     37  C   UNL A   1      42.783  23.144  27.038  1.00  0.00    -0.014 A 
BRANCH  37  38
ATOM     38  C   UNL A   1      43.155  24.537  27.391  1.00  0.00     0.031 A 
ATOM     39  C   UNL A   1      44.595  24.965  27.356  1.00  0.00     0.074 A 
ATOM     40  C   UNL A   1      42.201  25.400  27.789  1.00  0.00     0.049 A 
ATOM     41  N   UNL A   1      45.121  26.122  27.664  1.00  0.00    -0.248 NA
ATOM     42  C   UNL A   1      45.579  23.950  26.945  1.00  0.00     0.031 C 
ATOM     43  C   UNL A   1      40.775  25.088  27.911  1.00  0.00     0.029 A 
ATOM     44  N   UNL A   1      42.287  26.714  28.170  1.00  0.00    -0.354 N 
ATOM     45  C   UNL A   1      46.491  25.972  27.495  1.00  0.00     0.074 A 
ATOM     46  C   UNL A   1      46.723  24.595  27.117  1.00  0.00     0.031 C 
ATOM     47  C   UNL A   1      40.117  26.188  28.309  1.00  0.00     0.029 A 
ATOM     48  C   UNL A   1      41.076  27.270  28.510  1.00  0.00     0.049 A 
ATOM     49  H   UNL A   1      43.135  27.213  28.199  1.00  0.00     0.167 HD
ATOM     50  C   UNL A   1      47.467  26.903  27.618  1.00  0.00     0.037 A 
ATOM     51  C   UNL A   1      40.776  28.509  28.941  1.00  0.00     0.037 A 
ATOM     52  C   UNL A   1      47.229  28.276  27.979  1.00  0.00     0.049 A 
ATOM     53  C   UNL A   1      41.880  29.521  29.085  1.00  0.00     0.074 A 
ATOM     54  C   UNL A   1      48.141  29.312  28.076  1.00  0.00     0.029 A 
ATOM     55  N   UNL A   1      45.989  28.802  28.308  1.00  0.00    -0.354 N 
ATOM     56  N   UNL A   1      43.163  29.385  28.850  1.00  0.00    -0.248 NA
ATOM     57  C   UNL A   1      41.492  30.860  29.546  1.00  0.00     0.031 C 
ATOM     58  C   UNL A   1      47.463  30.452  28.518  1.00  0.00     0.029 A 
ATOM     59  C   UNL A   1      46.116  30.143  28.636  1.00  0.00     0.049 A 
ATOM     60  H   UNL A   1      45.143  28.299  28.309  1.00  0.00     0.167 HD
ATOM     61  C   UNL A   1      43.730  30.627  29.105  1.00  0.00     0.074 A 
ATOM     62  C   UNL A   1      42.648  31.506  29.497  1.00  0.00     0.031 C 
ATOM     63  C   UNL A   1      45.028  31.006  29.020  1.00  0.00     0.037 A 
BRANCH  50  64
ATOM     64  C   UNL A   1      48.881  26.463  27.362  1.00  0.00     0.057 A 
ATOM     65  C   UNL A   1      49.706  25.986  28.389  1.00  0.00     0.134 A 
ATOM     66  C   UNL A   1      49.414  26.489  26.067  1.00  0.00     0.134 A 
ATOM     67  F   UNL A   1      49.262  25.946  29.655  1.00  0.00    -0.206 F 
ATOM     68  C   UNL A   1      51.019  25.581  28.144  1.00  0.00     0.040 A 
ATOM     69  C   UNL A   1      50.715  26.057  25.804  1.00  0.00     0.040 A 
ATOM     70  F   UNL A   1      48.677  26.927  25.034  1.00  0.00    -0.206 F 
ATOM     71  C   UNL A   1      51.525  25.609  26.846  1.00  0.00     0.006 A 
ENDBRANCH  50  64
BRANCH  51  72
ATOM     72  C   UNL A   1      39.369  28.870  29.246  1.00  0.00     0.057 A 
ATOM     73  C   UNL A   1      38.827  28.658  30.521  1.00  0.00     0.134 A 
ATOM     74  C   UNL A   1      38.528  29.425  28.276  1.00  0.00     0.134 A 
ATOM     75  F   UNL A   1      39.577  28.112  31.490  1.00  0.00    -0.206 F 
ATOM     76  C   UNL A   1      37.496  28.962  30.811  1.00  0.00     0.040 A 
ATOM     77  C   UNL A   1      37.203  29.761  28.559  1.00  0.00     0.040 A 
ATOM     78  F   UNL A   1      38.987  29.664  27.038  1.00  0.00    -0.206 F 
ATOM     79  C   UNL A   1      36.681  29.520  29.829  1.00  0.00     0.006 A 
ENDBRANCH  51  72
BRANCH  63  80
ATOM     80  C   UNL A   1      45.347  32.443  29.320  1.00  0.00     0.057 A 
ATOM     81  C   UNL A   1      45.287  33.440  28.338  1.00  0.00     0.134 A 
ATOM     82  C   UNL A   1      45.684  32.839  30.621  1.00  0.00     0.134 A 
ATOM     83  F   UNL A   1      44.983  33.126  27.069  1.00  0.00    -0.206 F 
ATOM     84  C   UNL A   1      45.577  34.773  28.632  1.00  0.00     0.040 A 
ATOM     85  C   UNL A   1      45.945  34.173  30.935  1.00  0.00     0.040 A 
ATOM     86  F   UNL A   1      45.751  31.937  31.613  1.00  0.00    -0.206 F 
ATOM     87  C   UNL A   1      45.899  35.143  29.937  1.00  0.00     0.006 A 
ENDBRANCH  63  80
ENDBRANCH  37  38
ENDBRANCH  29  32
ENDBRANCH  27  28
ENDBRANCH  26  27
ENDBRANCH  25  26
ENDBRANCH   1  25
TORSDOF 18
ENDMDL
MODEL 3
REMARK VINA RESULT:     -10.5      1.739      6.580
REMARK SMILES COCC[C@H](NC(=O)c1ccc(C)cc1F)C(=O)NCCCCCCNC(=O)c1ccc(-c2c3nc(c(-c4c(F)cccc4F)c4ccc([nH]4)c(-c4c(F)cccc4F)c4nc(c(-c5c(F)cccc5F)c5ccc2[nH]5)C=C4)C=C3)cc1
REMARK SMILES IDX 22 1 21 2 20 3 19 4 17 5 18 6 5 8 4 9 3 10 2 11 1 12 6 13
REMARK SMILES IDX 7 14 8 16 9 17 10 18 15 19 11 20 14 21 16 22 12 23 13 24
REMARK SMILES IDX 23 25 24 26 25 27 26 28 27 29 28 31 29 32 30 33 82 34 31 35
REMARK SMILES IDX 81 36 32 37 33 38 34 39 75 40 35 41 80 42 74 43 76 44 36 45
REMARK SMILES IDX 79 46 73 47 72 48 37 50 63 51 46 52 62 53 47 54 50 55 61 56
REMARK SMILES IDX 77 57 48 58 49 59 60 61 78 62 51 63 38 64 39 65 44 66 40 67
REMARK SMILES IDX 41 68 43 69 45 70 42 71 64 72 65 73 70 74 66 75 67 76 69 77
REMARK SMILES IDX 71 78 68 79 52 80 53 81 58 82 54 83 55 84 57 85 59 86 56 87
REMARK H PARENT 19 7 6 15 26 30 76 49 50 60
REMARK Flexibility Score: inf
ROOT
ATOM      1  C   UNL A   1      36.873  21.949  24.195  1.00  0.00     0.002 C 
ENDROOT
BRANCH   1   2
ATOM      2  C   UNL A   1      36.575  23.215  25.012  1.00  0.00     0.021 C 
BRANCH   2   3
ATOM      3  C   UNL A   1      35.214  23.821  24.697  1.00  0.00     0.116 C 
BRANCH   3   4
ATOM      4  N   UNL A   1      34.802  23.534  23.339  1.00  0.00    -0.354 N 
ATOM      5  C   UNL A   1      33.592  23.608  22.727  1.00  0.00     0.242 C 
ATOM      6  O   UNL A   1      33.563  23.357  21.517  1.00  0.00    -0.273 OA
ATOM      7  H   UNL A   1      35.531  23.228  22.753  1.00  0.00     0.163 HD
BRANCH   5   8
ATOM      8  C   UNL A   1      32.293  23.938  23.479  1.00  0.00     0.173 C 
BRANCH   8   9
ATOM      9  C   UNL A   1      31.398  22.842  24.082  1.00  0.00     0.063 C 
BRANCH   9  10
ATOM     10  C   UNL A   1      31.868  21.946  25.226  1.00  0.00     0.162 C 
BRANCH  10  11
ATOM     11  O   UNL A   1      31.839  20.551  24.964  1.00  0.00    -0.385 OA
ATOM     12  C   UNL A   1      32.668  20.113  23.901  1.00  0.00     0.194 C 
ENDBRANCH  10  11
ENDBRANCH   9  10
ENDBRANCH   8   9
BRANCH   8  13
ATOM     13  N   UNL A   1      31.560  24.864  22.598  1.00  0.00    -0.340 N 
ATOM     14  C   UNL A   1      31.566  26.231  22.521  1.00  0.00     0.254 C 
ATOM     15  H   UNL A   1      30.962  24.422  21.952  1.00  0.00     0.164 HD
ATOM     16  O   UNL A   1      31.090  26.773  21.527  1.00  0.00    -0.269 OA
BRANCH  14  17
ATOM     17  C   UNL A   1      32.057  27.042  23.639  1.00  0.00     0.075 A 
ATOM     18  C   UNL A   1      33.372  27.509  23.709  1.00  0.00     0.017 A 
ATOM     19  C   UNL A   1      31.157  27.345  24.658  1.00  0.00     0.136 A 
ATOM     20  C   UNL A   1      33.802  28.188  24.852  1.00  0.00     0.004 A 
ATOM     21  C   UNL A   1      31.575  28.045  25.784  1.00  0.00     0.043 A 
ATOM     22  F   UNL A   1      29.882  26.933  24.600  1.00  0.00    -0.206 F 
ATOM     23  C   UNL A   1      32.912  28.443  25.905  1.00  0.00    -0.048 A 
ATOM     24  C   UNL A   1      33.366  29.137  27.155  1.00  0.00     0.044 C 
ENDBRANCH  14  17
ENDBRANCH   8  13
ENDBRANCH   5   8
ENDBRANCH   3   4
ENDBRANCH   2   3
ENDBRANCH   1   2
BRANCH   1  25
ATOM     25  C   UNL A   1      36.663  20.623  24.939  1.00  0.00     0.002 C 
BRANCH  25  26
ATOM     26  C   UNL A   1      37.861  19.672  24.926  1.00  0.00     0.021 C 
BRANCH  26  27
ATOM     27  C   UNL A   1      39.058  20.156  25.732  1.00  0.00     0.116 C 
BRANCH  27  28
ATOM     28  N   UNL A   1      40.121  19.167  25.794  1.00  0.00    -0.352 N 
ATOM     29  C   UNL A   1      41.448  19.348  26.095  1.00  0.00     0.251 C 
ATOM     30  H   UNL A   1      39.852  18.243  25.593  1.00  0.00     0.163 HD
ATOM     31  O   UNL A   1      42.247  18.434  25.955  1.00  0.00    -0.269 OA
BRANCH  29  32
ATOM     32  C   UNL A   1      41.904  20.673  26.560  1.00  0.00     0.039 A 
ATOM     33  C   UNL A   1      42.332  21.605  25.613  1.00  0.00     0.014 A 
ATOM     34  C   UNL A   1      41.892  20.998  27.919  1.00  0.00     0.014 A 
ATOM     35  C   UNL A   1      42.698  22.886  26.027  1.00  0.00     0.010 A 
ATOM     36  C   UNL A   1      42.180  22.297  28.321  1.00  0.00     0.010 A 
ATOM     37  C   UNL A   1      42.595  23.251  27.379  1.00  0.00    -0.014 A 
BRANCH  37  38
ATOM     38  C   UNL A   1      42.927  24.627  27.825  1.00  0.00     0.031 A 
ATOM     39  C   UNL A   1      44.360  25.027  28.033  1.00  0.00     0.074 A 
ATOM     40  C   UNL A   1      41.934  25.498  28.088  1.00  0.00     0.049 A 
ATOM     41  N   UNL A   1      44.848  26.166  28.453  1.00  0.00    -0.248 NA
ATOM     42  C   UNL A   1      45.382  24.004  27.758  1.00  0.00     0.031 C 
ATOM     43  C   UNL A   1      40.503  25.212  27.971  1.00  0.00     0.029 A 
ATOM     44  N   UNL A   1      41.978  26.802  28.514  1.00  0.00    -0.354 N 
ATOM     45  C   UNL A   1      46.225  25.994  28.502  1.00  0.00     0.074 A 
ATOM     46  C   UNL A   1      46.493  24.622  28.128  1.00  0.00     0.031 C 
ATOM     47  C   UNL A   1      39.807  26.314  28.289  1.00  0.00     0.029 A 
ATOM     48  C   UNL A   1      40.738  27.372  28.670  1.00  0.00     0.049 A 
ATOM     49  H   UNL A   1      42.818  27.283  28.692  1.00  0.00     0.167 HD
ATOM     50  C   UNL A   1      47.182  26.902  28.805  1.00  0.00     0.037 A 
ATOM     51  C   UNL A   1      40.391  28.606  29.081  1.00  0.00     0.037 A 
ATOM     52  C   UNL A   1      46.910  28.271  29.160  1.00  0.00     0.049 A 
ATOM     53  C   UNL A   1      41.472  29.592  29.427  1.00  0.00     0.074 A 
ATOM     54  C   UNL A   1      47.810  29.286  29.431  1.00  0.00     0.029 A 
ATOM     55  N   UNL A   1      45.642  28.813  29.301  1.00  0.00    -0.354 N 
ATOM     56  N   UNL A   1      42.774  29.437  29.397  1.00  0.00    -0.248 NA
ATOM     57  C   UNL A   1      41.036  30.928  29.857  1.00  0.00     0.031 C 
ATOM     58  C   UNL A   1      47.088  30.427  29.789  1.00  0.00     0.029 A 
ATOM     59  C   UNL A   1      45.735  30.142  29.681  1.00  0.00     0.049 A 
ATOM     60  H   UNL A   1      44.799  28.326  29.152  1.00  0.00     0.167 HD
ATOM     61  C   UNL A   1      43.312  30.661  29.774  1.00  0.00     0.074 A 
ATOM     62  C   UNL A   1      42.195  31.552  30.011  1.00  0.00     0.031 C 
ATOM     63  C   UNL A   1      44.613  31.017  29.909  1.00  0.00     0.037 A 
BRANCH  50  64
ATOM     64  C   UNL A   1      48.611  26.442  28.767  1.00  0.00     0.057 A 
ATOM     65  C   UNL A   1      49.244  25.897  29.893  1.00  0.00     0.134 A 
ATOM     66  C   UNL A   1      49.355  26.516  27.583  1.00  0.00     0.134 A 
ATOM     67  F   UNL A   1      48.594  25.807  31.062  1.00  0.00    -0.206 F 
ATOM     68  C   UNL A   1      50.574  25.473  29.851  1.00  0.00     0.040 A 
ATOM     69  C   UNL A   1      50.675  26.065  27.520  1.00  0.00     0.040 A 
ATOM     70  F   UNL A   1      48.810  27.020  26.465  1.00  0.00    -0.206 F 
ATOM     71  C   UNL A   1      51.291  25.550  28.658  1.00  0.00     0.006 A 
ENDBRANCH  50  64
BRANCH  51  72
ATOM     72  C   UNL A   1      38.958  28.987  29.166  1.00  0.00     0.057 A 
ATOM     73  C   UNL A   1      38.287  29.534  28.065  1.00  0.00     0.134 A 
ATOM     74  C   UNL A   1      38.227  28.824  30.348  1.00  0.00     0.134 A 
ATOM     75  F   UNL A   1      38.939  29.731  26.909  1.00  0.00    -0.206 F 
ATOM     76  C   UNL A   1      36.950  29.926  28.142  1.00  0.00     0.040 A 
ATOM     77  C   UNL A   1      36.881  29.185  30.432  1.00  0.00     0.040 A 
ATOM     78  F   UNL A   1      38.807  28.296  31.436  1.00  0.00    -0.206 F 
ATOM     79  C   UNL A   1      36.242  29.747  29.328  1.00  0.00     0.006 A 
ENDBRANCH  51  72
BRANCH  63  80
ATOM     80  C   UNL A   1      44.901  32.439  30.295  1.00  0.00     0.057 A 
ATOM     81  C   UNL A   1      45.099  32.823  31.628  1.00  0.00     0.134 A 
ATOM     82  C   UNL A   1      45.016  33.433  29.314  1.00  0.00     0.134 A 
ATOM     83  F   UNL A   1      44.990  31.924  32.617  1.00  0.00    -0.206 F 
ATOM     84  C   UNL A   1      45.375  34.147  31.973  1.00  0.00     0.040 A 
ATOM     85  C   UNL A   1      45.323  34.753  29.643  1.00  0.00     0.040 A 
ATOM     86  F   UNL A   1      44.848  33.134  28.017  1.00  0.00    -0.206 F 
ATOM     87  C   UNL A   1      45.495  35.115  30.977  1.00  0.00     0.006 A 
ENDBRANCH  63  80
ENDBRANCH  37  38
ENDBRANCH  29  32
ENDBRANCH  27  28
ENDBRANCH  26  27
ENDBRANCH  25  26
ENDBRANCH   1  25
TORSDOF 18
ENDMDL
