MODEL 1
REMARK VINA RESULT:     -10.7      0.000      0.000
REMARK SMILES CCOc1cc(OCC)cc(-c2ccc([C@@H](C)C(=O)NCCCCCCNC(=O)c3ccc(-c4c5nc(c(-c6c(F)cccc6F)c6ccc([nH]6)c(-c6c(F)cccc6F)c6nc(c(-c7c(F)cccc7F)c7ccc4[nH]7)C=C6)C=C5)cc3)cc2F)c1
REMARK SMILES IDX 22 1 21 2 20 3 18 4 19 5 16 7 17 8 15 9 12 10 13 11 85 12
REMARK SMILES IDX 14 13 84 14 86 15 11 16 4 17 5 18 87 19 6 20 10 21 3 22 2 23
REMARK SMILES IDX 1 24 7 25 8 26 9 27 23 28 24 29 25 30 26 31 27 32 28 33
REMARK SMILES IDX 29 35 30 36 31 37 83 38 32 39 82 40 33 41 34 42 35 43 76 44
REMARK SMILES IDX 36 45 81 46 75 47 77 48 37 49 80 50 74 51 73 52 38 54 64 55
REMARK SMILES IDX 47 56 63 57 48 58 51 59 62 60 78 61 49 62 50 63 61 65 79 66
REMARK SMILES IDX 52 67 39 68 40 69 45 70 41 71 42 72 44 73 46 74 43 75 65 76
REMARK SMILES IDX 66 77 71 78 67 79 68 80 70 81 72 82 69 83 53 84 54 85 59 86
REMARK SMILES IDX 55 87 56 88 58 89 60 90 57 91
REMARK H PARENT 20 6 27 34 77 53 51 64
REMARK Flexibility Score: inf
ROOT
ATOM      1  C   UNL A   1      33.398  22.392  27.722  1.00  0.00     0.021 C 
ENDROOT
BRANCH   1   2
ATOM      2  C   UNL A   1      32.971  20.968  27.352  1.00  0.00     0.116 C 
BRANCH   2   3
ATOM      3  N   UNL A   1      33.856  20.377  26.371  1.00  0.00    -0.356 N 
ATOM      4  C   UNL A   1      33.686  20.075  25.055  1.00  0.00     0.227 C 
ATOM      5  O   UNL A   1      34.627  19.493  24.501  1.00  0.00    -0.274 OA
ATOM      6  H   UNL A   1      34.748  20.151  26.721  1.00  0.00     0.163 HD
BRANCH   4   7
ATOM      7  C   UNL A   1      32.421  20.415  24.252  1.00  0.00     0.105 C 
ATOM      8  C   UNL A   1      32.220  19.562  23.000  1.00  0.00     0.023 C 
BRANCH   7   9
ATOM      9  C   UNL A   1      32.207  21.908  24.071  1.00  0.00    -0.033 A 
ATOM     10  C   UNL A   1      31.854  24.741  23.885  1.00  0.00     0.018 A 
ATOM     11  C   UNL A   1      32.749  24.046  23.052  1.00  0.00     0.012 A 
ATOM     12  C   UNL A   1      31.125  23.967  24.798  1.00  0.00     0.131 A 
ATOM     13  C   UNL A   1      32.893  22.659  23.116  1.00  0.00     0.005 A 
ATOM     14  C   UNL A   1      31.308  22.586  24.908  1.00  0.00     0.044 A 
ATOM     15  F   UNL A   1      30.215  24.536  25.606  1.00  0.00    -0.206 F 
BRANCH  10  16
ATOM     16  C   UNL A   1      31.740  26.213  23.786  1.00  0.00    -0.008 A 
ATOM     17  C   UNL A   1      32.439  28.459  24.416  1.00  0.00     0.123 A 
ATOM     18  C   UNL A   1      31.614  29.011  23.438  1.00  0.00     0.092 A 
ATOM     19  C   UNL A   1      32.490  27.077  24.596  1.00  0.00     0.055 A 
ATOM     20  C   UNL A   1      30.833  28.182  22.634  1.00  0.00     0.123 A 
ATOM     21  C   UNL A   1      30.892  26.801  22.827  1.00  0.00     0.055 A 
BRANCH  17  22
ATOM     22  O   UNL A   1      33.094  29.308  25.266  1.00  0.00    -0.494 OA
BRANCH  22  23
ATOM     23  C   UNL A   1      34.115  28.678  26.051  1.00  0.00     0.226 C 
ATOM     24  C   UNL A   1      34.520  29.516  27.253  1.00  0.00     0.049 C 
ENDBRANCH  22  23
ENDBRANCH  17  22
BRANCH  20  25
ATOM     25  O   UNL A   1      30.079  28.814  21.682  1.00  0.00    -0.494 OA
BRANCH  25  26
ATOM     26  C   UNL A   1      29.563  30.115  21.982  1.00  0.00     0.226 C 
ATOM     27  C   UNL A   1      28.119  30.268  21.526  1.00  0.00     0.049 C 
ENDBRANCH  25  26
ENDBRANCH  20  25
ENDBRANCH  10  16
ENDBRANCH   7   9
ENDBRANCH   4   7
ENDBRANCH   2   3
ENDBRANCH   1   2
BRANCH   1  28
ATOM     28  C   UNL A   1      34.811  22.758  27.255  1.00  0.00     0.002 C 
BRANCH  28  29
ATOM     29  C   UNL A   1      34.876  23.664  26.017  1.00  0.00     0.002 C 
BRANCH  29  30
ATOM     30  C   UNL A   1      36.221  24.355  25.771  1.00  0.00     0.021 C 
BRANCH  30  31
ATOM     31  C   UNL A   1      37.152  23.630  24.801  1.00  0.00     0.116 C 
BRANCH  31  32
ATOM     32  N   UNL A   1      37.903  22.572  25.457  1.00  0.00    -0.352 N 
ATOM     33  C   UNL A   1      39.030  22.640  26.236  1.00  0.00     0.251 C 
ATOM     34  H   UNL A   1      37.545  21.664  25.323  1.00  0.00     0.163 HD
ATOM     35  O   UNL A   1      39.643  21.614  26.512  1.00  0.00    -0.269 OA
BRANCH  33  36
ATOM     36  C   UNL A   1      39.521  23.943  26.738  1.00  0.00     0.039 A 
ATOM     37  C   UNL A   1      40.126  24.824  25.838  1.00  0.00     0.014 A 
ATOM     38  C   UNL A   1      39.438  24.275  28.094  1.00  0.00     0.014 A 
ATOM     39  C   UNL A   1      40.599  26.060  26.286  1.00  0.00     0.010 A 
ATOM     40  C   UNL A   1      39.853  25.533  28.528  1.00  0.00     0.010 A 
ATOM     41  C   UNL A   1      40.440  26.436  27.629  1.00  0.00    -0.014 A 
BRANCH  41  42
ATOM     42  C   UNL A   1      40.874  27.775  28.101  1.00  0.00     0.031 A 
ATOM     43  C   UNL A   1      42.332  28.142  28.128  1.00  0.00     0.074 A 
ATOM     44  C   UNL A   1      39.952  28.644  28.561  1.00  0.00     0.049 A 
ATOM     45  N   UNL A   1      42.898  29.247  28.544  1.00  0.00    -0.248 NA
ATOM     46  C   UNL A   1      43.281  27.125  27.646  1.00  0.00     0.031 C 
ATOM     47  C   UNL A   1      38.513  28.388  28.637  1.00  0.00     0.029 A 
ATOM     48  N   UNL A   1      40.090  29.915  29.059  1.00  0.00    -0.354 N 
ATOM     49  C   UNL A   1      44.264  29.054  28.388  1.00  0.00     0.074 A 
ATOM     50  C   UNL A   1      44.446  27.711  27.882  1.00  0.00     0.031 C 
ATOM     51  C   UNL A   1      37.899  29.474  29.133  1.00  0.00     0.029 A 
ATOM     52  C   UNL A   1      38.901  30.490  29.436  1.00  0.00     0.049 A 
ATOM     53  H   UNL A   1      40.959  30.372  29.138  1.00  0.00     0.167 HD
ATOM     54  C   UNL A   1      45.275  29.925  28.625  1.00  0.00     0.037 A 
ATOM     55  C   UNL A   1      38.647  31.700  29.970  1.00  0.00     0.037 A 
ATOM     56  C   UNL A   1      45.091  31.271  29.101  1.00  0.00     0.049 A 
ATOM     57  C   UNL A   1      39.784  32.652  30.211  1.00  0.00     0.074 A 
ATOM     58  C   UNL A   1      46.046  32.252  29.305  1.00  0.00     0.029 A 
ATOM     59  N   UNL A   1      43.869  31.825  29.450  1.00  0.00    -0.354 N 
ATOM     60  N   UNL A   1      41.064  32.482  29.987  1.00  0.00    -0.248 NA
ATOM     61  C   UNL A   1      39.440  33.967  30.769  1.00  0.00     0.031 C 
ATOM     62  C   UNL A   1      45.407  33.388  29.815  1.00  0.00     0.029 A 
ATOM     63  C   UNL A   1      44.048  33.127  29.889  1.00  0.00     0.049 A 
ATOM     64  H   UNL A   1      43.002  31.362  29.395  1.00  0.00     0.167 HD
ATOM     65  C   UNL A   1      41.676  33.673  30.356  1.00  0.00     0.074 A 
ATOM     66  C   UNL A   1      40.624  34.563  30.801  1.00  0.00     0.031 C 
ATOM     67  C   UNL A   1      42.991  34.001  30.327  1.00  0.00     0.037 A 
BRANCH  54  68
ATOM     68  C   UNL A   1      46.675  29.451  28.366  1.00  0.00     0.057 A 
ATOM     69  C   UNL A   1      47.447  28.851  29.369  1.00  0.00     0.134 A 
ATOM     70  C   UNL A   1      47.243  29.556  27.091  1.00  0.00     0.134 A 
ATOM     71  F   UNL A   1      46.966  28.729  30.616  1.00  0.00    -0.206 F 
ATOM     72  C   UNL A   1      48.741  28.390  29.118  1.00  0.00     0.040 A 
ATOM     73  C   UNL A   1      48.526  29.078  26.820  1.00  0.00     0.040 A 
ATOM     74  F   UNL A   1      46.555  30.115  26.083  1.00  0.00    -0.206 F 
ATOM     75  C   UNL A   1      49.281  28.497  27.838  1.00  0.00     0.006 A 
ENDBRANCH  54  68
BRANCH  55  76
ATOM     76  C   UNL A   1      37.251  32.089  30.293  1.00  0.00     0.057 A 
ATOM     77  C   UNL A   1      36.451  32.749  29.352  1.00  0.00     0.134 A 
ATOM     78  C   UNL A   1      36.687  31.816  31.544  1.00  0.00     0.134 A 
ATOM     79  F   UNL A   1      36.944  33.053  28.143  1.00  0.00    -0.206 F 
ATOM     80  C   UNL A   1      35.146  33.141  29.651  1.00  0.00     0.040 A 
ATOM     81  C   UNL A   1      35.374  32.182  31.848  1.00  0.00     0.040 A 
ATOM     82  F   UNL A   1      37.400  31.179  32.485  1.00  0.00    -0.206 F 
ATOM     83  C   UNL A   1      34.603  32.853  30.901  1.00  0.00     0.006 A 
ENDBRANCH  55  76
BRANCH  67  84
ATOM     84  C   UNL A   1      43.359  35.385  30.769  1.00  0.00     0.057 A 
ATOM     85  C   UNL A   1      43.619  35.686  32.113  1.00  0.00     0.134 A 
ATOM     86  C   UNL A   1      43.486  36.422  29.837  1.00  0.00     0.134 A 
ATOM     87  F   UNL A   1      43.501  34.740  33.057  1.00  0.00    -0.206 F 
ATOM     88  C   UNL A   1      43.969  36.975  32.516  1.00  0.00     0.040 A 
ATOM     89  C   UNL A   1      43.860  37.710  30.224  1.00  0.00     0.040 A 
ATOM     90  F   UNL A   1      43.258  36.198  28.534  1.00  0.00    -0.206 F 
ATOM     91  C   UNL A   1      44.096  37.991  31.569  1.00  0.00     0.006 A 
ENDBRANCH  67  84
ENDBRANCH  41  42
ENDBRANCH  33  36
ENDBRANCH  31  32
ENDBRANCH  30  31
ENDBRANCH  29  30
ENDBRANCH  28  29
ENDBRANCH   1  28
TORSDOF 19
ENDMDL
MODEL 2
REMARK VINA RESULT:     -10.6      2.449      3.958
REMARK SMILES CCOc1cc(OCC)cc(-c2ccc([C@@H](C)C(=O)NCCCCCCNC(=O)c3ccc(-c4c5nc(c(-c6c(F)cccc6F)c6ccc([nH]6)c(-c6c(F)cccc6F)c6nc(c(-c7c(F)cccc7F)c7ccc4[nH]7)C=C6)C=C5)cc3)cc2F)c1
REMARK SMILES IDX 22 1 21 2 20 3 18 4 19 5 16 7 17 8 15 9 12 10 13 11 85 12
REMARK SMILES IDX 14 13 84 14 86 15 11 16 4 17 5 18 87 19 6 20 10 21 3 22 2 23
REMARK SMILES IDX 1 24 7 25 8 26 9 27 23 28 24 29 25 30 26 31 27 32 28 33
REMARK SMILES IDX 29 35 30 36 31 37 83 38 32 39 82 40 33 41 34 42 35 43 76 44
REMARK SMILES IDX 36 45 81 46 75 47 77 48 37 49 80 50 74 51 73 52 38 54 64 55
REMARK SMILES IDX 47 56 63 57 48 58 51 59 62 60 78 61 49 62 50 63 61 65 79 66
REMARK SMILES IDX 52 67 39 68 40 69 45 70 41 71 42 72 44 73 46 74 43 75 65 76
REMARK SMILES IDX 66 77 71 78 67 79 68 80 70 81 72 82 69 83 53 84 54 85 59 86
REMARK SMILES IDX 55 87 56 88 58 89 60 90 57 91
REMARK H PARENT 20 6 27 34 77 53 51 64
REMARK Flexibility Score: inf
ROOT
ATOM      1  C   UNL A   1      36.691  21.413  24.613  1.00  0.00     0.021 C 
ENDROOT
BRANCH   1   2
ATOM      2  C   UNL A   1      35.481  22.098  23.970  1.00  0.00     0.116 C 
BRANCH   2   3
ATOM      3  N   UNL A   1      34.235  21.481  24.373  1.00  0.00    -0.356 N 
ATOM      4  C   UNL A   1      33.461  21.633  25.481  1.00  0.00     0.227 C 
ATOM      5  O   UNL A   1      32.476  20.890  25.568  1.00  0.00    -0.274 OA
ATOM      6  H   UNL A   1      33.883  20.830  23.725  1.00  0.00     0.163 HD
BRANCH   4   7
ATOM      7  C   UNL A   1      33.744  22.655  26.594  1.00  0.00     0.105 C 
ATOM      8  C   UNL A   1      33.393  22.170  28.001  1.00  0.00     0.023 C 
BRANCH   7   9
ATOM      9  C   UNL A   1      33.282  24.061  26.250  1.00  0.00    -0.033 A 
ATOM     10  C   UNL A   1      32.377  26.730  25.760  1.00  0.00     0.018 A 
ATOM     11  C   UNL A   1      33.701  26.334  25.502  1.00  0.00     0.012 A 
ATOM     12  C   UNL A   1      31.514  25.738  26.249  1.00  0.00     0.131 A 
ATOM     13  C   UNL A   1      34.133  25.023  25.705  1.00  0.00     0.005 A 
ATOM     14  C   UNL A   1      31.957  24.439  26.510  1.00  0.00     0.044 A 
ATOM     15  F   UNL A   1      30.221  26.011  26.484  1.00  0.00    -0.206 F 
BRANCH  10  16
ATOM     16  C   UNL A   1      31.965  28.133  25.536  1.00  0.00    -0.008 A 
ATOM     17  C   UNL A   1      30.615  29.810  24.397  1.00  0.00     0.123 A 
ATOM     18  C   UNL A   1      31.078  30.799  25.263  1.00  0.00     0.092 A 
ATOM     19  C   UNL A   1      31.065  28.496  24.524  1.00  0.00     0.055 A 
ATOM     20  C   UNL A   1      31.995  30.479  26.263  1.00  0.00     0.123 A 
ATOM     21  C   UNL A   1      32.439  29.160  26.376  1.00  0.00     0.055 A 
BRANCH  17  22
ATOM     22  O   UNL A   1      29.813  30.186  23.354  1.00  0.00    -0.494 OA
BRANCH  22  23
ATOM     23  C   UNL A   1      28.915  31.259  23.664  1.00  0.00     0.226 C 
ATOM     24  C   UNL A   1      27.805  31.400  22.634  1.00  0.00     0.049 C 
ENDBRANCH  22  23
ENDBRANCH  17  22
BRANCH  20  25
ATOM     25  O   UNL A   1      32.368  31.510  27.083  1.00  0.00    -0.494 OA
BRANCH  25  26
ATOM     26  C   UNL A   1      33.646  31.435  27.724  1.00  0.00     0.226 C 
ATOM     27  C   UNL A   1      34.156  32.812  28.125  1.00  0.00     0.049 C 
ENDBRANCH  25  26
ENDBRANCH  20  25
ENDBRANCH  10  16
ENDBRANCH   7   9
ENDBRANCH   4   7
ENDBRANCH   2   3
ENDBRANCH   1   2
BRANCH   1  28
ATOM     28  C   UNL A   1      37.628  22.373  25.354  1.00  0.00     0.002 C 
BRANCH  28  29
ATOM     29  C   UNL A   1      38.963  21.765  25.805  1.00  0.00     0.002 C 
BRANCH  29  30
ATOM     30  C   UNL A   1      39.180  20.293  25.439  1.00  0.00     0.021 C 
BRANCH  30  31
ATOM     31  C   UNL A   1      39.946  19.476  26.477  1.00  0.00     0.116 C 
BRANCH  31  32
ATOM     32  N   UNL A   1      41.223  19.006  25.964  1.00  0.00    -0.352 N 
ATOM     33  C   UNL A   1      42.394  19.687  25.749  1.00  0.00     0.251 C 
ATOM     34  H   UNL A   1      41.252  18.049  25.737  1.00  0.00     0.163 HD
ATOM     35  O   UNL A   1      43.293  19.164  25.098  1.00  0.00    -0.269 OA
BRANCH  33  36
ATOM     36  C   UNL A   1      42.580  21.054  26.287  1.00  0.00     0.039 A 
ATOM     37  C   UNL A   1      42.532  21.242  27.671  1.00  0.00     0.014 A 
ATOM     38  C   UNL A   1      42.748  22.150  25.436  1.00  0.00     0.014 A 
ATOM     39  C   UNL A   1      42.705  22.522  28.204  1.00  0.00     0.010 A 
ATOM     40  C   UNL A   1      42.982  23.416  25.972  1.00  0.00     0.010 A 
ATOM     41  C   UNL A   1      42.961  23.614  27.361  1.00  0.00    -0.014 A 
BRANCH  41  42
ATOM     42  C   UNL A   1      43.217  24.965  27.920  1.00  0.00     0.031 A 
ATOM     43  C   UNL A   1      44.616  25.402  28.258  1.00  0.00     0.074 A 
ATOM     44  C   UNL A   1      42.176  25.782  28.177  1.00  0.00     0.049 A 
ATOM     45  N   UNL A   1      45.024  26.526  28.789  1.00  0.00    -0.248 NA
ATOM     46  C   UNL A   1      45.695  24.439  27.985  1.00  0.00     0.031 C 
ATOM     47  C   UNL A   1      40.768  25.456  27.944  1.00  0.00     0.029 A 
ATOM     48  N   UNL A   1      42.142  27.051  28.698  1.00  0.00    -0.354 N 
ATOM     49  C   UNL A   1      46.401  26.402  28.927  1.00  0.00     0.074 A 
ATOM     50  C   UNL A   1      46.753  25.077  28.466  1.00  0.00     0.031 C 
ATOM     51  C   UNL A   1      40.010  26.504  28.302  1.00  0.00     0.029 A 
ATOM     52  C   UNL A   1      40.872  27.562  28.816  1.00  0.00     0.049 A 
ATOM     53  H   UNL A   1      42.950  27.548  28.962  1.00  0.00     0.167 HD
ATOM     54  C   UNL A   1      47.293  27.317  29.377  1.00  0.00     0.037 A 
ATOM     55  C   UNL A   1      40.450  28.750  29.289  1.00  0.00     0.037 A 
ATOM     56  C   UNL A   1      46.945  28.645  29.809  1.00  0.00     0.049 A 
ATOM     57  C   UNL A   1      41.461  29.752  29.770  1.00  0.00     0.074 A 
ATOM     58  C   UNL A   1      47.785  29.668  30.215  1.00  0.00     0.029 A 
ATOM     59  N   UNL A   1      45.650  29.134  29.892  1.00  0.00    -0.354 N 
ATOM     60  N   UNL A   1      42.767  29.648  29.823  1.00  0.00    -0.248 NA
ATOM     61  C   UNL A   1      40.941  31.041  30.247  1.00  0.00     0.031 C 
ATOM     62  C   UNL A   1      46.996  30.764  30.582  1.00  0.00     0.029 A 
ATOM     63  C   UNL A   1      45.667  30.437  30.364  1.00  0.00     0.049 A 
ATOM     64  H   UNL A   1      44.840  28.631  29.652  1.00  0.00     0.167 HD
ATOM     65  C   UNL A   1      43.226  30.862  30.318  1.00  0.00     0.074 A 
ATOM     66  C   UNL A   1      42.059  31.693  30.533  1.00  0.00     0.031 C 
ATOM     67  C   UNL A   1      44.498  31.252  30.571  1.00  0.00     0.037 A 
BRANCH  54  68
ATOM     68  C   UNL A   1      48.739  26.915  29.420  1.00  0.00     0.057 A 
ATOM     69  C   UNL A   1      49.302  26.310  30.551  1.00  0.00     0.134 A 
ATOM     70  C   UNL A   1      49.566  27.094  28.305  1.00  0.00     0.134 A 
ATOM     71  F   UNL A   1      48.566  26.118  31.657  1.00  0.00    -0.206 F 
ATOM     72  C   UNL A   1      50.641  25.916  30.579  1.00  0.00     0.040 A 
ATOM     73  C   UNL A   1      50.899  26.683  28.311  1.00  0.00     0.040 A 
ATOM     74  F   UNL A   1      49.088  27.661  27.186  1.00  0.00    -0.206 F 
ATOM     75  C   UNL A   1      51.442  26.096  29.453  1.00  0.00     0.006 A 
ENDBRANCH  54  68
BRANCH  55  76
ATOM     76  C   UNL A   1      39.000  29.067  29.308  1.00  0.00     0.057 A 
ATOM     77  C   UNL A   1      38.344  29.512  28.155  1.00  0.00     0.134 A 
ATOM     78  C   UNL A   1      38.240  28.939  30.476  1.00  0.00     0.134 A 
ATOM     79  F   UNL A   1      39.025  29.671  27.011  1.00  0.00    -0.206 F 
ATOM     80  C   UNL A   1      36.986  29.835  28.166  1.00  0.00     0.040 A 
ATOM     81  C   UNL A   1      36.876  29.236  30.495  1.00  0.00     0.040 A 
ATOM     82  F   UNL A   1      38.809  28.509  31.612  1.00  0.00    -0.206 F 
ATOM     83  C   UNL A   1      36.248  29.693  29.339  1.00  0.00     0.006 A 
ENDBRANCH  55  76
BRANCH  67  84
ATOM     84  C   UNL A   1      44.695  32.646  31.087  1.00  0.00     0.057 A 
ATOM     85  C   UNL A   1      44.742  32.926  32.459  1.00  0.00     0.134 A 
ATOM     86  C   UNL A   1      44.869  33.717  30.201  1.00  0.00     0.134 A 
ATOM     87  F   UNL A   1      44.568  31.945  33.359  1.00  0.00    -0.206 F 
ATOM     88  C   UNL A   1      44.933  34.224  32.932  1.00  0.00     0.040 A 
ATOM     89  C   UNL A   1      45.086  35.016  30.662  1.00  0.00     0.040 A 
ATOM     90  F   UNL A   1      44.841  33.516  28.875  1.00  0.00    -0.206 F 
ATOM     91  C   UNL A   1      45.112  35.274  32.032  1.00  0.00     0.006 A 
ENDBRANCH  67  84
ENDBRANCH  41  42
ENDBRANCH  33  36
ENDBRANCH  31  32
ENDBRANCH  30  31
ENDBRANCH  29  30
ENDBRANCH  28  29
ENDBRANCH   1  28
TORSDOF 19
ENDMDL
MODEL 3
REMARK VINA RESULT:     -10.6      2.428      7.233
REMARK SMILES CCOc1cc(OCC)cc(-c2ccc([C@@H](C)C(=O)NCCCCCCNC(=O)c3ccc(-c4c5nc(c(-c6c(F)cccc6F)c6ccc([nH]6)c(-c6c(F)cccc6F)c6nc(c(-c7c(F)cccc7F)c7ccc4[nH]7)C=C6)C=C5)cc3)cc2F)c1
REMARK SMILES IDX 22 1 21 2 20 3 18 4 19 5 16 7 17 8 15 9 12 10 13 11 85 12
REMARK SMILES IDX 14 13 84 14 86 15 11 16 4 17 5 18 87 19 6 20 10 21 3 22 2 23
REMARK SMILES IDX 1 24 7 25 8 26 9 27 23 28 24 29 25 30 26 31 27 32 28 33
REMARK SMILES IDX 29 35 30 36 31 37 83 38 32 39 82 40 33 41 34 42 35 43 76 44
REMARK SMILES IDX 36 45 81 46 75 47 77 48 37 49 80 50 74 51 73 52 38 54 64 55
REMARK SMILES IDX 47 56 63 57 48 58 51 59 62 60 78 61 49 62 50 63 61 65 79 66
REMARK SMILES IDX 52 67 39 68 40 69 45 70 41 71 42 72 44 73 46 74 43 75 65 76
REMARK SMILES IDX 66 77 71 78 67 79 68 80 70 81 72 82 69 83 53 84 54 85 59 86
REMARK SMILES IDX 55 87 56 88 58 89 60 90 57 91
REMARK H PARENT 20 6 27 34 77 53 51 64
REMARK Flexibility Score: inf
ROOT
ATOM      1  C   UNL A   1      36.734  22.275  23.956  1.00  0.00     0.021 C 
ENDROOT
BRANCH   1   2
ATOM      2  C   UNL A   1      35.337  22.733  23.525  1.00  0.00     0.116 C 
BRANCH   2   3
ATOM      3  N   UNL A   1      34.300  21.876  24.059  1.00  0.00    -0.356 N 
ATOM      4  C   UNL A   1      33.706  21.818  25.282  1.00  0.00     0.227 C 
ATOM      5  O   UNL A   1      32.892  20.903  25.452  1.00  0.00    -0.274 OA
ATOM      6  H   UNL A   1      33.961  21.211  23.418  1.00  0.00     0.163 HD
BRANCH   4   7
ATOM      7  C   UNL A   1      33.991  22.806  26.424  1.00  0.00     0.105 C 
ATOM      8  C   UNL A   1      33.682  22.266  27.819  1.00  0.00     0.023 C 
BRANCH   7   9
ATOM      9  C   UNL A   1      33.493  24.213  26.139  1.00  0.00    -0.033 A 
ATOM     10  C   UNL A   1      32.512  26.874  25.761  1.00  0.00     0.018 A 
ATOM     11  C   UNL A   1      33.854  26.534  25.520  1.00  0.00     0.012 A 
ATOM     12  C   UNL A   1      31.670  25.831  26.175  1.00  0.00     0.131 A 
ATOM     13  C   UNL A   1      34.325  25.228  25.667  1.00  0.00     0.005 A 
ATOM     14  C   UNL A   1      32.149  24.534  26.382  1.00  0.00     0.044 A 
ATOM     15  F   UNL A   1      30.363  26.049  26.388  1.00  0.00    -0.206 F 
BRANCH  10  16
ATOM     16  C   UNL A   1      32.059  28.273  25.598  1.00  0.00    -0.008 A 
ATOM     17  C   UNL A   1      30.591  29.944  24.606  1.00  0.00     0.123 A 
ATOM     18  C   UNL A   1      31.109  30.927  25.448  1.00  0.00     0.092 A 
ATOM     19  C   UNL A   1      31.072  28.636  24.672  1.00  0.00     0.055 A 
ATOM     20  C   UNL A   1      32.112  30.606  26.361  1.00  0.00     0.123 A 
ATOM     21  C   UNL A   1      32.585  29.294  26.413  1.00  0.00     0.055 A 
BRANCH  17  22
ATOM     22  O   UNL A   1      29.698  30.322  23.641  1.00  0.00    -0.494 OA
BRANCH  22  23
ATOM     23  C   UNL A   1      29.089  29.227  22.945  1.00  0.00     0.226 C 
ATOM     24  C   UNL A   1      27.601  29.442  22.718  1.00  0.00     0.049 C 
ENDBRANCH  22  23
ENDBRANCH  17  22
BRANCH  20  25
ATOM     25  O   UNL A   1      32.535  31.630  27.166  1.00  0.00    -0.494 OA
BRANCH  25  26
ATOM     26  C   UNL A   1      33.830  31.525  27.768  1.00  0.00     0.226 C 
ATOM     27  C   UNL A   1      34.372  32.886  28.180  1.00  0.00     0.049 C 
ENDBRANCH  25  26
ENDBRANCH  20  25
ENDBRANCH  10  16
ENDBRANCH   7   9
ENDBRANCH   4   7
ENDBRANCH   2   3
ENDBRANCH   1   2
BRANCH   1  28
ATOM     28  C   UNL A   1      37.336  23.103  25.096  1.00  0.00     0.002 C 
BRANCH  28  29
ATOM     29  C   UNL A   1      38.453  22.410  25.888  1.00  0.00     0.002 C 
BRANCH  29  30
ATOM     30  C   UNL A   1      38.943  21.075  25.316  1.00  0.00     0.021 C 
BRANCH  30  31
ATOM     31  C   UNL A   1      39.270  20.007  26.358  1.00  0.00     0.116 C 
BRANCH  31  32
ATOM     32  N   UNL A   1      40.461  19.252  26.006  1.00  0.00    -0.352 N 
ATOM     33  C   UNL A   1      41.771  19.652  25.928  1.00  0.00     0.251 C 
ATOM     34  H   UNL A   1      40.304  18.304  25.790  1.00  0.00     0.163 HD
ATOM     35  O   UNL A   1      42.601  18.923  25.394  1.00  0.00    -0.269 OA
BRANCH  33  36
ATOM     36  C   UNL A   1      42.192  20.962  26.474  1.00  0.00     0.039 A 
ATOM     37  C   UNL A   1      42.572  21.970  25.583  1.00  0.00     0.014 A 
ATOM     38  C   UNL A   1      42.266  21.183  27.853  1.00  0.00     0.014 A 
ATOM     39  C   UNL A   1      42.974  23.215  26.072  1.00  0.00     0.010 A 
ATOM     40  C   UNL A   1      42.608  22.445  28.337  1.00  0.00     0.010 A 
ATOM     41  C   UNL A   1      42.967  23.472  27.452  1.00  0.00    -0.014 A 
BRANCH  41  42
ATOM     42  C   UNL A   1      43.324  24.813  27.979  1.00  0.00     0.031 A 
ATOM     43  C   UNL A   1      42.255  25.831  28.269  1.00  0.00     0.074 A 
ATOM     44  C   UNL A   1      44.622  25.134  28.144  1.00  0.00     0.049 A 
ATOM     45  N   UNL A   1      42.381  27.062  28.694  1.00  0.00    -0.248 NA
ATOM     46  C   UNL A   1      40.863  25.419  28.026  1.00  0.00     0.031 C 
ATOM     47  C   UNL A   1      45.754  24.254  27.848  1.00  0.00     0.029 A 
ATOM     48  N   UNL A   1      45.208  26.291  28.593  1.00  0.00    -0.354 N 
ATOM     49  C   UNL A   1      41.092  27.576  28.757  1.00  0.00     0.074 A 
ATOM     50  C   UNL A   1      40.202  26.538  28.284  1.00  0.00     0.031 C 
ATOM     51  C   UNL A   1      46.897  24.896  28.142  1.00  0.00     0.029 A 
ATOM     52  C   UNL A   1      46.580  26.238  28.618  1.00  0.00     0.049 A 
ATOM     53  H   UNL A   1      44.693  27.083  28.872  1.00  0.00     0.167 HD
ATOM     54  C   UNL A   1      40.685  28.793  29.190  1.00  0.00     0.037 A 
ATOM     55  C   UNL A   1      47.483  27.169  28.980  1.00  0.00     0.037 A 
ATOM     56  C   UNL A   1      41.570  29.815  29.688  1.00  0.00     0.049 A 
ATOM     57  C   UNL A   1      47.005  28.507  29.469  1.00  0.00     0.074 A 
ATOM     58  C   UNL A   1      41.247  31.053  30.214  1.00  0.00     0.029 A 
ATOM     59  N   UNL A   1      42.953  29.715  29.719  1.00  0.00    -0.354 N 
ATOM     60  N   UNL A   1      45.778  28.950  29.594  1.00  0.00    -0.248 NA
ATOM     61  C   UNL A   1      48.037  29.470  29.876  1.00  0.00     0.031 C 
ATOM     62  C   UNL A   1      42.437  31.720  30.528  1.00  0.00     0.029 A 
ATOM     63  C   UNL A   1      43.499  30.879  30.235  1.00  0.00     0.049 A 
ATOM     64  H   UNL A   1      43.470  28.933  29.418  1.00  0.00     0.167 HD
ATOM     65  C   UNL A   1      45.889  30.233  30.114  1.00  0.00     0.074 A 
ATOM     66  C   UNL A   1      47.302  30.490  30.297  1.00  0.00     0.031 C 
ATOM     67  C   UNL A   1      44.907  31.119  30.413  1.00  0.00     0.037 A 
BRANCH  54  68
ATOM     68  C   UNL A   1      39.215  29.089  29.151  1.00  0.00     0.057 A 
ATOM     69  C   UNL A   1      38.574  29.484  27.970  1.00  0.00     0.134 A 
ATOM     70  C   UNL A   1      38.422  28.935  30.295  1.00  0.00     0.134 A 
ATOM     71  F   UNL A   1      39.277  29.661  26.841  1.00  0.00    -0.206 F 
ATOM     72  C   UNL A   1      37.200  29.736  27.933  1.00  0.00     0.040 A 
ATOM     73  C   UNL A   1      37.045  29.159  30.266  1.00  0.00     0.040 A 
ATOM     74  F   UNL A   1      38.972  28.552  31.458  1.00  0.00    -0.206 F 
ATOM     75  C   UNL A   1      36.431  29.566  29.082  1.00  0.00     0.006 A 
ENDBRANCH  54  68
BRANCH  55  76
ATOM     76  C   UNL A   1      48.933  26.859  28.916  1.00  0.00     0.057 A 
ATOM     77  C   UNL A   1      49.619  26.381  30.039  1.00  0.00     0.134 A 
ATOM     78  C   UNL A   1      49.668  27.036  27.738  1.00  0.00     0.134 A 
ATOM     79  F   UNL A   1      48.971  26.208  31.200  1.00  0.00    -0.206 F 
ATOM     80  C   UNL A   1      50.987  26.108  29.999  1.00  0.00     0.040 A 
ATOM     81  C   UNL A   1      51.031  26.745  27.677  1.00  0.00     0.040 A 
ATOM     82  F   UNL A   1      49.066  27.483  26.625  1.00  0.00    -0.206 F 
ATOM     83  C   UNL A   1      51.696  26.286  28.812  1.00  0.00     0.006 A 
ENDBRANCH  55  76
BRANCH  67  84
ATOM     84  C   UNL A   1      45.330  32.437  30.989  1.00  0.00     0.057 A 
ATOM     85  C   UNL A   1      45.586  33.549  30.177  1.00  0.00     0.134 A 
ATOM     86  C   UNL A   1      45.452  32.604  32.375  1.00  0.00     0.134 A 
ATOM     87  F   UNL A   1      45.500  33.451  28.842  1.00  0.00    -0.206 F 
ATOM     88  C   UNL A   1      45.971  34.775  30.721  1.00  0.00     0.040 A 
ATOM     89  C   UNL A   1      45.812  33.832  32.932  1.00  0.00     0.040 A 
ATOM     90  F   UNL A   1      45.213  31.580  33.208  1.00  0.00    -0.206 F 
ATOM     91  C   UNL A   1      46.079  34.920  32.104  1.00  0.00     0.006 A 
ENDBRANCH  67  84
ENDBRANCH  41  42
ENDBRANCH  33  36
ENDBRANCH  31  32
ENDBRANCH  30  31
ENDBRANCH  29  30
ENDBRANCH  28  29
ENDBRANCH   1  28
TORSDOF 19
ENDMDL
