MODEL 1
REMARK VINA RESULT:     -11.6      0.000      0.000
REMARK SMILES Cc1cc(C)n2nc(SCC(=O)N3CCC(C(=O)NCCCCCCNC(=O)c4ccc(-c5c6nc(c(-c7c(F)cccc7F)c7ccc([nH]7)c(-c7c(F)cccc7F)c7nc(c(-c8c(F)cccc8F)c8ccc5[nH]8)C=C7)C=C6)cc4)CC3)nc2n1
REMARK SMILES IDX 22 1 21 2 20 3 19 4 17 5 18 6 16 8 11 9 12 10 13 11 14 12
REMARK SMILES IDX 84 13 15 14 83 15 10 16 9 17 8 18 1 19 2 20 3 21 87 22 4 23
REMARK SMILES IDX 86 24 5 25 6 26 85 27 7 28 23 29 24 30 25 31 26 32 27 33
REMARK SMILES IDX 28 35 29 36 30 37 82 38 31 39 81 40 32 41 33 42 34 43 75 44
REMARK SMILES IDX 35 45 80 46 74 47 76 48 36 49 79 50 73 51 72 52 37 54 63 55
REMARK SMILES IDX 46 56 62 57 47 58 50 59 61 60 77 61 48 62 49 63 60 65 78 66
REMARK SMILES IDX 51 67 38 68 39 69 44 70 40 71 41 72 43 73 45 74 42 75 64 76
REMARK SMILES IDX 65 77 70 78 66 79 67 80 69 81 71 82 68 83 52 84 53 85 58 86
REMARK SMILES IDX 54 87 55 88 57 89 59 90 56 91
REMARK H PARENT 19 7 26 34 76 53 50 64
REMARK Flexibility Score: inf
ROOT
ATOM      1  C   UNL A   1      33.566  28.231  27.089  1.00  0.00     0.002 C 
ENDROOT
BRANCH   1   2
ATOM      2  C   UNL A   1      33.897  27.376  25.861  1.00  0.00     0.021 C 
BRANCH   2   3
ATOM      3  C   UNL A   1      33.607  28.074  24.534  1.00  0.00     0.116 C 
BRANCH   3   4
ATOM      4  N   UNL A   1      32.498  29.001  24.665  1.00  0.00    -0.356 N 
ATOM      5  C   UNL A   1      31.242  28.963  24.143  1.00  0.00     0.223 C 
ATOM      6  O   UNL A   1      30.497  29.922  24.354  1.00  0.00    -0.275 OA
ATOM      7  H   UNL A   1      32.685  29.791  25.223  1.00  0.00     0.163 HD
BRANCH   5   8
ATOM      8  C   UNL A   1      30.754  27.764  23.346  1.00  0.00     0.082 C 
ATOM      9  C   UNL A   1      32.399  24.193  22.687  1.00  0.00     0.233 C 
ATOM     10  O   UNL A   1      33.538  24.526  22.337  1.00  0.00    -0.274 OA
ATOM     11  N   UNL A   1      31.333  25.075  22.533  1.00  0.00    -0.342 N 
ATOM     12  C   UNL A   1      31.415  26.116  21.518  1.00  0.00     0.120 C 
ATOM     13  C   UNL A   1      30.262  25.274  23.498  1.00  0.00     0.120 C 
ATOM     14  C   UNL A   1      31.638  27.495  22.117  1.00  0.00     0.035 C 
ATOM     15  C   UNL A   1      30.516  26.561  24.275  1.00  0.00     0.035 C 
BRANCH   9  16
ATOM     16  C   UNL A   1      32.098  22.728  22.981  1.00  0.00     0.178 C 
BRANCH  16  17
ATOM     17  S   UNL A   1      32.335  22.119  24.647  1.00  0.00    -0.074 SA
BRANCH  17  18
ATOM     18  C   UNL A   1      34.038  22.271  24.931  1.00  0.00     0.211 A 
ATOM     19  C   UNL A   1      39.079  24.314  26.780  1.00  0.00     0.067 C 
ATOM     20  C   UNL A   1      37.980  23.458  26.200  1.00  0.00     0.043 A 
ATOM     21  C   UNL A   1      38.349  22.070  25.770  1.00  0.00     0.047 A 
ATOM     22  N   UNL A   1      36.795  23.980  26.092  1.00  0.00    -0.216 NA
ATOM     23  C   UNL A   1      37.357  21.311  25.271  1.00  0.00     0.045 A 
ATOM     24  C   UNL A   1      35.816  23.175  25.589  1.00  0.00     0.253 A 
ATOM     25  C   UNL A   1      37.558  19.903  24.809  1.00  0.00     0.067 C 
ATOM     26  N   UNL A   1      36.070  21.858  25.186  1.00  0.00    -0.200 N 
ATOM     27  N   UNL A   1      34.544  23.438  25.415  1.00  0.00    -0.183 NA
ATOM     28  N   UNL A   1      34.918  21.291  24.749  1.00  0.00    -0.138 NA
ENDBRANCH  17  18
ENDBRANCH  16  17
ENDBRANCH   9  16
ENDBRANCH   5   8
ENDBRANCH   3   4
ENDBRANCH   2   3
ENDBRANCH   1   2
BRANCH   1  29
ATOM     29  C   UNL A   1      34.600  29.319  27.425  1.00  0.00     0.002 C 
BRANCH  29  30
ATOM     30  C   UNL A   1      34.058  30.752  27.525  1.00  0.00     0.021 C 
BRANCH  30  31
ATOM     31  C   UNL A   1      35.119  31.756  27.933  1.00  0.00     0.116 C 
BRANCH  31  32
ATOM     32  N   UNL A   1      34.852  32.341  29.249  1.00  0.00    -0.352 N 
ATOM     33  C   UNL A   1      35.334  31.935  30.476  1.00  0.00     0.251 C 
ATOM     34  H   UNL A   1      34.254  33.123  29.259  1.00  0.00     0.163 HD
ATOM     35  O   UNL A   1      34.776  32.261  31.523  1.00  0.00    -0.269 OA
BRANCH  33  36
ATOM     36  C   UNL A   1      36.561  31.128  30.505  1.00  0.00     0.039 A 
ATOM     37  C   UNL A   1      36.560  29.730  30.487  1.00  0.00     0.014 A 
ATOM     38  C   UNL A   1      37.755  31.841  30.527  1.00  0.00     0.014 A 
ATOM     39  C   UNL A   1      37.786  29.068  30.473  1.00  0.00     0.010 A 
ATOM     40  C   UNL A   1      38.922  31.206  30.240  1.00  0.00     0.010 A 
ATOM     41  C   UNL A   1      38.959  29.828  30.362  1.00  0.00    -0.014 A 
BRANCH  41  42
ATOM     42  C   UNL A   1      40.287  29.249  30.273  1.00  0.00     0.031 A 
ATOM     43  C   UNL A   1      40.951  29.122  31.593  1.00  0.00     0.074 A 
ATOM     44  C   UNL A   1      40.694  28.627  29.141  1.00  0.00     0.049 A 
ATOM     45  N   UNL A   1      41.997  29.752  32.007  1.00  0.00    -0.248 NA
ATOM     46  C   UNL A   1      40.267  28.348  32.648  1.00  0.00     0.031 C 
ATOM     47  C   UNL A   1      39.953  28.427  27.886  1.00  0.00     0.029 A 
ATOM     48  N   UNL A   1      41.839  27.928  28.914  1.00  0.00    -0.354 N 
ATOM     49  C   UNL A   1      42.238  29.271  33.289  1.00  0.00     0.074 A 
ATOM     50  C   UNL A   1      41.034  28.607  33.709  1.00  0.00     0.031 C 
ATOM     51  C   UNL A   1      40.563  27.479  27.135  1.00  0.00     0.029 A 
ATOM     52  C   UNL A   1      41.813  27.118  27.772  1.00  0.00     0.049 A 
ATOM     53  H   UNL A   1      42.625  27.987  29.505  1.00  0.00     0.167 HD
ATOM     54  C   UNL A   1      43.502  29.215  33.791  1.00  0.00     0.037 A 
ATOM     55  C   UNL A   1      42.754  26.197  27.433  1.00  0.00     0.037 A 
ATOM     56  C   UNL A   1      44.411  29.989  32.986  1.00  0.00     0.049 A 
ATOM     57  C   UNL A   1      43.975  26.531  28.216  1.00  0.00     0.074 A 
ATOM     58  C   UNL A   1      44.496  31.326  32.650  1.00  0.00     0.029 A 
ATOM     59  N   UNL A   1      45.148  29.312  32.044  1.00  0.00    -0.354 N 
ATOM     60  N   UNL A   1      44.669  27.621  28.028  1.00  0.00    -0.248 NA
ATOM     61  C   UNL A   1      44.093  25.929  29.537  1.00  0.00     0.031 C 
ATOM     62  C   UNL A   1      44.854  31.335  31.271  1.00  0.00     0.029 A 
ATOM     63  C   UNL A   1      45.071  30.016  30.868  1.00  0.00     0.049 A 
ATOM     64  H   UNL A   1      45.643  28.474  32.187  1.00  0.00     0.167 HD
ATOM     65  C   UNL A   1      44.957  28.079  29.307  1.00  0.00     0.074 A 
ATOM     66  C   UNL A   1      44.609  26.971  30.197  1.00  0.00     0.031 C 
ATOM     67  C   UNL A   1      45.149  29.407  29.558  1.00  0.00     0.037 A 
BRANCH  54  68
ATOM     68  C   UNL A   1      43.979  28.175  34.767  1.00  0.00     0.057 A 
ATOM     69  C   UNL A   1      43.932  26.819  34.406  1.00  0.00     0.134 A 
ATOM     70  C   UNL A   1      44.237  28.428  36.130  1.00  0.00     0.134 A 
ATOM     71  F   UNL A   1      43.660  26.452  33.145  1.00  0.00    -0.206 F 
ATOM     72  C   UNL A   1      44.090  25.791  35.343  1.00  0.00     0.040 A 
ATOM     73  C   UNL A   1      44.451  27.411  37.063  1.00  0.00     0.040 A 
ATOM     74  F   UNL A   1      44.191  29.660  36.651  1.00  0.00    -0.206 F 
ATOM     75  C   UNL A   1      44.353  26.085  36.676  1.00  0.00     0.006 A 
ENDBRANCH  54  68
BRANCH  55  76
ATOM     76  C   UNL A   1      42.590  24.880  26.768  1.00  0.00     0.057 A 
ATOM     77  C   UNL A   1      43.103  24.637  25.483  1.00  0.00     0.134 A 
ATOM     78  C   UNL A   1      42.192  23.742  27.490  1.00  0.00     0.134 A 
ATOM     79  F   UNL A   1      43.550  25.651  24.728  1.00  0.00    -0.206 F 
ATOM     80  C   UNL A   1      43.234  23.342  24.958  1.00  0.00     0.040 A 
ATOM     81  C   UNL A   1      42.317  22.444  26.979  1.00  0.00     0.040 A 
ATOM     82  F   UNL A   1      41.754  23.847  28.753  1.00  0.00    -0.206 F 
ATOM     83  C   UNL A   1      42.854  22.237  25.714  1.00  0.00     0.006 A 
ENDBRANCH  55  76
BRANCH  67  84
ATOM     84  C   UNL A   1      45.230  30.354  28.388  1.00  0.00     0.057 A 
ATOM     85  C   UNL A   1      44.136  31.061  27.861  1.00  0.00     0.134 A 
ATOM     86  C   UNL A   1      46.495  30.714  27.914  1.00  0.00     0.134 A 
ATOM     87  F   UNL A   1      42.895  30.853  28.311  1.00  0.00    -0.206 F 
ATOM     88  C   UNL A   1      44.295  32.064  26.897  1.00  0.00     0.040 A 
ATOM     89  C   UNL A   1      46.671  31.735  26.977  1.00  0.00     0.040 A 
ATOM     90  F   UNL A   1      47.593  30.122  28.409  1.00  0.00    -0.206 F 
ATOM     91  C   UNL A   1      45.569  32.412  26.462  1.00  0.00     0.006 A 
ENDBRANCH  67  84
ENDBRANCH  41  42
ENDBRANCH  33  36
ENDBRANCH  31  32
ENDBRANCH  30  31
ENDBRANCH  29  30
ENDBRANCH   1  29
TORSDOF 16
ENDMDL
MODEL 2
REMARK VINA RESULT:     -11.6      1.398      2.271
REMARK SMILES Cc1cc(C)n2nc(SCC(=O)N3CCC(C(=O)NCCCCCCNC(=O)c4ccc(-c5c6nc(c(-c7c(F)cccc7F)c7ccc([nH]7)c(-c7c(F)cccc7F)c7nc(c(-c8c(F)cccc8F)c8ccc5[nH]8)C=C7)C=C6)cc4)CC3)nc2n1
REMARK SMILES IDX 22 1 21 2 20 3 19 4 17 5 18 6 16 8 11 9 12 10 13 11 14 12
REMARK SMILES IDX 84 13 15 14 83 15 10 16 9 17 8 18 1 19 2 20 3 21 87 22 4 23
REMARK SMILES IDX 86 24 5 25 6 26 85 27 7 28 23 29 24 30 25 31 26 32 27 33
REMARK SMILES IDX 28 35 29 36 30 37 82 38 31 39 81 40 32 41 33 42 34 43 75 44
REMARK SMILES IDX 35 45 80 46 74 47 76 48 36 49 79 50 73 51 72 52 37 54 63 55
REMARK SMILES IDX 46 56 62 57 47 58 50 59 61 60 77 61 48 62 49 63 60 65 78 66
REMARK SMILES IDX 51 67 38 68 39 69 44 70 40 71 41 72 43 73 45 74 42 75 64 76
REMARK SMILES IDX 65 77 70 78 66 79 67 80 69 81 71 82 68 83 52 84 53 85 58 86
REMARK SMILES IDX 54 87 55 88 57 89 59 90 56 91
REMARK H PARENT 19 7 26 34 76 53 50 64
REMARK Flexibility Score: inf
ROOT
ATOM      1  C   UNL A   1      31.789  30.050  25.396  1.00  0.00     0.002 C 
ENDROOT
BRANCH   1   2
ATOM      2  C   UNL A   1      32.735  29.013  24.781  1.00  0.00     0.021 C 
BRANCH   2   3
ATOM      3  C   UNL A   1      32.885  29.144  23.267  1.00  0.00     0.116 C 
BRANCH   3   4
ATOM      4  N   UNL A   1      31.623  29.512  22.649  1.00  0.00    -0.356 N 
ATOM      5  C   UNL A   1      30.570  28.746  22.256  1.00  0.00     0.223 C 
ATOM      6  O   UNL A   1      29.629  29.303  21.688  1.00  0.00    -0.275 OA
ATOM      7  H   UNL A   1      31.512  30.477  22.486  1.00  0.00     0.163 HD
BRANCH   5   8
ATOM      8  C   UNL A   1      30.534  27.252  22.530  1.00  0.00     0.082 C 
ATOM      9  C   UNL A   1      32.566  24.999  25.118  1.00  0.00     0.233 C 
ATOM     10  O   UNL A   1      33.721  25.383  24.899  1.00  0.00    -0.274 OA
ATOM     11  N   UNL A   1      31.589  25.119  24.132  1.00  0.00    -0.342 N 
ATOM     12  C   UNL A   1      31.995  25.173  22.735  1.00  0.00     0.120 C 
ATOM     13  C   UNL A   1      30.209  25.519  24.362  1.00  0.00     0.120 C 
ATOM     14  C   UNL A   1      31.855  26.567  22.143  1.00  0.00     0.035 C 
ATOM     15  C   UNL A   1      30.032  26.979  23.959  1.00  0.00     0.035 C 
BRANCH   9  16
ATOM     16  C   UNL A   1      32.280  24.110  26.323  1.00  0.00     0.178 C 
BRANCH  16  17
ATOM     17  S   UNL A   1      31.210  22.693  26.111  1.00  0.00    -0.074 SA
BRANCH  17  18
ATOM     18  C   UNL A   1      32.277  21.399  25.670  1.00  0.00     0.211 A 
ATOM     19  C   UNL A   1      34.192  16.419  23.543  1.00  0.00     0.067 C 
ATOM     20  C   UNL A   1      34.082  17.801  24.137  1.00  0.00     0.043 A 
ATOM     21  C   UNL A   1      35.361  18.547  24.374  1.00  0.00     0.047 A 
ATOM     22  N   UNL A   1      32.896  18.248  24.423  1.00  0.00    -0.216 NA
ATOM     23  C   UNL A   1      35.249  19.786  24.887  1.00  0.00     0.045 A 
ATOM     24  C   UNL A   1      32.826  19.510  24.935  1.00  0.00     0.253 A 
ATOM     25  C   UNL A   1      36.427  20.663  25.170  1.00  0.00     0.067 C 
ATOM     26  N   UNL A   1      33.970  20.285  25.163  1.00  0.00    -0.200 N 
ATOM     27  N   UNL A   1      31.765  20.205  25.267  1.00  0.00    -0.183 NA
ATOM     28  N   UNL A   1      33.603  21.496  25.653  1.00  0.00    -0.138 NA
ENDBRANCH  17  18
ENDBRANCH  16  17
ENDBRANCH   9  16
ENDBRANCH   5   8
ENDBRANCH   3   4
ENDBRANCH   2   3
ENDBRANCH   1   2
BRANCH   1  29
ATOM     29  C   UNL A   1      32.385  30.872  26.551  1.00  0.00     0.002 C 
BRANCH  29  30
ATOM     30  C   UNL A   1      33.458  30.167  27.394  1.00  0.00     0.021 C 
BRANCH  30  31
ATOM     31  C   UNL A   1      34.706  31.008  27.582  1.00  0.00     0.116 C 
BRANCH  31  32
ATOM     32  N   UNL A   1      34.580  31.942  28.705  1.00  0.00    -0.352 N 
ATOM     33  C   UNL A   1      35.193  31.878  29.939  1.00  0.00     0.251 C 
ATOM     34  H   UNL A   1      33.983  32.711  28.560  1.00  0.00     0.163 HD
ATOM     35  O   UNL A   1      34.751  32.495  30.906  1.00  0.00    -0.269 OA
BRANCH  33  36
ATOM     36  C   UNL A   1      36.420  31.079  30.062  1.00  0.00     0.039 A 
ATOM     37  C   UNL A   1      36.418  29.718  30.382  1.00  0.00     0.014 A 
ATOM     38  C   UNL A   1      37.610  31.753  29.815  1.00  0.00     0.014 A 
ATOM     39  C   UNL A   1      37.640  29.049  30.429  1.00  0.00     0.010 A 
ATOM     40  C   UNL A   1      38.749  31.046  29.596  1.00  0.00     0.010 A 
ATOM     41  C   UNL A   1      38.798  29.737  30.043  1.00  0.00    -0.014 A 
BRANCH  41  42
ATOM     42  C   UNL A   1      40.115  29.129  29.989  1.00  0.00     0.031 A 
ATOM     43  C   UNL A   1      40.739  28.983  31.327  1.00  0.00     0.074 A 
ATOM     44  C   UNL A   1      40.540  28.501  28.867  1.00  0.00     0.049 A 
ATOM     45  N   UNL A   1      41.787  29.588  31.772  1.00  0.00    -0.248 NA
ATOM     46  C   UNL A   1      40.009  28.221  32.359  1.00  0.00     0.031 C 
ATOM     47  C   UNL A   1      39.829  28.321  27.590  1.00  0.00     0.029 A 
ATOM     48  N   UNL A   1      41.675  27.777  28.669  1.00  0.00    -0.354 N 
ATOM     49  C   UNL A   1      41.981  29.098  33.058  1.00  0.00     0.074 A 
ATOM     50  C   UNL A   1      40.752  28.459  33.442  1.00  0.00     0.031 C 
ATOM     51  C   UNL A   1      40.439  27.363  26.854  1.00  0.00     0.029 A 
ATOM     52  C   UNL A   1      41.662  26.972  27.524  1.00  0.00     0.049 A 
ATOM     53  H   UNL A   1      42.445  27.817  29.282  1.00  0.00     0.167 HD
ATOM     54  C   UNL A   1      43.229  29.011  33.595  1.00  0.00     0.037 A 
ATOM     55  C   UNL A   1      42.591  26.031  27.208  1.00  0.00     0.037 A 
ATOM     56  C   UNL A   1      44.178  29.767  32.818  1.00  0.00     0.049 A 
ATOM     57  C   UNL A   1      43.798  26.335  28.026  1.00  0.00     0.074 A 
ATOM     58  C   UNL A   1      44.302  31.103  32.490  1.00  0.00     0.029 A 
ATOM     59  N   UNL A   1      44.925  29.077  31.895  1.00  0.00    -0.354 N 
ATOM     60  N   UNL A   1      44.521  27.410  27.861  1.00  0.00    -0.248 NA
ATOM     61  C   UNL A   1      43.865  25.726  29.347  1.00  0.00     0.031 C 
ATOM     62  C   UNL A   1      44.698  31.108  31.122  1.00  0.00     0.029 A 
ATOM     63  C   UNL A   1      44.897  29.787  30.719  1.00  0.00     0.049 A 
ATOM     64  H   UNL A   1      45.397  28.228  32.048  1.00  0.00     0.167 HD
ATOM     65  C   UNL A   1      44.783  27.857  29.149  1.00  0.00     0.074 A 
ATOM     66  C   UNL A   1      44.385  26.754  30.025  1.00  0.00     0.031 C 
ATOM     67  C   UNL A   1      44.997  29.180  29.411  1.00  0.00     0.037 A 
BRANCH  54  68
ATOM     68  C   UNL A   1      43.655  27.959  34.580  1.00  0.00     0.057 A 
ATOM     69  C   UNL A   1      44.157  28.350  35.833  1.00  0.00     0.134 A 
ATOM     70  C   UNL A   1      43.836  26.599  34.257  1.00  0.00     0.134 A 
ATOM     71  F   UNL A   1      44.075  29.627  36.237  1.00  0.00    -0.206 F 
ATOM     72  C   UNL A   1      44.825  27.460  36.681  1.00  0.00     0.040 A 
ATOM     73  C   UNL A   1      44.452  25.689  35.119  1.00  0.00     0.040 A 
ATOM     74  F   UNL A   1      43.525  26.100  33.055  1.00  0.00    -0.206 F 
ATOM     75  C   UNL A   1      44.973  26.124  36.327  1.00  0.00     0.006 A 
ENDBRANCH  54  68
BRANCH  55  76
ATOM     76  C   UNL A   1      42.417  24.720  26.533  1.00  0.00     0.057 A 
ATOM     77  C   UNL A   1      43.185  24.362  25.413  1.00  0.00     0.134 A 
ATOM     78  C   UNL A   1      41.708  23.672  27.146  1.00  0.00     0.134 A 
ATOM     79  F   UNL A   1      43.933  25.279  24.781  1.00  0.00    -0.206 F 
ATOM     80  C   UNL A   1      43.264  23.041  24.947  1.00  0.00     0.040 A 
ATOM     81  C   UNL A   1      41.777  22.349  26.692  1.00  0.00     0.040 A 
ATOM     82  F   UNL A   1      40.999  23.883  28.264  1.00  0.00    -0.206 F 
ATOM     83  C   UNL A   1      42.569  22.025  25.597  1.00  0.00     0.006 A 
ENDBRANCH  55  76
BRANCH  67  84
ATOM     84  C   UNL A   1      45.133  30.128  28.246  1.00  0.00     0.057 A 
ATOM     85  C   UNL A   1      44.069  30.861  27.691  1.00  0.00     0.134 A 
ATOM     86  C   UNL A   1      46.418  30.462  27.809  1.00  0.00     0.134 A 
ATOM     87  F   UNL A   1      42.812  30.679  28.106  1.00  0.00    -0.206 F 
ATOM     88  C   UNL A   1      44.278  31.863  26.736  1.00  0.00     0.040 A 
ATOM     89  C   UNL A   1      46.643  31.482  26.881  1.00  0.00     0.040 A 
ATOM     90  F   UNL A   1      47.488  29.844  28.332  1.00  0.00    -0.206 F 
ATOM     91  C   UNL A   1      45.571  32.184  26.338  1.00  0.00     0.006 A 
ENDBRANCH  67  84
ENDBRANCH  41  42
ENDBRANCH  33  36
ENDBRANCH  31  32
ENDBRANCH  30  31
ENDBRANCH  29  30
ENDBRANCH   1  29
TORSDOF 16
ENDMDL
MODEL 3
REMARK VINA RESULT:     -11.5      2.707      8.274
REMARK SMILES Cc1cc(C)n2nc(SCC(=O)N3CCC(C(=O)NCCCCCCNC(=O)c4ccc(-c5c6nc(c(-c7c(F)cccc7F)c7ccc([nH]7)c(-c7c(F)cccc7F)c7nc(c(-c8c(F)cccc8F)c8ccc5[nH]8)C=C7)C=C6)cc4)CC3)nc2n1
REMARK SMILES IDX 22 1 21 2 20 3 19 4 17 5 18 6 16 8 11 9 12 10 13 11 14 12
REMARK SMILES IDX 84 13 15 14 83 15 10 16 9 17 8 18 1 19 2 20 3 21 87 22 4 23
REMARK SMILES IDX 86 24 5 25 6 26 85 27 7 28 23 29 24 30 25 31 26 32 27 33
REMARK SMILES IDX 28 35 29 36 30 37 82 38 31 39 81 40 32 41 33 42 34 43 75 44
REMARK SMILES IDX 35 45 80 46 74 47 76 48 36 49 79 50 73 51 72 52 37 54 63 55
REMARK SMILES IDX 46 56 62 57 47 58 50 59 61 60 77 61 48 62 49 63 60 65 78 66
REMARK SMILES IDX 51 67 38 68 39 69 44 70 40 71 41 72 43 73 45 74 42 75 64 76
REMARK SMILES IDX 65 77 70 78 66 79 67 80 69 81 71 82 68 83 52 84 53 85 58 86
REMARK SMILES IDX 54 87 55 88 57 89 59 90 56 91
REMARK H PARENT 19 7 26 34 76 53 50 64
REMARK Flexibility Score: inf
ROOT
ATOM      1  C   UNL A   1      40.751  21.860  27.939  1.00  0.00     0.002 C 
ENDROOT
BRANCH   1   2
ATOM      2  C   UNL A   1      40.648  23.058  26.988  1.00  0.00     0.021 C 
BRANCH   2   3
ATOM      3  C   UNL A   1      39.254  23.250  26.395  1.00  0.00     0.116 C 
BRANCH   3   4
ATOM      4  N   UNL A   1      38.764  22.016  25.807  1.00  0.00    -0.356 N 
ATOM      5  C   UNL A   1      37.605  21.746  25.147  1.00  0.00     0.223 C 
ATOM      6  O   UNL A   1      37.395  20.582  24.798  1.00  0.00    -0.275 OA
ATOM      7  H   UNL A   1      39.370  21.246  25.903  1.00  0.00     0.163 HD
BRANCH   5   8
ATOM      8  C   UNL A   1      36.607  22.844  24.821  1.00  0.00     0.082 C 
ATOM      9  C   UNL A   1      32.745  22.686  23.843  1.00  0.00     0.233 C 
ATOM     10  O   UNL A   1      32.768  21.828  22.953  1.00  0.00    -0.274 OA
ATOM     11  N   UNL A   1      33.886  23.431  24.128  1.00  0.00    -0.342 N 
ATOM     12  C   UNL A   1      34.895  23.606  23.092  1.00  0.00     0.120 C 
ATOM     13  C   UNL A   1      34.339  23.798  25.462  1.00  0.00     0.120 C 
ATOM     14  C   UNL A   1      36.146  22.781  23.356  1.00  0.00     0.035 C 
ATOM     15  C   UNL A   1      35.486  22.883  25.874  1.00  0.00     0.035 C 
BRANCH   9  16
ATOM     16  C   UNL A   1      31.408  23.157  24.404  1.00  0.00     0.178 C 
BRANCH  16  17
ATOM     17  S   UNL A   1      30.398  24.252  23.413  1.00  0.00    -0.074 SA
BRANCH  17  18
ATOM     18  C   UNL A   1      30.685  25.830  24.071  1.00  0.00     0.211 A 
ATOM     19  C   UNL A   1      32.967  30.090  27.176  1.00  0.00     0.067 C 
ATOM     20  C   UNL A   1      32.180  29.276  26.178  1.00  0.00     0.043 A 
ATOM     21  C   UNL A   1      31.355  30.031  25.180  1.00  0.00     0.047 A 
ATOM     22  N   UNL A   1      32.250  27.981  26.260  1.00  0.00    -0.216 NA
ATOM     23  C   UNL A   1      30.672  29.294  24.285  1.00  0.00     0.045 A 
ATOM     24  C   UNL A   1      31.549  27.272  25.330  1.00  0.00     0.253 A 
ATOM     25  C   UNL A   1      29.814  29.895  23.217  1.00  0.00     0.067 C 
ATOM     26  N   UNL A   1      30.773  27.899  24.346  1.00  0.00    -0.200 N 
ATOM     27  N   UNL A   1      31.481  25.973  25.165  1.00  0.00    -0.183 NA
ATOM     28  N   UNL A   1      30.209  26.957  23.550  1.00  0.00    -0.138 NA
ENDBRANCH  17  18
ENDBRANCH  16  17
ENDBRANCH   9  16
ENDBRANCH   5   8
ENDBRANCH   3   4
ENDBRANCH   2   3
ENDBRANCH   1   2
BRANCH   1  29
ATOM     29  C   UNL A   1      42.143  21.213  28.025  1.00  0.00     0.002 C 
BRANCH  29  30
ATOM     30  C   UNL A   1      42.354  19.957  27.166  1.00  0.00     0.021 C 
BRANCH  30  31
ATOM     31  C   UNL A   1      42.453  20.267  25.685  1.00  0.00     0.116 C 
BRANCH  31  32
ATOM     32  N   UNL A   1      43.820  20.116  25.177  1.00  0.00    -0.352 N 
ATOM     33  C   UNL A   1      44.709  21.106  24.816  1.00  0.00     0.251 C 
ATOM     34  H   UNL A   1      44.143  19.191  25.081  1.00  0.00     0.163 HD
ATOM     35  O   UNL A   1      45.668  20.870  24.083  1.00  0.00    -0.269 OA
BRANCH  33  36
ATOM     36  C   UNL A   1      44.504  22.454  25.365  1.00  0.00     0.039 A 
ATOM     37  C   UNL A   1      43.628  23.386  24.801  1.00  0.00     0.014 A 
ATOM     38  C   UNL A   1      45.224  22.756  26.516  1.00  0.00     0.014 A 
ATOM     39  C   UNL A   1      43.480  24.619  25.432  1.00  0.00     0.010 A 
ATOM     40  C   UNL A   1      44.873  23.834  27.264  1.00  0.00     0.010 A 
ATOM     41  C   UNL A   1      44.123  24.828  26.659  1.00  0.00    -0.014 A 
BRANCH  41  42
ATOM     42  C   UNL A   1      43.993  26.045  27.439  1.00  0.00     0.031 A 
ATOM     43  C   UNL A   1      45.049  27.042  27.137  1.00  0.00     0.074 A 
ATOM     44  C   UNL A   1      42.849  26.314  28.113  1.00  0.00     0.049 A 
ATOM     45  N   UNL A   1      45.987  27.451  27.921  1.00  0.00    -0.248 NA
ATOM     46  C   UNL A   1      45.200  27.498  25.741  1.00  0.00     0.031 C 
ATOM     47  C   UNL A   1      41.619  25.509  28.191  1.00  0.00     0.029 A 
ATOM     48  N   UNL A   1      42.498  27.442  28.789  1.00  0.00    -0.354 N 
ATOM     49  C   UNL A   1      46.698  28.395  27.190  1.00  0.00     0.074 A 
ATOM     50  C   UNL A   1      46.327  28.209  25.813  1.00  0.00     0.031 C 
ATOM     51  C   UNL A   1      40.602  26.265  28.669  1.00  0.00     0.029 A 
ATOM     52  C   UNL A   1      41.132  27.549  29.076  1.00  0.00     0.049 A 
ATOM     53  H   UNL A   1      43.153  28.128  29.055  1.00  0.00     0.167 HD
ATOM     54  C   UNL A   1      47.321  29.436  27.806  1.00  0.00     0.037 A 
ATOM     55  C   UNL A   1      40.514  28.653  29.576  1.00  0.00     0.037 A 
ATOM     56  C   UNL A   1      47.407  29.218  29.227  1.00  0.00     0.049 A 
ATOM     57  C   UNL A   1      41.581  29.508  30.163  1.00  0.00     0.074 A 
ATOM     58  C   UNL A   1      48.011  28.258  30.016  1.00  0.00     0.029 A 
ATOM     59  N   UNL A   1      46.444  29.806  30.012  1.00  0.00    -0.354 N 
ATOM     60  N   UNL A   1      42.278  29.163  31.212  1.00  0.00    -0.248 NA
ATOM     61  C   UNL A   1      42.219  30.467  29.271  1.00  0.00     0.031 C 
ATOM     62  C   UNL A   1      47.066  27.983  31.046  1.00  0.00     0.029 A 
ATOM     63  C   UNL A   1      45.988  28.858  30.895  1.00  0.00     0.049 A 
ATOM     64  H   UNL A   1      46.138  30.739  29.954  1.00  0.00     0.167 HD
ATOM     65  C   UNL A   1      43.585  29.510  30.896  1.00  0.00     0.074 A 
ATOM     66  C   UNL A   1      43.479  30.346  29.700  1.00  0.00     0.031 C 
ATOM     67  C   UNL A   1      44.646  28.839  31.433  1.00  0.00     0.037 A 
BRANCH  54  68
ATOM     68  C   UNL A   1      47.508  30.795  27.190  1.00  0.00     0.057 A 
ATOM     69  C   UNL A   1      48.790  31.369  27.164  1.00  0.00     0.134 A 
ATOM     70  C   UNL A   1      46.450  31.666  26.859  1.00  0.00     0.134 A 
ATOM     71  F   UNL A   1      49.872  30.649  27.495  1.00  0.00    -0.206 F 
ATOM     72  C   UNL A   1      48.996  32.722  26.869  1.00  0.00     0.040 A 
ATOM     73  C   UNL A   1      46.650  33.004  26.509  1.00  0.00     0.040 A 
ATOM     74  F   UNL A   1      45.166  31.304  26.956  1.00  0.00    -0.206 F 
ATOM     75  C   UNL A   1      47.925  33.543  26.538  1.00  0.00     0.006 A 
ENDBRANCH  54  68
BRANCH  55  76
ATOM     76  C   UNL A   1      39.156  29.183  29.295  1.00  0.00     0.057 A 
ATOM     77  C   UNL A   1      38.729  29.451  27.984  1.00  0.00     0.134 A 
ATOM     78  C   UNL A   1      38.146  29.158  30.272  1.00  0.00     0.134 A 
ATOM     79  F   UNL A   1      39.607  29.456  26.971  1.00  0.00    -0.206 F 
ATOM     80  C   UNL A   1      37.378  29.657  27.661  1.00  0.00     0.040 A 
ATOM     81  C   UNL A   1      36.795  29.361  29.964  1.00  0.00     0.040 A 
ATOM     82  F   UNL A   1      38.427  28.842  31.544  1.00  0.00    -0.206 F 
ATOM     83  C   UNL A   1      36.403  29.597  28.652  1.00  0.00     0.006 A 
ENDBRANCH  55  76
BRANCH  67  84
ATOM     84  C   UNL A   1      44.381  27.834  32.525  1.00  0.00     0.057 A 
ATOM     85  C   UNL A   1      44.217  26.454  32.312  1.00  0.00     0.134 A 
ATOM     86  C   UNL A   1      44.500  28.252  33.853  1.00  0.00     0.134 A 
ATOM     87  F   UNL A   1      44.181  25.943  31.078  1.00  0.00    -0.206 F 
ATOM     88  C   UNL A   1      44.159  25.542  33.373  1.00  0.00     0.040 A 
ATOM     89  C   UNL A   1      44.476  27.350  34.919  1.00  0.00     0.040 A 
ATOM     90  F   UNL A   1      44.713  29.547  34.134  1.00  0.00    -0.206 F 
ATOM     91  C   UNL A   1      44.301  25.989  34.682  1.00  0.00     0.006 A 
ENDBRANCH  67  84
ENDBRANCH  41  42
ENDBRANCH  33  36
ENDBRANCH  31  32
ENDBRANCH  30  31
ENDBRANCH  29  30
ENDBRANCH   1  29
TORSDOF 16
ENDMDL
