MODEL 1
REMARK VINA RESULT:     -11.7      0.000      0.000
REMARK SMILES O=C(NCCCCCCNC(=O)[C@H]1COCCN1C(=O)c1ccc(Br)nc1)c1ccc(-c2c3nc(c(-c4c(F)cccc4F)c4ccc([nH]4)c(-c4c(F)cccc4F)c4nc(c(-c5c(F)cccc5F)c5ccc2[nH]5)C=C4)C=C3)cc1
REMARK SMILES IDX 6 1 5 2 4 3 3 4 1 5 2 6 28 8 29 9 81 10 30 11 80 12 31 13
REMARK SMILES IDX 32 14 33 15 74 16 34 17 79 18 73 19 75 20 35 21 78 22 72 23
REMARK SMILES IDX 71 24 36 26 62 27 45 28 61 29 46 30 49 31 60 32 76 33 47 34
REMARK SMILES IDX 48 35 59 37 77 38 50 39 37 40 38 41 43 42 39 43 40 44 42 45
REMARK SMILES IDX 44 46 41 47 63 48 64 49 69 50 65 51 66 52 68 53 70 54 67 55
REMARK SMILES IDX 51 56 52 57 57 58 53 59 54 60 56 61 58 62 55 63 7 64 8 65
REMARK SMILES IDX 9 66 10 67 11 68 12 70 13 71 14 72 18 73 15 74 17 75 16 76
REMARK SMILES IDX 19 77 20 78 21 79 22 80 27 81 23 82 26 83 24 84 25 85
REMARK H PARENT 3 7 75 25 49 36 10 69
REMARK Flexibility Score: inf
ROOT
ATOM      1  C   UNL A   1      31.562  30.385  25.906  1.00  0.00     0.002 C 
ENDROOT
BRANCH   1   2
ATOM      2  C   UNL A   1      31.427  31.768  26.551  1.00  0.00     0.021 C 
BRANCH   2   3
ATOM      3  C   UNL A   1      32.753  32.411  26.946  1.00  0.00     0.116 C 
BRANCH   3   4
ATOM      4  N   UNL A   1      32.562  33.776  27.411  1.00  0.00    -0.352 N 
ATOM      5  O   UNL A   1      32.637  35.460  28.907  1.00  0.00    -0.269 OA
ATOM      6  C   UNL A   1      33.117  34.407  28.492  1.00  0.00     0.251 C 
ATOM      7  H   UNL A   1      31.947  34.322  26.872  1.00  0.00     0.163 HD
BRANCH   6   8
ATOM      8  C   UNL A   1      34.301  33.829  29.160  1.00  0.00     0.039 A 
ATOM      9  C   UNL A   1      34.159  32.782  30.077  1.00  0.00     0.014 A 
ATOM     10  C   UNL A   1      35.572  34.294  28.814  1.00  0.00     0.014 A 
ATOM     11  C   UNL A   1      35.280  32.260  30.714  1.00  0.00     0.010 A 
ATOM     12  C   UNL A   1      36.702  33.726  29.406  1.00  0.00     0.010 A 
ATOM     13  C   UNL A   1      36.562  32.711  30.368  1.00  0.00    -0.014 A 
BRANCH  13  14
ATOM     14  C   UNL A   1      37.760  32.063  30.952  1.00  0.00     0.031 A 
ATOM     15  C   UNL A   1      38.499  30.995  30.203  1.00  0.00     0.074 A 
ATOM     16  C   UNL A   1      38.152  32.423  32.188  1.00  0.00     0.049 A 
ATOM     17  N   UNL A   1      39.516  30.270  30.592  1.00  0.00    -0.248 NA
ATOM     18  C   UNL A   1      38.027  30.694  28.844  1.00  0.00     0.031 C 
ATOM     19  C   UNL A   1      37.498  33.438  33.016  1.00  0.00     0.029 A 
ATOM     20  N   UNL A   1      39.181  31.966  32.970  1.00  0.00    -0.354 N 
ATOM     21  C   UNL A   1      39.794  29.411  29.537  1.00  0.00     0.074 A 
ATOM     22  C   UNL A   1      38.824  29.692  28.499  1.00  0.00     0.031 C 
ATOM     23  C   UNL A   1      38.142  33.530  34.188  1.00  0.00     0.029 A 
ATOM     24  C   UNL A   1      39.217  32.543  34.216  1.00  0.00     0.049 A 
ATOM     25  H   UNL A   1      39.831  31.290  32.670  1.00  0.00     0.167 HD
ATOM     26  C   UNL A   1      40.770  28.476  29.447  1.00  0.00     0.037 A 
ATOM     27  C   UNL A   1      40.002  32.285  35.277  1.00  0.00     0.037 A 
ATOM     28  C   UNL A   1      41.734  28.210  30.485  1.00  0.00     0.049 A 
ATOM     29  C   UNL A   1      41.060  31.229  35.165  1.00  0.00     0.074 A 
ATOM     30  C   UNL A   1      42.796  27.323  30.469  1.00  0.00     0.029 A 
ATOM     31  N   UNL A   1      41.741  28.821  31.732  1.00  0.00    -0.354 N 
ATOM     32  N   UNL A   1      41.347  30.459  34.143  1.00  0.00    -0.248 NA
ATOM     33  C   UNL A   1      41.902  31.003  36.346  1.00  0.00     0.031 C 
ATOM     34  C   UNL A   1      43.417  27.363  31.722  1.00  0.00     0.029 A 
ATOM     35  C   UNL A   1      42.772  28.309  32.503  1.00  0.00     0.049 A 
ATOM     36  H   UNL A   1      41.107  29.515  32.024  1.00  0.00     0.167 HD
ATOM     37  C   UNL A   1      42.412  29.669  34.550  1.00  0.00     0.074 A 
ATOM     38  C   UNL A   1      42.726  30.059  35.910  1.00  0.00     0.031 C 
ATOM     39  C   UNL A   1      43.071  28.709  33.856  1.00  0.00     0.037 A 
BRANCH  26  40
ATOM     40  C   UNL A   1      40.823  27.652  28.194  1.00  0.00     0.057 A 
ATOM     41  C   UNL A   1      41.576  28.043  27.078  1.00  0.00     0.134 A 
ATOM     42  C   UNL A   1      40.125  26.441  28.107  1.00  0.00     0.134 A 
ATOM     43  F   UNL A   1      42.260  29.197  27.090  1.00  0.00    -0.206 F 
ATOM     44  C   UNL A   1      41.605  27.275  25.912  1.00  0.00     0.040 A 
ATOM     45  C   UNL A   1      40.167  25.652  26.957  1.00  0.00     0.040 A 
ATOM     46  F   UNL A   1      39.392  26.003  29.142  1.00  0.00    -0.206 F 
ATOM     47  C   UNL A   1      40.901  26.073  25.851  1.00  0.00     0.006 A 
ENDBRANCH  26  40
BRANCH  27  48
ATOM     48  C   UNL A   1      39.788  33.042  36.534  1.00  0.00     0.057 A 
ATOM     49  C   UNL A   1      40.466  34.237  36.786  1.00  0.00     0.134 A 
ATOM     50  C   UNL A   1      38.849  32.616  37.483  1.00  0.00     0.134 A 
ATOM     51  F   UNL A   1      41.384  34.688  35.919  1.00  0.00    -0.206 F 
ATOM     52  C   UNL A   1      40.218  34.986  37.937  1.00  0.00     0.040 A 
ATOM     53  C   UNL A   1      38.574  33.366  38.627  1.00  0.00     0.040 A 
ATOM     54  F   UNL A   1      38.158  31.482  37.291  1.00  0.00    -0.206 F 
ATOM     55  C   UNL A   1      39.262  34.556  38.857  1.00  0.00     0.006 A 
ENDBRANCH  27  48
BRANCH  39  56
ATOM     56  C   UNL A   1      44.216  28.029  34.543  1.00  0.00     0.057 A 
ATOM     57  C   UNL A   1      45.507  28.570  34.536  1.00  0.00     0.134 A 
ATOM     58  C   UNL A   1      44.009  26.851  35.273  1.00  0.00     0.134 A 
ATOM     59  F   UNL A   1      45.771  29.687  33.843  1.00  0.00    -0.206 F 
ATOM     60  C   UNL A   1      46.555  27.958  35.226  1.00  0.00     0.040 A 
ATOM     61  C   UNL A   1      45.042  26.244  35.984  1.00  0.00     0.040 A 
ATOM     62  F   UNL A   1      42.793  26.286  35.323  1.00  0.00    -0.206 F 
ATOM     63  C   UNL A   1      46.321  26.797  35.961  1.00  0.00     0.006 A 
ENDBRANCH  39  56
ENDBRANCH  13  14
ENDBRANCH   6   8
ENDBRANCH   3   4
ENDBRANCH   2   3
ENDBRANCH   1   2
BRANCH   1  64
ATOM     64  C   UNL A   1      31.703  29.213  26.889  1.00  0.00     0.002 C 
BRANCH  64  65
ATOM     65  C   UNL A   1      33.132  28.953  27.380  1.00  0.00     0.021 C 
BRANCH  65  66
ATOM     66  C   UNL A   1      34.082  28.462  26.284  1.00  0.00     0.116 C 
BRANCH  66  67
ATOM     67  N   UNL A   1      33.900  27.051  26.031  1.00  0.00    -0.354 N 
ATOM     68  C   UNL A   1      33.387  26.364  24.983  1.00  0.00     0.245 C 
ATOM     69  H   UNL A   1      34.211  26.474  26.766  1.00  0.00     0.163 HD
ATOM     70  O   UNL A   1      33.294  25.137  25.150  1.00  0.00    -0.273 OA
BRANCH  68  71
ATOM     71  C   UNL A   1      32.850  26.971  23.658  1.00  0.00     0.200 C 
ATOM     72  C   UNL A   1      33.957  26.859  22.587  1.00  0.00     0.195 C 
ATOM     73  N   UNL A   1      31.514  26.633  23.108  1.00  0.00    -0.322 N 
ATOM     74  O   UNL A   1      33.856  25.654  21.816  1.00  0.00    -0.377 OA
ATOM     75  C   UNL A   1      31.444  25.581  22.086  1.00  0.00     0.149 C 
ATOM     76  C   UNL A   1      32.614  25.621  21.110  1.00  0.00     0.181 C 
BRANCH  73  77
ATOM     77  C   UNL A   1      30.310  27.149  23.581  1.00  0.00     0.256 C 
ATOM     78  O   UNL A   1      29.714  26.672  24.544  1.00  0.00    -0.269 OA
BRANCH  77  79
ATOM     79  C   UNL A   1      29.667  28.269  22.872  1.00  0.00     0.058 A 
ATOM     80  C   UNL A   1      28.315  28.565  23.056  1.00  0.00     0.018 A 
ATOM     81  C   UNL A   1      30.433  29.139  22.112  1.00  0.00     0.126 A 
ATOM     82  C   UNL A   1      27.769  29.679  22.421  1.00  0.00     0.037 A 
ATOM     83  N   UNL A   1      29.924  30.226  21.480  1.00  0.00    -0.249 NA
ATOM     84  C   UNL A   1      28.605  30.472  21.645  1.00  0.00     0.106 A 
ATOM     85  Br  UNL A   1      27.872  31.992  20.781  1.00  0.00    -0.029 Br
ENDBRANCH  77  79
ENDBRANCH  73  77
ENDBRANCH  68  71
ENDBRANCH  66  67
ENDBRANCH  65  66
ENDBRANCH  64  65
ENDBRANCH   1  64
TORSDOF 15
ENDMDL
MODEL 2
REMARK VINA RESULT:     -11.5      1.465      2.061
REMARK SMILES O=C(NCCCCCCNC(=O)[C@H]1COCCN1C(=O)c1ccc(Br)nc1)c1ccc(-c2c3nc(c(-c4c(F)cccc4F)c4ccc([nH]4)c(-c4c(F)cccc4F)c4nc(c(-c5c(F)cccc5F)c5ccc2[nH]5)C=C4)C=C3)cc1
REMARK SMILES IDX 6 1 5 2 4 3 3 4 1 5 2 6 28 8 29 9 81 10 30 11 80 12 31 13
REMARK SMILES IDX 32 14 33 15 74 16 34 17 79 18 73 19 75 20 35 21 78 22 72 23
REMARK SMILES IDX 71 24 36 26 62 27 45 28 61 29 46 30 49 31 60 32 76 33 47 34
REMARK SMILES IDX 48 35 59 37 77 38 50 39 37 40 38 41 43 42 39 43 40 44 42 45
REMARK SMILES IDX 44 46 41 47 63 48 64 49 69 50 65 51 66 52 68 53 70 54 67 55
REMARK SMILES IDX 51 56 52 57 57 58 53 59 54 60 56 61 58 62 55 63 7 64 8 65
REMARK SMILES IDX 9 66 10 67 11 68 12 70 13 71 14 72 18 73 15 74 17 75 16 76
REMARK SMILES IDX 19 77 20 78 21 79 22 80 27 81 23 82 26 83 24 84 25 85
REMARK H PARENT 3 7 75 25 49 36 10 69
REMARK Flexibility Score: inf
ROOT
ATOM      1  C   UNL A   1      31.476  30.715  26.090  1.00  0.00     0.002 C 
ENDROOT
BRANCH   1   2
ATOM      2  C   UNL A   1      31.358  32.183  26.513  1.00  0.00     0.021 C 
BRANCH   2   3
ATOM      3  C   UNL A   1      32.579  32.725  27.249  1.00  0.00     0.116 C 
BRANCH   3   4
ATOM      4  N   UNL A   1      32.410  34.128  27.594  1.00  0.00    -0.352 N 
ATOM      5  O   UNL A   1      32.549  35.943  28.923  1.00  0.00    -0.269 OA
ATOM      6  C   UNL A   1      33.011  34.854  28.587  1.00  0.00     0.251 C 
ATOM      7  H   UNL A   1      31.772  34.626  27.033  1.00  0.00     0.163 HD
BRANCH   6   8
ATOM      8  C   UNL A   1      34.221  34.334  29.256  1.00  0.00     0.039 A 
ATOM      9  C   UNL A   1      34.123  33.652  30.473  1.00  0.00     0.014 A 
ATOM     10  C   UNL A   1      35.459  34.472  28.623  1.00  0.00     0.014 A 
ATOM     11  C   UNL A   1      35.273  33.185  31.102  1.00  0.00     0.010 A 
ATOM     12  C   UNL A   1      36.605  33.947  29.223  1.00  0.00     0.010 A 
ATOM     13  C   UNL A   1      36.520  33.308  30.472  1.00  0.00    -0.014 A 
BRANCH  13  14
ATOM     14  C   UNL A   1      37.724  32.695  31.083  1.00  0.00     0.031 A 
ATOM     15  C   UNL A   1      38.368  31.489  30.468  1.00  0.00     0.074 A 
ATOM     16  C   UNL A   1      38.206  33.216  32.226  1.00  0.00     0.049 A 
ATOM     17  N   UNL A   1      39.375  30.779  30.908  1.00  0.00    -0.248 NA
ATOM     18  C   UNL A   1      37.801  31.011  29.199  1.00  0.00     0.031 C 
ATOM     19  C   UNL A   1      37.648  34.378  32.921  1.00  0.00     0.029 A 
ATOM     20  N   UNL A   1      39.261  32.831  33.011  1.00  0.00    -0.354 N 
ATOM     21  C   UNL A   1      39.551  29.758  29.984  1.00  0.00     0.074 A 
ATOM     22  C   UNL A   1      38.531  29.928  28.969  1.00  0.00     0.031 C 
ATOM     23  C   UNL A   1      38.367  34.612  34.029  1.00  0.00     0.029 A 
ATOM     24  C   UNL A   1      39.399  33.587  34.149  1.00  0.00     0.049 A 
ATOM     25  H   UNL A   1      39.862  32.084  32.783  1.00  0.00     0.167 HD
ATOM     26  C   UNL A   1      40.478  28.771  29.985  1.00  0.00     0.037 A 
ATOM     27  C   UNL A   1      40.236  33.452  35.193  1.00  0.00     0.037 A 
ATOM     28  C   UNL A   1      41.493  28.615  30.997  1.00  0.00     0.049 A 
ATOM     29  C   UNL A   1      41.239  32.338  35.187  1.00  0.00     0.074 A 
ATOM     30  C   UNL A   1      42.513  27.683  31.060  1.00  0.00     0.029 A 
ATOM     31  N   UNL A   1      41.603  29.407  32.133  1.00  0.00    -0.354 N 
ATOM     32  N   UNL A   1      41.429  31.408  34.281  1.00  0.00    -0.248 NA
ATOM     33  C   UNL A   1      42.142  32.249  36.340  1.00  0.00     0.031 C 
ATOM     34  C   UNL A   1      43.212  27.879  32.257  1.00  0.00     0.029 A 
ATOM     35  C   UNL A   1      42.657  28.965  32.916  1.00  0.00     0.049 A 
ATOM     36  H   UNL A   1      41.019  30.169  32.349  1.00  0.00     0.167 HD
ATOM     37  C   UNL A   1      42.483  30.635  34.746  1.00  0.00     0.074 A 
ATOM     38  C   UNL A   1      42.897  31.210  36.011  1.00  0.00     0.031 C 
ATOM     39  C   UNL A   1      43.056  29.548  34.173  1.00  0.00     0.037 A 
BRANCH  26  40
ATOM     40  C   UNL A   1      40.418  27.765  28.873  1.00  0.00     0.057 A 
ATOM     41  C   UNL A   1      41.166  27.912  27.696  1.00  0.00     0.134 A 
ATOM     42  C   UNL A   1      39.614  26.624  28.987  1.00  0.00     0.134 A 
ATOM     43  F   UNL A   1      41.949  28.987  27.518  1.00  0.00    -0.206 F 
ATOM     44  C   UNL A   1      41.090  26.977  26.662  1.00  0.00     0.040 A 
ATOM     45  C   UNL A   1      39.550  25.670  27.971  1.00  0.00     0.040 A 
ATOM     46  F   UNL A   1      38.879  26.417  30.090  1.00  0.00    -0.206 F 
ATOM     47  C   UNL A   1      40.283  25.850  26.799  1.00  0.00     0.006 A 
ENDBRANCH  26  40
BRANCH  27  48
ATOM     48  C   UNL A   1      40.133  34.400  36.329  1.00  0.00     0.057 A 
ATOM     49  C   UNL A   1      40.839  35.605  36.334  1.00  0.00     0.134 A 
ATOM     50  C   UNL A   1      39.272  34.147  37.405  1.00  0.00     0.134 A 
ATOM     51  F   UNL A   1      41.687  35.896  35.336  1.00  0.00    -0.206 F 
ATOM     52  C   UNL A   1      40.694  36.530  37.369  1.00  0.00     0.040 A 
ATOM     53  C   UNL A   1      39.099  35.072  38.434  1.00  0.00     0.040 A 
ATOM     54  F   UNL A   1      38.558  33.012  37.449  1.00  0.00    -0.206 F 
ATOM     55  C   UNL A   1      39.813  36.269  38.419  1.00  0.00     0.006 A 
ENDBRANCH  27  48
BRANCH  39  56
ATOM     56  C   UNL A   1      44.211  28.922  34.893  1.00  0.00     0.057 A 
ATOM     57  C   UNL A   1      44.032  27.873  35.803  1.00  0.00     0.134 A 
ATOM     58  C   UNL A   1      45.523  29.332  34.625  1.00  0.00     0.134 A 
ATOM     59  F   UNL A   1      42.799  27.446  36.114  1.00  0.00    -0.206 F 
ATOM     60  C   UNL A   1      45.119  27.259  36.428  1.00  0.00     0.040 A 
ATOM     61  C   UNL A   1      46.618  28.711  35.225  1.00  0.00     0.040 A 
ATOM     62  F   UNL A   1      45.762  30.328  33.758  1.00  0.00    -0.206 F 
ATOM     63  C   UNL A   1      46.417  27.671  36.131  1.00  0.00     0.006 A 
ENDBRANCH  39  56
ENDBRANCH  13  14
ENDBRANCH   6   8
ENDBRANCH   3   4
ENDBRANCH   2   3
ENDBRANCH   1   2
BRANCH   1  64
ATOM     64  C   UNL A   1      32.333  29.832  27.010  1.00  0.00     0.002 C 
BRANCH  64  65
ATOM     65  C   UNL A   1      31.681  28.505  27.417  1.00  0.00     0.021 C 
BRANCH  65  66
ATOM     66  C   UNL A   1      31.968  27.355  26.450  1.00  0.00     0.116 C 
BRANCH  66  67
ATOM     67  N   UNL A   1      31.376  26.121  26.917  1.00  0.00    -0.354 N 
ATOM     68  C   UNL A   1      31.527  24.829  26.542  1.00  0.00     0.245 C 
ATOM     69  H   UNL A   1      30.735  26.245  27.654  1.00  0.00     0.163 HD
ATOM     70  O   UNL A   1      30.770  24.023  27.106  1.00  0.00    -0.273 OA
BRANCH  68  71
ATOM     71  C   UNL A   1      32.486  24.295  25.442  1.00  0.00     0.200 C 
ATOM     72  C   UNL A   1      33.040  22.929  25.901  1.00  0.00     0.195 C 
ATOM     73  N   UNL A   1      32.127  24.291  24.003  1.00  0.00    -0.322 N 
ATOM     74  O   UNL A   1      32.248  21.829  25.430  1.00  0.00    -0.377 OA
ATOM     75  C   UNL A   1      31.579  23.051  23.441  1.00  0.00     0.149 C 
ATOM     76  C   UNL A   1      32.244  21.799  24.001  1.00  0.00     0.181 C 
BRANCH  73  77
ATOM     77  C   UNL A   1      32.153  25.413  23.178  1.00  0.00     0.256 C 
ATOM     78  O   UNL A   1      33.153  25.756  22.552  1.00  0.00    -0.269 OA
BRANCH  77  79
ATOM     79  C   UNL A   1      30.966  26.282  23.090  1.00  0.00     0.058 A 
ATOM     80  C   UNL A   1      29.793  25.981  23.785  1.00  0.00     0.018 A 
ATOM     81  C   UNL A   1      31.041  27.494  22.421  1.00  0.00     0.126 A 
ATOM     82  C   UNL A   1      28.722  26.871  23.730  1.00  0.00     0.037 A 
ATOM     83  N   UNL A   1      30.012  28.374  22.349  1.00  0.00    -0.249 NA
ATOM     84  C   UNL A   1      28.874  28.044  23.002  1.00  0.00     0.106 A 
ATOM     85  Br  UNL A   1      27.424  29.263  22.925  1.00  0.00    -0.029 Br
ENDBRANCH  77  79
ENDBRANCH  73  77
ENDBRANCH  68  71
ENDBRANCH  66  67
ENDBRANCH  65  66
ENDBRANCH  64  65
ENDBRANCH   1  64
TORSDOF 15
ENDMDL
MODEL 3
REMARK VINA RESULT:     -11.4      5.723     10.363
REMARK SMILES O=C(NCCCCCCNC(=O)[C@H]1COCCN1C(=O)c1ccc(Br)nc1)c1ccc(-c2c3nc(c(-c4c(F)cccc4F)c4ccc([nH]4)c(-c4c(F)cccc4F)c4nc(c(-c5c(F)cccc5F)c5ccc2[nH]5)C=C4)C=C3)cc1
REMARK SMILES IDX 6 1 5 2 4 3 3 4 1 5 2 6 28 8 29 9 81 10 30 11 80 12 31 13
REMARK SMILES IDX 32 14 33 15 74 16 34 17 79 18 73 19 75 20 35 21 78 22 72 23
REMARK SMILES IDX 71 24 36 26 62 27 45 28 61 29 46 30 49 31 60 32 76 33 47 34
REMARK SMILES IDX 48 35 59 37 77 38 50 39 37 40 38 41 43 42 39 43 40 44 42 45
REMARK SMILES IDX 44 46 41 47 63 48 64 49 69 50 65 51 66 52 68 53 70 54 67 55
REMARK SMILES IDX 51 56 52 57 57 58 53 59 54 60 56 61 58 62 55 63 7 64 8 65
REMARK SMILES IDX 9 66 10 67 11 68 12 70 13 71 14 72 18 73 15 74 17 75 16 76
REMARK SMILES IDX 19 77 20 78 21 79 22 80 27 81 23 82 26 83 24 84 25 85
REMARK H PARENT 3 7 75 25 49 36 10 69
REMARK Flexibility Score: inf
ROOT
ATOM      1  C   UNL A   1      36.745  20.516  24.897  1.00  0.00     0.002 C 
ENDROOT
BRANCH   1   2
ATOM      2  C   UNL A   1      37.937  19.558  24.998  1.00  0.00     0.021 C 
BRANCH   2   3
ATOM      3  C   UNL A   1      39.133  20.121  25.758  1.00  0.00     0.116 C 
BRANCH   3   4
ATOM      4  N   UNL A   1      40.192  19.132  25.889  1.00  0.00    -0.352 N 
ATOM      5  O   UNL A   1      42.321  18.393  25.865  1.00  0.00    -0.269 OA
ATOM      6  C   UNL A   1      41.537  19.320  26.058  1.00  0.00     0.251 C 
ATOM      7  H   UNL A   1      39.898  18.193  25.850  1.00  0.00     0.163 HD
BRANCH   6   8
ATOM      8  C   UNL A   1      42.053  20.639  26.479  1.00  0.00     0.039 A 
ATOM      9  C   UNL A   1      42.443  21.587  25.528  1.00  0.00     0.014 A 
ATOM     10  C   UNL A   1      42.082  20.954  27.840  1.00  0.00     0.014 A 
ATOM     11  C   UNL A   1      42.946  22.817  25.939  1.00  0.00     0.010 A 
ATOM     12  C   UNL A   1      42.526  22.212  28.250  1.00  0.00     0.010 A 
ATOM     13  C   UNL A   1      42.971  23.149  27.301  1.00  0.00    -0.014 A 
BRANCH  13  14
ATOM     14  C   UNL A   1      43.384  24.507  27.727  1.00  0.00     0.031 A 
ATOM     15  C   UNL A   1      42.363  25.542  28.094  1.00  0.00     0.074 A 
ATOM     16  C   UNL A   1      44.695  24.810  27.741  1.00  0.00     0.049 A 
ATOM     17  N   UNL A   1      42.542  26.798  28.413  1.00  0.00    -0.248 NA
ATOM     18  C   UNL A   1      40.957  25.114  28.091  1.00  0.00     0.031 C 
ATOM     19  C   UNL A   1      45.775  23.887  27.387  1.00  0.00     0.029 A 
ATOM     20  N   UNL A   1      45.342  25.979  28.048  1.00  0.00    -0.354 N 
ATOM     21  C   UNL A   1      41.272  27.319  28.628  1.00  0.00     0.074 A 
ATOM     22  C   UNL A   1      40.331  26.246  28.383  1.00  0.00     0.031 C 
ATOM     23  C   UNL A   1      46.950  24.524  27.498  1.00  0.00     0.029 A 
ATOM     24  C   UNL A   1      46.702  25.910  27.877  1.00  0.00     0.049 A 
ATOM     25  H   UNL A   1      44.877  26.790  28.359  1.00  0.00     0.167 HD
ATOM     26  C   UNL A   1      40.929  28.575  28.997  1.00  0.00     0.037 A 
ATOM     27  C   UNL A   1      47.646  26.865  27.977  1.00  0.00     0.037 A 
ATOM     28  C   UNL A   1      41.875  29.633  29.245  1.00  0.00     0.049 A 
ATOM     29  C   UNL A   1      47.241  28.255  28.363  1.00  0.00     0.074 A 
ATOM     30  C   UNL A   1      41.632  30.925  29.677  1.00  0.00     0.029 A 
ATOM     31  N   UNL A   1      43.248  29.523  29.067  1.00  0.00    -0.354 N 
ATOM     32  N   UNL A   1      46.042  28.723  28.614  1.00  0.00    -0.248 NA
ATOM     33  C   UNL A   1      48.313  29.252  28.478  1.00  0.00     0.031 C 
ATOM     34  C   UNL A   1      42.852  31.610  29.715  1.00  0.00     0.029 A 
ATOM     35  C   UNL A   1      43.861  30.732  29.353  1.00  0.00     0.049 A 
ATOM     36  H   UNL A   1      43.716  28.706  28.780  1.00  0.00     0.167 HD
ATOM     37  C   UNL A   1      46.215  30.061  28.934  1.00  0.00     0.074 A 
ATOM     38  C   UNL A   1      47.637  30.330  28.853  1.00  0.00     0.031 C 
ATOM     39  C   UNL A   1      45.278  30.983  29.268  1.00  0.00     0.037 A 
BRANCH  26  40
ATOM     40  C   UNL A   1      39.465  28.882  29.124  1.00  0.00     0.057 A 
ATOM     41  C   UNL A   1      38.698  29.316  28.034  1.00  0.00     0.134 A 
ATOM     42  C   UNL A   1      38.808  28.723  30.352  1.00  0.00     0.134 A 
ATOM     43  F   UNL A   1      39.266  29.498  26.833  1.00  0.00    -0.206 F 
ATOM     44  C   UNL A   1      37.340  29.612  28.169  1.00  0.00     0.040 A 
ATOM     45  C   UNL A   1      37.446  28.991  30.493  1.00  0.00     0.040 A 
ATOM     46  F   UNL A   1      39.480  28.302  31.433  1.00  0.00    -0.206 F 
ATOM     47  C   UNL A   1      36.709  29.446  29.401  1.00  0.00     0.006 A 
ENDBRANCH  26  40
BRANCH  27  48
ATOM     48  C   UNL A   1      49.058  26.516  27.688  1.00  0.00     0.057 A 
ATOM     49  C   UNL A   1      49.926  26.105  28.703  1.00  0.00     0.134 A 
ATOM     50  C   UNL A   1      49.551  26.526  26.377  1.00  0.00     0.134 A 
ATOM     51  F   UNL A   1      49.513  26.086  29.978  1.00  0.00    -0.206 F 
ATOM     52  C   UNL A   1      51.236  25.713  28.425  1.00  0.00     0.040 A 
ATOM     53  C   UNL A   1      50.850  26.115  26.082  1.00  0.00     0.040 A 
ATOM     54  F   UNL A   1      48.761  26.900  25.360  1.00  0.00    -0.206 F 
ATOM     55  C   UNL A   1      51.699  25.707  27.109  1.00  0.00     0.006 A 
ENDBRANCH  27  48
BRANCH  39  56
ATOM     56  C   UNL A   1      45.760  32.363  29.597  1.00  0.00     0.057 A 
ATOM     57  C   UNL A   1      46.144  32.720  30.894  1.00  0.00     0.134 A 
ATOM     58  C   UNL A   1      45.899  33.326  28.590  1.00  0.00     0.134 A 
ATOM     59  F   UNL A   1      46.019  31.847  31.904  1.00  0.00    -0.206 F 
ATOM     60  C   UNL A   1      46.644  33.991  31.181  1.00  0.00     0.040 A 
ATOM     61  C   UNL A   1      46.418  34.592  28.859  1.00  0.00     0.040 A 
ATOM     62  F   UNL A   1      45.553  33.044  27.324  1.00  0.00    -0.206 F 
ATOM     63  C   UNL A   1      46.791  34.928  30.159  1.00  0.00     0.006 A 
ENDBRANCH  39  56
ENDBRANCH  13  14
ENDBRANCH   6   8
ENDBRANCH   3   4
ENDBRANCH   2   3
ENDBRANCH   1   2
BRANCH   1  64
ATOM     64  C   UNL A   1      36.997  21.797  24.090  1.00  0.00     0.002 C 
BRANCH  64  65
ATOM     65  C   UNL A   1      36.351  23.061  24.670  1.00  0.00     0.021 C 
BRANCH  65  66
ATOM     66  C   UNL A   1      35.434  23.792  23.687  1.00  0.00     0.116 C 
BRANCH  66  67
ATOM     67  N   UNL A   1      34.614  24.769  24.367  1.00  0.00    -0.354 N 
ATOM     68  C   UNL A   1      33.585  24.659  25.240  1.00  0.00     0.245 C 
ATOM     69  H   UNL A   1      34.851  25.701  24.153  1.00  0.00     0.163 HD
ATOM     70  O   UNL A   1      33.040  25.729  25.553  1.00  0.00    -0.273 OA
BRANCH  68  71
ATOM     71  C   UNL A   1      32.998  23.337  25.809  1.00  0.00     0.200 C 
ATOM     72  C   UNL A   1      32.505  23.603  27.248  1.00  0.00     0.195 C 
ATOM     73  N   UNL A   1      32.047  22.493  25.046  1.00  0.00    -0.322 N 
ATOM     74  O   UNL A   1      31.121  23.977  27.294  1.00  0.00    -0.377 OA
ATOM     75  C   UNL A   1      30.614  22.673  25.310  1.00  0.00     0.149 C 
ATOM     76  C   UNL A   1      30.306  22.921  26.782  1.00  0.00     0.181 C 
BRANCH  73  77
ATOM     77  C   UNL A   1      32.406  21.635  24.009  1.00  0.00     0.256 C 
ATOM     78  O   UNL A   1      32.633  22.030  22.868  1.00  0.00    -0.269 OA
BRANCH  77  79
ATOM     79  C   UNL A   1      32.453  20.182  24.247  1.00  0.00     0.058 A 
ATOM     80  C   UNL A   1      32.443  19.272  23.188  1.00  0.00     0.018 A 
ATOM     81  C   UNL A   1      32.650  19.696  25.530  1.00  0.00     0.126 A 
ATOM     82  C   UNL A   1      32.564  17.910  23.460  1.00  0.00     0.037 A 
ATOM     83  N   UNL A   1      32.765  18.376  25.820  1.00  0.00    -0.249 NA
ATOM     84  C   UNL A   1      32.718  17.511  24.781  1.00  0.00     0.106 A 
ATOM     85  Br  UNL A   1      32.888  15.661  25.159  1.00  0.00    -0.029 Br
ENDBRANCH  77  79
ENDBRANCH  73  77
ENDBRANCH  68  71
ENDBRANCH  66  67
ENDBRANCH  65  66
ENDBRANCH  64  65
ENDBRANCH   1  64
TORSDOF 15
ENDMDL
