MODEL 1
REMARK VINA RESULT:     -12.2      0.000      0.000
REMARK SMILES CC(C)c1ccc(NC(=O)C[C@H]2SC[C@@H](C(=O)NCCCCCCNC(=O)c3ccc(-c4c5nc(c(-c6c(F)cccc6F)c6ccc([nH]6)c(-c6c(F)cccc6F)c6nc(c(-c7c(F)cccc7F)c7ccc4[nH]7)C=C6)C=C5)cc3)NC2=O)cc1
REMARK SMILES IDX 20 1 19 2 18 3 16 4 17 5 15 7 12 8 13 9 83 10 14 11 82 12
REMARK SMILES IDX 84 13 11 15 9 16 8 17 10 19 7 20 4 21 5 22 86 23 6 24 85 25
REMARK SMILES IDX 2 26 1 27 3 28 21 29 22 30 23 31 24 32 25 33 26 34 27 36
REMARK SMILES IDX 28 37 29 38 81 39 30 40 80 41 31 42 32 43 33 44 74 45 34 46
REMARK SMILES IDX 79 47 73 48 75 49 35 50 78 51 72 52 71 53 36 55 62 56 45 57
REMARK SMILES IDX 61 58 46 59 49 60 60 61 76 62 47 63 48 64 59 66 77 67 50 68
REMARK SMILES IDX 37 69 38 70 43 71 39 72 40 73 42 74 44 75 41 76 63 77 64 78
REMARK SMILES IDX 69 79 65 80 66 81 68 82 70 83 67 84 51 85 52 86 57 87 53 88
REMARK SMILES IDX 54 89 56 90 58 91 55 92
REMARK H PARENT 18 6 82 14 8 18 25 35 75 54 49 65
REMARK Flexibility Score: inf
ROOT
ATOM      1  C   UNL A   1      35.245  21.878  26.871  1.00  0.00     0.021 C 
ENDROOT
BRANCH   1   2
ATOM      2  C   UNL A   1      33.894  21.239  26.551  1.00  0.00     0.116 C 
BRANCH   2   3
ATOM      3  N   UNL A   1      32.859  21.943  27.271  1.00  0.00    -0.354 N 
ATOM      4  C   UNL A   1      31.947  22.813  26.739  1.00  0.00     0.243 C 
ATOM      5  O   UNL A   1      31.570  23.744  27.449  1.00  0.00    -0.273 OA
ATOM      6  H   UNL A   1      32.803  21.781  28.241  1.00  0.00     0.163 HD
BRANCH   4   7
ATOM      7  C   UNL A   1      31.242  22.399  25.430  1.00  0.00     0.181 C 
ATOM      8  C   UNL A   1      32.407  24.310  23.352  1.00  0.00     0.145 C 
ATOM      9  S   UNL A   1      33.399  22.778  23.641  1.00  0.00    -0.145 SA
ATOM     10  C   UNL A   1      31.461  24.649  24.510  1.00  0.00     0.234 C 
ATOM     11  C   UNL A   1      32.143  21.718  24.413  1.00  0.00     0.105 C 
ATOM     12  N   UNL A   1      30.646  23.645  24.974  1.00  0.00    -0.343 N 
ATOM     13  O   UNL A   1      31.272  25.762  24.991  1.00  0.00    -0.274 OA
ATOM     14  H   UNL A   1      29.669  23.766  24.996  1.00  0.00     0.164 HD
BRANCH   8  15
ATOM     15  C   UNL A   1      33.372  25.404  22.868  1.00  0.00     0.124 C 
BRANCH  15  16
ATOM     16  C   UNL A   1      33.003  26.273  21.682  1.00  0.00     0.226 C 
ATOM     17  N   UNL A   1      32.564  27.555  21.792  1.00  0.00    -0.326 N 
ATOM     18  H   UNL A   1      32.383  27.990  20.928  1.00  0.00     0.169 HD
ATOM     19  O   UNL A   1      33.089  25.804  20.540  1.00  0.00    -0.275 OA
BRANCH  17  20
ATOM     20  C   UNL A   1      32.321  28.373  22.900  1.00  0.00     0.041 A 
ATOM     21  C   UNL A   1      31.982  29.856  25.282  1.00  0.00    -0.045 A 
ATOM     22  C   UNL A   1      30.898  29.581  24.437  1.00  0.00     0.006 A 
ATOM     23  C   UNL A   1      33.249  29.399  24.890  1.00  0.00     0.006 A 
ATOM     24  C   UNL A   1      31.068  28.856  23.252  1.00  0.00     0.026 A 
ATOM     25  C   UNL A   1      33.421  28.688  23.701  1.00  0.00     0.026 A 
BRANCH  21  26
ATOM     26  C   UNL A   1      31.846  30.623  26.590  1.00  0.00     0.013 C 
ATOM     27  C   UNL A   1      33.198  30.711  27.310  1.00  0.00     0.012 C 
ATOM     28  C   UNL A   1      31.252  32.030  26.458  1.00  0.00     0.012 C 
ENDBRANCH  21  26
ENDBRANCH  17  20
ENDBRANCH  15  16
ENDBRANCH   8  15
ENDBRANCH   4   7
ENDBRANCH   2   3
ENDBRANCH   1   2
BRANCH   1  29
ATOM     29  C   UNL A   1      36.245  21.813  25.705  1.00  0.00     0.002 C 
BRANCH  29  30
ATOM     30  C   UNL A   1      36.379  20.434  25.051  1.00  0.00     0.002 C 
BRANCH  30  31
ATOM     31  C   UNL A   1      37.809  20.049  24.667  1.00  0.00     0.021 C 
BRANCH  31  32
ATOM     32  C   UNL A   1      38.841  20.321  25.753  1.00  0.00     0.116 C 
BRANCH  32  33
ATOM     33  N   UNL A   1      39.862  19.288  25.807  1.00  0.00    -0.352 N 
ATOM     34  C   UNL A   1      41.199  19.417  26.074  1.00  0.00     0.251 C 
ATOM     35  H   UNL A   1      39.550  18.372  25.626  1.00  0.00     0.163 HD
ATOM     36  O   UNL A   1      41.965  18.474  25.890  1.00  0.00    -0.269 OA
BRANCH  34  37
ATOM     37  C   UNL A   1      41.724  20.709  26.564  1.00  0.00     0.039 A 
ATOM     38  C   UNL A   1      42.191  21.643  25.637  1.00  0.00     0.014 A 
ATOM     39  C   UNL A   1      41.742  21.000  27.930  1.00  0.00     0.014 A 
ATOM     40  C   UNL A   1      42.629  22.893  26.078  1.00  0.00     0.010 A 
ATOM     41  C   UNL A   1      42.108  22.272  28.361  1.00  0.00     0.010 A 
ATOM     42  C   UNL A   1      42.561  23.230  27.440  1.00  0.00    -0.014 A 
BRANCH  42  43
ATOM     43  C   UNL A   1      42.960  24.577  27.919  1.00  0.00     0.031 A 
ATOM     44  C   UNL A   1      41.913  25.617  28.207  1.00  0.00     0.074 A 
ATOM     45  C   UNL A   1      44.268  24.881  28.034  1.00  0.00     0.049 A 
ATOM     46  N   UNL A   1      42.068  26.865  28.573  1.00  0.00    -0.248 NA
ATOM     47  C   UNL A   1      40.508  25.213  28.038  1.00  0.00     0.031 C 
ATOM     48  C   UNL A   1      45.380  23.975  27.739  1.00  0.00     0.029 A 
ATOM     49  N   UNL A   1      44.885  26.046  28.420  1.00  0.00    -0.354 N 
ATOM     50  C   UNL A   1      40.787  27.396  28.655  1.00  0.00     0.074 A 
ATOM     51  C   UNL A   1      39.868  26.351  28.259  1.00  0.00     0.031 C 
ATOM     52  C   UNL A   1      46.540  24.609  27.977  1.00  0.00     0.029 A 
ATOM     53  C   UNL A   1      46.258  25.976  28.401  1.00  0.00     0.049 A 
ATOM     54  H   UNL A   1      44.391  26.854  28.685  1.00  0.00     0.167 HD
ATOM     55  C   UNL A   1      40.410  28.638  29.044  1.00  0.00     0.037 A 
ATOM     56  C   UNL A   1      47.183  26.913  28.684  1.00  0.00     0.037 A 
ATOM     57  C   UNL A   1      41.324  29.662  29.475  1.00  0.00     0.049 A 
ATOM     58  C   UNL A   1      46.733  28.283  29.113  1.00  0.00     0.074 A 
ATOM     59  C   UNL A   1      41.033  30.921  29.970  1.00  0.00     0.029 A 
ATOM     60  N   UNL A   1      42.705  29.547  29.459  1.00  0.00    -0.354 N 
ATOM     61  N   UNL A   1      45.516  28.743  29.270  1.00  0.00    -0.248 NA
ATOM     62  C   UNL A   1      47.787  29.264  29.407  1.00  0.00     0.031 C 
ATOM     63  C   UNL A   1      42.240  31.588  30.203  1.00  0.00     0.029 A 
ATOM     64  C   UNL A   1      43.280  30.725  29.905  1.00  0.00     0.049 A 
ATOM     65  H   UNL A   1      43.203  28.746  29.174  1.00  0.00     0.167 HD
ATOM     66  C   UNL A   1      45.657  30.051  29.716  1.00  0.00     0.074 A 
ATOM     67  C   UNL A   1      47.079  30.307  29.816  1.00  0.00     0.031 C 
ATOM     68  C   UNL A   1      44.697  30.959  30.015  1.00  0.00     0.037 A 
BRANCH  55  69
ATOM     69  C   UNL A   1      38.946  28.965  29.023  1.00  0.00     0.057 A 
ATOM     70  C   UNL A   1      38.137  28.823  30.158  1.00  0.00     0.134 A 
ATOM     71  C   UNL A   1      38.351  29.491  27.869  1.00  0.00     0.134 A 
ATOM     72  F   UNL A   1      38.640  28.316  31.293  1.00  0.00    -0.206 F 
ATOM     73  C   UNL A   1      36.786  29.176  30.141  1.00  0.00     0.040 A 
ATOM     74  C   UNL A   1      37.008  29.874  27.847  1.00  0.00     0.040 A 
ATOM     75  F   UNL A   1      39.070  29.659  26.748  1.00  0.00    -0.206 F 
ATOM     76  C   UNL A   1      36.221  29.712  28.985  1.00  0.00     0.006 A 
ENDBRANCH  55  69
BRANCH  56  77
ATOM     77  C   UNL A   1      48.631  26.594  28.587  1.00  0.00     0.057 A 
ATOM     78  C   UNL A   1      49.321  26.727  27.376  1.00  0.00     0.134 A 
ATOM     79  C   UNL A   1      49.349  26.109  29.688  1.00  0.00     0.134 A 
ATOM     80  F   UNL A   1      48.684  27.169  26.282  1.00  0.00    -0.206 F 
ATOM     81  C   UNL A   1      50.662  26.361  27.253  1.00  0.00     0.040 A 
ATOM     82  C   UNL A   1      50.699  25.765  29.586  1.00  0.00     0.040 A 
ATOM     83  F   UNL A   1      48.751  25.964  30.879  1.00  0.00    -0.206 F 
ATOM     84  C   UNL A   1      51.355  25.880  28.362  1.00  0.00     0.006 A 
ENDBRANCH  56  77
BRANCH  68  85
ATOM     85  C   UNL A   1      45.150  32.296  30.524  1.00  0.00     0.057 A 
ATOM     86  C   UNL A   1      45.357  33.385  29.669  1.00  0.00     0.134 A 
ATOM     87  C   UNL A   1      45.342  32.507  31.897  1.00  0.00     0.134 A 
ATOM     88  F   UNL A   1      45.203  33.247  28.343  1.00  0.00    -0.206 F 
ATOM     89  C   UNL A   1      45.765  34.628  30.156  1.00  0.00     0.040 A 
ATOM     90  C   UNL A   1      45.720  33.752  32.398  1.00  0.00     0.040 A 
ATOM     91  F   UNL A   1      45.150  31.509  32.772  1.00  0.00    -0.206 F 
ATOM     92  C   UNL A   1      45.940  34.816  31.526  1.00  0.00     0.006 A 
ENDBRANCH  68  85
ENDBRANCH  42  43
ENDBRANCH  34  37
ENDBRANCH  32  33
ENDBRANCH  31  32
ENDBRANCH  30  31
ENDBRANCH  29  30
ENDBRANCH   1  29
TORSDOF 17
ENDMDL
MODEL 2
REMARK VINA RESULT:     -12.2      0.539      5.996
REMARK SMILES CC(C)c1ccc(NC(=O)C[C@H]2SC[C@@H](C(=O)NCCCCCCNC(=O)c3ccc(-c4c5nc(c(-c6c(F)cccc6F)c6ccc([nH]6)c(-c6c(F)cccc6F)c6nc(c(-c7c(F)cccc7F)c7ccc4[nH]7)C=C6)C=C5)cc3)NC2=O)cc1
REMARK SMILES IDX 20 1 19 2 18 3 16 4 17 5 15 7 12 8 13 9 83 10 14 11 82 12
REMARK SMILES IDX 84 13 11 15 9 16 8 17 10 19 7 20 4 21 5 22 86 23 6 24 85 25
REMARK SMILES IDX 2 26 1 27 3 28 21 29 22 30 23 31 24 32 25 33 26 34 27 36
REMARK SMILES IDX 28 37 29 38 81 39 30 40 80 41 31 42 32 43 33 44 74 45 34 46
REMARK SMILES IDX 79 47 73 48 75 49 35 50 78 51 72 52 71 53 36 55 62 56 45 57
REMARK SMILES IDX 61 58 46 59 49 60 60 61 76 62 47 63 48 64 59 66 77 67 50 68
REMARK SMILES IDX 37 69 38 70 43 71 39 72 40 73 42 74 44 75 41 76 63 77 64 78
REMARK SMILES IDX 69 79 65 80 66 81 68 82 70 83 67 84 51 85 52 86 57 87 53 88
REMARK SMILES IDX 54 89 56 90 58 91 55 92
REMARK H PARENT 18 6 82 14 8 18 25 35 75 54 49 65
REMARK Flexibility Score: inf
ROOT
ATOM      1  C   UNL A   1      35.263  21.870  26.629  1.00  0.00     0.021 C 
ENDROOT
BRANCH   1   2
ATOM      2  C   UNL A   1      33.925  21.146  26.471  1.00  0.00     0.116 C 
BRANCH   2   3
ATOM      3  N   UNL A   1      32.919  21.847  27.233  1.00  0.00    -0.354 N 
ATOM      4  C   UNL A   1      31.997  22.730  26.742  1.00  0.00     0.243 C 
ATOM      5  O   UNL A   1      31.649  23.653  27.477  1.00  0.00    -0.273 OA
ATOM      6  H   UNL A   1      32.893  21.671  28.202  1.00  0.00     0.163 HD
BRANCH   4   7
ATOM      7  C   UNL A   1      31.247  22.339  25.451  1.00  0.00     0.181 C 
ATOM      8  C   UNL A   1      32.391  24.242  23.354  1.00  0.00     0.145 C 
ATOM      9  S   UNL A   1      33.361  22.689  23.605  1.00  0.00    -0.145 SA
ATOM     10  C   UNL A   1      31.485  24.591  24.540  1.00  0.00     0.234 C 
ATOM     11  C   UNL A   1      32.107  21.648  24.404  1.00  0.00     0.105 C 
ATOM     12  N   UNL A   1      30.663  23.599  25.020  1.00  0.00    -0.343 N 
ATOM     13  O   UNL A   1      31.331  25.704  25.033  1.00  0.00    -0.274 OA
ATOM     14  H   UNL A   1      29.690  23.740  25.070  1.00  0.00     0.164 HD
BRANCH   8  15
ATOM     15  C   UNL A   1      33.363  25.321  22.851  1.00  0.00     0.124 C 
BRANCH  15  16
ATOM     16  C   UNL A   1      33.001  26.170  21.649  1.00  0.00     0.226 C 
ATOM     17  N   UNL A   1      32.540  27.446  21.737  1.00  0.00    -0.326 N 
ATOM     18  H   UNL A   1      32.366  27.869  20.864  1.00  0.00     0.169 HD
ATOM     19  O   UNL A   1      33.113  25.690  20.513  1.00  0.00    -0.275 OA
BRANCH  17  20
ATOM     20  C   UNL A   1      32.266  28.273  22.831  1.00  0.00     0.041 A 
ATOM     21  C   UNL A   1      31.882  29.790  25.184  1.00  0.00    -0.045 A 
ATOM     22  C   UNL A   1      30.798  29.406  24.383  1.00  0.00     0.006 A 
ATOM     23  C   UNL A   1      33.169  29.425  24.762  1.00  0.00     0.006 A 
ATOM     24  C   UNL A   1      30.989  28.663  23.212  1.00  0.00     0.026 A 
ATOM     25  C   UNL A   1      33.361  28.698  23.586  1.00  0.00     0.026 A 
BRANCH  21  26
ATOM     26  C   UNL A   1      31.724  30.580  26.476  1.00  0.00     0.013 C 
ATOM     27  C   UNL A   1      33.055  30.646  27.236  1.00  0.00     0.012 C 
ATOM     28  C   UNL A   1      31.170  31.999  26.305  1.00  0.00     0.012 C 
ENDBRANCH  21  26
ENDBRANCH  17  20
ENDBRANCH  15  16
ENDBRANCH   8  15
ENDBRANCH   4   7
ENDBRANCH   2   3
ENDBRANCH   1   2
BRANCH   1  29
ATOM     29  C   UNL A   1      36.222  21.651  25.448  1.00  0.00     0.002 C 
BRANCH  29  30
ATOM     30  C   UNL A   1      36.423  20.187  25.047  1.00  0.00     0.002 C 
BRANCH  30  31
ATOM     31  C   UNL A   1      37.862  19.821  24.678  1.00  0.00     0.021 C 
BRANCH  31  32
ATOM     32  C   UNL A   1      38.886  20.162  25.751  1.00  0.00     0.116 C 
BRANCH  32  33
ATOM     33  N   UNL A   1      39.977  19.202  25.790  1.00  0.00    -0.352 N 
ATOM     34  C   UNL A   1      41.302  19.420  26.064  1.00  0.00     0.251 C 
ATOM     35  H   UNL A   1      39.730  18.270  25.593  1.00  0.00     0.163 HD
ATOM     36  O   UNL A   1      42.132  18.535  25.867  1.00  0.00    -0.269 OA
BRANCH  34  37
ATOM     37  C   UNL A   1      41.734  20.736  26.579  1.00  0.00     0.039 A 
ATOM     38  C   UNL A   1      42.205  21.691  25.676  1.00  0.00     0.014 A 
ATOM     39  C   UNL A   1      41.662  21.028  27.943  1.00  0.00     0.014 A 
ATOM     40  C   UNL A   1      42.555  22.961  26.137  1.00  0.00     0.010 A 
ATOM     41  C   UNL A   1      41.940  22.316  28.390  1.00  0.00     0.010 A 
ATOM     42  C   UNL A   1      42.395  23.295  27.492  1.00  0.00    -0.014 A 
BRANCH  42  43
ATOM     43  C   UNL A   1      42.701  24.660  27.988  1.00  0.00     0.031 A 
ATOM     44  C   UNL A   1      44.113  25.035  28.347  1.00  0.00     0.074 A 
ATOM     45  C   UNL A   1      41.698  25.541  28.175  1.00  0.00     0.049 A 
ATOM     46  N   UNL A   1      44.566  26.154  28.853  1.00  0.00    -0.248 NA
ATOM     47  C   UNL A   1      45.148  24.011  28.134  1.00  0.00     0.031 C 
ATOM     48  C   UNL A   1      40.281  25.282  27.910  1.00  0.00     0.029 A 
ATOM     49  N   UNL A   1      41.716  26.832  28.643  1.00  0.00    -0.354 N 
ATOM     50  C   UNL A   1      45.930  25.960  29.038  1.00  0.00     0.074 A 
ATOM     51  C   UNL A   1      46.223  24.602  28.632  1.00  0.00     0.031 C 
ATOM     52  C   UNL A   1      39.571  26.386  28.196  1.00  0.00     0.029 A 
ATOM     53  C   UNL A   1      40.472  27.414  28.703  1.00  0.00     0.049 A 
ATOM     54  H   UNL A   1      42.541  27.295  28.910  1.00  0.00     0.167 HD
ATOM     55  C   UNL A   1      46.856  26.840  29.488  1.00  0.00     0.037 A 
ATOM     56  C   UNL A   1      40.101  28.637  29.129  1.00  0.00     0.037 A 
ATOM     57  C   UNL A   1      46.566  28.201  29.852  1.00  0.00     0.049 A 
ATOM     58  C   UNL A   1      41.153  29.592  29.623  1.00  0.00     0.074 A 
ATOM     59  C   UNL A   1      47.450  29.195  30.236  1.00  0.00     0.029 A 
ATOM     60  N   UNL A   1      45.298  28.759  29.883  1.00  0.00    -0.354 N 
ATOM     61  N   UNL A   1      42.450  29.423  29.709  1.00  0.00    -0.248 NA
ATOM     62  C   UNL A   1      40.690  30.911  30.077  1.00  0.00     0.031 C 
ATOM     63  C   UNL A   1      46.711  30.339  30.551  1.00  0.00     0.029 A 
ATOM     64  C   UNL A   1      45.373  30.074  30.310  1.00  0.00     0.049 A 
ATOM     65  H   UNL A   1      44.468  28.291  29.636  1.00  0.00     0.167 HD
ATOM     66  C   UNL A   1      42.960  30.623  30.190  1.00  0.00     0.074 A 
ATOM     67  C   UNL A   1      41.833  31.516  30.365  1.00  0.00     0.031 C 
ATOM     68  C   UNL A   1      44.244  30.956  30.463  1.00  0.00     0.037 A 
BRANCH  55  69
ATOM     69  C   UNL A   1      48.273  26.364  29.614  1.00  0.00     0.057 A 
ATOM     70  C   UNL A   1      49.191  26.478  28.561  1.00  0.00     0.134 A 
ATOM     71  C   UNL A   1      48.743  25.843  30.826  1.00  0.00     0.134 A 
ATOM     72  F   UNL A   1      48.804  26.958  27.370  1.00  0.00    -0.206 F 
ATOM     73  C   UNL A   1      50.521  26.076  28.704  1.00  0.00     0.040 A 
ATOM     74  C   UNL A   1      50.077  25.463  30.991  1.00  0.00     0.040 A 
ATOM     75  F   UNL A   1      47.919  25.712  31.876  1.00  0.00    -0.206 F 
ATOM     76  C   UNL A   1      50.968  25.575  29.926  1.00  0.00     0.006 A 
ENDBRANCH  55  69
BRANCH  56  77
ATOM     77  C   UNL A   1      38.672  29.043  29.099  1.00  0.00     0.057 A 
ATOM     78  C   UNL A   1      38.094  29.568  27.936  1.00  0.00     0.134 A 
ATOM     79  C   UNL A   1      37.862  28.957  30.238  1.00  0.00     0.134 A 
ATOM     80  F   UNL A   1      38.823  29.693  26.818  1.00  0.00    -0.206 F 
ATOM     81  C   UNL A   1      36.775  30.023  27.915  1.00  0.00     0.040 A 
ATOM     82  C   UNL A   1      36.532  29.382  30.224  1.00  0.00     0.040 A 
ATOM     83  F   UNL A   1      38.351  28.458  31.382  1.00  0.00    -0.206 F 
ATOM     84  C   UNL A   1      35.989  29.928  29.062  1.00  0.00     0.006 A 
ENDBRANCH  56  77
BRANCH  68  85
ATOM     85  C   UNL A   1      44.507  32.357  30.933  1.00  0.00     0.057 A 
ATOM     86  C   UNL A   1      44.728  33.411  30.039  1.00  0.00     0.134 A 
ATOM     87  C   UNL A   1      44.499  32.660  32.301  1.00  0.00     0.134 A 
ATOM     88  F   UNL A   1      44.761  33.186  28.716  1.00  0.00    -0.206 F 
ATOM     89  C   UNL A   1      44.958  34.713  30.489  1.00  0.00     0.040 A 
ATOM     90  C   UNL A   1      44.698  33.962  32.761  1.00  0.00     0.040 A 
ATOM     91  F   UNL A   1      44.284  31.699  33.211  1.00  0.00    -0.206 F 
ATOM     92  C   UNL A   1      44.936  34.992  31.854  1.00  0.00     0.006 A 
ENDBRANCH  68  85
ENDBRANCH  42  43
ENDBRANCH  34  37
ENDBRANCH  32  33
ENDBRANCH  31  32
ENDBRANCH  30  31
ENDBRANCH  29  30
ENDBRANCH   1  29
TORSDOF 17
ENDMDL
MODEL 3
REMARK VINA RESULT:     -11.9      1.611      6.499
REMARK SMILES CC(C)c1ccc(NC(=O)C[C@H]2SC[C@@H](C(=O)NCCCCCCNC(=O)c3ccc(-c4c5nc(c(-c6c(F)cccc6F)c6ccc([nH]6)c(-c6c(F)cccc6F)c6nc(c(-c7c(F)cccc7F)c7ccc4[nH]7)C=C6)C=C5)cc3)NC2=O)cc1
REMARK SMILES IDX 20 1 19 2 18 3 16 4 17 5 15 7 12 8 13 9 83 10 14 11 82 12
REMARK SMILES IDX 84 13 11 15 9 16 8 17 10 19 7 20 4 21 5 22 86 23 6 24 85 25
REMARK SMILES IDX 2 26 1 27 3 28 21 29 22 30 23 31 24 32 25 33 26 34 27 36
REMARK SMILES IDX 28 37 29 38 81 39 30 40 80 41 31 42 32 43 33 44 74 45 34 46
REMARK SMILES IDX 79 47 73 48 75 49 35 50 78 51 72 52 71 53 36 55 62 56 45 57
REMARK SMILES IDX 61 58 46 59 49 60 60 61 76 62 47 63 48 64 59 66 77 67 50 68
REMARK SMILES IDX 37 69 38 70 43 71 39 72 40 73 42 74 44 75 41 76 63 77 64 78
REMARK SMILES IDX 69 79 65 80 66 81 68 82 70 83 67 84 51 85 52 86 57 87 53 88
REMARK SMILES IDX 54 89 56 90 58 91 55 92
REMARK H PARENT 18 6 82 14 8 18 25 35 75 54 49 65
REMARK Flexibility Score: inf
ROOT
ATOM      1  C   UNL A   1      37.433  23.169  24.663  1.00  0.00     0.021 C 
ENDROOT
BRANCH   1   2
ATOM      2  C   UNL A   1      36.631  22.881  23.393  1.00  0.00     0.116 C 
BRANCH   2   3
ATOM      3  N   UNL A   1      35.464  23.733  23.372  1.00  0.00    -0.354 N 
ATOM      4  C   UNL A   1      34.232  23.409  22.877  1.00  0.00     0.243 C 
ATOM      5  O   UNL A   1      33.566  24.314  22.375  1.00  0.00    -0.273 OA
ATOM      6  H   UNL A   1      35.567  24.636  23.752  1.00  0.00     0.163 HD
BRANCH   4   7
ATOM      7  C   UNL A   1      33.649  22.029  23.251  1.00  0.00     0.181 C 
ATOM      8  C   UNL A   1      32.123  22.573  25.840  1.00  0.00     0.145 C 
ATOM      9  S   UNL A   1      31.162  22.881  24.292  1.00  0.00    -0.145 SA
ATOM     10  C   UNL A   1      33.641  22.591  25.626  1.00  0.00     0.234 C 
ATOM     11  C   UNL A   1      32.140  21.918  23.104  1.00  0.00     0.105 C 
ATOM     12  N   UNL A   1      34.143  21.823  24.603  1.00  0.00    -0.343 N 
ATOM     13  O   UNL A   1      34.470  23.131  26.352  1.00  0.00    -0.274 OA
ATOM     14  H   UNL A   1      34.829  21.141  24.783  1.00  0.00     0.164 HD
BRANCH   8  15
ATOM     15  C   UNL A   1      31.541  23.478  26.936  1.00  0.00     0.124 C 
BRANCH  15  16
ATOM     16  C   UNL A   1      30.044  23.696  27.028  1.00  0.00     0.226 C 
ATOM     17  N   UNL A   1      29.403  24.774  26.502  1.00  0.00    -0.326 N 
ATOM     18  H   UNL A   1      28.427  24.760  26.630  1.00  0.00     0.169 HD
ATOM     19  O   UNL A   1      29.347  22.862  27.621  1.00  0.00    -0.275 OA
BRANCH  17  20
ATOM     20  C   UNL A   1      29.867  25.898  25.812  1.00  0.00     0.041 A 
ATOM     21  C   UNL A   1      30.813  28.017  24.197  1.00  0.00    -0.045 A 
ATOM     22  C   UNL A   1      31.355  27.772  25.466  1.00  0.00     0.006 A 
ATOM     23  C   UNL A   1      29.760  27.194  23.767  1.00  0.00     0.006 A 
ATOM     24  C   UNL A   1      30.880  26.730  26.270  1.00  0.00     0.026 A 
ATOM     25  C   UNL A   1      29.277  26.164  24.575  1.00  0.00     0.026 A 
BRANCH  21  26
ATOM     26  C   UNL A   1      31.308  29.124  23.278  1.00  0.00     0.013 C 
ATOM     27  C   UNL A   1      32.715  28.805  22.756  1.00  0.00     0.012 C 
ATOM     28  C   UNL A   1      30.390  29.441  22.092  1.00  0.00     0.012 C 
ENDBRANCH  21  26
ENDBRANCH  17  20
ENDBRANCH  15  16
ENDBRANCH   8  15
ENDBRANCH   4   7
ENDBRANCH   2   3
ENDBRANCH   1   2
BRANCH   1  29
ATOM     29  C   UNL A   1      37.707  21.917  25.511  1.00  0.00     0.002 C 
BRANCH  29  30
ATOM     30  C   UNL A   1      37.360  20.590  24.828  1.00  0.00     0.002 C 
BRANCH  30  31
ATOM     31  C   UNL A   1      38.410  19.491  25.002  1.00  0.00     0.021 C 
BRANCH  31  32
ATOM     32  C   UNL A   1      39.477  19.808  26.041  1.00  0.00     0.116 C 
BRANCH  32  33
ATOM     33  N   UNL A   1      40.581  18.864  25.995  1.00  0.00    -0.352 N 
ATOM     34  C   UNL A   1      41.926  19.114  26.063  1.00  0.00     0.251 C 
ATOM     35  H   UNL A   1      40.327  17.918  25.903  1.00  0.00     0.163 HD
ATOM     36  O   UNL A   1      42.738  18.225  25.815  1.00  0.00    -0.269 OA
BRANCH  34  37
ATOM     37  C   UNL A   1      42.400  20.469  26.414  1.00  0.00     0.039 A 
ATOM     38  C   UNL A   1      42.853  21.310  25.396  1.00  0.00     0.014 A 
ATOM     39  C   UNL A   1      42.385  20.910  27.740  1.00  0.00     0.014 A 
ATOM     40  C   UNL A   1      43.242  22.615  25.702  1.00  0.00     0.010 A 
ATOM     41  C   UNL A   1      42.701  22.233  28.033  1.00  0.00     0.010 A 
ATOM     42  C   UNL A   1      43.139  23.098  27.018  1.00  0.00    -0.014 A 
BRANCH  42  43
ATOM     43  C   UNL A   1      43.486  24.502  27.350  1.00  0.00     0.031 A 
ATOM     44  C   UNL A   1      44.921  24.954  27.315  1.00  0.00     0.074 A 
ATOM     45  C   UNL A   1      42.518  25.353  27.743  1.00  0.00     0.049 A 
ATOM     46  N   UNL A   1      45.427  26.119  27.631  1.00  0.00    -0.248 NA
ATOM     47  C   UNL A   1      45.922  23.960  26.895  1.00  0.00     0.031 C 
ATOM     48  C   UNL A   1      41.096  25.023  27.864  1.00  0.00     0.029 A 
ATOM     49  N   UNL A   1      42.584  26.670  28.125  1.00  0.00    -0.354 N 
ATOM     50  C   UNL A   1      46.801  25.991  27.469  1.00  0.00     0.074 A 
ATOM     51  C   UNL A   1      47.055  24.623  27.070  1.00  0.00     0.031 C 
ATOM     52  C   UNL A   1      40.423  26.113  28.267  1.00  0.00     0.029 A 
ATOM     53  C   UNL A   1      41.367  27.206  28.474  1.00  0.00     0.049 A 
ATOM     54  H   UNL A   1      43.424  27.181  28.149  1.00  0.00     0.167 HD
ATOM     55  C   UNL A   1      47.762  26.933  27.622  1.00  0.00     0.037 A 
ATOM     56  C   UNL A   1      41.051  28.437  28.919  1.00  0.00     0.037 A 
ATOM     57  C   UNL A   1      47.502  28.302  27.980  1.00  0.00     0.049 A 
ATOM     58  C   UNL A   1      42.141  29.461  29.078  1.00  0.00     0.074 A 
ATOM     59  C   UNL A   1      48.399  29.351  28.074  1.00  0.00     0.029 A 
ATOM     60  N   UNL A   1      46.255  28.810  28.307  1.00  0.00    -0.354 N 
ATOM     61  N   UNL A   1      43.425  29.349  28.837  1.00  0.00    -0.248 NA
ATOM     62  C   UNL A   1      41.737  30.787  29.569  1.00  0.00     0.031 C 
ATOM     63  C   UNL A   1      47.703  30.483  28.510  1.00  0.00     0.029 A 
ATOM     64  C   UNL A   1      46.365  30.151  28.634  1.00  0.00     0.049 A 
ATOM     65  H   UNL A   1      45.416  28.295  28.306  1.00  0.00     0.167 HD
ATOM     66  C   UNL A   1      43.974  30.595  29.111  1.00  0.00     0.074 A 
ATOM     67  C   UNL A   1      42.882  31.452  29.523  1.00  0.00     0.031 C 
ATOM     68  C   UNL A   1      45.266  30.996  29.027  1.00  0.00     0.037 A 
BRANCH  55  69
ATOM     69  C   UNL A   1      49.189  26.522  27.403  1.00  0.00     0.057 A 
ATOM     70  C   UNL A   1      50.001  26.073  28.453  1.00  0.00     0.134 A 
ATOM     71  C   UNL A   1      49.737  26.514  26.115  1.00  0.00     0.134 A 
ATOM     72  F   UNL A   1      49.541  26.065  29.713  1.00  0.00    -0.206 F 
ATOM     73  C   UNL A   1      51.312  25.647  28.231  1.00  0.00     0.040 A 
ATOM     74  C   UNL A   1      51.037  26.065  25.875  1.00  0.00     0.040 A 
ATOM     75  F   UNL A   1      49.012  26.925  25.064  1.00  0.00    -0.206 F 
ATOM     76  C   UNL A   1      51.830  25.634  26.937  1.00  0.00     0.006 A 
ENDBRANCH  55  69
BRANCH  56  77
ATOM     77  C   UNL A   1      39.641  28.784  29.236  1.00  0.00     0.057 A 
ATOM     78  C   UNL A   1      39.128  28.611  30.528  1.00  0.00     0.134 A 
ATOM     79  C   UNL A   1      38.764  29.255  28.252  1.00  0.00     0.134 A 
ATOM     80  F   UNL A   1      39.914  28.146  31.509  1.00  0.00    -0.206 F 
ATOM     81  C   UNL A   1      37.787  28.862  30.822  1.00  0.00     0.040 A 
ATOM     82  C   UNL A   1      37.427  29.537  28.539  1.00  0.00     0.040 A 
ATOM     83  F   UNL A   1      39.193  29.449  26.997  1.00  0.00    -0.206 F 
ATOM     84  C   UNL A   1      36.933  29.329  29.826  1.00  0.00     0.006 A 
ENDBRANCH  56  77
BRANCH  68  85
ATOM     85  C   UNL A   1      45.563  32.432  29.344  1.00  0.00     0.057 A 
ATOM     86  C   UNL A   1      45.486  33.438  28.373  1.00  0.00     0.134 A 
ATOM     87  C   UNL A   1      45.894  32.818  30.650  1.00  0.00     0.134 A 
ATOM     88  F   UNL A   1      45.188  33.134  27.101  1.00  0.00    -0.206 F 
ATOM     89  C   UNL A   1      45.752  34.773  28.683  1.00  0.00     0.040 A 
ATOM     90  C   UNL A   1      46.132  34.153  30.978  1.00  0.00     0.040 A 
ATOM     91  F   UNL A   1      45.975  31.906  31.630  1.00  0.00    -0.206 F 
ATOM     92  C   UNL A   1      46.069  35.134  29.991  1.00  0.00     0.006 A 
ENDBRANCH  68  85
ENDBRANCH  42  43
ENDBRANCH  34  37
ENDBRANCH  32  33
ENDBRANCH  31  32
ENDBRANCH  30  31
ENDBRANCH  29  30
ENDBRANCH   1  29
TORSDOF 17
ENDMDL
