MODEL 1
REMARK VINA RESULT:     -13.4      0.000      0.000
REMARK SMILES O=C1C[C@H](c2cn[nH]c2C(=O)NCCCCCCNC(=O)c2ccc(-c3c4nc(c(-c5c(F)cccc5F)c5ccc([nH]5)c(-c5c(F)cccc5F)c5nc(c(-c6c(F)cccc6F)c6ccc3[nH]6)C=C5)C=C4)cc2)c2c(-c3cccs3)n[nH]c2N1
REMARK SMILES IDX 15 1 14 2 13 3 12 4 10 5 11 6 9 8 5 9 6 10 7 11 8 12 4 14
REMARK SMILES IDX 1 15 2 16 3 17 86 18 85 19 76 21 84 22 77 23 83 24 78 26
REMARK SMILES IDX 79 27 82 28 80 29 81 30 16 31 17 32 18 33 19 34 20 35 21 37
REMARK SMILES IDX 22 38 23 39 75 40 24 41 74 42 25 43 26 44 27 45 68 46 28 47
REMARK SMILES IDX 73 48 67 49 69 50 29 51 72 52 66 53 65 54 30 56 56 57 39 58
REMARK SMILES IDX 55 59 40 60 43 61 54 62 70 63 41 64 42 65 53 67 71 68 44 69
REMARK SMILES IDX 31 70 32 71 37 72 33 73 34 74 36 75 38 76 35 77 57 78 58 79
REMARK SMILES IDX 63 80 59 81 60 82 62 83 64 84 61 85 45 86 46 87 51 88 47 89
REMARK SMILES IDX 48 90 50 91 52 92 49 93
REMARK H PARENT 12 7 8 13 86 20 84 25 19 36 69 55 43 66
REMARK Flexibility Score: inf
ROOT
ATOM      1  C   UNL A   1      39.659  21.208  26.044  1.00  0.00     0.002 C 
ENDROOT
BRANCH   1   2
ATOM      2  C   UNL A   1      39.381  22.681  26.350  1.00  0.00     0.021 C 
BRANCH   2   3
ATOM      3  C   UNL A   1      37.712  23.129  26.129  1.00  0.00     0.116 C 
BRANCH   3   4
ATOM      4  N   UNL A   1      35.981  21.817  25.964  1.00  0.00    -0.351 N 
ATOM      5  C   UNL A   1      34.629  21.429  26.056  1.00  0.00     0.269 C 
ATOM      6  O   UNL A   1      34.378  20.281  25.674  1.00  0.00    -0.268 OA
ATOM      7  H   UNL A   1      36.393  20.996  25.610  1.00  0.00     0.163 HD
BRANCH   5   8
ATOM      8  C   UNL A   1      33.564  22.307  26.474  1.00  0.00     0.126 A 
ATOM      9  C   UNL A   1      32.934  23.373  25.849  1.00  0.00     0.011 A 
ATOM     10  C   UNL A   1      31.899  23.744  26.726  1.00  0.00     0.140 A 
ATOM     11  N   UNL A   1      31.889  23.007  27.838  1.00  0.00    -0.183 NA
ATOM     12  N   UNL A   1      32.904  22.144  27.659  1.00  0.00    -0.273 N 
ATOM     13  H   UNL A   1      33.149  21.458  28.321  1.00  0.00     0.190 HD
BRANCH   9  14
ATOM     14  C   UNL A   1      33.297  23.909  24.512  1.00  0.00     0.069 C 
ATOM     15  O   UNL A   1      32.191  21.463  21.787  1.00  0.00    -0.275 OA
ATOM     16  C   UNL A   1      32.076  22.339  22.653  1.00  0.00     0.226 C 
ATOM     17  C   UNL A   1      33.346  22.817  23.417  1.00  0.00     0.114 C 
ATOM     18  N   UNL A   1      30.833  22.895  22.839  1.00  0.00    -0.311 N 
ATOM     19  C   UNL A   1      30.768  24.091  23.481  1.00  0.00     0.132 A 
ATOM     20  H   UNL A   1      30.019  22.443  22.519  1.00  0.00     0.171 HD
ATOM     21  C   UNL A   1      32.209  24.826  24.194  1.00  0.00     0.031 A 
ATOM     22  N   UNL A   1      29.383  25.318  23.600  1.00  0.00    -0.262 N 
ATOM     23  C   UNL A   1      31.733  26.620  24.780  1.00  0.00     0.108 A 
ATOM     24  N   UNL A   1      30.030  26.906  24.390  1.00  0.00    -0.173 NA
ATOM     25  H   UNL A   1      28.458  25.166  23.298  1.00  0.00     0.192 HD
BRANCH  23  26
ATOM     26  C   UNL A   1      32.575  27.408  25.709  1.00  0.00     0.055 A 
ATOM     27  C   UNL A   1      33.810  27.904  25.368  1.00  0.00     0.022 A 
ATOM     28  S   UNL A   1      32.047  27.930  27.238  1.00  0.00    -0.142 S 
ATOM     29  C   UNL A   1      34.295  28.809  26.359  1.00  0.00     0.012 A 
ATOM     30  C   UNL A   1      33.464  28.866  27.460  1.00  0.00     0.065 A 
ENDBRANCH  23  26
ENDBRANCH   9  14
ENDBRANCH   5   8
ENDBRANCH   3   4
ENDBRANCH   2   3
ENDBRANCH   1   2
BRANCH   1  31
ATOM     31  C   UNL A   1      40.894  20.614  26.733  1.00  0.00     0.002 C 
BRANCH  31  32
ATOM     32  C   UNL A   1      41.635  19.529  25.932  1.00  0.00     0.021 C 
BRANCH  32  33
ATOM     33  C   UNL A   1      42.952  19.144  26.574  1.00  0.00     0.116 C 
BRANCH  33  34
ATOM     34  N   UNL A   1      44.058  19.249  25.617  1.00  0.00    -0.352 N 
ATOM     35  C   UNL A   1      44.436  20.311  24.832  1.00  0.00     0.251 C 
ATOM     36  H   UNL A   1      44.612  18.440  25.524  1.00  0.00     0.163 HD
ATOM     37  O   UNL A   1      45.161  20.171  23.857  1.00  0.00    -0.269 OA
BRANCH  35  38
ATOM     38  C   UNL A   1      44.058  21.640  25.298  1.00  0.00     0.039 A 
ATOM     39  C   UNL A   1      43.298  22.568  24.590  1.00  0.00     0.014 A 
ATOM     40  C   UNL A   1      44.660  22.033  26.477  1.00  0.00     0.014 A 
ATOM     41  C   UNL A   1      43.247  23.865  25.112  1.00  0.00     0.010 A 
ATOM     42  C   UNL A   1      44.036  22.995  27.177  1.00  0.00     0.010 A 
ATOM     43  C   UNL A   1      43.791  24.083  26.388  1.00  0.00    -0.014 A 
BRANCH  43  44
ATOM     44  C   UNL A   1      43.711  25.288  27.185  1.00  0.00     0.031 A 
ATOM     45  C   UNL A   1      44.864  26.169  26.837  1.00  0.00     0.074 A 
ATOM     46  C   UNL A   1      42.604  25.596  27.915  1.00  0.00     0.049 A 
ATOM     47  N   UNL A   1      45.984  26.197  27.475  1.00  0.00    -0.248 NA
ATOM     48  C   UNL A   1      44.973  26.776  25.487  1.00  0.00     0.031 C 
ATOM     49  C   UNL A   1      41.330  24.874  28.101  1.00  0.00     0.029 A 
ATOM     50  N   UNL A   1      42.404  26.696  28.705  1.00  0.00    -0.354 N 
ATOM     51  C   UNL A   1      46.783  27.102  26.789  1.00  0.00     0.074 A 
ATOM     52  C   UNL A   1      46.257  27.149  25.459  1.00  0.00     0.031 C 
ATOM     53  C   UNL A   1      40.423  25.668  28.733  1.00  0.00     0.029 A 
ATOM     54  C   UNL A   1      41.074  26.900  29.129  1.00  0.00     0.049 A 
ATOM     55  H   UNL A   1      43.136  27.300  28.961  1.00  0.00     0.167 HD
ATOM     56  C   UNL A   1      47.544  27.989  27.485  1.00  0.00     0.037 A 
ATOM     57  C   UNL A   1      40.622  28.008  29.796  1.00  0.00     0.037 A 
ATOM     58  C   UNL A   1      47.598  27.580  28.872  1.00  0.00     0.049 A 
ATOM     59  C   UNL A   1      41.841  28.647  30.385  1.00  0.00     0.074 A 
ATOM     60  C   UNL A   1      48.092  26.468  29.523  1.00  0.00     0.029 A 
ATOM     61  N   UNL A   1      46.628  28.114  29.689  1.00  0.00    -0.354 N 
ATOM     62  N   UNL A   1      42.562  28.045  31.296  1.00  0.00    -0.248 NA
ATOM     63  C   UNL A   1      42.554  29.575  29.512  1.00  0.00     0.031 C 
ATOM     64  C   UNL A   1      47.083  26.119  30.470  1.00  0.00     0.029 A 
ATOM     65  C   UNL A   1      46.111  27.119  30.482  1.00  0.00     0.049 A 
ATOM     66  H   UNL A   1      46.348  29.057  29.702  1.00  0.00     0.167 HD
ATOM     67  C   UNL A   1      43.866  28.150  30.828  1.00  0.00     0.074 A 
ATOM     68  C   UNL A   1      43.791  29.100  29.709  1.00  0.00     0.031 C 
ATOM     69  C   UNL A   1      44.815  27.210  31.123  1.00  0.00     0.037 A 
BRANCH  56  70
ATOM     70  C   UNL A   1      47.833  29.411  27.065  1.00  0.00     0.057 A 
ATOM     71  C   UNL A   1      49.162  29.867  27.134  1.00  0.00     0.134 A 
ATOM     72  C   UNL A   1      46.869  30.421  26.871  1.00  0.00     0.134 A 
ATOM     73  F   UNL A   1      50.176  29.007  27.310  1.00  0.00    -0.206 F 
ATOM     74  C   UNL A   1      49.495  31.226  27.102  1.00  0.00     0.040 A 
ATOM     75  C   UNL A   1      47.195  31.779  26.796  1.00  0.00     0.040 A 
ATOM     76  F   UNL A   1      45.555  30.176  26.833  1.00  0.00    -0.206 F 
ATOM     77  C   UNL A   1      48.508  32.190  26.943  1.00  0.00     0.006 A 
ENDBRANCH  56  70
BRANCH  57  78
ATOM     78  C   UNL A   1      39.365  28.789  29.564  1.00  0.00     0.057 A 
ATOM     79  C   UNL A   1      38.977  29.280  28.300  1.00  0.00     0.134 A 
ATOM     80  C   UNL A   1      38.360  28.806  30.544  1.00  0.00     0.134 A 
ATOM     81  F   UNL A   1      39.836  29.271  27.269  1.00  0.00    -0.206 F 
ATOM     82  C   UNL A   1      37.670  29.739  28.034  1.00  0.00     0.040 A 
ATOM     83  C   UNL A   1      37.053  29.247  30.290  1.00  0.00     0.040 A 
ATOM     84  F   UNL A   1      38.591  28.311  31.767  1.00  0.00    -0.206 F 
ATOM     85  C   UNL A   1      36.698  29.708  29.030  1.00  0.00     0.006 A 
ENDBRANCH  57  78
BRANCH  69  86
ATOM     86  C   UNL A   1      44.471  26.113  32.105  1.00  0.00     0.057 A 
ATOM     87  C   UNL A   1      44.196  24.773  31.780  1.00  0.00     0.134 A 
ATOM     88  C   UNL A   1      44.607  26.400  33.465  1.00  0.00     0.134 A 
ATOM     89  F   UNL A   1      44.160  24.359  30.510  1.00  0.00    -0.206 F 
ATOM     90  C   UNL A   1      44.018  23.784  32.760  1.00  0.00     0.040 A 
ATOM     91  C   UNL A   1      44.464  25.422  34.452  1.00  0.00     0.040 A 
ATOM     92  F   UNL A   1      44.947  27.637  33.856  1.00  0.00    -0.206 F 
ATOM     93  C   UNL A   1      44.152  24.111  34.104  1.00  0.00     0.006 A 
ENDBRANCH  69  86
ENDBRANCH  43  44
ENDBRANCH  35  38
ENDBRANCH  33  34
ENDBRANCH  32  33
ENDBRANCH  31  32
ENDBRANCH   1  31
TORSDOF 15
ENDMDL
MODEL 2
REMARK VINA RESULT:     -13.0      5.046     10.032
REMARK SMILES O=C1C[C@H](c2cn[nH]c2C(=O)NCCCCCCNC(=O)c2ccc(-c3c4nc(c(-c5c(F)cccc5F)c5ccc([nH]5)c(-c5c(F)cccc5F)c5nc(c(-c6c(F)cccc6F)c6ccc3[nH]6)C=C5)C=C4)cc2)c2c(-c3cccs3)n[nH]c2N1
REMARK SMILES IDX 15 1 14 2 13 3 12 4 10 5 11 6 9 8 5 9 6 10 7 11 8 12 4 14
REMARK SMILES IDX 1 15 2 16 3 17 86 18 85 19 76 21 84 22 77 23 83 24 78 26
REMARK SMILES IDX 79 27 82 28 80 29 81 30 16 31 17 32 18 33 19 34 20 35 21 37
REMARK SMILES IDX 22 38 23 39 75 40 24 41 74 42 25 43 26 44 27 45 68 46 28 47
REMARK SMILES IDX 73 48 67 49 69 50 29 51 72 52 66 53 65 54 30 56 56 57 39 58
REMARK SMILES IDX 55 59 40 60 43 61 54 62 70 63 41 64 42 65 53 67 71 68 44 69
REMARK SMILES IDX 31 70 32 71 37 72 33 73 34 74 36 75 38 76 35 77 57 78 58 79
REMARK SMILES IDX 63 80 59 81 60 82 62 83 64 84 61 85 45 86 46 87 51 88 47 89
REMARK SMILES IDX 48 90 50 91 52 92 49 93
REMARK H PARENT 12 7 8 13 86 20 84 25 19 36 69 55 43 66
REMARK Flexibility Score: inf
ROOT
ATOM      1  C   UNL A   1      34.708  34.245  29.106  1.00  0.00     0.002 C 
ENDROOT
BRANCH   1   2
ATOM      2  C   UNL A   1      34.350  32.766  29.259  1.00  0.00     0.021 C 
BRANCH   2   3
ATOM      3  C   UNL A   1      33.639  32.075  27.827  1.00  0.00     0.116 C 
BRANCH   3   4
ATOM      4  N   UNL A   1      33.004  30.015  27.505  1.00  0.00    -0.351 N 
ATOM      5  C   UNL A   1      32.851  28.794  26.819  1.00  0.00     0.269 C 
ATOM      6  O   UNL A   1      32.262  27.904  27.443  1.00  0.00    -0.268 OA
ATOM      7  H   UNL A   1      32.549  29.818  28.355  1.00  0.00     0.163 HD
BRANCH   5   8
ATOM      8  C   UNL A   1      33.403  28.525  25.515  1.00  0.00     0.126 A 
ATOM      9  C   UNL A   1      33.011  27.673  24.494  1.00  0.00     0.011 A 
ATOM     10  C   UNL A   1      33.892  27.951  23.433  1.00  0.00     0.140 A 
ATOM     11  N   UNL A   1      34.799  28.874  23.758  1.00  0.00    -0.183 NA
ATOM     12  N   UNL A   1      34.479  29.207  25.021  1.00  0.00    -0.273 N 
ATOM     13  H   UNL A   1      34.975  29.879  25.542  1.00  0.00     0.190 HD
BRANCH   9  14
ATOM     14  C   UNL A   1      31.859  26.738  24.562  1.00  0.00     0.069 C 
ATOM     15  O   UNL A   1      28.758  28.384  23.042  1.00  0.00    -0.275 OA
ATOM     16  C   UNL A   1      29.856  27.813  23.064  1.00  0.00     0.226 C 
ATOM     17  C   UNL A   1      30.492  27.455  24.439  1.00  0.00     0.114 C 
ATOM     18  N   UNL A   1      30.418  27.462  21.860  1.00  0.00    -0.311 N 
ATOM     19  C   UNL A   1      31.394  26.516  21.874  1.00  0.00     0.132 A 
ATOM     20  H   UNL A   1      30.124  27.879  21.018  1.00  0.00     0.171 HD
ATOM     21  C   UNL A   1      32.031  25.881  23.395  1.00  0.00     0.031 A 
ATOM     22  N   UNL A   1      32.123  25.520  20.490  1.00  0.00    -0.262 N 
ATOM     23  C   UNL A   1      33.209  24.390  22.971  1.00  0.00     0.108 A 
ATOM     24  N   UNL A   1      33.231  24.175  21.214  1.00  0.00    -0.173 NA
ATOM     25  H   UNL A   1      31.957  25.669  19.531  1.00  0.00     0.192 HD
BRANCH  23  26
ATOM     26  C   UNL A   1      34.171  23.827  23.946  1.00  0.00     0.055 A 
ATOM     27  C   UNL A   1      34.906  24.603  24.809  1.00  0.00     0.022 A 
ATOM     28  S   UNL A   1      34.354  22.162  24.228  1.00  0.00    -0.142 S 
ATOM     29  C   UNL A   1      35.572  23.801  25.784  1.00  0.00     0.012 A 
ATOM     30  C   UNL A   1      35.409  22.452  25.545  1.00  0.00     0.065 A 
ENDBRANCH  23  26
ENDBRANCH   9  14
ENDBRANCH   5   8
ENDBRANCH   3   4
ENDBRANCH   2   3
ENDBRANCH   1   2
BRANCH   1  31
ATOM     31  C   UNL A   1      33.533  35.179  28.793  1.00  0.00     0.002 C 
BRANCH  31  32
ATOM     32  C   UNL A   1      33.225  36.233  29.871  1.00  0.00     0.021 C 
BRANCH  32  33
ATOM     33  C   UNL A   1      32.703  35.610  31.149  1.00  0.00     0.116 C 
BRANCH  33  34
ATOM     34  N   UNL A   1      33.206  36.321  32.329  1.00  0.00    -0.352 N 
ATOM     35  C   UNL A   1      34.058  35.885  33.314  1.00  0.00     0.251 C 
ATOM     36  H   UNL A   1      32.887  37.247  32.429  1.00  0.00     0.163 HD
ATOM     37  O   UNL A   1      34.142  36.450  34.395  1.00  0.00    -0.269 OA
BRANCH  35  38
ATOM     38  C   UNL A   1      34.971  34.803  32.962  1.00  0.00     0.039 A 
ATOM     39  C   UNL A   1      34.652  33.449  32.916  1.00  0.00     0.014 A 
ATOM     40  C   UNL A   1      36.292  35.182  32.829  1.00  0.00     0.014 A 
ATOM     41  C   UNL A   1      35.722  32.557  32.789  1.00  0.00     0.010 A 
ATOM     42  C   UNL A   1      37.073  34.381  32.085  1.00  0.00     0.010 A 
ATOM     43  C   UNL A   1      36.994  33.089  32.524  1.00  0.00    -0.014 A 
BRANCH  43  44
ATOM     44  C   UNL A   1      38.203  32.362  32.199  1.00  0.00     0.031 A 
ATOM     45  C   UNL A   1      38.985  32.153  33.452  1.00  0.00     0.074 A 
ATOM     46  C   UNL A   1      38.391  31.787  30.981  1.00  0.00     0.049 A 
ATOM     47  N   UNL A   1      39.935  32.925  33.862  1.00  0.00    -0.248 NA
ATOM     48  C   UNL A   1      38.463  31.284  34.537  1.00  0.00     0.031 C 
ATOM     49  C   UNL A   1      37.535  31.754  29.778  1.00  0.00     0.029 A 
ATOM     50  N   UNL A   1      39.480  31.078  30.551  1.00  0.00    -0.354 N 
ATOM     51  C   UNL A   1      40.343  32.399  35.081  1.00  0.00     0.074 A 
ATOM     52  C   UNL A   1      39.228  31.649  35.571  1.00  0.00     0.031 C 
ATOM     53  C   UNL A   1      38.027  30.867  28.870  1.00  0.00     0.029 A 
ATOM     54  C   UNL A   1      39.300  30.366  29.346  1.00  0.00     0.049 A 
ATOM     55  H   UNL A   1      40.330  31.067  31.046  1.00  0.00     0.167 HD
ATOM     56  C   UNL A   1      41.671  32.327  35.370  1.00  0.00     0.037 A 
ATOM     57  C   UNL A   1      40.199  29.479  28.814  1.00  0.00     0.037 A 
ATOM     58  C   UNL A   1      42.406  33.137  34.423  1.00  0.00     0.049 A 
ATOM     59  C   UNL A   1      41.511  29.805  29.456  1.00  0.00     0.074 A 
ATOM     60  C   UNL A   1      42.426  34.485  34.128  1.00  0.00     0.029 A 
ATOM     61  N   UNL A   1      42.845  32.483  33.295  1.00  0.00    -0.354 N 
ATOM     62  N   UNL A   1      42.105  30.955  29.264  1.00  0.00    -0.248 NA
ATOM     63  C   UNL A   1      41.768  29.156  30.739  1.00  0.00     0.031 C 
ATOM     64  C   UNL A   1      42.424  34.549  32.703  1.00  0.00     0.029 A 
ATOM     65  C   UNL A   1      42.582  33.260  32.193  1.00  0.00     0.049 A 
ATOM     66  H   UNL A   1      43.277  31.599  33.279  1.00  0.00     0.167 HD
ATOM     67  C   UNL A   1      42.423  31.395  30.544  1.00  0.00     0.074 A 
ATOM     68  C   UNL A   1      42.175  30.238  31.415  1.00  0.00     0.031 C 
ATOM     69  C   UNL A   1      42.499  32.727  30.849  1.00  0.00     0.037 A 
BRANCH  56  70
ATOM     70  C   UNL A   1      42.335  31.219  36.151  1.00  0.00     0.057 A 
ATOM     71  C   UNL A   1      43.218  31.573  37.188  1.00  0.00     0.134 A 
ATOM     72  C   UNL A   1      42.379  29.861  35.774  1.00  0.00     0.134 A 
ATOM     73  F   UNL A   1      43.272  32.833  37.645  1.00  0.00    -0.206 F 
ATOM     74  C   UNL A   1      44.133  30.669  37.741  1.00  0.00     0.040 A 
ATOM     75  C   UNL A   1      43.260  28.940  36.349  1.00  0.00     0.040 A 
ATOM     76  F   UNL A   1      41.647  29.360  34.774  1.00  0.00    -0.206 F 
ATOM     77  C   UNL A   1      44.164  29.349  37.314  1.00  0.00     0.006 A 
ENDBRANCH  56  70
BRANCH  57  78
ATOM     78  C   UNL A   1      39.937  28.134  28.210  1.00  0.00     0.057 A 
ATOM     79  C   UNL A   1      40.478  27.717  26.976  1.00  0.00     0.134 A 
ATOM     80  C   UNL A   1      39.384  27.109  28.995  1.00  0.00     0.134 A 
ATOM     81  F   UNL A   1      41.077  28.597  26.159  1.00  0.00    -0.206 F 
ATOM     82  C   UNL A   1      40.480  26.367  26.566  1.00  0.00     0.040 A 
ATOM     83  C   UNL A   1      39.391  25.762  28.607  1.00  0.00     0.040 A 
ATOM     84  F   UNL A   1      38.892  27.373  30.213  1.00  0.00    -0.206 F 
ATOM     85  C   UNL A   1      39.947  25.382  27.393  1.00  0.00     0.006 A 
ENDBRANCH  57  78
BRANCH  69  86
ATOM     86  C   UNL A   1      42.383  33.737  29.730  1.00  0.00     0.057 A 
ATOM     87  C   UNL A   1      41.254  34.526  29.446  1.00  0.00     0.134 A 
ATOM     88  C   UNL A   1      43.545  34.050  29.021  1.00  0.00     0.134 A 
ATOM     89  F   UNL A   1      40.122  34.394  30.143  1.00  0.00    -0.206 F 
ATOM     90  C   UNL A   1      41.271  35.538  28.474  1.00  0.00     0.040 A 
ATOM     91  C   UNL A   1      43.587  35.075  28.073  1.00  0.00     0.040 A 
ATOM     92  F   UNL A   1      44.687  33.399  29.289  1.00  0.00    -0.206 F 
ATOM     93  C   UNL A   1      42.445  35.813  27.784  1.00  0.00     0.006 A 
ENDBRANCH  69  86
ENDBRANCH  43  44
ENDBRANCH  35  38
ENDBRANCH  33  34
ENDBRANCH  32  33
ENDBRANCH  31  32
ENDBRANCH   1  31
TORSDOF 15
ENDMDL
MODEL 3
REMARK VINA RESULT:     -12.9      4.319      9.194
REMARK SMILES O=C1C[C@H](c2cn[nH]c2C(=O)NCCCCCCNC(=O)c2ccc(-c3c4nc(c(-c5c(F)cccc5F)c5ccc([nH]5)c(-c5c(F)cccc5F)c5nc(c(-c6c(F)cccc6F)c6ccc3[nH]6)C=C5)C=C4)cc2)c2c(-c3cccs3)n[nH]c2N1
REMARK SMILES IDX 15 1 14 2 13 3 12 4 10 5 11 6 9 8 5 9 6 10 7 11 8 12 4 14
REMARK SMILES IDX 1 15 2 16 3 17 86 18 85 19 76 21 84 22 77 23 83 24 78 26
REMARK SMILES IDX 79 27 82 28 80 29 81 30 16 31 17 32 18 33 19 34 20 35 21 37
REMARK SMILES IDX 22 38 23 39 75 40 24 41 74 42 25 43 26 44 27 45 68 46 28 47
REMARK SMILES IDX 73 48 67 49 69 50 29 51 72 52 66 53 65 54 30 56 56 57 39 58
REMARK SMILES IDX 55 59 40 60 43 61 54 62 70 63 41 64 42 65 53 67 71 68 44 69
REMARK SMILES IDX 31 70 32 71 37 72 33 73 34 74 36 75 38 76 35 77 57 78 58 79
REMARK SMILES IDX 63 80 59 81 60 82 62 83 64 84 61 85 45 86 46 87 51 88 47 89
REMARK SMILES IDX 48 90 50 91 52 92 49 93
REMARK H PARENT 12 7 8 13 86 20 84 25 19 36 69 55 43 66
REMARK Flexibility Score: inf
ROOT
ATOM      1  C   UNL A   1      33.067  30.568  26.746  1.00  0.00     0.002 C 
ENDROOT
BRANCH   1   2
ATOM      2  C   UNL A   1      31.677  30.666  26.118  1.00  0.00     0.021 C 
BRANCH   2   3
ATOM      3  C   UNL A   1      31.509  29.733  24.657  1.00  0.00     0.116 C 
BRANCH   3   4
ATOM      4  N   UNL A   1      33.083  28.794  23.478  1.00  0.00    -0.351 N 
ATOM      5  C   UNL A   1      33.811  27.745  22.881  1.00  0.00     0.269 C 
ATOM      6  O   UNL A   1      34.782  28.093  22.200  1.00  0.00    -0.268 OA
ATOM      7  H   UNL A   1      33.597  29.579  23.182  1.00  0.00     0.163 HD
BRANCH   5   8
ATOM      8  C   UNL A   1      33.435  26.355  22.957  1.00  0.00     0.126 A 
ATOM      9  C   UNL A   1      33.359  25.467  24.019  1.00  0.00     0.011 A 
ATOM     10  C   UNL A   1      32.818  24.292  23.468  1.00  0.00     0.140 A 
ATOM     11  N   UNL A   1      32.601  24.401  22.156  1.00  0.00    -0.183 NA
ATOM     12  N   UNL A   1      32.981  25.660  21.873  1.00  0.00    -0.273 N 
ATOM     13  H   UNL A   1      32.936  26.045  20.968  1.00  0.00     0.190 HD
BRANCH   9  14
ATOM     14  C   UNL A   1      33.732  25.784  25.421  1.00  0.00     0.069 C 
ATOM     15  O   UNL A   1      30.845  27.599  27.155  1.00  0.00    -0.275 OA
ATOM     16  C   UNL A   1      31.478  26.647  26.683  1.00  0.00     0.226 C 
ATOM     17  C   UNL A   1      32.869  26.914  26.035  1.00  0.00     0.114 C 
ATOM     18  N   UNL A   1      30.943  25.390  26.823  1.00  0.00    -0.311 N 
ATOM     19  C   UNL A   1      31.778  24.329  26.670  1.00  0.00     0.132 A 
ATOM     20  H   UNL A   1      29.988  25.262  27.028  1.00  0.00     0.171 HD
ATOM     21  C   UNL A   1      33.453  24.551  26.148  1.00  0.00     0.031 A 
ATOM     22  N   UNL A   1      31.556  22.547  27.130  1.00  0.00    -0.262 N 
ATOM     23  C   UNL A   1      34.356  22.834  26.301  1.00  0.00     0.108 A 
ATOM     24  N   UNL A   1      33.200  21.644  26.917  1.00  0.00    -0.173 NA
ATOM     25  H   UNL A   1      30.715  22.137  27.436  1.00  0.00     0.192 HD
BRANCH  23  26
ATOM     26  C   UNL A   1      35.657  22.553  25.650  1.00  0.00     0.055 A 
ATOM     27  C   UNL A   1      36.707  23.439  25.657  1.00  0.00     0.022 A 
ATOM     28  S   UNL A   1      36.060  21.049  24.970  1.00  0.00    -0.142 S 
ATOM     29  C   UNL A   1      37.899  22.830  25.165  1.00  0.00     0.012 A 
ATOM     30  C   UNL A   1      37.674  21.551  24.697  1.00  0.00     0.065 A 
ENDBRANCH  23  26
ENDBRANCH   9  14
ENDBRANCH   5   8
ENDBRANCH   3   4
ENDBRANCH   2   3
ENDBRANCH   1   2
BRANCH   1  31
ATOM     31  C   UNL A   1      33.446  31.714  27.693  1.00  0.00     0.002 C 
BRANCH  31  32
ATOM     32  C   UNL A   1      32.478  32.910  27.698  1.00  0.00     0.021 C 
BRANCH  32  33
ATOM     33  C   UNL A   1      33.208  34.237  27.690  1.00  0.00     0.116 C 
BRANCH  33  34
ATOM     34  N   UNL A   1      33.013  34.956  28.953  1.00  0.00    -0.352 N 
ATOM     35  C   UNL A   1      33.455  34.640  30.214  1.00  0.00     0.251 C 
ATOM     36  H   UNL A   1      32.490  35.787  28.887  1.00  0.00     0.163 HD
ATOM     37  O   UNL A   1      32.963  35.137  31.218  1.00  0.00    -0.269 OA
BRANCH  35  38
ATOM     38  C   UNL A   1      34.642  33.796  30.304  1.00  0.00     0.039 A 
ATOM     39  C   UNL A   1      34.781  32.665  31.103  1.00  0.00     0.014 A 
ATOM     40  C   UNL A   1      35.752  34.288  29.647  1.00  0.00     0.014 A 
ATOM     41  C   UNL A   1      36.070  32.137  31.223  1.00  0.00     0.010 A 
ATOM     42  C   UNL A   1      36.692  33.393  29.304  1.00  0.00     0.010 A 
ATOM     43  C   UNL A   1      37.074  32.656  30.390  1.00  0.00    -0.014 A 
BRANCH  43  44
ATOM     44  C   UNL A   1      38.425  32.163  30.227  1.00  0.00     0.031 A 
ATOM     45  C   UNL A   1      38.374  30.864  29.495  1.00  0.00     0.074 A 
ATOM     46  C   UNL A   1      39.512  32.937  30.498  1.00  0.00     0.049 A 
ATOM     47  N   UNL A   1      38.355  29.704  30.060  1.00  0.00    -0.248 NA
ATOM     48  C   UNL A   1      37.921  30.807  28.083  1.00  0.00     0.031 C 
ATOM     49  C   UNL A   1      39.619  34.323  30.994  1.00  0.00     0.029 A 
ATOM     50  N   UNL A   1      40.832  32.592  30.386  1.00  0.00    -0.354 N 
ATOM     51  C   UNL A   1      38.249  28.786  29.023  1.00  0.00     0.074 A 
ATOM     52  C   UNL A   1      37.666  29.503  27.931  1.00  0.00     0.031 C 
ATOM     53  C   UNL A   1      40.903  34.764  30.897  1.00  0.00     0.029 A 
ATOM     54  C   UNL A   1      41.745  33.665  30.469  1.00  0.00     0.049 A 
ATOM     55  H   UNL A   1      41.123  31.662  30.257  1.00  0.00     0.167 HD
ATOM     56  C   UNL A   1      38.995  27.649  29.055  1.00  0.00     0.037 A 
ATOM     57  C   UNL A   1      43.092  33.572  30.237  1.00  0.00     0.037 A 
ATOM     58  C   UNL A   1      39.545  27.480  30.383  1.00  0.00     0.049 A 
ATOM     59  C   UNL A   1      43.424  32.120  30.383  1.00  0.00     0.074 A 
ATOM     60  C   UNL A   1      38.989  27.288  31.632  1.00  0.00     0.029 A 
ATOM     61  N   UNL A   1      40.788  28.034  30.588  1.00  0.00    -0.354 N 
ATOM     62  N   UNL A   1      43.293  31.494  31.525  1.00  0.00    -0.248 NA
ATOM     63  C   UNL A   1      43.252  31.306  29.182  1.00  0.00     0.031 C 
ATOM     64  C   UNL A   1      39.718  28.159  32.495  1.00  0.00     0.029 A 
ATOM     65  C   UNL A   1      40.789  28.704  31.786  1.00  0.00     0.049 A 
ATOM     66  H   UNL A   1      41.553  27.962  29.973  1.00  0.00     0.167 HD
ATOM     67  C   UNL A   1      42.575  30.347  31.207  1.00  0.00     0.074 A 
ATOM     68  C   UNL A   1      42.571  30.297  29.739  1.00  0.00     0.031 C 
ATOM     69  C   UNL A   1      41.744  29.744  32.111  1.00  0.00     0.037 A 
BRANCH  56  70
ATOM     70  C   UNL A   1      39.605  26.970  27.851  1.00  0.00     0.057 A 
ATOM     71  C   UNL A   1      39.513  25.570  27.761  1.00  0.00     0.134 A 
ATOM     72  C   UNL A   1      40.501  27.566  26.940  1.00  0.00     0.134 A 
ATOM     73  F   UNL A   1      38.691  24.881  28.567  1.00  0.00    -0.206 F 
ATOM     74  C   UNL A   1      40.314  24.816  26.894  1.00  0.00     0.040 A 
ATOM     75  C   UNL A   1      41.276  26.825  26.042  1.00  0.00     0.040 A 
ATOM     76  F   UNL A   1      40.753  28.878  26.919  1.00  0.00    -0.206 F 
ATOM     77  C   UNL A   1      41.209  25.443  26.038  1.00  0.00     0.006 A 
ENDBRANCH  56  70
BRANCH  57  78
ATOM     78  C   UNL A   1      43.970  34.500  29.457  1.00  0.00     0.057 A 
ATOM     79  C   UNL A   1      45.323  34.741  29.775  1.00  0.00     0.134 A 
ATOM     80  C   UNL A   1      43.570  34.941  28.185  1.00  0.00     0.134 A 
ATOM     81  F   UNL A   1      45.837  34.324  30.943  1.00  0.00    -0.206 F 
ATOM     82  C   UNL A   1      46.214  35.365  28.877  1.00  0.00     0.040 A 
ATOM     83  C   UNL A   1      44.447  35.549  27.277  1.00  0.00     0.040 A 
ATOM     84  F   UNL A   1      42.324  34.715  27.746  1.00  0.00    -0.206 F 
ATOM     85  C   UNL A   1      45.778  35.757  27.614  1.00  0.00     0.006 A 
ENDBRANCH  57  78
BRANCH  69  86
ATOM     86  C   UNL A   1      41.724  30.255  33.535  1.00  0.00     0.057 A 
ATOM     87  C   UNL A   1      40.793  31.162  34.071  1.00  0.00     0.134 A 
ATOM     88  C   UNL A   1      42.591  29.651  34.448  1.00  0.00     0.134 A 
ATOM     89  F   UNL A   1      39.841  31.711  33.311  1.00  0.00    -0.206 F 
ATOM     90  C   UNL A   1      40.760  31.483  35.437  1.00  0.00     0.040 A 
ATOM     91  C   UNL A   1      42.551  29.937  35.815  1.00  0.00     0.040 A 
ATOM     92  F   UNL A   1      43.456  28.716  34.029  1.00  0.00    -0.206 F 
ATOM     93  C   UNL A   1      41.645  30.867  36.313  1.00  0.00     0.006 A 
ENDBRANCH  69  86
ENDBRANCH  43  44
ENDBRANCH  35  38
ENDBRANCH  33  34
ENDBRANCH  32  33
ENDBRANCH  31  32
ENDBRANCH   1  31
TORSDOF 15
ENDMDL
