MODEL 1
REMARK VINA RESULT:     -11.8      0.000      0.000
REMARK SMILES C[C@H]1CN(C(=O)N2CC[NH+]([C@@H](C)C(=O)NCCCCCCNC(=O)c3ccc(-c4c5nc(c(-c6c(F)cccc6F)c6ccc([nH]6)c(-c6c(F)cccc6F)c6nc(c(-c7c(F)cccc7F)c7ccc4[nH]7)C=C6)C=C5)cc3)CC2)C[C@@H]1C
REMARK SMILES IDX 19 1 18 2 17 3 16 4 15 5 13 6 14 7 11 9 12 10 10 11 1 12
REMARK SMILES IDX 2 13 3 14 82 15 4 16 81 17 83 18 5 19 6 20 7 21 8 22 80 23
REMARK SMILES IDX 9 24 79 25 20 27 21 28 22 29 23 30 24 32 25 33 26 34 78 35
REMARK SMILES IDX 27 36 77 37 28 38 29 39 30 40 71 41 31 42 76 43 70 44 72 45
REMARK SMILES IDX 32 46 75 47 69 48 68 49 33 51 59 52 42 53 58 54 43 55 46 56
REMARK SMILES IDX 57 57 73 58 44 59 45 60 56 62 74 63 47 64 34 65 35 66 40 67
REMARK SMILES IDX 36 68 37 69 39 70 41 71 38 72 60 73 61 74 66 75 62 76 63 77
REMARK SMILES IDX 65 78 67 79 64 80 48 81 49 82 54 83 50 84 51 85 53 86 55 87
REMARK SMILES IDX 52 88
REMARK H PARENT 15 8 10 26 22 31 72 50 46 61
REMARK Flexibility Score: inf
ROOT
ATOM      1  C   UNL A   1      35.021  34.363  28.811  1.00  0.00     0.002 C 
ENDROOT
BRANCH   1   2
ATOM      2  C   UNL A   1      35.283  33.079  28.018  1.00  0.00     0.002 C 
BRANCH   2   3
ATOM      3  C   UNL A   1      34.417  31.888  28.426  1.00  0.00     0.021 C 
BRANCH   3   4
ATOM      4  C   UNL A   1      34.310  30.789  27.359  1.00  0.00     0.116 C 
BRANCH   4   5
ATOM      5  N   UNL A   1      33.235  29.870  27.674  1.00  0.00    -0.351 N 
ATOM      6  C   UNL A   1      32.279  29.267  26.911  1.00  0.00     0.278 C 
ATOM      7  O   UNL A   1      31.403  28.656  27.537  1.00  0.00    -0.268 OA
ATOM      8  H   UNL A   1      33.185  29.633  28.629  1.00  0.00     0.163 HD
BRANCH   6   9
ATOM      9  C   UNL A   1      32.263  29.279  25.356  1.00  0.00     0.271 C 
ATOM     10  C   UNL A   1      31.000  29.895  24.758  1.00  0.00     0.086 C 
BRANCH   9  11
ATOM     11  N   UNL A   1      32.847  28.058  24.753  1.00  0.00    -0.322 N 
ATOM     12  C   UNL A   1      32.048  21.427  22.508  1.00  0.00     0.010 C 
ATOM     13  C   UNL A   1      33.117  21.888  23.498  1.00  0.00     0.010 C 
ATOM     14  C   UNL A   1      32.827  23.302  24.000  1.00  0.00     0.125 C 
ATOM     15  C   UNL A   1      33.107  21.051  24.793  1.00  0.00     0.010 C 
ATOM     16  N   UNL A   1      32.074  23.125  25.233  1.00  0.00    -0.324 N 
ATOM     17  C   UNL A   1      32.020  21.731  25.635  1.00  0.00     0.125 C 
ATOM     18  C   UNL A   1      34.461  21.104  25.507  1.00  0.00     0.010 C 
ATOM     19  C   UNL A   1      31.734  24.135  26.102  1.00  0.00     0.320 C 
ATOM     20  O   UNL A   1      31.324  23.941  27.243  1.00  0.00    -0.248 OA
ATOM     21  N   UNL A   1      32.058  25.391  25.646  1.00  0.00    -0.313 N 
ATOM     22  C   UNL A   1      32.913  26.208  26.477  1.00  0.00     0.183 C 
ATOM     23  C   UNL A   1      31.157  26.122  24.762  1.00  0.00     0.183 C 
ATOM     24  C   UNL A   1      33.683  27.198  25.594  1.00  0.00     0.284 C 
ATOM     25  C   UNL A   1      31.893  27.232  23.976  1.00  0.00     0.284 C 
ATOM     26  H   UNL A   1      33.501  28.507  24.112  1.00  0.00     0.348 HD
ENDBRANCH   9  11
ENDBRANCH   6   9
ENDBRANCH   4   5
ENDBRANCH   3   4
ENDBRANCH   2   3
ENDBRANCH   1   2
BRANCH   1  27
ATOM     27  C   UNL A   1      33.552  34.787  28.924  1.00  0.00     0.021 C 
BRANCH  27  28
ATOM     28  C   UNL A   1      33.317  36.205  29.438  1.00  0.00     0.116 C 
BRANCH  28  29
ATOM     29  N   UNL A   1      32.466  36.228  30.616  1.00  0.00    -0.352 N 
ATOM     30  C   UNL A   1      32.594  35.574  31.813  1.00  0.00     0.251 C 
ATOM     31  H   UNL A   1      31.671  36.805  30.541  1.00  0.00     0.163 HD
ATOM     32  O   UNL A   1      31.658  35.563  32.606  1.00  0.00    -0.269 OA
BRANCH  30  33
ATOM     33  C   UNL A   1      33.851  34.874  32.158  1.00  0.00     0.039 A 
ATOM     34  C   UNL A   1      33.804  33.499  32.407  1.00  0.00     0.014 A 
ATOM     35  C   UNL A   1      35.056  35.569  32.295  1.00  0.00     0.014 A 
ATOM     36  C   UNL A   1      34.972  32.816  32.750  1.00  0.00     0.010 A 
ATOM     37  C   UNL A   1      36.232  34.875  32.575  1.00  0.00     0.010 A 
ATOM     38  C   UNL A   1      36.200  33.494  32.818  1.00  0.00    -0.014 A 
BRANCH  38  39
ATOM     39  C   UNL A   1      37.450  32.769  33.157  1.00  0.00     0.031 A 
ATOM     40  C   UNL A   1      38.172  33.064  34.444  1.00  0.00     0.074 A 
ATOM     41  C   UNL A   1      37.950  31.865  32.294  1.00  0.00     0.049 A 
ATOM     42  N   UNL A   1      39.282  32.545  34.906  1.00  0.00    -0.248 NA
ATOM     43  C   UNL A   1      37.583  34.093  35.314  1.00  0.00     0.031 C 
ATOM     44  C   UNL A   1      37.367  31.524  30.995  1.00  0.00     0.029 A 
ATOM     45  N   UNL A   1      39.065  31.070  32.378  1.00  0.00    -0.354 N 
ATOM     46  C   UNL A   1      39.524  33.186  36.114  1.00  0.00     0.074 A 
ATOM     47  C   UNL A   1      38.479  34.171  36.288  1.00  0.00     0.031 C 
ATOM     48  C   UNL A   1      38.112  30.567  30.418  1.00  0.00     0.029 A 
ATOM     49  C   UNL A   1      39.238  30.248  31.291  1.00  0.00     0.049 A 
ATOM     50  H   UNL A   1      39.681  31.085  33.145  1.00  0.00     0.167 HD
ATOM     51  C   UNL A   1      40.513  32.957  37.012  1.00  0.00     0.037 A 
ATOM     52  C   UNL A   1      40.193  29.338  31.032  1.00  0.00     0.037 A 
ATOM     53  C   UNL A   1      41.542  31.964  36.849  1.00  0.00     0.049 A 
ATOM     54  C   UNL A   1      41.279  29.102  32.044  1.00  0.00     0.074 A 
ATOM     55  C   UNL A   1      42.565  31.629  37.718  1.00  0.00     0.029 A 
ATOM     56  N   UNL A   1      41.674  31.142  35.740  1.00  0.00    -0.354 N 
ATOM     57  N   UNL A   1      41.463  29.676  33.209  1.00  0.00    -0.248 NA
ATOM     58  C   UNL A   1      42.286  28.085  31.709  1.00  0.00     0.031 C 
ATOM     59  C   UNL A   1      43.336  30.625  37.122  1.00  0.00     0.029 A 
ATOM     60  C   UNL A   1      42.769  30.307  35.899  1.00  0.00     0.049 A 
ATOM     61  H   UNL A   1      41.079  31.149  34.956  1.00  0.00     0.167 HD
ATOM     62  C   UNL A   1      42.585  29.070  33.757  1.00  0.00     0.074 A 
ATOM     63  C   UNL A   1      43.031  28.074  32.804  1.00  0.00     0.031 C 
ATOM     64  C   UNL A   1      43.192  29.315  34.944  1.00  0.00     0.037 A 
BRANCH  51  65
ATOM     65  C   UNL A   1      40.519  33.792  38.259  1.00  0.00     0.057 A 
ATOM     66  C   UNL A   1      41.315  34.940  38.370  1.00  0.00     0.134 A 
ATOM     67  C   UNL A   1      39.702  33.466  39.348  1.00  0.00     0.134 A 
ATOM     68  F   UNL A   1      42.130  35.301  37.368  1.00  0.00    -0.206 F 
ATOM     69  C   UNL A   1      41.318  35.720  39.529  1.00  0.00     0.040 A 
ATOM     70  C   UNL A   1      39.676  34.253  40.502  1.00  0.00     0.040 A 
ATOM     71  F   UNL A   1      38.910  32.384  39.307  1.00  0.00    -0.206 F 
ATOM     72  C   UNL A   1      40.491  35.378  40.596  1.00  0.00     0.006 A 
ENDBRANCH  51  65
BRANCH  52  73
ATOM     73  C   UNL A   1      40.149  28.548  29.775  1.00  0.00     0.057 A 
ATOM     74  C   UNL A   1      39.408  27.364  29.695  1.00  0.00     0.134 A 
ATOM     75  C   UNL A   1      40.854  28.947  28.634  1.00  0.00     0.134 A 
ATOM     76  F   UNL A   1      38.727  26.921  30.763  1.00  0.00    -0.206 F 
ATOM     77  C   UNL A   1      39.386  26.591  28.534  1.00  0.00     0.040 A 
ATOM     78  C   UNL A   1      40.822  28.197  27.458  1.00  0.00     0.040 A 
ATOM     79  F   UNL A   1      41.578  30.075  28.645  1.00  0.00    -0.206 F 
ATOM     80  C   UNL A   1      40.092  27.011  27.408  1.00  0.00     0.006 A 
ENDBRANCH  52  73
BRANCH  64  81
ATOM     81  C   UNL A   1      44.379  28.467  35.290  1.00  0.00     0.057 A 
ATOM     82  C   UNL A   1      45.682  28.833  34.927  1.00  0.00     0.134 A 
ATOM     83  C   UNL A   1      44.218  27.279  36.013  1.00  0.00     0.134 A 
ATOM     84  F   UNL A   1      45.901  29.953  34.222  1.00  0.00    -0.206 F 
ATOM     85  C   UNL A   1      46.779  28.034  35.249  1.00  0.00     0.040 A 
ATOM     86  C   UNL A   1      45.311  26.483  36.362  1.00  0.00     0.040 A 
ATOM     87  F   UNL A   1      42.998  26.874  36.398  1.00  0.00    -0.206 F 
ATOM     88  C   UNL A   1      46.595  26.858  35.972  1.00  0.00     0.006 A 
ENDBRANCH  64  81
ENDBRANCH  38  39
ENDBRANCH  30  33
ENDBRANCH  28  29
ENDBRANCH  27  28
ENDBRANCH   1  27
TORSDOF 14
ENDMDL
MODEL 2
REMARK VINA RESULT:     -11.4      2.475      8.605
REMARK SMILES C[C@H]1CN(C(=O)N2CC[NH+]([C@@H](C)C(=O)NCCCCCCNC(=O)c3ccc(-c4c5nc(c(-c6c(F)cccc6F)c6ccc([nH]6)c(-c6c(F)cccc6F)c6nc(c(-c7c(F)cccc7F)c7ccc4[nH]7)C=C6)C=C5)cc3)CC2)C[C@@H]1C
REMARK SMILES IDX 19 1 18 2 17 3 16 4 15 5 13 6 14 7 11 9 12 10 10 11 1 12
REMARK SMILES IDX 2 13 3 14 82 15 4 16 81 17 83 18 5 19 6 20 7 21 8 22 80 23
REMARK SMILES IDX 9 24 79 25 20 27 21 28 22 29 23 30 24 32 25 33 26 34 78 35
REMARK SMILES IDX 27 36 77 37 28 38 29 39 30 40 71 41 31 42 76 43 70 44 72 45
REMARK SMILES IDX 32 46 75 47 69 48 68 49 33 51 59 52 42 53 58 54 43 55 46 56
REMARK SMILES IDX 57 57 73 58 44 59 45 60 56 62 74 63 47 64 34 65 35 66 40 67
REMARK SMILES IDX 36 68 37 69 39 70 41 71 38 72 60 73 61 74 66 75 62 76 63 77
REMARK SMILES IDX 65 78 67 79 64 80 48 81 49 82 54 83 50 84 51 85 53 86 55 87
REMARK SMILES IDX 52 88
REMARK H PARENT 15 8 10 26 22 31 72 50 46 61
REMARK Flexibility Score: inf
ROOT
ATOM      1  C   UNL A   1      38.125  23.578  26.198  1.00  0.00     0.002 C 
ENDROOT
BRANCH   1   2
ATOM      2  C   UNL A   1      37.127  23.063  25.156  1.00  0.00     0.002 C 
BRANCH   2   3
ATOM      3  C   UNL A   1      37.321  21.602  24.753  1.00  0.00     0.021 C 
BRANCH   3   4
ATOM      4  C   UNL A   1      36.095  20.711  24.992  1.00  0.00     0.116 C 
BRANCH   4   5
ATOM      5  N   UNL A   1      35.427  21.076  26.226  1.00  0.00    -0.351 N 
ATOM      6  C   UNL A   1      34.138  21.410  26.517  1.00  0.00     0.278 C 
ATOM      7  O   UNL A   1      33.940  21.829  27.664  1.00  0.00    -0.268 OA
ATOM      8  H   UNL A   1      36.023  21.086  27.010  1.00  0.00     0.163 HD
BRANCH   6   9
ATOM      9  C   UNL A   1      32.948  21.256  25.527  1.00  0.00     0.271 C 
ATOM     10  C   UNL A   1      32.702  19.817  25.077  1.00  0.00     0.086 C 
BRANCH   9  11
ATOM     11  N   UNL A   1      32.852  22.364  24.547  1.00  0.00    -0.322 N 
ATOM     12  C   UNL A   1      33.514  29.219  23.060  1.00  0.00     0.010 C 
ATOM     13  C   UNL A   1      32.261  28.387  22.789  1.00  0.00     0.010 C 
ATOM     14  C   UNL A   1      32.336  27.035  23.498  1.00  0.00     0.125 C 
ATOM     15  C   UNL A   1      30.997  29.027  23.397  1.00  0.00     0.010 C 
ATOM     16  N   UNL A   1      31.663  27.232  24.774  1.00  0.00    -0.324 N 
ATOM     17  C   UNL A   1      31.024  28.533  24.848  1.00  0.00     0.125 C 
ATOM     18  C   UNL A   1      29.728  28.552  22.683  1.00  0.00     0.010 C 
ATOM     19  C   UNL A   1      31.364  26.233  25.670  1.00  0.00     0.320 C 
ATOM     20  O   UNL A   1      30.587  26.374  26.610  1.00  0.00    -0.248 OA
ATOM     21  N   UNL A   1      31.878  25.005  25.324  1.00  0.00    -0.313 N 
ATOM     22  C   UNL A   1      30.951  23.903  25.190  1.00  0.00     0.183 C 
ATOM     23  C   UNL A   1      33.243  24.637  25.677  1.00  0.00     0.183 C 
ATOM     24  C   UNL A   1      31.523  22.877  24.205  1.00  0.00     0.284 C 
ATOM     25  C   UNL A   1      33.782  23.490  24.790  1.00  0.00     0.284 C 
ATOM     26  H   UNL A   1      33.153  21.854  23.716  1.00  0.00     0.348 HD
ENDBRANCH   9  11
ENDBRANCH   6   9
ENDBRANCH   4   5
ENDBRANCH   3   4
ENDBRANCH   2   3
ENDBRANCH   1   2
BRANCH   1  27
ATOM     27  C   UNL A   1      39.246  22.606  26.582  1.00  0.00     0.021 C 
BRANCH  27  28
ATOM     28  C   UNL A   1      40.527  23.257  27.099  1.00  0.00     0.116 C 
BRANCH  28  29
ATOM     29  N   UNL A   1      41.222  24.002  26.064  1.00  0.00    -0.352 N 
ATOM     30  C   UNL A   1      41.492  25.343  25.969  1.00  0.00     0.251 C 
ATOM     31  H   UNL A   1      41.550  23.459  25.311  1.00  0.00     0.163 HD
ATOM     32  O   UNL A   1      41.909  25.807  24.913  1.00  0.00    -0.269 OA
BRANCH  30  33
ATOM     33  C   UNL A   1      41.281  26.237  27.127  1.00  0.00     0.039 A 
ATOM     34  C   UNL A   1      42.107  27.356  27.268  1.00  0.00     0.014 A 
ATOM     35  C   UNL A   1      40.320  25.951  28.101  1.00  0.00     0.014 A 
ATOM     36  C   UNL A   1      41.941  28.209  28.361  1.00  0.00     0.010 A 
ATOM     37  C   UNL A   1      40.113  26.837  29.157  1.00  0.00     0.010 A 
ATOM     38  C   UNL A   1      40.929  27.968  29.304  1.00  0.00    -0.014 A 
BRANCH  38  39
ATOM     39  C   UNL A   1      40.731  28.885  30.454  1.00  0.00     0.031 A 
ATOM     40  C   UNL A   1      39.647  29.928  30.414  1.00  0.00     0.074 A 
ATOM     41  C   UNL A   1      41.545  28.798  31.523  1.00  0.00     0.049 A 
ATOM     42  N   UNL A   1      39.331  30.827  31.313  1.00  0.00    -0.248 NA
ATOM     43  C   UNL A   1      38.827  29.986  29.194  1.00  0.00     0.031 C 
ATOM     44  C   UNL A   1      42.659  27.859  31.662  1.00  0.00     0.029 A 
ATOM     45  N   UNL A   1      41.561  29.511  32.695  1.00  0.00    -0.354 N 
ATOM     46  C   UNL A   1      38.282  31.555  30.767  1.00  0.00     0.074 A 
ATOM     47  C   UNL A   1      38.052  31.034  29.438  1.00  0.00     0.031 C 
ATOM     48  C   UNL A   1      43.231  28.033  32.864  1.00  0.00     0.029 A 
ATOM     49  C   UNL A   1      42.544  29.112  33.568  1.00  0.00     0.049 A 
ATOM     50  H   UNL A   1      40.928  30.238  32.893  1.00  0.00     0.167 HD
ATOM     51  C   UNL A   1      37.557  32.551  31.332  1.00  0.00     0.037 A 
ATOM     52  C   UNL A   1      42.851  29.563  34.797  1.00  0.00     0.037 A 
ATOM     53  C   UNL A   1      37.773  33.057  32.662  1.00  0.00     0.049 A 
ATOM     54  C   UNL A   1      42.032  30.669  35.401  1.00  0.00     0.074 A 
ATOM     55  C   UNL A   1      37.069  34.037  33.339  1.00  0.00     0.029 A 
ATOM     56  N   UNL A   1      38.770  32.617  33.520  1.00  0.00    -0.354 N 
ATOM     57  N   UNL A   1      41.005  31.309  34.895  1.00  0.00    -0.248 NA
ATOM     58  C   UNL A   1      42.408  31.107  36.753  1.00  0.00     0.031 C 
ATOM     59  C   UNL A   1      37.659  34.212  34.595  1.00  0.00     0.029 A 
ATOM     60  C   UNL A   1      38.705  33.313  34.715  1.00  0.00     0.049 A 
ATOM     61  H   UNL A   1      39.426  31.914  33.310  1.00  0.00     0.167 HD
ATOM     62  C   UNL A   1      40.596  32.203  35.875  1.00  0.00     0.074 A 
ATOM     63  C   UNL A   1      41.475  32.012  37.010  1.00  0.00     0.031 C 
ATOM     64  C   UNL A   1      39.582  33.103  35.838  1.00  0.00     0.037 A 
BRANCH  51  65
ATOM     65  C   UNL A   1      36.453  33.150  30.511  1.00  0.00     0.057 A 
ATOM     66  C   UNL A   1      36.717  34.049  29.468  1.00  0.00     0.134 A 
ATOM     67  C   UNL A   1      35.115  32.808  30.743  1.00  0.00     0.134 A 
ATOM     68  F   UNL A   1      37.976  34.428  29.202  1.00  0.00    -0.206 F 
ATOM     69  C   UNL A   1      35.691  34.603  28.701  1.00  0.00     0.040 A 
ATOM     70  C   UNL A   1      34.081  33.336  29.966  1.00  0.00     0.040 A 
ATOM     71  F   UNL A   1      34.791  31.949  31.722  1.00  0.00    -0.206 F 
ATOM     72  C   UNL A   1      34.368  34.241  28.947  1.00  0.00     0.006 A 
ENDBRANCH  51  65
BRANCH  52  73
ATOM     73  C   UNL A   1      43.965  28.945  35.561  1.00  0.00     0.057 A 
ATOM     74  C   UNL A   1      45.279  29.402  35.413  1.00  0.00     0.134 A 
ATOM     75  C   UNL A   1      43.746  27.880  36.442  1.00  0.00     0.134 A 
ATOM     76  F   UNL A   1      45.553  30.408  34.569  1.00  0.00    -0.206 F 
ATOM     77  C   UNL A   1      46.341  28.808  36.096  1.00  0.00     0.040 A 
ATOM     78  C   UNL A   1      44.795  27.291  37.149  1.00  0.00     0.040 A 
ATOM     79  F   UNL A   1      42.508  27.401  36.631  1.00  0.00    -0.206 F 
ATOM     80  C   UNL A   1      46.099  27.751  36.971  1.00  0.00     0.006 A 
ENDBRANCH  52  73
BRANCH  64  81
ATOM     81  C   UNL A   1      39.350  33.917  37.076  1.00  0.00     0.057 A 
ATOM     82  C   UNL A   1      39.857  35.216  37.212  1.00  0.00     0.134 A 
ATOM     83  C   UNL A   1      38.593  33.403  38.135  1.00  0.00     0.134 A 
ATOM     84  F   UNL A   1      40.601  35.761  36.238  1.00  0.00    -0.206 F 
ATOM     85  C   UNL A   1      39.640  35.964  38.370  1.00  0.00     0.040 A 
ATOM     86  C   UNL A   1      38.349  34.151  39.288  1.00  0.00     0.040 A 
ATOM     87  F   UNL A   1      38.072  32.168  38.065  1.00  0.00    -0.206 F 
ATOM     88  C   UNL A   1      38.880  35.433  39.410  1.00  0.00     0.006 A 
ENDBRANCH  64  81
ENDBRANCH  38  39
ENDBRANCH  30  33
ENDBRANCH  28  29
ENDBRANCH  27  28
ENDBRANCH   1  27
TORSDOF 14
ENDMDL
MODEL 3
REMARK VINA RESULT:     -11.3      4.679     10.763
REMARK SMILES C[C@H]1CN(C(=O)N2CC[NH+]([C@@H](C)C(=O)NCCCCCCNC(=O)c3ccc(-c4c5nc(c(-c6c(F)cccc6F)c6ccc([nH]6)c(-c6c(F)cccc6F)c6nc(c(-c7c(F)cccc7F)c7ccc4[nH]7)C=C6)C=C5)cc3)CC2)C[C@@H]1C
REMARK SMILES IDX 19 1 18 2 17 3 16 4 15 5 13 6 14 7 11 9 12 10 10 11 1 12
REMARK SMILES IDX 2 13 3 14 82 15 4 16 81 17 83 18 5 19 6 20 7 21 8 22 80 23
REMARK SMILES IDX 9 24 79 25 20 27 21 28 22 29 23 30 24 32 25 33 26 34 78 35
REMARK SMILES IDX 27 36 77 37 28 38 29 39 30 40 71 41 31 42 76 43 70 44 72 45
REMARK SMILES IDX 32 46 75 47 69 48 68 49 33 51 59 52 42 53 58 54 43 55 46 56
REMARK SMILES IDX 57 57 73 58 44 59 45 60 56 62 74 63 47 64 34 65 35 66 40 67
REMARK SMILES IDX 36 68 37 69 39 70 41 71 38 72 60 73 61 74 66 75 62 76 63 77
REMARK SMILES IDX 65 78 67 79 64 80 48 81 49 82 54 83 50 84 51 85 53 86 55 87
REMARK SMILES IDX 52 88
REMARK H PARENT 15 8 10 26 22 31 72 50 46 61
REMARK Flexibility Score: inf
ROOT
ATOM      1  C   UNL A   1      35.921  32.210  32.269  1.00  0.00     0.002 C 
ENDROOT
BRANCH   1   2
ATOM      2  C   UNL A   1      37.208  32.991  31.990  1.00  0.00     0.002 C 
BRANCH   2   3
ATOM      3  C   UNL A   1      38.497  32.246  32.334  1.00  0.00     0.021 C 
BRANCH   3   4
ATOM      4  C   UNL A   1      38.281  30.920  33.076  1.00  0.00     0.116 C 
BRANCH   4   5
ATOM      5  N   UNL A   1      38.282  31.128  34.511  1.00  0.00    -0.351 N 
ATOM      6  C   UNL A   1      39.185  30.832  35.488  1.00  0.00     0.278 C 
ATOM      7  O   UNL A   1      38.792  31.005  36.649  1.00  0.00    -0.268 OA
ATOM      8  H   UNL A   1      37.469  31.570  34.846  1.00  0.00     0.163 HD
BRANCH   6   9
ATOM      9  C   UNL A   1      40.638  30.345  35.221  1.00  0.00     0.271 C 
ATOM     10  C   UNL A   1      41.466  31.312  34.378  1.00  0.00     0.086 C 
BRANCH   9  11
ATOM     11  N   UNL A   1      40.734  28.886  34.981  1.00  0.00    -0.322 N 
ATOM     12  C   UNL A   1      44.389  22.884  35.496  1.00  0.00     0.010 C 
ATOM     13  C   UNL A   1      43.781  23.424  34.202  1.00  0.00     0.010 C 
ATOM     14  C   UNL A   1      43.325  24.873  34.373  1.00  0.00     0.125 C 
ATOM     15  C   UNL A   1      44.821  23.519  33.068  1.00  0.00     0.010 C 
ATOM     16  N   UNL A   1      44.449  25.684  33.925  1.00  0.00    -0.324 N 
ATOM     17  C   UNL A   1      45.493  24.872  33.329  1.00  0.00     0.125 C 
ATOM     18  C   UNL A   1      44.153  23.499  31.690  1.00  0.00     0.010 C 
ATOM     19  C   UNL A   1      44.421  27.049  33.764  1.00  0.00     0.320 C 
ATOM     20  O   UNL A   1      45.282  27.679  33.157  1.00  0.00    -0.248 OA
ATOM     21  N   UNL A   1      43.253  27.635  34.192  1.00  0.00    -0.313 N 
ATOM     22  C   UNL A   1      42.510  28.428  33.239  1.00  0.00     0.183 C 
ATOM     23  C   UNL A   1      43.067  27.998  35.592  1.00  0.00     0.183 C 
ATOM     24  C   UNL A   1      41.025  28.422  33.622  1.00  0.00     0.284 C 
ATOM     25  C   UNL A   1      41.571  28.150  35.956  1.00  0.00     0.284 C 
ATOM     26  H   UNL A   1      39.754  28.645  35.131  1.00  0.00     0.348 HD
ENDBRANCH   9  11
ENDBRANCH   6   9
ENDBRANCH   4   5
ENDBRANCH   3   4
ENDBRANCH   2   3
ENDBRANCH   1   2
BRANCH   1  27
ATOM     27  C   UNL A   1      34.772  32.448  31.283  1.00  0.00     0.021 C 
BRANCH  27  28
ATOM     28  C   UNL A   1      35.166  32.455  29.807  1.00  0.00     0.116 C 
BRANCH  28  29
ATOM     29  N   UNL A   1      34.479  31.423  29.050  1.00  0.00    -0.352 N 
ATOM     30  C   UNL A   1      34.979  30.336  28.381  1.00  0.00     0.251 C 
ATOM     31  H   UNL A   1      33.500  31.519  29.012  1.00  0.00     0.163 HD
ATOM     32  O   UNL A   1      34.252  29.697  27.627  1.00  0.00    -0.269 OA
BRANCH  30  33
ATOM     33  C   UNL A   1      36.390  29.928  28.554  1.00  0.00     0.039 A 
ATOM     34  C   UNL A   1      37.268  30.082  27.476  1.00  0.00     0.014 A 
ATOM     35  C   UNL A   1      36.838  29.345  29.742  1.00  0.00     0.014 A 
ATOM     36  C   UNL A   1      38.602  29.691  27.606  1.00  0.00     0.010 A 
ATOM     37  C   UNL A   1      38.184  29.014  29.893  1.00  0.00     0.010 A 
ATOM     38  C   UNL A   1      39.076  29.172  28.822  1.00  0.00    -0.014 A 
BRANCH  38  39
ATOM     39  C   UNL A   1      40.499  28.778  28.975  1.00  0.00     0.031 A 
ATOM     40  C   UNL A   1      40.959  27.414  28.539  1.00  0.00     0.074 A 
ATOM     41  C   UNL A   1      41.372  29.638  29.533  1.00  0.00     0.049 A 
ATOM     42  N   UNL A   1      42.155  26.884  28.605  1.00  0.00    -0.248 NA
ATOM     43  C   UNL A   1      39.937  26.517  27.976  1.00  0.00     0.031 C 
ATOM     44  C   UNL A   1      41.039  30.972  30.036  1.00  0.00     0.029 A 
ATOM     45  N   UNL A   1      42.717  29.518  29.772  1.00  0.00    -0.354 N 
ATOM     46  C   UNL A   1      42.027  25.597  28.099  1.00  0.00     0.074 A 
ATOM     47  C   UNL A   1      40.629  25.404  27.782  1.00  0.00     0.031 C 
ATOM     48  C   UNL A   1      42.156  31.558  30.495  1.00  0.00     0.029 A 
ATOM     49  C   UNL A   1      43.276  30.633  30.347  1.00  0.00     0.049 A 
ATOM     50  H   UNL A   1      43.234  28.710  29.551  1.00  0.00     0.167 HD
ATOM     51  C   UNL A   1      42.992  24.668  27.891  1.00  0.00     0.037 A 
ATOM     52  C   UNL A   1      44.547  30.883  30.707  1.00  0.00     0.037 A 
ATOM     53  C   UNL A   1      44.386  24.867  28.188  1.00  0.00     0.049 A 
ATOM     54  C   UNL A   1      45.598  29.836  30.465  1.00  0.00     0.074 A 
ATOM     55  C   UNL A   1      45.446  24.003  27.979  1.00  0.00     0.029 A 
ATOM     56  N   UNL A   1      44.914  26.017  28.756  1.00  0.00    -0.354 N 
ATOM     57  N   UNL A   1      45.473  28.644  29.932  1.00  0.00    -0.248 NA
ATOM     58  C   UNL A   1      46.972  30.173  30.867  1.00  0.00     0.031 C 
ATOM     59  C   UNL A   1      46.612  24.616  28.449  1.00  0.00     0.029 A 
ATOM     60  C   UNL A   1      46.283  25.879  28.914  1.00  0.00     0.049 A 
ATOM     61  H   UNL A   1      44.393  26.812  29.010  1.00  0.00     0.167 HD
ATOM     62  C   UNL A   1      46.751  28.103  29.907  1.00  0.00     0.074 A 
ATOM     63  C   UNL A   1      47.639  29.102  30.465  1.00  0.00     0.031 C 
ATOM     64  C   UNL A   1      47.154  26.887  29.462  1.00  0.00     0.037 A 
BRANCH  51  65
ATOM     65  C   UNL A   1      42.568  23.354  27.302  1.00  0.00     0.057 A 
ATOM     66  C   UNL A   1      42.668  23.099  25.927  1.00  0.00     0.134 A 
ATOM     67  C   UNL A   1      42.082  22.324  28.115  1.00  0.00     0.134 A 
ATOM     68  F   UNL A   1      43.114  24.049  25.091  1.00  0.00    -0.206 F 
ATOM     69  C   UNL A   1      42.278  21.876  25.380  1.00  0.00     0.040 A 
ATOM     70  C   UNL A   1      41.712  21.086  27.582  1.00  0.00     0.040 A 
ATOM     71  F   UNL A   1      41.965  22.498  29.440  1.00  0.00    -0.206 F 
ATOM     72  C   UNL A   1      41.804  20.863  26.211  1.00  0.00     0.006 A 
ENDBRANCH  51  65
BRANCH  52  73
ATOM     73  C   UNL A   1      44.911  32.194  31.300  1.00  0.00     0.057 A 
ATOM     74  C   UNL A   1      44.949  32.370  32.688  1.00  0.00     0.134 A 
ATOM     75  C   UNL A   1      45.214  33.302  30.500  1.00  0.00     0.134 A 
ATOM     76  F   UNL A   1      44.649  31.350  33.506  1.00  0.00    -0.206 F 
ATOM     77  C   UNL A   1      45.252  33.606  33.261  1.00  0.00     0.040 A 
ATOM     78  C   UNL A   1      45.543  34.537  31.059  1.00  0.00     0.040 A 
ATOM     79  F   UNL A   1      45.201  33.195  29.164  1.00  0.00    -0.206 F 
ATOM     80  C   UNL A   1      45.555  34.694  32.444  1.00  0.00     0.006 A 
ENDBRANCH  52  73
BRANCH  64  81
ATOM     81  C   UNL A   1      48.622  26.591  29.528  1.00  0.00     0.057 A 
ATOM     82  C   UNL A   1      49.197  25.937  30.625  1.00  0.00     0.134 A 
ATOM     83  C   UNL A   1      49.467  26.945  28.469  1.00  0.00     0.134 A 
ATOM     84  F   UNL A   1      48.442  25.583  31.677  1.00  0.00    -0.206 F 
ATOM     85  C   UNL A   1      50.565  25.670  30.679  1.00  0.00     0.040 A 
ATOM     86  C   UNL A   1      50.834  26.662  28.501  1.00  0.00     0.040 A 
ATOM     87  F   UNL A   1      48.980  27.567  27.385  1.00  0.00    -0.206 F 
ATOM     88  C   UNL A   1      51.386  26.029  29.612  1.00  0.00     0.006 A 
ENDBRANCH  64  81
ENDBRANCH  38  39
ENDBRANCH  30  33
ENDBRANCH  28  29
ENDBRANCH  27  28
ENDBRANCH   1  27
TORSDOF 14
ENDMDL
