MODEL 1
REMARK VINA RESULT:     -11.8      0.000      0.000
REMARK SMILES O=C(NCCCCCCNC(=O)[C@H]1CC=CC[C@H]1c1nc2ccccc2s1)c1ccc(-c2c3nc(c(-c4c(F)cccc4F)c4ccc([nH]4)c(-c4c(F)cccc4F)c4nc(c(-c5c(F)cccc5F)c5ccc2[nH]5)C=C4)C=C3)cc1
REMARK SMILES IDX 6 1 5 2 4 3 3 4 1 5 2 6 28 8 29 9 81 10 30 11 80 12 31 13
REMARK SMILES IDX 32 14 33 15 74 16 34 17 79 18 73 19 75 20 35 21 78 22 72 23
REMARK SMILES IDX 71 24 36 26 62 27 45 28 61 29 46 30 49 31 60 32 76 33 47 34
REMARK SMILES IDX 48 35 59 37 77 38 50 39 37 40 38 41 43 42 39 43 40 44 42 45
REMARK SMILES IDX 44 46 41 47 63 48 64 49 69 50 65 51 66 52 68 53 70 54 67 55
REMARK SMILES IDX 51 56 52 57 57 58 53 59 54 60 56 61 58 62 55 63 7 64 8 65
REMARK SMILES IDX 9 66 10 67 11 68 12 70 13 71 14 72 18 73 15 74 17 75 16 76
REMARK SMILES IDX 19 77 20 78 27 79 21 80 26 81 22 82 25 83 23 84 24 85
REMARK H PARENT 3 7 75 25 49 36 10 69
REMARK Flexibility Score: inf
ROOT
ATOM      1  C   UNL A   1      31.207  30.829  25.452  1.00  0.00     0.002 C 
ENDROOT
BRANCH   1   2
ATOM      2  C   UNL A   1      31.072  31.946  26.486  1.00  0.00     0.021 C 
BRANCH   2   3
ATOM      3  C   UNL A   1      32.390  32.503  27.002  1.00  0.00     0.116 C 
BRANCH   3   4
ATOM      4  N   UNL A   1      32.289  33.888  27.430  1.00  0.00    -0.352 N 
ATOM      5  O   UNL A   1      32.756  35.692  28.710  1.00  0.00    -0.269 OA
ATOM      6  C   UNL A   1      33.054  34.556  28.355  1.00  0.00     0.251 C 
ATOM      7  H   UNL A   1      31.578  34.417  27.002  1.00  0.00     0.163 HD
BRANCH   6   8
ATOM      8  C   UNL A   1      34.233  33.883  28.942  1.00  0.00     0.039 A 
ATOM      9  C   UNL A   1      34.071  32.871  29.891  1.00  0.00     0.014 A 
ATOM     10  C   UNL A   1      35.513  34.276  28.542  1.00  0.00     0.014 A 
ATOM     11  C   UNL A   1      35.184  32.345  30.535  1.00  0.00     0.010 A 
ATOM     12  C   UNL A   1      36.635  33.683  29.128  1.00  0.00     0.010 A 
ATOM     13  C   UNL A   1      36.478  32.728  30.144  1.00  0.00    -0.014 A 
BRANCH  13  14
ATOM     14  C   UNL A   1      37.646  32.045  30.754  1.00  0.00     0.031 A 
ATOM     15  C   UNL A   1      38.102  32.364  32.149  1.00  0.00     0.074 A 
ATOM     16  C   UNL A   1      38.279  31.101  30.030  1.00  0.00     0.049 A 
ATOM     17  N   UNL A   1      39.090  31.838  32.829  1.00  0.00    -0.248 NA
ATOM     18  C   UNL A   1      37.365  33.409  32.873  1.00  0.00     0.031 C 
ATOM     19  C   UNL A   1      37.932  30.722  28.658  1.00  0.00     0.029 A 
ATOM     20  N   UNL A   1      39.329  30.279  30.346  1.00  0.00    -0.354 N 
ATOM     21  C   UNL A   1      39.103  32.495  34.052  1.00  0.00     0.074 A 
ATOM     22  C   UNL A   1      38.039  33.476  34.014  1.00  0.00     0.031 C 
ATOM     23  C   UNL A   1      38.721  29.710  28.268  1.00  0.00     0.029 A 
ATOM     24  C   UNL A   1      39.668  29.413  29.336  1.00  0.00     0.049 A 
ATOM     25  H   UNL A   1      39.793  30.306  31.214  1.00  0.00     0.167 HD
ATOM     26  C   UNL A   1      39.926  32.292  35.110  1.00  0.00     0.037 A 
ATOM     27  C   UNL A   1      40.646  28.493  29.266  1.00  0.00     0.037 A 
ATOM     28  C   UNL A   1      40.976  31.306  35.144  1.00  0.00     0.049 A 
ATOM     29  C   UNL A   1      41.553  28.306  30.446  1.00  0.00     0.074 A 
ATOM     30  C   UNL A   1      41.841  31.001  36.181  1.00  0.00     0.029 A 
ATOM     31  N   UNL A   1      41.311  30.468  34.089  1.00  0.00    -0.354 N 
ATOM     32  N   UNL A   1      41.530  28.911  31.607  1.00  0.00    -0.248 NA
ATOM     33  C   UNL A   1      42.624  27.313  30.301  1.00  0.00     0.031 C 
ATOM     34  C   UNL A   1      42.724  30.009  35.742  1.00  0.00     0.029 A 
ATOM     35  C   UNL A   1      42.381  29.663  34.444  1.00  0.00     0.049 A 
ATOM     36  H   UNL A   1      40.854  30.449  33.217  1.00  0.00     0.167 HD
ATOM     37  C   UNL A   1      42.575  28.366  32.338  1.00  0.00     0.074 A 
ATOM     38  C   UNL A   1      43.194  27.362  31.496  1.00  0.00     0.031 C 
ATOM     39  C   UNL A   1      42.988  28.673  33.592  1.00  0.00     0.037 A 
BRANCH  26  40
ATOM     40  C   UNL A   1      39.735  33.159  36.320  1.00  0.00     0.057 A 
ATOM     41  C   UNL A   1      40.424  34.369  36.480  1.00  0.00     0.134 A 
ATOM     42  C   UNL A   1      38.805  32.811  37.308  1.00  0.00     0.134 A 
ATOM     43  F   UNL A   1      41.335  34.757  35.576  1.00  0.00    -0.206 F 
ATOM     44  C   UNL A   1      40.204  35.193  37.586  1.00  0.00     0.040 A 
ATOM     45  C   UNL A   1      38.560  33.637  38.407  1.00  0.00     0.040 A 
ATOM     46  F   UNL A   1      38.106  31.670  37.212  1.00  0.00    -0.206 F 
ATOM     47  C   UNL A   1      39.263  34.831  38.550  1.00  0.00     0.006 A 
ENDBRANCH  26  40
BRANCH  27  48
ATOM     48  C   UNL A   1      40.817  27.691  28.031  1.00  0.00     0.057 A 
ATOM     49  C   UNL A   1      41.596  28.159  26.967  1.00  0.00     0.134 A 
ATOM     50  C   UNL A   1      40.216  26.435  27.889  1.00  0.00     0.134 A 
ATOM     51  F   UNL A   1      42.185  29.361  27.038  1.00  0.00    -0.206 F 
ATOM     52  C   UNL A   1      41.760  27.412  25.799  1.00  0.00     0.040 A 
ATOM     53  C   UNL A   1      40.393  25.666  26.739  1.00  0.00     0.040 A 
ATOM     54  F   UNL A   1      39.465  25.928  28.878  1.00  0.00    -0.206 F 
ATOM     55  C   UNL A   1      41.161  26.157  25.687  1.00  0.00     0.006 A 
ENDBRANCH  27  48
BRANCH  39  56
ATOM     56  C   UNL A   1      44.155  27.896  34.127  1.00  0.00     0.057 A 
ATOM     57  C   UNL A   1      45.467  28.375  34.023  1.00  0.00     0.134 A 
ATOM     58  C   UNL A   1      43.960  26.664  34.762  1.00  0.00     0.134 A 
ATOM     59  F   UNL A   1      45.718  29.542  33.410  1.00  0.00    -0.206 F 
ATOM     60  C   UNL A   1      46.549  27.641  34.510  1.00  0.00     0.040 A 
ATOM     61  C   UNL A   1      45.033  25.933  35.273  1.00  0.00     0.040 A 
ATOM     62  F   UNL A   1      42.728  26.153  34.897  1.00  0.00    -0.206 F 
ATOM     63  C   UNL A   1      46.333  26.418  35.141  1.00  0.00     0.006 A 
ENDBRANCH  39  56
ENDBRANCH  13  14
ENDBRANCH   6   8
ENDBRANCH   3   4
ENDBRANCH   2   3
ENDBRANCH   1   2
BRANCH   1  64
ATOM     64  C   UNL A   1      31.776  29.509  25.979  1.00  0.00     0.002 C 
BRANCH  64  65
ATOM     65  C   UNL A   1      33.088  29.038  25.335  1.00  0.00     0.021 C 
BRANCH  65  66
ATOM     66  C   UNL A   1      33.786  27.880  26.046  1.00  0.00     0.116 C 
BRANCH  66  67
ATOM     67  N   UNL A   1      32.840  26.890  26.515  1.00  0.00    -0.356 N 
ATOM     68  C   UNL A   1      32.358  25.766  25.922  1.00  0.00     0.224 C 
ATOM     69  H   UNL A   1      32.487  27.059  27.419  1.00  0.00     0.163 HD
ATOM     70  O   UNL A   1      31.536  25.115  26.565  1.00  0.00    -0.275 OA
BRANCH  68  71
ATOM     71  C   UNL A   1      32.845  25.378  24.527  1.00  0.00     0.092 C 
ATOM     72  C   UNL A   1      33.750  24.131  24.596  1.00  0.00     0.041 C 
ATOM     73  C   UNL A   1      31.688  25.128  23.530  1.00  0.00     0.065 C 
ATOM     74  C   UNL A   1      32.998  22.838  24.693  1.00  0.00    -0.030 C 
ATOM     75  C   UNL A   1      30.859  23.880  23.912  1.00  0.00     0.038 C 
ATOM     76  C   UNL A   1      31.694  22.731  24.404  1.00  0.00    -0.031 C 
BRANCH  73  77
ATOM     77  C   UNL A   1      30.805  26.339  23.302  1.00  0.00     0.098 A 
ATOM     78  N   UNL A   1      31.202  27.453  22.726  1.00  0.00    -0.241 NA
ATOM     79  S   UNL A   1      29.180  26.363  23.880  1.00  0.00    -0.118 S 
ATOM     80  C   UNL A   1      30.158  28.356  22.643  1.00  0.00     0.082 A 
ATOM     81  C   UNL A   1      28.961  27.938  23.223  1.00  0.00     0.055 A 
ATOM     82  C   UNL A   1      30.214  29.627  22.038  1.00  0.00     0.030 A 
ATOM     83  C   UNL A   1      27.814  28.751  23.222  1.00  0.00     0.021 A 
ATOM     84  C   UNL A   1      29.077  30.442  22.024  1.00  0.00     0.002 A 
ATOM     85  C   UNL A   1      27.893  30.007  22.610  1.00  0.00     0.002 A 
ENDBRANCH  73  77
ENDBRANCH  68  71
ENDBRANCH  66  67
ENDBRANCH  65  66
ENDBRANCH  64  65
ENDBRANCH   1  64
TORSDOF 14
ENDMDL
MODEL 2
REMARK VINA RESULT:     -11.8      0.260      6.241
REMARK SMILES O=C(NCCCCCCNC(=O)[C@H]1CC=CC[C@H]1c1nc2ccccc2s1)c1ccc(-c2c3nc(c(-c4c(F)cccc4F)c4ccc([nH]4)c(-c4c(F)cccc4F)c4nc(c(-c5c(F)cccc5F)c5ccc2[nH]5)C=C4)C=C3)cc1
REMARK SMILES IDX 6 1 5 2 4 3 3 4 1 5 2 6 28 8 29 9 81 10 30 11 80 12 31 13
REMARK SMILES IDX 32 14 33 15 74 16 34 17 79 18 73 19 75 20 35 21 78 22 72 23
REMARK SMILES IDX 71 24 36 26 62 27 45 28 61 29 46 30 49 31 60 32 76 33 47 34
REMARK SMILES IDX 48 35 59 37 77 38 50 39 37 40 38 41 43 42 39 43 40 44 42 45
REMARK SMILES IDX 44 46 41 47 63 48 64 49 69 50 65 51 66 52 68 53 70 54 67 55
REMARK SMILES IDX 51 56 52 57 57 58 53 59 54 60 56 61 58 62 55 63 7 64 8 65
REMARK SMILES IDX 9 66 10 67 11 68 12 70 13 71 14 72 18 73 15 74 17 75 16 76
REMARK SMILES IDX 19 77 20 78 27 79 21 80 26 81 22 82 25 83 23 84 24 85
REMARK H PARENT 3 7 75 25 49 36 10 69
REMARK Flexibility Score: inf
ROOT
ATOM      1  C   UNL A   1      31.172  30.845  25.392  1.00  0.00     0.002 C 
ENDROOT
BRANCH   1   2
ATOM      2  C   UNL A   1      31.112  31.890  26.504  1.00  0.00     0.021 C 
BRANCH   2   3
ATOM      3  C   UNL A   1      32.457  32.483  26.898  1.00  0.00     0.116 C 
BRANCH   3   4
ATOM      4  N   UNL A   1      32.352  33.852  27.375  1.00  0.00    -0.352 N 
ATOM      5  O   UNL A   1      32.787  35.602  28.738  1.00  0.00    -0.269 OA
ATOM      6  C   UNL A   1      33.088  34.477  28.352  1.00  0.00     0.251 C 
ATOM      7  H   UNL A   1      31.663  34.404  26.941  1.00  0.00     0.163 HD
BRANCH   6   8
ATOM      8  C   UNL A   1      34.238  33.770  28.957  1.00  0.00     0.039 A 
ATOM      9  C   UNL A   1      34.032  32.745  29.883  1.00  0.00     0.014 A 
ATOM     10  C   UNL A   1      35.535  34.145  28.596  1.00  0.00     0.014 A 
ATOM     11  C   UNL A   1      35.118  32.186  30.544  1.00  0.00     0.010 A 
ATOM     12  C   UNL A   1      36.630  33.518  29.200  1.00  0.00     0.010 A 
ATOM     13  C   UNL A   1      36.428  32.549  30.194  1.00  0.00    -0.014 A 
BRANCH  13  14
ATOM     14  C   UNL A   1      37.566  31.832  30.821  1.00  0.00     0.031 A 
ATOM     15  C   UNL A   1      38.342  30.786  30.072  1.00  0.00     0.074 A 
ATOM     16  C   UNL A   1      37.909  32.162  32.081  1.00  0.00     0.049 A 
ATOM     17  N   UNL A   1      39.375  30.088  30.473  1.00  0.00    -0.248 NA
ATOM     18  C   UNL A   1      37.905  30.477  28.704  1.00  0.00     0.031 C 
ATOM     19  C   UNL A   1      37.215  33.152  32.908  1.00  0.00     0.029 A 
ATOM     20  N   UNL A   1      38.932  31.721  32.880  1.00  0.00    -0.354 N 
ATOM     21  C   UNL A   1      39.701  29.248  29.417  1.00  0.00     0.074 A 
ATOM     22  C   UNL A   1      38.743  29.506  28.363  1.00  0.00     0.031 C 
ATOM     23  C   UNL A   1      37.858  33.277  34.078  1.00  0.00     0.029 A 
ATOM     24  C   UNL A   1      38.970  32.334  34.108  1.00  0.00     0.049 A 
ATOM     25  H   UNL A   1      39.577  31.032  32.599  1.00  0.00     0.167 HD
ATOM     26  C   UNL A   1      40.712  28.349  29.335  1.00  0.00     0.037 A 
ATOM     27  C   UNL A   1      39.796  32.147  35.152  1.00  0.00     0.037 A 
ATOM     28  C   UNL A   1      41.669  28.106  30.385  1.00  0.00     0.049 A 
ATOM     29  C   UNL A   1      40.892  31.130  35.038  1.00  0.00     0.074 A 
ATOM     30  C   UNL A   1      42.750  27.239  30.385  1.00  0.00     0.029 A 
ATOM     31  N   UNL A   1      41.657  28.724  31.628  1.00  0.00    -0.354 N 
ATOM     32  N   UNL A   1      41.208  30.370  34.019  1.00  0.00    -0.248 NA
ATOM     33  C   UNL A   1      41.742  30.943  36.220  1.00  0.00     0.031 C 
ATOM     34  C   UNL A   1      43.366  27.304  31.639  1.00  0.00     0.029 A 
ATOM     35  C   UNL A   1      42.697  28.244  32.407  1.00  0.00     0.049 A 
ATOM     36  H   UNL A   1      41.005  29.405  31.912  1.00  0.00     0.167 HD
ATOM     37  C   UNL A   1      42.300  29.621  34.432  1.00  0.00     0.074 A 
ATOM     38  C   UNL A   1      42.606  30.039  35.785  1.00  0.00     0.031 C 
ATOM     39  C   UNL A   1      42.984  28.667  33.753  1.00  0.00     0.037 A 
BRANCH  26  40
ATOM     40  C   UNL A   1      40.835  27.549  28.072  1.00  0.00     0.057 A 
ATOM     41  C   UNL A   1      41.612  27.986  26.991  1.00  0.00     0.134 A 
ATOM     42  C   UNL A   1      40.219  26.295  27.958  1.00  0.00     0.134 A 
ATOM     43  F   UNL A   1      42.221  29.181  27.031  1.00  0.00    -0.206 F 
ATOM     44  C   UNL A   1      41.760  27.212  25.837  1.00  0.00     0.040 A 
ATOM     45  C   UNL A   1      40.377  25.503  26.819  1.00  0.00     0.040 A 
ATOM     46  F   UNL A   1      39.468  25.813  28.958  1.00  0.00    -0.206 F 
ATOM     47  C   UNL A   1      41.148  25.963  25.753  1.00  0.00     0.006 A 
ENDBRANCH  26  40
BRANCH  27  48
ATOM     48  C   UNL A   1      39.605  32.935  36.393  1.00  0.00     0.057 A 
ATOM     49  C   UNL A   1      38.690  32.533  37.372  1.00  0.00     0.134 A 
ATOM     50  C   UNL A   1      40.340  34.102  36.635  1.00  0.00     0.134 A 
ATOM     51  F   UNL A   1      37.946  31.432  37.191  1.00  0.00    -0.206 F 
ATOM     52  C   UNL A   1      38.502  33.271  38.542  1.00  0.00     0.040 A 
ATOM     53  C   UNL A   1      40.182  34.834  37.812  1.00  0.00     0.040 A 
ATOM     54  F   UNL A   1      41.239  34.533  35.739  1.00  0.00    -0.206 F 
ATOM     55  C   UNL A   1      39.255  34.423  38.766  1.00  0.00     0.006 A 
ENDBRANCH  27  48
BRANCH  39  56
ATOM     56  C   UNL A   1      44.141  28.031  34.465  1.00  0.00     0.057 A 
ATOM     57  C   UNL A   1      43.988  26.855  35.212  1.00  0.00     0.134 A 
ATOM     58  C   UNL A   1      45.420  28.594  34.393  1.00  0.00     0.134 A 
ATOM     59  F   UNL A   1      42.783  26.278  35.333  1.00  0.00    -0.206 F 
ATOM     60  C   UNL A   1      45.065  26.277  35.884  1.00  0.00     0.040 A 
ATOM     61  C   UNL A   1      46.509  28.010  35.041  1.00  0.00     0.040 A 
ATOM     62  F   UNL A   1      45.633  29.716  33.690  1.00  0.00    -0.206 F 
ATOM     63  C   UNL A   1      46.331  26.852  35.795  1.00  0.00     0.006 A 
ENDBRANCH  39  56
ENDBRANCH  13  14
ENDBRANCH   6   8
ENDBRANCH   3   4
ENDBRANCH   2   3
ENDBRANCH   1   2
BRANCH   1  64
ATOM     64  C   UNL A   1      31.665  29.459  25.816  1.00  0.00     0.002 C 
BRANCH  64  65
ATOM     65  C   UNL A   1      33.110  29.111  25.430  1.00  0.00     0.021 C 
BRANCH  65  66
ATOM     66  C   UNL A   1      33.737  27.958  26.213  1.00  0.00     0.116 C 
BRANCH  66  67
ATOM     67  N   UNL A   1      32.742  26.996  26.639  1.00  0.00    -0.356 N 
ATOM     68  C   UNL A   1      32.257  25.884  26.025  1.00  0.00     0.224 C 
ATOM     69  H   UNL A   1      32.352  27.178  27.525  1.00  0.00     0.163 HD
ATOM     70  O   UNL A   1      31.389  25.258  26.630  1.00  0.00    -0.275 OA
BRANCH  68  71
ATOM     71  C   UNL A   1      32.798  25.480  24.655  1.00  0.00     0.092 C 
ATOM     72  C   UNL A   1      33.700  24.234  24.775  1.00  0.00     0.041 C 
ATOM     73  C   UNL A   1      31.681  25.216  23.617  1.00  0.00     0.065 C 
ATOM     74  C   UNL A   1      32.945  22.941  24.858  1.00  0.00    -0.030 C 
ATOM     75  C   UNL A   1      30.838  23.972  23.982  1.00  0.00     0.038 C 
ATOM     76  C   UNL A   1      31.654  22.830  24.522  1.00  0.00    -0.031 C 
BRANCH  73  77
ATOM     77  C   UNL A   1      30.806  26.423  23.340  1.00  0.00     0.098 A 
ATOM     78  N   UNL A   1      31.222  27.526  22.756  1.00  0.00    -0.241 NA
ATOM     79  S   UNL A   1      29.165  26.459  23.868  1.00  0.00    -0.118 S 
ATOM     80  C   UNL A   1      30.182  28.428  22.624  1.00  0.00     0.082 A 
ATOM     81  C   UNL A   1      28.968  28.022  23.175  1.00  0.00     0.055 A 
ATOM     82  C   UNL A   1      30.259  29.688  21.998  1.00  0.00     0.030 A 
ATOM     83  C   UNL A   1      27.823  28.837  23.124  1.00  0.00     0.021 A 
ATOM     84  C   UNL A   1      29.124  30.503  21.934  1.00  0.00     0.002 A 
ATOM     85  C   UNL A   1      27.922  30.080  22.492  1.00  0.00     0.002 A 
ENDBRANCH  73  77
ENDBRANCH  68  71
ENDBRANCH  66  67
ENDBRANCH  65  66
ENDBRANCH  64  65
ENDBRANCH   1  64
TORSDOF 14
ENDMDL
MODEL 3
REMARK VINA RESULT:     -11.7      5.078     10.177
REMARK SMILES O=C(NCCCCCCNC(=O)[C@H]1CC=CC[C@H]1c1nc2ccccc2s1)c1ccc(-c2c3nc(c(-c4c(F)cccc4F)c4ccc([nH]4)c(-c4c(F)cccc4F)c4nc(c(-c5c(F)cccc5F)c5ccc2[nH]5)C=C4)C=C3)cc1
REMARK SMILES IDX 6 1 5 2 4 3 3 4 1 5 2 6 28 8 29 9 81 10 30 11 80 12 31 13
REMARK SMILES IDX 32 14 33 15 74 16 34 17 79 18 73 19 75 20 35 21 78 22 72 23
REMARK SMILES IDX 71 24 36 26 62 27 45 28 61 29 46 30 49 31 60 32 76 33 47 34
REMARK SMILES IDX 48 35 59 37 77 38 50 39 37 40 38 41 43 42 39 43 40 44 42 45
REMARK SMILES IDX 44 46 41 47 63 48 64 49 69 50 65 51 66 52 68 53 70 54 67 55
REMARK SMILES IDX 51 56 52 57 57 58 53 59 54 60 56 61 58 62 55 63 7 64 8 65
REMARK SMILES IDX 9 66 10 67 11 68 12 70 13 71 14 72 18 73 15 74 17 75 16 76
REMARK SMILES IDX 19 77 20 78 27 79 21 80 26 81 22 82 25 83 23 84 24 85
REMARK H PARENT 3 7 75 25 49 36 10 69
REMARK Flexibility Score: inf
ROOT
ATOM      1  C   UNL A   1      36.433  19.945  25.001  1.00  0.00     0.002 C 
ENDROOT
BRANCH   1   2
ATOM      2  C   UNL A   1      37.879  19.595  24.655  1.00  0.00     0.021 C 
BRANCH   2   3
ATOM      3  C   UNL A   1      38.890  19.896  25.751  1.00  0.00     0.116 C 
BRANCH   3   4
ATOM      4  N   UNL A   1      40.006  18.965  25.761  1.00  0.00    -0.352 N 
ATOM      5  O   UNL A   1      42.181  18.351  25.805  1.00  0.00    -0.269 OA
ATOM      6  C   UNL A   1      41.339  19.229  25.963  1.00  0.00     0.251 C 
ATOM      7  H   UNL A   1      39.777  18.022  25.602  1.00  0.00     0.163 HD
BRANCH   6   8
ATOM      8  C   UNL A   1      41.757  20.594  26.351  1.00  0.00     0.039 A 
ATOM      9  C   UNL A   1      42.018  21.559  25.376  1.00  0.00     0.014 A 
ATOM     10  C   UNL A   1      41.896  20.906  27.706  1.00  0.00     0.014 A 
ATOM     11  C   UNL A   1      42.541  22.791  25.747  1.00  0.00     0.010 A 
ATOM     12  C   UNL A   1      42.339  22.177  28.083  1.00  0.00     0.010 A 
ATOM     13  C   UNL A   1      42.686  23.121  27.104  1.00  0.00    -0.014 A 
BRANCH  13  14
ATOM     14  C   UNL A   1      43.115  24.494  27.469  1.00  0.00     0.031 A 
ATOM     15  C   UNL A   1      44.552  24.919  27.372  1.00  0.00     0.074 A 
ATOM     16  C   UNL A   1      42.172  25.369  27.869  1.00  0.00     0.049 A 
ATOM     17  N   UNL A   1      45.081  26.089  27.632  1.00  0.00    -0.248 NA
ATOM     18  C   UNL A   1      45.523  23.907  26.933  1.00  0.00     0.031 C 
ATOM     19  C   UNL A   1      40.748  25.060  28.016  1.00  0.00     0.029 A 
ATOM     20  N   UNL A   1      42.260  26.695  28.205  1.00  0.00    -0.354 N 
ATOM     21  C   UNL A   1      46.444  25.951  27.406  1.00  0.00     0.074 A 
ATOM     22  C   UNL A   1      46.667  24.576  27.008  1.00  0.00     0.031 C 
ATOM     23  C   UNL A   1      40.089  26.174  28.367  1.00  0.00     0.029 A 
ATOM     24  C   UNL A   1      41.050  27.258  28.529  1.00  0.00     0.049 A 
ATOM     25  H   UNL A   1      43.109  27.195  28.213  1.00  0.00     0.167 HD
ATOM     26  C   UNL A   1      47.417  26.888  27.515  1.00  0.00     0.037 A 
ATOM     27  C   UNL A   1      40.748  28.505  28.931  1.00  0.00     0.037 A 
ATOM     28  C   UNL A   1      47.185  28.257  27.901  1.00  0.00     0.049 A 
ATOM     29  C   UNL A   1      41.849  29.514  29.062  1.00  0.00     0.074 A 
ATOM     30  C   UNL A   1      48.100  29.291  28.008  1.00  0.00     0.029 A 
ATOM     31  N   UNL A   1      45.950  28.783  28.252  1.00  0.00    -0.354 N 
ATOM     32  N   UNL A   1      43.127  29.377  28.810  1.00  0.00    -0.248 NA
ATOM     33  C   UNL A   1      41.466  30.849  29.538  1.00  0.00     0.031 C 
ATOM     34  C   UNL A   1      47.427  30.430  28.462  1.00  0.00     0.029 A 
ATOM     35  C   UNL A   1      46.083  30.119  28.595  1.00  0.00     0.049 A 
ATOM     36  H   UNL A   1      45.103  28.281  28.256  1.00  0.00     0.167 HD
ATOM     37  C   UNL A   1      43.701  30.608  29.086  1.00  0.00     0.074 A 
ATOM     38  C   UNL A   1      42.626  31.487  29.499  1.00  0.00     0.031 C 
ATOM     39  C   UNL A   1      45.003  30.977  29.009  1.00  0.00     0.037 A 
BRANCH  26  40
ATOM     40  C   UNL A   1      48.828  26.468  27.224  1.00  0.00     0.057 A 
ATOM     41  C   UNL A   1      49.686  26.008  28.231  1.00  0.00     0.134 A 
ATOM     42  C   UNL A   1      49.314  26.464  25.910  1.00  0.00     0.134 A 
ATOM     43  F   UNL A   1      49.286  25.994  29.511  1.00  0.00    -0.206 F 
ATOM     44  C   UNL A   1      50.982  25.573  27.942  1.00  0.00     0.040 A 
ATOM     45  C   UNL A   1      50.600  26.012  25.606  1.00  0.00     0.040 A 
ATOM     46  F   UNL A   1      48.542  26.885  24.897  1.00  0.00    -0.206 F 
ATOM     47  C   UNL A   1      51.439  25.567  26.626  1.00  0.00     0.006 A 
ENDBRANCH  26  40
BRANCH  27  48
ATOM     48  C   UNL A   1      39.342  28.857  29.247  1.00  0.00     0.057 A 
ATOM     49  C   UNL A   1      38.496  29.402  28.275  1.00  0.00     0.134 A 
ATOM     50  C   UNL A   1      38.808  28.646  30.524  1.00  0.00     0.134 A 
ATOM     51  F   UNL A   1      38.955  29.640  27.038  1.00  0.00    -0.206 F 
ATOM     52  C   UNL A   1      37.173  29.738  28.565  1.00  0.00     0.040 A 
ATOM     53  C   UNL A   1      37.480  28.952  30.821  1.00  0.00     0.040 A 
ATOM     54  F   UNL A   1      39.566  28.117  31.496  1.00  0.00    -0.206 F 
ATOM     55  C   UNL A   1      36.661  29.507  29.842  1.00  0.00     0.006 A 
ENDBRANCH  27  48
BRANCH  39  56
ATOM     56  C   UNL A   1      45.324  32.399  29.364  1.00  0.00     0.057 A 
ATOM     57  C   UNL A   1      45.275  33.424  28.411  1.00  0.00     0.134 A 
ATOM     58  C   UNL A   1      45.675  32.745  30.675  1.00  0.00     0.134 A 
ATOM     59  F   UNL A   1      44.962  33.152  27.135  1.00  0.00    -0.206 F 
ATOM     60  C   UNL A   1      45.588  34.742  28.744  1.00  0.00     0.040 A 
ATOM     61  C   UNL A   1      45.967  34.064  31.024  1.00  0.00     0.040 A 
ATOM     62  F   UNL A   1      45.735  31.811  31.634  1.00  0.00    -0.206 F 
ATOM     63  C   UNL A   1      45.931  35.066  30.056  1.00  0.00     0.006 A 
ENDBRANCH  39  56
ENDBRANCH  13  14
ENDBRANCH   6   8
ENDBRANCH   3   4
ENDBRANCH   2   3
ENDBRANCH   1   2
BRANCH   1  64
ATOM     64  C   UNL A   1      36.026  21.398  24.739  1.00  0.00     0.002 C 
BRANCH  64  65
ATOM     65  C   UNL A   1      36.096  22.344  25.946  1.00  0.00     0.021 C 
BRANCH  65  66
ATOM     66  C   UNL A   1      35.995  23.832  25.618  1.00  0.00     0.116 C 
BRANCH  66  67
ATOM     67  N   UNL A   1      35.484  24.053  24.282  1.00  0.00    -0.356 N 
ATOM     68  C   UNL A   1      34.221  24.289  23.839  1.00  0.00     0.224 C 
ATOM     69  H   UNL A   1      36.168  24.029  23.573  1.00  0.00     0.163 HD
ATOM     70  O   UNL A   1      34.080  24.423  22.625  1.00  0.00    -0.275 OA
BRANCH  68  71
ATOM     71  C   UNL A   1      33.071  24.373  24.841  1.00  0.00     0.092 C 
ATOM     72  C   UNL A   1      32.645  25.840  25.056  1.00  0.00     0.041 C 
ATOM     73  C   UNL A   1      31.841  23.530  24.424  1.00  0.00     0.065 C 
ATOM     74  C   UNL A   1      31.748  26.378  23.982  1.00  0.00    -0.030 C 
ATOM     75  C   UNL A   1      31.166  24.089  23.150  1.00  0.00     0.038 C 
ATOM     76  C   UNL A   1      31.100  25.591  23.113  1.00  0.00    -0.031 C 
BRANCH  73  77
ATOM     77  C   UNL A   1      32.131  22.048  24.300  1.00  0.00     0.098 A 
ATOM     78  N   UNL A   1      32.438  21.261  25.309  1.00  0.00    -0.241 NA
ATOM     79  S   UNL A   1      32.155  21.283  22.755  1.00  0.00    -0.118 S 
ATOM     80  C   UNL A   1      32.618  19.961  24.875  1.00  0.00     0.082 A 
ATOM     81  C   UNL A   1      32.503  19.771  23.499  1.00  0.00     0.055 A 
ATOM     82  C   UNL A   1      32.903  18.851  25.694  1.00  0.00     0.030 A 
ATOM     83  C   UNL A   1      32.666  18.504  22.910  1.00  0.00     0.021 A 
ATOM     84  C   UNL A   1      33.060  17.585  25.121  1.00  0.00     0.002 A 
ATOM     85  C   UNL A   1      32.943  17.417  23.745  1.00  0.00     0.002 A 
ENDBRANCH  73  77
ENDBRANCH  68  71
ENDBRANCH  66  67
ENDBRANCH  65  66
ENDBRANCH  64  65
ENDBRANCH   1  64
TORSDOF 14
ENDMDL
