MODEL 1
REMARK VINA RESULT:     -12.4      0.000      0.000
REMARK SMILES O=C(NCCCCCCNC(=O)c1ccccc1/C=N\NC(=S)NCc1ccccc1)c1ccc(-c2c3nc(c(-c4c(F)cccc4F)c4ccc([nH]4)c(-c4c(F)cccc4F)c4nc(c(-c5c(F)cccc5F)c5ccc2[nH]5)C=C4)C=C3)cc1
REMARK SMILES IDX 8 1 7 2 6 3 5 4 4 5 3 6 1 7 2 8 32 10 33 11 85 12 34 13
REMARK SMILES IDX 84 14 35 15 36 16 37 17 78 18 38 19 83 20 77 21 79 22 39 23
REMARK SMILES IDX 82 24 76 25 75 26 40 28 66 29 49 30 65 31 50 32 53 33 64 34
REMARK SMILES IDX 80 35 51 36 52 37 63 39 81 40 54 41 41 42 42 43 47 44 43 45
REMARK SMILES IDX 44 46 46 47 48 48 45 49 67 50 68 51 73 52 69 53 70 54 72 55
REMARK SMILES IDX 74 56 71 57 55 58 56 59 61 60 57 61 58 62 60 63 62 64 59 65
REMARK SMILES IDX 9 66 10 67 11 68 12 70 13 71 14 72 18 73 15 74 17 75 16 76
REMARK SMILES IDX 19 77 20 78 21 79 22 81 23 82 24 83 25 85 26 86 27 87 31 88
REMARK SMILES IDX 28 89 30 90 29 91
REMARK H PARENT 3 9 79 27 53 38 10 69 21 80 24 84
REMARK Flexibility Score: inf
ROOT
ATOM      1  C   UNL A   1      33.025  28.510  27.002  1.00  0.00     0.021 C 
ENDROOT
BRANCH   1   2
ATOM      2  C   UNL A   1      31.893  29.519  27.196  1.00  0.00     0.002 C 
BRANCH   2   3
ATOM      3  C   UNL A   1      31.709  30.536  26.061  1.00  0.00     0.002 C 
BRANCH   3   4
ATOM      4  C   UNL A   1      31.511  31.991  26.503  1.00  0.00     0.021 C 
BRANCH   4   5
ATOM      5  C   UNL A   1      32.698  32.587  27.246  1.00  0.00     0.116 C 
BRANCH   5   6
ATOM      6  N   UNL A   1      32.487  33.996  27.540  1.00  0.00    -0.352 N 
ATOM      7  O   UNL A   1      32.524  35.858  28.806  1.00  0.00    -0.269 OA
ATOM      8  C   UNL A   1      33.019  34.767  28.540  1.00  0.00     0.251 C 
ATOM      9  H   UNL A   1      31.872  34.464  26.931  1.00  0.00     0.163 HD
BRANCH   8  10
ATOM     10  C   UNL A   1      34.204  34.294  29.286  1.00  0.00     0.039 A 
ATOM     11  C   UNL A   1      34.050  33.631  30.506  1.00  0.00     0.014 A 
ATOM     12  C   UNL A   1      35.475  34.442  28.721  1.00  0.00     0.014 A 
ATOM     13  C   UNL A   1      35.168  33.194  31.204  1.00  0.00     0.010 A 
ATOM     14  C   UNL A   1      36.593  33.931  29.385  1.00  0.00     0.010 A 
ATOM     15  C   UNL A   1      36.445  33.301  30.631  1.00  0.00    -0.014 A 
BRANCH  15  16
ATOM     16  C   UNL A   1      37.585  32.615  31.285  1.00  0.00     0.031 A 
ATOM     17  C   UNL A   1      38.247  31.424  30.659  1.00  0.00     0.074 A 
ATOM     18  C   UNL A   1      38.011  33.093  32.470  1.00  0.00     0.049 A 
ATOM     19  N   UNL A   1      39.248  30.714  31.111  1.00  0.00    -0.248 NA
ATOM     20  C   UNL A   1      37.720  30.965  29.364  1.00  0.00     0.031 C 
ATOM     21  C   UNL A   1      37.418  34.233  33.179  1.00  0.00     0.029 A 
ATOM     22  N   UNL A   1      39.036  32.697  33.286  1.00  0.00    -0.354 N 
ATOM     23  C   UNL A   1      39.462  29.715  30.170  1.00  0.00     0.074 A 
ATOM     24  C   UNL A   1      38.477  29.901  29.126  1.00  0.00     0.031 C 
ATOM     25  C   UNL A   1      38.107  34.460  34.306  1.00  0.00     0.029 A 
ATOM     26  C   UNL A   1      39.145  33.445  34.433  1.00  0.00     0.049 A 
ATOM     27  H   UNL A   1      39.638  31.947  33.072  1.00  0.00     0.167 HD
ATOM     28  C   UNL A   1      40.400  28.738  30.185  1.00  0.00     0.037 A 
ATOM     29  C   UNL A   1      39.967  33.310  35.490  1.00  0.00     0.037 A 
ATOM     30  C   UNL A   1      41.384  28.576  31.224  1.00  0.00     0.049 A 
ATOM     31  C   UNL A   1      40.972  32.197  35.485  1.00  0.00     0.074 A 
ATOM     32  C   UNL A   1      42.420  27.660  31.293  1.00  0.00     0.029 A 
ATOM     33  N   UNL A   1      41.447  29.337  32.383  1.00  0.00    -0.354 N 
ATOM     34  N   UNL A   1      41.209  31.305  34.553  1.00  0.00    -0.248 NA
ATOM     35  C   UNL A   1      41.817  32.064  36.677  1.00  0.00     0.031 C 
ATOM     36  C   UNL A   1      43.075  27.829  32.516  1.00  0.00     0.029 A 
ATOM     37  C   UNL A   1      42.479  28.883  33.189  1.00  0.00     0.049 A 
ATOM     38  H   UNL A   1      40.848  30.087  32.599  1.00  0.00     0.167 HD
ATOM     39  C   UNL A   1      42.235  30.510  35.044  1.00  0.00     0.074 A 
ATOM     40  C   UNL A   1      42.597  31.047  36.340  1.00  0.00     0.031 C 
ATOM     41  C   UNL A   1      42.819  29.428  34.479  1.00  0.00     0.037 A 
BRANCH  28  42
ATOM     42  C   UNL A   1      40.411  27.749  29.057  1.00  0.00     0.057 A 
ATOM     43  C   UNL A   1      41.263  27.892  27.954  1.00  0.00     0.134 A 
ATOM     44  C   UNL A   1      39.633  26.586  29.126  1.00  0.00     0.134 A 
ATOM     45  F   UNL A   1      42.029  28.985  27.824  1.00  0.00    -0.206 F 
ATOM     46  C   UNL A   1      41.338  26.914  26.961  1.00  0.00     0.040 A 
ATOM     47  C   UNL A   1      39.715  25.592  28.150  1.00  0.00     0.040 A 
ATOM     48  F   UNL A   1      38.802  26.384  30.160  1.00  0.00    -0.206 F 
ATOM     49  C   UNL A   1      40.571  25.754  27.063  1.00  0.00     0.006 A 
ENDBRANCH  28  42
BRANCH  29  50
ATOM     50  C   UNL A   1      39.841  34.224  36.654  1.00  0.00     0.057 A 
ATOM     51  C   UNL A   1      39.061  33.886  37.764  1.00  0.00     0.134 A 
ATOM     52  C   UNL A   1      40.484  35.469  36.671  1.00  0.00     0.134 A 
ATOM     53  F   UNL A   1      38.408  32.715  37.800  1.00  0.00    -0.206 F 
ATOM     54  C   UNL A   1      38.903  34.762  38.839  1.00  0.00     0.040 A 
ATOM     55  C   UNL A   1      40.360  36.341  37.752  1.00  0.00     0.040 A 
ATOM     56  F   UNL A   1      41.253  35.849  35.641  1.00  0.00    -0.206 F 
ATOM     57  C   UNL A   1      39.558  35.992  38.836  1.00  0.00     0.006 A 
ENDBRANCH  29  50
BRANCH  41  58
ATOM     58  C   UNL A   1      43.914  28.764  35.259  1.00  0.00     0.057 A 
ATOM     59  C   UNL A   1      43.651  27.707  36.138  1.00  0.00     0.134 A 
ATOM     60  C   UNL A   1      45.246  29.172  35.114  1.00  0.00     0.134 A 
ATOM     61  F   UNL A   1      42.394  27.282  36.334  1.00  0.00    -0.206 F 
ATOM     62  C   UNL A   1      44.672  27.094  36.865  1.00  0.00     0.040 A 
ATOM     63  C   UNL A   1      46.278  28.549  35.814  1.00  0.00     0.040 A 
ATOM     64  F   UNL A   1      45.564  30.176  34.282  1.00  0.00    -0.206 F 
ATOM     65  C   UNL A   1      45.992  27.511  36.698  1.00  0.00     0.006 A 
ENDBRANCH  41  58
ENDBRANCH  15  16
ENDBRANCH   8  10
ENDBRANCH   5   6
ENDBRANCH   4   5
ENDBRANCH   3   4
ENDBRANCH   2   3
ENDBRANCH   1   2
BRANCH   1  66
ATOM     66  C   UNL A   1      33.823  28.677  25.708  1.00  0.00     0.116 C 
BRANCH  66  67
ATOM     67  N   UNL A   1      33.794  27.546  24.793  1.00  0.00    -0.352 N 
ATOM     68  C   UNL A   1      32.842  27.105  23.896  1.00  0.00     0.251 C 
ATOM     69  H   UNL A   1      34.607  26.990  24.821  1.00  0.00     0.163 HD
ATOM     70  O   UNL A   1      33.094  26.157  23.158  1.00  0.00    -0.269 OA
BRANCH  68  71
ATOM     71  C   UNL A   1      31.449  27.598  23.958  1.00  0.00     0.048 A 
ATOM     72  C   UNL A   1      31.112  28.973  22.818  1.00  0.00     0.014 A 
ATOM     73  C   UNL A   1      30.093  26.524  24.470  1.00  0.00     0.007 A 
ATOM     74  C   UNL A   1      29.428  29.274  22.216  1.00  0.00     0.001 A 
ATOM     75  C   UNL A   1      28.384  26.822  23.876  1.00  0.00     0.010 A 
ATOM     76  C   UNL A   1      28.066  28.216  22.771  1.00  0.00     0.001 A 
BRANCH  73  77
ATOM     77  C   UNL A   1      30.189  25.948  25.778  1.00  0.00     0.142 C 
ATOM     78  N   UNL A   1      30.755  24.801  25.881  1.00  0.00    -0.181 NA
BRANCH  78  79
ATOM     79  N   UNL A   1      31.071  24.142  24.714  1.00  0.00    -0.254 N 
ATOM     80  H   UNL A   1      30.534  24.433  23.941  1.00  0.00     0.193 HD
BRANCH  79  81
ATOM     81  C   UNL A   1      31.975  23.167  24.411  1.00  0.00     0.187 C 
ATOM     82  S   UNL A   1      33.412  23.222  25.299  1.00  0.00    -0.039 S 
BRANCH  81  83
ATOM     83  N   UNL A   1      31.886  22.138  23.437  1.00  0.00    -0.357 N 
ATOM     84  H   UNL A   1      31.486  22.589  22.658  1.00  0.00     0.163 HD
BRANCH  83  85
ATOM     85  C   UNL A   1      32.154  20.183  22.784  1.00  0.00     0.151 C 
BRANCH  85  86
ATOM     86  C   UNL A   1      32.457  18.693  23.467  1.00  0.00    -0.029 A 
ATOM     87  C   UNL A   1      33.114  17.705  22.699  1.00  0.00     0.005 A 
ATOM     88  C   UNL A   1      32.526  18.611  24.874  1.00  0.00     0.005 A 
ATOM     89  C   UNL A   1      33.839  16.691  23.324  1.00  0.00     0.000 A 
ATOM     90  C   UNL A   1      33.265  17.599  25.487  1.00  0.00     0.000 A 
ATOM     91  C   UNL A   1      33.933  16.652  24.713  1.00  0.00     0.000 A 
ENDBRANCH  85  86
ENDBRANCH  83  85
ENDBRANCH  81  83
ENDBRANCH  79  81
ENDBRANCH  78  79
ENDBRANCH  73  77
ENDBRANCH  68  71
ENDBRANCH  66  67
ENDBRANCH   1  66
TORSDOF 19
ENDMDL
MODEL 2
REMARK VINA RESULT:     -12.3      4.752      9.233
REMARK SMILES O=C(NCCCCCCNC(=O)c1ccccc1/C=N\NC(=S)NCc1ccccc1)c1ccc(-c2c3nc(c(-c4c(F)cccc4F)c4ccc([nH]4)c(-c4c(F)cccc4F)c4nc(c(-c5c(F)cccc5F)c5ccc2[nH]5)C=C4)C=C3)cc1
REMARK SMILES IDX 8 1 7 2 6 3 5 4 4 5 3 6 1 7 2 8 32 10 33 11 85 12 34 13
REMARK SMILES IDX 84 14 35 15 36 16 37 17 78 18 38 19 83 20 77 21 79 22 39 23
REMARK SMILES IDX 82 24 76 25 75 26 40 28 66 29 49 30 65 31 50 32 53 33 64 34
REMARK SMILES IDX 80 35 51 36 52 37 63 39 81 40 54 41 41 42 42 43 47 44 43 45
REMARK SMILES IDX 44 46 46 47 48 48 45 49 67 50 68 51 73 52 69 53 70 54 72 55
REMARK SMILES IDX 74 56 71 57 55 58 56 59 61 60 57 61 58 62 60 63 62 64 59 65
REMARK SMILES IDX 9 66 10 67 11 68 12 70 13 71 14 72 18 73 15 74 17 75 16 76
REMARK SMILES IDX 19 77 20 78 21 79 22 81 23 82 24 83 25 85 26 86 27 87 31 88
REMARK SMILES IDX 28 89 30 90 29 91
REMARK H PARENT 3 9 79 27 53 38 10 69 21 80 24 84
REMARK Flexibility Score: inf
ROOT
ATOM      1  C   UNL A   1      35.412  22.771  26.609  1.00  0.00     0.021 C 
ENDROOT
BRANCH   1   2
ATOM      2  C   UNL A   1      36.417  22.232  25.590  1.00  0.00     0.002 C 
BRANCH   2   3
ATOM      3  C   UNL A   1      36.126  20.824  25.052  1.00  0.00     0.002 C 
BRANCH   3   4
ATOM      4  C   UNL A   1      37.345  19.904  24.914  1.00  0.00     0.021 C 
BRANCH   4   5
ATOM      5  C   UNL A   1      38.616  20.447  25.552  1.00  0.00     0.116 C 
BRANCH   5   6
ATOM      6  N   UNL A   1      39.594  19.392  25.766  1.00  0.00    -0.352 N 
ATOM      7  O   UNL A   1      41.660  18.510  25.935  1.00  0.00    -0.269 OA
ATOM      8  C   UNL A   1      40.929  19.488  26.061  1.00  0.00     0.251 C 
ATOM      9  H   UNL A   1      39.246  18.475  25.686  1.00  0.00     0.163 HD
BRANCH   8  10
ATOM     10  C   UNL A   1      41.487  20.766  26.551  1.00  0.00     0.039 A 
ATOM     11  C   UNL A   1      41.957  21.722  25.648  1.00  0.00     0.014 A 
ATOM     12  C   UNL A   1      41.463  21.044  27.921  1.00  0.00     0.014 A 
ATOM     13  C   UNL A   1      42.484  22.919  26.116  1.00  0.00     0.010 A 
ATOM     14  C   UNL A   1      41.920  22.280  28.387  1.00  0.00     0.010 A 
ATOM     15  C   UNL A   1      42.431  23.226  27.485  1.00  0.00    -0.014 A 
BRANCH  15  16
ATOM     16  C   UNL A   1      42.777  24.599  27.925  1.00  0.00     0.031 A 
ATOM     17  C   UNL A   1      41.720  25.629  28.184  1.00  0.00     0.074 A 
ATOM     18  C   UNL A   1      44.082  24.898  28.086  1.00  0.00     0.049 A 
ATOM     19  N   UNL A   1      41.866  26.872  28.567  1.00  0.00    -0.248 NA
ATOM     20  C   UNL A   1      40.320  25.222  27.985  1.00  0.00     0.031 C 
ATOM     21  C   UNL A   1      45.193  23.973  27.834  1.00  0.00     0.029 A 
ATOM     22  N   UNL A   1      44.699  26.048  28.499  1.00  0.00    -0.354 N 
ATOM     23  C   UNL A   1      40.583  27.401  28.639  1.00  0.00     0.074 A 
ATOM     24  C   UNL A   1      39.670  26.349  28.246  1.00  0.00     0.031 C 
ATOM     25  C   UNL A   1      46.350  24.583  28.127  1.00  0.00     0.029 A 
ATOM     26  C   UNL A   1      46.069  25.958  28.521  1.00  0.00     0.049 A 
ATOM     27  H   UNL A   1      44.207  26.862  28.756  1.00  0.00     0.167 HD
ATOM     28  C   UNL A   1      40.214  28.652  29.003  1.00  0.00     0.037 A 
ATOM     29  C   UNL A   1      47.002  26.888  28.793  1.00  0.00     0.037 A 
ATOM     30  C   UNL A   1      41.135  29.684  29.406  1.00  0.00     0.049 A 
ATOM     31  C   UNL A   1      46.555  28.272  29.163  1.00  0.00     0.074 A 
ATOM     32  C   UNL A   1      40.851  30.961  29.861  1.00  0.00     0.029 A 
ATOM     33  N   UNL A   1      42.517  29.564  29.391  1.00  0.00    -0.354 N 
ATOM     34  N   UNL A   1      45.336  28.735  29.296  1.00  0.00    -0.248 NA
ATOM     35  C   UNL A   1      47.609  29.262  29.410  1.00  0.00     0.031 C 
ATOM     36  C   UNL A   1      42.060  31.631  30.067  1.00  0.00     0.029 A 
ATOM     37  C   UNL A   1      43.098  30.757  29.789  1.00  0.00     0.049 A 
ATOM     38  H   UNL A   1      43.011  28.752  29.136  1.00  0.00     0.167 HD
ATOM     39  C   UNL A   1      45.477  30.069  29.651  1.00  0.00     0.074 A 
ATOM     40  C   UNL A   1      46.898  30.330  29.745  1.00  0.00     0.031 C 
ATOM     41  C   UNL A   1      44.516  30.998  29.870  1.00  0.00     0.037 A 
BRANCH  28  42
ATOM     42  C   UNL A   1      38.754  28.997  28.972  1.00  0.00     0.057 A 
ATOM     43  C   UNL A   1      37.945  28.899  30.112  1.00  0.00     0.134 A 
ATOM     44  C   UNL A   1      38.176  29.531  27.813  1.00  0.00     0.134 A 
ATOM     45  F   UNL A   1      38.436  28.390  31.251  1.00  0.00    -0.206 F 
ATOM     46  C   UNL A   1      36.614  29.319  30.098  1.00  0.00     0.040 A 
ATOM     47  C   UNL A   1      36.853  29.973  27.793  1.00  0.00     0.040 A 
ATOM     48  F   UNL A   1      38.898  29.658  26.690  1.00  0.00    -0.206 F 
ATOM     49  C   UNL A   1      36.067  29.868  28.938  1.00  0.00     0.006 A 
ENDBRANCH  28  42
BRANCH  29  50
ATOM     50  C   UNL A   1      48.444  26.553  28.684  1.00  0.00     0.057 A 
ATOM     51  C   UNL A   1      49.180  26.133  29.798  1.00  0.00     0.134 A 
ATOM     52  C   UNL A   1      49.125  26.666  27.465  1.00  0.00     0.134 A 
ATOM     53  F   UNL A   1      48.588  26.021  30.996  1.00  0.00    -0.206 F 
ATOM     54  C   UNL A   1      50.547  25.861  29.709  1.00  0.00     0.040 A 
ATOM     55  C   UNL A   1      50.483  26.367  27.356  1.00  0.00     0.040 A 
ATOM     56  F   UNL A   1      48.476  27.055  26.359  1.00  0.00    -0.206 F 
ATOM     57  C   UNL A   1      51.200  25.974  28.483  1.00  0.00     0.006 A 
ENDBRANCH  29  50
BRANCH  41  58
ATOM     58  C   UNL A   1      44.979  32.376  30.240  1.00  0.00     0.057 A 
ATOM     59  C   UNL A   1      45.236  32.730  31.570  1.00  0.00     0.134 A 
ATOM     60  C   UNL A   1      45.190  33.349  29.256  1.00  0.00     0.134 A 
ATOM     61  F   UNL A   1      45.035  31.848  32.560  1.00  0.00    -0.206 F 
ATOM     62  C   UNL A   1      45.663  34.014  31.910  1.00  0.00     0.040 A 
ATOM     63  C   UNL A   1      45.644  34.627  29.582  1.00  0.00     0.040 A 
ATOM     64  F   UNL A   1      44.968  33.070  27.962  1.00  0.00    -0.206 F 
ATOM     65  C   UNL A   1      45.875  34.964  30.913  1.00  0.00     0.006 A 
ENDBRANCH  41  58
ENDBRANCH  15  16
ENDBRANCH   8  10
ENDBRANCH   5   6
ENDBRANCH   4   5
ENDBRANCH   3   4
ENDBRANCH   2   3
ENDBRANCH   1   2
BRANCH   1  66
ATOM     66  C   UNL A   1      34.369  23.733  26.037  1.00  0.00     0.116 C 
BRANCH  66  67
ATOM     67  N   UNL A   1      33.094  23.776  26.736  1.00  0.00    -0.352 N 
ATOM     68  C   UNL A   1      31.973  24.565  26.568  1.00  0.00     0.251 C 
ATOM     69  H   UNL A   1      33.016  23.120  27.466  1.00  0.00     0.163 HD
ATOM     70  O   UNL A   1      30.969  24.346  27.239  1.00  0.00    -0.269 OA
BRANCH  68  71
ATOM     71  C   UNL A   1      32.027  25.807  25.767  1.00  0.00     0.048 A 
ATOM     72  C   UNL A   1      33.074  27.099  26.500  1.00  0.00     0.014 A 
ATOM     73  C   UNL A   1      31.767  25.788  23.983  1.00  0.00     0.007 A 
ATOM     74  C   UNL A   1      33.835  28.368  25.451  1.00  0.00     0.001 A 
ATOM     75  C   UNL A   1      32.523  27.069  22.911  1.00  0.00     0.010 A 
ATOM     76  C   UNL A   1      33.533  28.365  23.665  1.00  0.00     0.001 A 
BRANCH  73  77
ATOM     77  C   UNL A   1      30.512  25.276  23.522  1.00  0.00     0.142 C 
ATOM     78  N   UNL A   1      30.394  24.002  23.414  1.00  0.00    -0.181 NA
BRANCH  78  79
ATOM     79  N   UNL A   1      31.530  23.243  23.587  1.00  0.00    -0.254 N 
ATOM     80  H   UNL A   1      31.884  23.270  24.506  1.00  0.00     0.193 HD
BRANCH  79  81
ATOM     81  C   UNL A   1      32.266  22.463  22.744  1.00  0.00     0.187 C 
ATOM     82  S   UNL A   1      33.467  23.278  21.879  1.00  0.00    -0.039 S 
BRANCH  81  83
ATOM     83  N   UNL A   1      32.139  21.075  22.474  1.00  0.00    -0.357 N 
ATOM     84  H   UNL A   1      31.850  21.046  21.533  1.00  0.00     0.163 HD
BRANCH  83  85
ATOM     85  C   UNL A   1      32.240  19.071  23.016  1.00  0.00     0.151 C 
BRANCH  85  86
ATOM     86  C   UNL A   1      33.003  18.152  24.177  1.00  0.00    -0.029 A 
ATOM     87  C   UNL A   1      32.222  17.426  25.105  1.00  0.00     0.005 A 
ATOM     88  C   UNL A   1      34.320  17.714  23.917  1.00  0.00     0.005 A 
ATOM     89  C   UNL A   1      32.735  16.286  25.723  1.00  0.00     0.000 A 
ATOM     90  C   UNL A   1      34.817  16.565  24.532  1.00  0.00     0.000 A 
ATOM     91  C   UNL A   1      34.020  15.845  25.419  1.00  0.00     0.000 A 
ENDBRANCH  85  86
ENDBRANCH  83  85
ENDBRANCH  81  83
ENDBRANCH  79  81
ENDBRANCH  78  79
ENDBRANCH  73  77
ENDBRANCH  68  71
ENDBRANCH  66  67
ENDBRANCH   1  66
TORSDOF 19
ENDMDL
MODEL 3
REMARK VINA RESULT:     -12.2      3.944      8.955
REMARK SMILES O=C(NCCCCCCNC(=O)c1ccccc1/C=N\NC(=S)NCc1ccccc1)c1ccc(-c2c3nc(c(-c4c(F)cccc4F)c4ccc([nH]4)c(-c4c(F)cccc4F)c4nc(c(-c5c(F)cccc5F)c5ccc2[nH]5)C=C4)C=C3)cc1
REMARK SMILES IDX 8 1 7 2 6 3 5 4 4 5 3 6 1 7 2 8 32 10 33 11 85 12 34 13
REMARK SMILES IDX 84 14 35 15 36 16 37 17 78 18 38 19 83 20 77 21 79 22 39 23
REMARK SMILES IDX 82 24 76 25 75 26 40 28 66 29 49 30 65 31 50 32 53 33 64 34
REMARK SMILES IDX 80 35 51 36 52 37 63 39 81 40 54 41 41 42 42 43 47 44 43 45
REMARK SMILES IDX 44 46 46 47 48 48 45 49 67 50 68 51 73 52 69 53 70 54 72 55
REMARK SMILES IDX 74 56 71 57 55 58 56 59 61 60 57 61 58 62 60 63 62 64 59 65
REMARK SMILES IDX 9 66 10 67 11 68 12 70 13 71 14 72 18 73 15 74 17 75 16 76
REMARK SMILES IDX 19 77 20 78 21 79 22 81 23 82 24 83 25 85 26 86 27 87 31 88
REMARK SMILES IDX 28 89 30 90 29 91
REMARK H PARENT 3 9 79 27 53 38 10 69 21 80 24 84
REMARK Flexibility Score: inf
ROOT
ATOM      1  C   UNL A   1      30.445  26.069  26.091  1.00  0.00     0.021 C 
ENDROOT
BRANCH   1   2
ATOM      2  C   UNL A   1      31.492  27.013  26.684  1.00  0.00     0.002 C 
BRANCH   2   3
ATOM      3  C   UNL A   1      31.705  28.329  25.924  1.00  0.00     0.002 C 
BRANCH   3   4
ATOM      4  C   UNL A   1      33.152  28.831  25.862  1.00  0.00     0.021 C 
BRANCH   4   5
ATOM      5  C   UNL A   1      33.854  28.887  27.212  1.00  0.00     0.116 C 
BRANCH   5   6
ATOM      6  N   UNL A   1      33.875  30.241  27.743  1.00  0.00    -0.352 N 
ATOM      7  O   UNL A   1      34.539  31.899  29.115  1.00  0.00    -0.269 OA
ATOM      8  C   UNL A   1      34.811  30.852  28.535  1.00  0.00     0.251 C 
ATOM      9  H   UNL A   1      33.102  30.799  27.499  1.00  0.00     0.163 HD
BRANCH   8  10
ATOM     10  C   UNL A   1      36.159  30.262  28.674  1.00  0.00     0.039 A 
ATOM     11  C   UNL A   1      37.064  30.313  27.612  1.00  0.00     0.014 A 
ATOM     12  C   UNL A   1      36.549  29.725  29.905  1.00  0.00     0.014 A 
ATOM     13  C   UNL A   1      38.327  29.752  27.748  1.00  0.00     0.010 A 
ATOM     14  C   UNL A   1      37.847  29.232  30.068  1.00  0.00     0.010 A 
ATOM     15  C   UNL A   1      38.744  29.245  28.989  1.00  0.00    -0.014 A 
BRANCH  15  16
ATOM     16  C   UNL A   1      40.168  28.875  29.170  1.00  0.00     0.031 A 
ATOM     17  C   UNL A   1      41.156  29.829  29.773  1.00  0.00     0.074 A 
ATOM     18  C   UNL A   1      40.555  27.647  28.772  1.00  0.00     0.049 A 
ATOM     19  N   UNL A   1      42.434  29.653  29.990  1.00  0.00    -0.248 NA
ATOM     20  C   UNL A   1      40.653  31.150  30.181  1.00  0.00     0.031 C 
ATOM     21  C   UNL A   1      39.677  26.651  28.148  1.00  0.00     0.029 A 
ATOM     22  N   UNL A   1      41.771  27.021  28.832  1.00  0.00    -0.354 N 
ATOM     23  C   UNL A   1      42.893  30.842  30.543  1.00  0.00     0.074 A 
ATOM     24  C   UNL A   1      41.760  31.739  30.616  1.00  0.00     0.031 C 
ATOM     25  C   UNL A   1      40.375  25.532  27.912  1.00  0.00     0.029 A 
ATOM     26  C   UNL A   1      41.762  25.753  28.304  1.00  0.00     0.049 A 
ATOM     27  H   UNL A   1      42.575  27.439  29.218  1.00  0.00     0.167 HD
ATOM     28  C   UNL A   1      44.149  31.145  30.951  1.00  0.00     0.037 A 
ATOM     29  C   UNL A   1      42.765  24.875  28.121  1.00  0.00     0.037 A 
ATOM     30  C   UNL A   1      45.263  30.234  30.886  1.00  0.00     0.049 A 
ATOM     31  C   UNL A   1      44.148  25.259  28.557  1.00  0.00     0.074 A 
ATOM     32  C   UNL A   1      46.558  30.426  31.340  1.00  0.00     0.029 A 
ATOM     33  N   UNL A   1      45.222  28.968  30.321  1.00  0.00    -0.354 N 
ATOM     34  N   UNL A   1      44.551  26.359  29.144  1.00  0.00    -0.248 NA
ATOM     35  C   UNL A   1      45.215  24.285  28.299  1.00  0.00     0.031 C 
ATOM     36  C   UNL A   1      47.312  29.300  31.000  1.00  0.00     0.029 A 
ATOM     37  C   UNL A   1      46.478  28.385  30.379  1.00  0.00     0.049 A 
ATOM     38  H   UNL A   1      44.420  28.547  29.937  1.00  0.00     0.167 HD
ATOM     39  C   UNL A   1      45.917  26.208  29.332  1.00  0.00     0.074 A 
ATOM     40  C   UNL A   1      46.266  24.895  28.828  1.00  0.00     0.031 C 
ATOM     41  C   UNL A   1      46.805  27.079  29.866  1.00  0.00     0.037 A 
BRANCH  28  42
ATOM     42  C   UNL A   1      44.405  32.520  31.492  1.00  0.00     0.057 A 
ATOM     43  C   UNL A   1      44.356  32.798  32.864  1.00  0.00     0.134 A 
ATOM     44  C   UNL A   1      44.808  33.555  30.638  1.00  0.00     0.134 A 
ATOM     45  F   UNL A   1      43.971  31.853  33.735  1.00  0.00    -0.206 F 
ATOM     46  C   UNL A   1      44.695  34.056  33.365  1.00  0.00     0.040 A 
ATOM     47  C   UNL A   1      45.169  34.810  31.129  1.00  0.00     0.040 A 
ATOM     48  F   UNL A   1      44.883  33.352  29.313  1.00  0.00    -0.206 F 
ATOM     49  C   UNL A   1      45.114  35.063  32.497  1.00  0.00     0.006 A 
ENDBRANCH  28  42
BRANCH  29  50
ATOM     50  C   UNL A   1      42.504  23.572  27.458  1.00  0.00     0.057 A 
ATOM     51  C   UNL A   1      42.159  22.436  28.198  1.00  0.00     0.134 A 
ATOM     52  C   UNL A   1      42.615  23.429  26.069  1.00  0.00     0.134 A 
ATOM     53  F   UNL A   1      42.052  22.505  29.533  1.00  0.00    -0.206 F 
ATOM     54  C   UNL A   1      41.958  21.198  27.583  1.00  0.00     0.040 A 
ATOM     55  C   UNL A   1      42.387  22.206  25.439  1.00  0.00     0.040 A 
ATOM     56  F   UNL A   1      42.935  24.482  25.303  1.00  0.00    -0.206 F 
ATOM     57  C   UNL A   1      42.068  21.084  26.199  1.00  0.00     0.006 A 
ENDBRANCH  29  50
BRANCH  41  58
ATOM     58  C   UNL A   1      48.235  26.631  29.935  1.00  0.00     0.057 A 
ATOM     59  C   UNL A   1      48.711  25.864  31.005  1.00  0.00     0.134 A 
ATOM     60  C   UNL A   1      49.137  26.953  28.913  1.00  0.00     0.134 A 
ATOM     61  F   UNL A   1      47.901  25.539  32.023  1.00  0.00    -0.206 F 
ATOM     62  C   UNL A   1      50.043  25.452  31.067  1.00  0.00     0.040 A 
ATOM     63  C   UNL A   1      50.463  26.522  28.951  1.00  0.00     0.040 A 
ATOM     64  F   UNL A   1      48.740  27.680  27.858  1.00  0.00    -0.206 F 
ATOM     65  C   UNL A   1      50.921  25.775  30.035  1.00  0.00     0.006 A 
ENDBRANCH  41  58
ENDBRANCH  15  16
ENDBRANCH   8  10
ENDBRANCH   5   6
ENDBRANCH   4   5
ENDBRANCH   3   4
ENDBRANCH   2   3
ENDBRANCH   1   2
BRANCH   1  66
ATOM     66  C   UNL A   1      30.870  24.602  26.017  1.00  0.00     0.116 C 
BRANCH  66  67
ATOM     67  N   UNL A   1      30.845  23.999  24.694  1.00  0.00    -0.352 N 
ATOM     68  C   UNL A   1      31.693  23.108  24.067  1.00  0.00     0.251 C 
ATOM     69  H   UNL A   1      30.081  24.282  24.141  1.00  0.00     0.163 HD
ATOM     70  O   UNL A   1      31.405  22.672  22.956  1.00  0.00    -0.269 OA
BRANCH  68  71
ATOM     71  C   UNL A   1      33.048  22.841  24.597  1.00  0.00     0.048 A 
ATOM     72  C   UNL A   1      33.385  21.078  24.878  1.00  0.00     0.014 A 
ATOM     73  C   UNL A   1      34.423  23.962  24.270  1.00  0.00     0.007 A 
ATOM     74  C   UNL A   1      35.088  20.454  24.848  1.00  0.00     0.001 A 
ATOM     75  C   UNL A   1      36.150  23.346  24.246  1.00  0.00     0.010 A 
ATOM     76  C   UNL A   1      36.465  21.595  24.562  1.00  0.00     0.001 A 
BRANCH  73  77
ATOM     77  C   UNL A   1      34.268  25.315  24.712  1.00  0.00     0.142 C 
ATOM     78  N   UNL A   1      33.769  26.158  23.883  1.00  0.00    -0.181 NA
BRANCH  78  79
ATOM     79  N   UNL A   1      33.581  25.735  22.586  1.00  0.00    -0.254 N 
ATOM     80  H   UNL A   1      34.248  25.075  22.287  1.00  0.00     0.193 HD
BRANCH  79  81
ATOM     81  C   UNL A   1      32.658  26.045  21.630  1.00  0.00     0.187 C 
ATOM     82  S   UNL A   1      32.715  25.085  20.241  1.00  0.00    -0.039 S 
BRANCH  81  83
ATOM     83  N   UNL A   1      31.684  27.078  21.633  1.00  0.00    -0.357 N 
ATOM     84  H   UNL A   1      31.727  27.441  20.718  1.00  0.00     0.163 HD
BRANCH  83  85
ATOM     85  C   UNL A   1      30.214  28.230  22.546  1.00  0.00     0.151 C 
BRANCH  85  86
ATOM     86  C   UNL A   1      29.690  29.811  22.499  1.00  0.00    -0.029 A 
ATOM     87  C   UNL A   1      28.960  30.262  21.376  1.00  0.00     0.005 A 
ATOM     88  C   UNL A   1      29.531  30.492  23.725  1.00  0.00     0.005 A 
ATOM     89  C   UNL A   1      28.080  31.338  21.491  1.00  0.00     0.000 A 
ATOM     90  C   UNL A   1      28.639  31.559  23.830  1.00  0.00     0.000 A 
ATOM     91  C   UNL A   1      27.904  31.969  22.720  1.00  0.00     0.000 A 
ENDBRANCH  85  86
ENDBRANCH  83  85
ENDBRANCH  81  83
ENDBRANCH  79  81
ENDBRANCH  78  79
ENDBRANCH  73  77
ENDBRANCH  68  71
ENDBRANCH  66  67
ENDBRANCH   1  66
TORSDOF 19
ENDMDL
