MODEL 1
REMARK VINA RESULT:     -12.1      0.000      0.000
REMARK SMILES Cc1cc2nc(C(F)(F)F)c(=O)n([C@H](C)C(=O)NCCCCCCNC(=O)c3ccc(-c4c5nc(c(-c6c(F)cccc6F)c6ccc([nH]6)c(-c6c(F)cccc6F)c6nc(c(-c7c(F)cccc7F)c7ccc4[nH]7)C=C6)C=C5)cc3)c2cc1C
REMARK SMILES IDX 21 1 20 2 19 3 18 4 16 5 17 6 14 8 15 9 13 10 1 11 2 12 3 13
REMARK SMILES IDX 84 14 4 15 83 16 85 17 5 18 82 19 6 20 11 21 12 22 7 23 8 24
REMARK SMILES IDX 9 25 10 26 22 27 23 28 24 29 25 30 26 31 27 33 28 34 29 35
REMARK SMILES IDX 81 36 30 37 80 38 31 39 32 40 33 41 74 42 34 43 79 44 73 45
REMARK SMILES IDX 75 46 35 47 78 48 72 49 71 50 36 52 62 53 45 54 61 55 46 56
REMARK SMILES IDX 49 57 60 58 76 59 47 60 48 61 59 63 77 64 50 65 37 66 38 67
REMARK SMILES IDX 43 68 39 69 40 70 42 71 44 72 41 73 63 74 64 75 69 76 65 77
REMARK SMILES IDX 66 78 68 79 70 80 67 81 51 82 52 83 57 84 53 85 54 86 56 87
REMARK SMILES IDX 58 88 55 89
REMARK H PARENT 18 7 25 32 75 51 49 62
REMARK Flexibility Score: inf
ROOT
ATOM      1  C   UNL A   1      34.987  24.459  25.399  1.00  0.00     0.002 C 
ENDROOT
BRANCH   1   2
ATOM      2  C   UNL A   1      33.779  24.040  26.240  1.00  0.00     0.021 C 
BRANCH   2   3
ATOM      3  C   UNL A   1      32.583  24.983  26.135  1.00  0.00     0.116 C 
BRANCH   3   4
ATOM      4  N   UNL A   1      31.811  24.726  24.938  1.00  0.00    -0.354 N 
ATOM      5  C   UNL A   1      31.731  25.422  23.771  1.00  0.00     0.242 C 
ATOM      6  O   UNL A   1      30.851  25.085  22.971  1.00  0.00    -0.273 OA
ATOM      7  H   UNL A   1      31.253  23.915  24.974  1.00  0.00     0.163 HD
BRANCH   5   8
ATOM      8  C   UNL A   1      32.648  26.629  23.460  1.00  0.00     0.177 C 
ATOM      9  C   UNL A   1      33.284  26.430  22.080  1.00  0.00     0.042 C 
BRANCH   8  10
ATOM     10  N   UNL A   1      31.968  27.916  23.759  1.00  0.00    -0.293 N 
ATOM     11  C   UNL A   1      33.831  31.422  27.957  1.00  0.00     0.044 C 
ATOM     12  C   UNL A   1      33.381  30.453  26.899  1.00  0.00    -0.046 A 
ATOM     13  C   UNL A   1      32.172  30.702  26.234  1.00  0.00     0.034 A 
ATOM     14  C   UNL A   1      34.096  29.289  26.581  1.00  0.00    -0.046 A 
ATOM     15  C   UNL A   1      31.704  29.862  25.220  1.00  0.00     0.088 A 
ATOM     16  C   UNL A   1      33.615  28.439  25.567  1.00  0.00     0.032 A 
ATOM     17  C   UNL A   1      35.397  28.948  27.258  1.00  0.00     0.044 C 
ATOM     18  N   UNL A   1      30.490  30.210  24.620  1.00  0.00    -0.236 NA
ATOM     19  C   UNL A   1      32.433  28.718  24.861  1.00  0.00     0.071 A 
ATOM     20  C   UNL A   1      30.089  29.521  23.590  1.00  0.00     0.210 A 
ATOM     21  C   UNL A   1      30.896  28.391  22.998  1.00  0.00     0.282 A 
ATOM     22  O   UNL A   1      30.547  27.945  21.914  1.00  0.00    -0.267 OA
BRANCH  20  23
ATOM     23  C   UNL A   1      28.780  29.822  22.907  1.00  0.00     0.438 C 
ATOM     24  F   UNL A   1      28.082  30.795  23.569  1.00  0.00    -0.164 F 
ATOM     25  F   UNL A   1      28.958  30.291  21.641  1.00  0.00    -0.164 F 
ATOM     26  F   UNL A   1      27.915  28.776  22.820  1.00  0.00    -0.164 F 
ENDBRANCH  20  23
ENDBRANCH   8  10
ENDBRANCH   5   8
ENDBRANCH   3   4
ENDBRANCH   2   3
ENDBRANCH   1   2
BRANCH   1  27
ATOM     27  C   UNL A   1      35.203  23.648  24.116  1.00  0.00     0.002 C 
BRANCH  27  28
ATOM     28  C   UNL A   1      35.857  22.281  24.314  1.00  0.00     0.021 C 
BRANCH  28  29
ATOM     29  C   UNL A   1      36.491  22.069  25.682  1.00  0.00     0.116 C 
BRANCH  29  30
ATOM     30  N   UNL A   1      37.495  21.016  25.677  1.00  0.00    -0.352 N 
ATOM     31  C   UNL A   1      38.837  21.081  25.966  1.00  0.00     0.251 C 
ATOM     32  H   UNL A   1      37.162  20.123  25.431  1.00  0.00     0.163 HD
ATOM     33  O   UNL A   1      39.560  20.114  25.745  1.00  0.00    -0.269 OA
BRANCH  31  34
ATOM     34  C   UNL A   1      39.415  22.326  26.517  1.00  0.00     0.039 A 
ATOM     35  C   UNL A   1      38.963  23.573  26.087  1.00  0.00     0.014 A 
ATOM     36  C   UNL A   1      40.431  22.244  27.476  1.00  0.00     0.014 A 
ATOM     37  C   UNL A   1      39.644  24.722  26.471  1.00  0.00     0.010 A 
ATOM     38  C   UNL A   1      41.042  23.412  27.945  1.00  0.00     0.010 A 
ATOM     39  C   UNL A   1      40.686  24.660  27.410  1.00  0.00    -0.014 A 
BRANCH  39  40
ATOM     40  C   UNL A   1      41.363  25.921  27.814  1.00  0.00     0.031 A 
ATOM     41  C   UNL A   1      42.756  26.243  27.343  1.00  0.00     0.074 A 
ATOM     42  C   UNL A   1      40.676  26.821  28.546  1.00  0.00     0.049 A 
ATOM     43  N   UNL A   1      43.447  27.344  27.515  1.00  0.00    -0.248 NA
ATOM     44  C   UNL A   1      43.473  25.203  26.589  1.00  0.00     0.031 C 
ATOM     45  C   UNL A   1      39.323  26.617  29.069  1.00  0.00     0.029 A 
ATOM     46  N   UNL A   1      40.994  28.096  28.941  1.00  0.00    -0.354 N 
ATOM     47  C   UNL A   1      44.672  27.127  26.898  1.00  0.00     0.074 A 
ATOM     48  C   UNL A   1      44.653  25.774  26.387  1.00  0.00     0.031 C 
ATOM     49  C   UNL A   1      38.898  27.752  29.642  1.00  0.00     0.029 A 
ATOM     50  C   UNL A   1      39.969  28.741  29.591  1.00  0.00     0.049 A 
ATOM     51  H   UNL A   1      41.872  28.510  28.774  1.00  0.00     0.167 HD
ATOM     52  C   UNL A   1      45.710  27.985  26.752  1.00  0.00     0.037 A 
ATOM     53  C   UNL A   1      39.893  29.988  30.091  1.00  0.00     0.037 A 
ATOM     54  C   UNL A   1      45.715  29.338  27.243  1.00  0.00     0.049 A 
ATOM     55  C   UNL A   1      41.075  30.904  29.954  1.00  0.00     0.074 A 
ATOM     56  C   UNL A   1      46.710  30.293  27.115  1.00  0.00     0.029 A 
ATOM     57  N   UNL A   1      44.682  29.929  27.954  1.00  0.00    -0.354 N 
ATOM     58  N   UNL A   1      42.210  30.695  29.333  1.00  0.00    -0.248 NA
ATOM     59  C   UNL A   1      40.974  32.224  30.594  1.00  0.00     0.031 C 
ATOM     60  C   UNL A   1      46.301  31.442  27.795  1.00  0.00     0.029 A 
ATOM     61  C   UNL A   1      45.029  31.224  28.299  1.00  0.00     0.049 A 
ATOM     62  H   UNL A   1      43.830  29.491  28.181  1.00  0.00     0.167 HD
ATOM     63  C   UNL A   1      42.951  31.858  29.492  1.00  0.00     0.074 A 
ATOM     64  C   UNL A   1      42.131  32.776  30.255  1.00  0.00     0.031 C 
ATOM     65  C   UNL A   1      44.200  32.134  29.048  1.00  0.00     0.037 A 
BRANCH  52  66
ATOM     66  C   UNL A   1      46.931  27.501  26.025  1.00  0.00     0.057 A 
ATOM     67  C   UNL A   1      47.979  26.855  26.693  1.00  0.00     0.134 A 
ATOM     68  C   UNL A   1      47.020  27.601  24.630  1.00  0.00     0.134 A 
ATOM     69  F   UNL A   1      47.958  26.731  28.029  1.00  0.00    -0.206 F 
ATOM     70  C   UNL A   1      49.078  26.338  26.003  1.00  0.00     0.040 A 
ATOM     71  C   UNL A   1      48.101  27.064  23.926  1.00  0.00     0.040 A 
ATOM     72  F   UNL A   1      46.047  28.196  23.925  1.00  0.00    -0.206 F 
ATOM     73  C   UNL A   1      49.135  26.433  24.615  1.00  0.00     0.006 A 
ENDBRANCH  52  66
BRANCH  53  74
ATOM     74  C   UNL A   1      38.641  30.440  30.751  1.00  0.00     0.057 A 
ATOM     75  C   UNL A   1      38.455  30.287  32.129  1.00  0.00     0.134 A 
ATOM     76  C   UNL A   1      37.618  31.067  30.028  1.00  0.00     0.134 A 
ATOM     77  F   UNL A   1      39.391  29.681  32.875  1.00  0.00    -0.206 F 
ATOM     78  C   UNL A   1      37.297  30.739  32.765  1.00  0.00     0.040 A 
ATOM     79  C   UNL A   1      36.469  31.548  30.655  1.00  0.00     0.040 A 
ATOM     80  F   UNL A   1      37.739  31.251  28.705  1.00  0.00    -0.206 F 
ATOM     81  C   UNL A   1      36.304  31.381  32.028  1.00  0.00     0.006 A 
ENDBRANCH  53  74
BRANCH  65  82
ATOM     82  C   UNL A   1      44.772  33.486  29.354  1.00  0.00     0.057 A 
ATOM     83  C   UNL A   1      44.518  34.591  28.533  1.00  0.00     0.134 A 
ATOM     84  C   UNL A   1      45.480  33.707  30.542  1.00  0.00     0.134 A 
ATOM     85  F   UNL A   1      43.854  34.441  27.377  1.00  0.00    -0.206 F 
ATOM     86  C   UNL A   1      44.942  35.872  28.887  1.00  0.00     0.040 A 
ATOM     87  C   UNL A   1      45.887  34.988  30.919  1.00  0.00     0.040 A 
ATOM     88  F   UNL A   1      45.746  32.691  31.377  1.00  0.00    -0.206 F 
ATOM     89  C   UNL A   1      45.616  36.075  30.091  1.00  0.00     0.006 A 
ENDBRANCH  65  82
ENDBRANCH  39  40
ENDBRANCH  31  34
ENDBRANCH  29  30
ENDBRANCH  28  29
ENDBRANCH  27  28
ENDBRANCH   1  27
TORSDOF 15
ENDMDL
MODEL 2
REMARK VINA RESULT:     -12.0      4.376      9.430
REMARK SMILES Cc1cc2nc(C(F)(F)F)c(=O)n([C@H](C)C(=O)NCCCCCCNC(=O)c3ccc(-c4c5nc(c(-c6c(F)cccc6F)c6ccc([nH]6)c(-c6c(F)cccc6F)c6nc(c(-c7c(F)cccc7F)c7ccc4[nH]7)C=C6)C=C5)cc3)c2cc1C
REMARK SMILES IDX 21 1 20 2 19 3 18 4 16 5 17 6 14 8 15 9 13 10 1 11 2 12 3 13
REMARK SMILES IDX 84 14 4 15 83 16 85 17 5 18 82 19 6 20 11 21 12 22 7 23 8 24
REMARK SMILES IDX 9 25 10 26 22 27 23 28 24 29 25 30 26 31 27 33 28 34 29 35
REMARK SMILES IDX 81 36 30 37 80 38 31 39 32 40 33 41 74 42 34 43 79 44 73 45
REMARK SMILES IDX 75 46 35 47 78 48 72 49 71 50 36 52 62 53 45 54 61 55 46 56
REMARK SMILES IDX 49 57 60 58 76 59 47 60 48 61 59 63 77 64 50 65 37 66 38 67
REMARK SMILES IDX 43 68 39 69 40 70 42 71 44 72 41 73 63 74 64 75 69 76 65 77
REMARK SMILES IDX 66 78 68 79 70 80 67 81 51 82 52 83 57 84 53 85 54 86 56 87
REMARK SMILES IDX 58 88 55 89
REMARK H PARENT 18 7 25 32 75 51 49 62
REMARK Flexibility Score: inf
ROOT
ATOM      1  C   UNL A   1      33.053  27.791  24.607  1.00  0.00     0.002 C 
ENDROOT
BRANCH   1   2
ATOM      2  C   UNL A   1      33.365  26.365  25.067  1.00  0.00     0.021 C 
BRANCH   2   3
ATOM      3  C   UNL A   1      34.025  25.492  24.003  1.00  0.00     0.116 C 
BRANCH   3   4
ATOM      4  N   UNL A   1      33.074  24.582  23.402  1.00  0.00    -0.354 N 
ATOM      5  C   UNL A   1      32.601  23.383  23.839  1.00  0.00     0.242 C 
ATOM      6  O   UNL A   1      31.930  22.717  23.043  1.00  0.00    -0.273 OA
ATOM      7  H   UNL A   1      32.711  24.879  22.536  1.00  0.00     0.163 HD
BRANCH   5   8
ATOM      8  C   UNL A   1      32.927  22.824  25.244  1.00  0.00     0.177 C 
ATOM      9  C   UNL A   1      31.649  22.823  26.090  1.00  0.00     0.042 C 
BRANCH   8  10
ATOM     10  N   UNL A   1      33.732  21.576  25.156  1.00  0.00    -0.293 N 
ATOM     11  C   UNL A   1      39.463  21.614  25.886  1.00  0.00     0.044 C 
ATOM     12  C   UNL A   1      37.975  21.677  25.679  1.00  0.00    -0.046 A 
ATOM     13  C   UNL A   1      37.310  20.520  25.248  1.00  0.00     0.034 A 
ATOM     14  C   UNL A   1      37.233  22.853  25.855  1.00  0.00    -0.046 A 
ATOM     15  C   UNL A   1      35.925  20.496  25.061  1.00  0.00     0.088 A 
ATOM     16  C   UNL A   1      35.839  22.827  25.655  1.00  0.00     0.032 A 
ATOM     17  C   UNL A   1      37.877  24.137  26.308  1.00  0.00     0.044 C 
ATOM     18  N   UNL A   1      35.366  19.287  24.636  1.00  0.00    -0.236 NA
ATOM     19  C   UNL A   1      35.164  21.654  25.279  1.00  0.00     0.071 A 
ATOM     20  C   UNL A   1      34.068  19.193  24.574  1.00  0.00     0.210 A 
ATOM     21  C   UNL A   1      33.148  20.320  24.975  1.00  0.00     0.282 A 
ATOM     22  O   UNL A   1      31.955  20.073  25.086  1.00  0.00    -0.267 OA
BRANCH  20  23
ATOM     23  C   UNL A   1      33.395  17.930  24.101  1.00  0.00     0.438 C 
ATOM     24  F   UNL A   1      34.296  17.053  23.565  1.00  0.00    -0.164 F 
ATOM     25  F   UNL A   1      32.789  17.261  25.120  1.00  0.00    -0.164 F 
ATOM     26  F   UNL A   1      32.457  18.099  23.130  1.00  0.00    -0.164 F 
ENDBRANCH  20  23
ENDBRANCH   8  10
ENDBRANCH   5   8
ENDBRANCH   3   4
ENDBRANCH   2   3
ENDBRANCH   1   2
BRANCH   1  27
ATOM     27  C   UNL A   1      31.706  28.350  25.077  1.00  0.00     0.002 C 
BRANCH  27  28
ATOM     28  C   UNL A   1      31.659  29.867  25.262  1.00  0.00     0.021 C 
BRANCH  28  29
ATOM     29  C   UNL A   1      32.102  30.356  26.635  1.00  0.00     0.116 C 
BRANCH  29  30
ATOM     30  N   UNL A   1      31.992  31.800  26.777  1.00  0.00    -0.352 N 
ATOM     31  C   UNL A   1      32.824  32.684  27.421  1.00  0.00     0.251 C 
ATOM     32  H   UNL A   1      31.205  32.203  26.345  1.00  0.00     0.163 HD
ATOM     33  O   UNL A   1      32.478  33.851  27.576  1.00  0.00    -0.269 OA
BRANCH  31  34
ATOM     34  C   UNL A   1      34.125  32.222  27.952  1.00  0.00     0.039 A 
ATOM     35  C   UNL A   1      34.300  30.900  28.360  1.00  0.00     0.014 A 
ATOM     36  C   UNL A   1      35.187  33.128  28.050  1.00  0.00     0.014 A 
ATOM     37  C   UNL A   1      35.461  30.534  29.029  1.00  0.00     0.010 A 
ATOM     38  C   UNL A   1      36.396  32.726  28.625  1.00  0.00     0.010 A 
ATOM     39  C   UNL A   1      36.528  31.437  29.165  1.00  0.00    -0.014 A 
BRANCH  39  40
ATOM     40  C   UNL A   1      37.764  30.988  29.861  1.00  0.00     0.031 A 
ATOM     41  C   UNL A   1      38.022  31.349  31.300  1.00  0.00     0.074 A 
ATOM     42  C   UNL A   1      38.618  30.175  29.208  1.00  0.00     0.049 A 
ATOM     43  N   UNL A   1      38.994  30.950  32.083  1.00  0.00    -0.248 NA
ATOM     44  C   UNL A   1      37.080  32.277  31.944  1.00  0.00     0.031 C 
ATOM     45  C   UNL A   1      38.478  29.764  27.808  1.00  0.00     0.029 A 
ATOM     46  N   UNL A   1      39.742  29.515  29.635  1.00  0.00    -0.354 N 
ATOM     47  C   UNL A   1      38.782  31.579  33.304  1.00  0.00     0.074 A 
ATOM     48  C   UNL A   1      37.619  32.423  33.147  1.00  0.00     0.031 C 
ATOM     49  C   UNL A   1      39.427  28.863  27.519  1.00  0.00     0.029 A 
ATOM     50  C   UNL A   1      40.283  28.682  28.686  1.00  0.00     0.049 A 
ATOM     51  H   UNL A   1      40.123  29.626  30.536  1.00  0.00     0.167 HD
ATOM     52  C   UNL A   1      39.482  31.447  34.456  1.00  0.00     0.037 A 
ATOM     53  C   UNL A   1      41.350  27.861  28.741  1.00  0.00     0.037 A 
ATOM     54  C   UNL A   1      40.627  30.588  34.613  1.00  0.00     0.049 A 
ATOM     55  C   UNL A   1      42.135  27.768  30.018  1.00  0.00     0.074 A 
ATOM     56  C   UNL A   1      41.383  30.366  35.752  1.00  0.00     0.029 A 
ATOM     57  N   UNL A   1      41.182  29.813  33.606  1.00  0.00    -0.354 N 
ATOM     58  N   UNL A   1      41.897  28.340  31.173  1.00  0.00    -0.248 NA
ATOM     59  C   UNL A   1      43.340  26.927  30.000  1.00  0.00     0.031 C 
ATOM     60  C   UNL A   1      42.426  29.498  35.421  1.00  0.00     0.029 A 
ATOM     61  C   UNL A   1      42.288  29.136  34.091  1.00  0.00     0.049 A 
ATOM     62  H   UNL A   1      40.841  29.754  32.685  1.00  0.00     0.167 HD
ATOM     63  C   UNL A   1      42.909  27.917  32.023  1.00  0.00     0.074 A 
ATOM     64  C   UNL A   1      43.756  27.028  31.256  1.00  0.00     0.031 C 
ATOM     65  C   UNL A   1      43.117  28.243  33.321  1.00  0.00     0.037 A 
BRANCH  52  66
ATOM     66  C   UNL A   1      39.034  32.239  35.650  1.00  0.00     0.057 A 
ATOM     67  C   UNL A   1      38.223  31.678  36.644  1.00  0.00     0.134 A 
ATOM     68  C   UNL A   1      39.491  33.548  35.854  1.00  0.00     0.134 A 
ATOM     69  F   UNL A   1      37.746  30.431  36.508  1.00  0.00    -0.206 F 
ATOM     70  C   UNL A   1      37.871  32.393  37.791  1.00  0.00     0.040 A 
ATOM     71  C   UNL A   1      39.167  34.264  37.008  1.00  0.00     0.040 A 
ATOM     72  F   UNL A   1      40.280  34.143  34.947  1.00  0.00    -0.206 F 
ATOM     73  C   UNL A   1      38.353  33.686  37.979  1.00  0.00     0.006 A 
ENDBRANCH  52  66
BRANCH  53  74
ATOM     74  C   UNL A   1      41.718  27.055  27.550  1.00  0.00     0.057 A 
ATOM     75  C   UNL A   1      41.234  25.753  27.380  1.00  0.00     0.134 A 
ATOM     76  C   UNL A   1      42.532  27.577  26.536  1.00  0.00     0.134 A 
ATOM     77  F   UNL A   1      40.463  25.191  28.322  1.00  0.00    -0.206 F 
ATOM     78  C   UNL A   1      41.547  25.000  26.248  1.00  0.00     0.040 A 
ATOM     79  C   UNL A   1      42.830  26.845  25.387  1.00  0.00     0.040 A 
ATOM     80  F   UNL A   1      43.023  28.822  26.636  1.00  0.00    -0.206 F 
ATOM     81  C   UNL A   1      42.339  25.550  25.241  1.00  0.00     0.006 A 
ENDBRANCH  53  74
BRANCH  65  82
ATOM     82  C   UNL A   1      44.296  27.634  34.018  1.00  0.00     0.057 A 
ATOM     83  C   UNL A   1      45.520  28.307  34.112  1.00  0.00     0.134 A 
ATOM     84  C   UNL A   1      44.168  26.419  34.704  1.00  0.00     0.134 A 
ATOM     85  F   UNL A   1      45.707  29.469  33.468  1.00  0.00    -0.206 F 
ATOM     86  C   UNL A   1      46.575  27.797  34.870  1.00  0.00     0.040 A 
ATOM     87  C   UNL A   1      45.207  25.911  35.486  1.00  0.00     0.040 A 
ATOM     88  F   UNL A   1      43.017  25.731  34.663  1.00  0.00    -0.206 F 
ATOM     89  C   UNL A   1      46.414  26.603  35.572  1.00  0.00     0.006 A 
ENDBRANCH  65  82
ENDBRANCH  39  40
ENDBRANCH  31  34
ENDBRANCH  29  30
ENDBRANCH  28  29
ENDBRANCH  27  28
ENDBRANCH   1  27
TORSDOF 15
ENDMDL
MODEL 3
REMARK VINA RESULT:     -12.0      4.115      7.456
REMARK SMILES Cc1cc2nc(C(F)(F)F)c(=O)n([C@H](C)C(=O)NCCCCCCNC(=O)c3ccc(-c4c5nc(c(-c6c(F)cccc6F)c6ccc([nH]6)c(-c6c(F)cccc6F)c6nc(c(-c7c(F)cccc7F)c7ccc4[nH]7)C=C6)C=C5)cc3)c2cc1C
REMARK SMILES IDX 21 1 20 2 19 3 18 4 16 5 17 6 14 8 15 9 13 10 1 11 2 12 3 13
REMARK SMILES IDX 84 14 4 15 83 16 85 17 5 18 82 19 6 20 11 21 12 22 7 23 8 24
REMARK SMILES IDX 9 25 10 26 22 27 23 28 24 29 25 30 26 31 27 33 28 34 29 35
REMARK SMILES IDX 81 36 30 37 80 38 31 39 32 40 33 41 74 42 34 43 79 44 73 45
REMARK SMILES IDX 75 46 35 47 78 48 72 49 71 50 36 52 62 53 45 54 61 55 46 56
REMARK SMILES IDX 49 57 60 58 76 59 47 60 48 61 59 63 77 64 50 65 37 66 38 67
REMARK SMILES IDX 43 68 39 69 40 70 42 71 44 72 41 73 63 74 64 75 69 76 65 77
REMARK SMILES IDX 66 78 68 79 70 80 67 81 51 82 52 83 57 84 53 85 54 86 56 87
REMARK SMILES IDX 58 88 55 89
REMARK H PARENT 18 7 25 32 75 51 49 62
REMARK Flexibility Score: inf
ROOT
ATOM      1  C   UNL A   1      34.692  24.270  24.795  1.00  0.00     0.002 C 
ENDROOT
BRANCH   1   2
ATOM      2  C   UNL A   1      33.365  23.662  25.256  1.00  0.00     0.021 C 
BRANCH   2   3
ATOM      3  C   UNL A   1      32.411  24.658  25.908  1.00  0.00     0.116 C 
BRANCH   3   4
ATOM      4  N   UNL A   1      31.162  24.747  25.182  1.00  0.00    -0.354 N 
ATOM      5  C   UNL A   1      30.770  25.604  24.199  1.00  0.00     0.242 C 
ATOM      6  O   UNL A   1      29.578  25.582  23.873  1.00  0.00    -0.273 OA
ATOM      7  H   UNL A   1      30.486  24.079  25.441  1.00  0.00     0.163 HD
BRANCH   5   8
ATOM      8  C   UNL A   1      31.740  26.616  23.545  1.00  0.00     0.177 C 
ATOM      9  C   UNL A   1      32.038  26.167  22.111  1.00  0.00     0.042 C 
BRANCH   8  10
ATOM     10  N   UNL A   1      31.300  28.017  23.783  1.00  0.00    -0.293 N 
ATOM     11  C   UNL A   1      33.840  31.354  27.758  1.00  0.00     0.044 C 
ATOM     12  C   UNL A   1      33.204  30.425  26.761  1.00  0.00    -0.046 A 
ATOM     13  C   UNL A   1      32.042  30.848  26.099  1.00  0.00     0.034 A 
ATOM     14  C   UNL A   1      33.698  29.140  26.497  1.00  0.00    -0.046 A 
ATOM     15  C   UNL A   1      31.412  30.051  25.139  1.00  0.00     0.088 A 
ATOM     16  C   UNL A   1      33.054  28.336  25.537  1.00  0.00     0.032 A 
ATOM     17  C   UNL A   1      34.936  28.612  27.174  1.00  0.00     0.044 C 
ATOM     18  N   UNL A   1      30.264  30.574  24.537  1.00  0.00    -0.236 NA
ATOM     19  C   UNL A   1      31.923  28.780  24.833  1.00  0.00     0.071 A 
ATOM     20  C   UNL A   1      29.726  29.914  23.552  1.00  0.00     0.210 A 
ATOM     21  C   UNL A   1      30.311  28.632  23.012  1.00  0.00     0.282 A 
ATOM     22  O   UNL A   1      29.865  28.198  21.959  1.00  0.00    -0.267 OA
BRANCH  20  23
ATOM     23  C   UNL A   1      28.474  30.404  22.871  1.00  0.00     0.438 C 
ATOM     24  F   UNL A   1      27.938  31.480  23.523  1.00  0.00    -0.164 F 
ATOM     25  F   UNL A   1      28.713  30.825  21.599  1.00  0.00    -0.164 F 
ATOM     26  F   UNL A   1      27.458  29.501  22.801  1.00  0.00    -0.164 F 
ENDBRANCH  20  23
ENDBRANCH   8  10
ENDBRANCH   5   8
ENDBRANCH   3   4
ENDBRANCH   2   3
ENDBRANCH   1   2
BRANCH   1  27
ATOM     27  C   UNL A   1      35.837  23.269  24.604  1.00  0.00     0.002 C 
BRANCH  27  28
ATOM     28  C   UNL A   1      36.744  23.079  25.820  1.00  0.00     0.021 C 
BRANCH  28  29
ATOM     29  C   UNL A   1      37.681  24.245  26.106  1.00  0.00     0.116 C 
BRANCH  29  30
ATOM     30  N   UNL A   1      39.084  23.878  25.990  1.00  0.00    -0.352 N 
ATOM     31  C   UNL A   1      40.199  24.504  26.494  1.00  0.00     0.251 C 
ATOM     32  H   UNL A   1      39.260  23.058  25.476  1.00  0.00     0.163 HD
ATOM     33  O   UNL A   1      41.318  24.135  26.150  1.00  0.00    -0.269 OA
BRANCH  31  34
ATOM     34  C   UNL A   1      40.051  25.641  27.428  1.00  0.00     0.039 A 
ATOM     35  C   UNL A   1      40.640  26.874  27.148  1.00  0.00     0.014 A 
ATOM     36  C   UNL A   1      39.315  25.471  28.605  1.00  0.00     0.014 A 
ATOM     37  C   UNL A   1      40.651  27.868  28.119  1.00  0.00     0.010 A 
ATOM     38  C   UNL A   1      39.235  26.514  29.534  1.00  0.00     0.010 A 
ATOM     39  C   UNL A   1      39.943  27.706  29.322  1.00  0.00    -0.014 A 
BRANCH  39  40
ATOM     40  C   UNL A   1      39.959  28.812  30.317  1.00  0.00     0.031 A 
ATOM     41  C   UNL A   1      38.950  29.928  30.257  1.00  0.00     0.074 A 
ATOM     42  C   UNL A   1      40.843  28.758  31.333  1.00  0.00     0.049 A 
ATOM     43  N   UNL A   1      38.760  30.907  31.107  1.00  0.00    -0.248 NA
ATOM     44  C   UNL A   1      38.044  29.959  29.099  1.00  0.00     0.031 C 
ATOM     45  C   UNL A   1      41.875  27.730  31.492  1.00  0.00     0.029 A 
ATOM     46  N   UNL A   1      40.993  29.550  32.443  1.00  0.00    -0.354 N 
ATOM     47  C   UNL A   1      37.720  31.668  30.586  1.00  0.00     0.074 A 
ATOM     48  C   UNL A   1      37.351  31.068  29.323  1.00  0.00     0.031 C 
ATOM     49  C   UNL A   1      42.494  27.907  32.668  1.00  0.00     0.029 A 
ATOM     50  C   UNL A   1      41.953  29.097  33.315  1.00  0.00     0.049 A 
ATOM     51  H   UNL A   1      40.462  30.365  32.600  1.00  0.00     0.167 HD
ATOM     52  C   UNL A   1      37.116  32.754  31.122  1.00  0.00     0.037 A 
ATOM     53  C   UNL A   1      42.359  29.581  34.504  1.00  0.00     0.037 A 
ATOM     54  C   UNL A   1      37.473  33.335  32.390  1.00  0.00     0.049 A 
ATOM     55  C   UNL A   1      41.701  30.813  35.055  1.00  0.00     0.074 A 
ATOM     56  C   UNL A   1      36.896  34.419  33.030  1.00  0.00     0.029 A 
ATOM     57  N   UNL A   1      38.497  32.884  33.209  1.00  0.00    -0.354 N 
ATOM     58  N   UNL A   1      40.694  31.495  34.567  1.00  0.00    -0.248 NA
ATOM     59  C   UNL A   1      42.240  31.351  36.312  1.00  0.00     0.031 C 
ATOM     60  C   UNL A   1      37.605  34.657  34.210  1.00  0.00     0.029 A 
ATOM     61  C   UNL A   1      38.588  33.688  34.333  1.00  0.00     0.049 A 
ATOM     62  H   UNL A   1      39.074  32.109  33.019  1.00  0.00     0.167 HD
ATOM     63  C   UNL A   1      40.467  32.531  35.464  1.00  0.00     0.074 A 
ATOM     64  C   UNL A   1      41.431  32.379  36.533  1.00  0.00     0.031 C 
ATOM     65  C   UNL A   1      39.544  33.520  35.398  1.00  0.00     0.037 A 
BRANCH  52  66
ATOM     66  C   UNL A   1      35.996  33.392  30.353  1.00  0.00     0.057 A 
ATOM     67  C   UNL A   1      34.670  33.341  30.803  1.00  0.00     0.134 A 
ATOM     68  C   UNL A   1      36.256  34.141  29.197  1.00  0.00     0.134 A 
ATOM     69  F   UNL A   1      34.351  32.636  31.899  1.00  0.00    -0.206 F 
ATOM     70  C   UNL A   1      33.642  34.000  30.126  1.00  0.00     0.040 A 
ATOM     71  C   UNL A   1      35.241  34.826  28.526  1.00  0.00     0.040 A 
ATOM     72  F   UNL A   1      37.504  34.242  28.717  1.00  0.00    -0.206 F 
ATOM     73  C   UNL A   1      33.929  34.754  28.989  1.00  0.00     0.006 A 
ENDBRANCH  52  66
BRANCH  53  74
ATOM     74  C   UNL A   1      43.432  28.880  35.254  1.00  0.00     0.057 A 
ATOM     75  C   UNL A   1      44.781  29.191  35.047  1.00  0.00     0.134 A 
ATOM     76  C   UNL A   1      43.136  27.910  36.222  1.00  0.00     0.134 A 
ATOM     77  F   UNL A   1      45.131  30.099  34.125  1.00  0.00    -0.206 F 
ATOM     78  C   UNL A   1      45.795  28.563  35.772  1.00  0.00     0.040 A 
ATOM     79  C   UNL A   1      44.138  27.296  36.972  1.00  0.00     0.040 A 
ATOM     80  F   UNL A   1      41.862  27.572  36.473  1.00  0.00    -0.206 F 
ATOM     81  C   UNL A   1      45.473  27.619  36.746  1.00  0.00     0.006 A 
ENDBRANCH  53  74
BRANCH  65  82
ATOM     82  C   UNL A   1      39.506  34.520  36.515  1.00  0.00     0.057 A 
ATOM     83  C   UNL A   1      38.835  34.252  37.714  1.00  0.00     0.134 A 
ATOM     84  C   UNL A   1      40.247  35.706  36.434  1.00  0.00     0.134 A 
ATOM     85  F   UNL A   1      38.100  33.138  37.849  1.00  0.00    -0.206 F 
ATOM     86  C   UNL A   1      38.908  35.127  38.799  1.00  0.00     0.040 A 
ATOM     87  C   UNL A   1      40.348  36.576  37.521  1.00  0.00     0.040 A 
ATOM     88  F   UNL A   1      40.920  36.014  35.316  1.00  0.00    -0.206 F 
ATOM     89  C   UNL A   1      39.679  36.286  38.708  1.00  0.00     0.006 A 
ENDBRANCH  65  82
ENDBRANCH  39  40
ENDBRANCH  31  34
ENDBRANCH  29  30
ENDBRANCH  28  29
ENDBRANCH  27  28
ENDBRANCH   1  27
TORSDOF 15
ENDMDL
