MODEL 1
REMARK VINA RESULT:     -11.9      0.000      0.000
REMARK SMILES O=C(NCCCCCCNC(=O)c1cncnc1N1CC[C@H]2[NH2+]CCC[C@]2(CO)C1)c1ccc(-c2c3nc(c(-c4c(F)cccc4F)c4ccc([nH]4)c(-c4c(F)cccc4F)c4nc(c(-c5c(F)cccc5F)c5ccc2[nH]5)C=C4)C=C3)cc1
REMARK SMILES IDX 7 1 6 2 5 3 4 4 3 5 1 6 2 7 31 9 32 10 84 11 33 12 83 13
REMARK SMILES IDX 34 14 35 15 36 16 77 17 37 18 82 19 76 20 78 21 38 22 81 23
REMARK SMILES IDX 75 24 74 25 39 27 65 28 48 29 64 30 49 31 52 32 63 33 79 34
REMARK SMILES IDX 50 35 51 36 62 38 80 39 53 40 40 41 41 42 46 43 42 44 43 45
REMARK SMILES IDX 45 46 47 47 44 48 66 49 67 50 72 51 68 52 69 53 71 54 73 55
REMARK SMILES IDX 70 56 54 57 55 58 60 59 56 60 57 61 59 62 61 63 58 64 8 65
REMARK SMILES IDX 9 66 10 67 11 68 12 70 13 71 14 72 18 73 15 74 17 75 16 76
REMARK SMILES IDX 19 77 20 78 30 79 21 80 27 81 22 82 26 83 23 84 25 85 24 86
REMARK SMILES IDX 28 89 29 90
REMARK H PARENT 3 8 78 26 52 37 10 69 23 87 23 88 29 91
REMARK Flexibility Score: inf
ROOT
ATOM      1  C   UNL A   1      32.480  29.877  26.193  1.00  0.00     0.002 C 
ENDROOT
BRANCH   1   2
ATOM      2  C   UNL A   1      31.368  30.823  25.731  1.00  0.00     0.002 C 
BRANCH   2   3
ATOM      3  C   UNL A   1      31.235  32.127  26.517  1.00  0.00     0.021 C 
BRANCH   3   4
ATOM      4  C   UNL A   1      32.534  32.669  27.098  1.00  0.00     0.116 C 
BRANCH   4   5
ATOM      5  N   UNL A   1      32.410  34.034  27.582  1.00  0.00    -0.352 N 
ATOM      6  O   UNL A   1      32.792  35.792  28.941  1.00  0.00    -0.269 OA
ATOM      7  C   UNL A   1      33.129  34.680  28.559  1.00  0.00     0.251 C 
ATOM      8  H   UNL A   1      31.708  34.572  27.148  1.00  0.00     0.163 HD
BRANCH   7   9
ATOM      9  C   UNL A   1      34.305  34.014  29.166  1.00  0.00     0.039 A 
ATOM     10  C   UNL A   1      35.602  34.396  28.818  1.00  0.00     0.014 A 
ATOM     11  C   UNL A   1      34.101  33.000  30.106  1.00  0.00     0.014 A 
ATOM     12  C   UNL A   1      36.688  33.676  29.304  1.00  0.00     0.010 A 
ATOM     13  C   UNL A   1      35.198  32.332  30.660  1.00  0.00     0.010 A 
ATOM     14  C   UNL A   1      36.500  32.647  30.242  1.00  0.00    -0.014 A 
BRANCH  14  15
ATOM     15  C   UNL A   1      37.687  31.968  30.821  1.00  0.00     0.031 A 
ATOM     16  C   UNL A   1      38.170  32.287  32.208  1.00  0.00     0.074 A 
ATOM     17  C   UNL A   1      38.312  31.029  30.085  1.00  0.00     0.049 A 
ATOM     18  N   UNL A   1      39.177  31.769  32.867  1.00  0.00    -0.248 NA
ATOM     19  C   UNL A   1      37.435  33.320  32.952  1.00  0.00     0.031 C 
ATOM     20  C   UNL A   1      37.941  30.644  28.721  1.00  0.00     0.029 A 
ATOM     21  N   UNL A   1      39.376  30.216  30.382  1.00  0.00    -0.354 N 
ATOM     22  C   UNL A   1      39.203  32.416  34.096  1.00  0.00     0.074 A 
ATOM     23  C   UNL A   1      38.129  33.387  34.081  1.00  0.00     0.031 C 
ATOM     24  C   UNL A   1      38.734  29.642  28.316  1.00  0.00     0.029 A 
ATOM     25  C   UNL A   1      39.705  29.354  29.364  1.00  0.00     0.049 A 
ATOM     26  H   UNL A   1      39.856  30.247  31.240  1.00  0.00     0.167 HD
ATOM     27  C   UNL A   1      40.039  32.211  35.142  1.00  0.00     0.037 A 
ATOM     28  C   UNL A   1      40.691  28.444  29.276  1.00  0.00     0.037 A 
ATOM     29  C   UNL A   1      41.104  31.240  35.153  1.00  0.00     0.049 A 
ATOM     30  C   UNL A   1      41.622  28.261  30.438  1.00  0.00     0.074 A 
ATOM     31  C   UNL A   1      41.996  30.947  36.172  1.00  0.00     0.029 A 
ATOM     32  N   UNL A   1      41.425  30.404  34.093  1.00  0.00    -0.354 N 
ATOM     33  N   UNL A   1      41.615  28.863  31.602  1.00  0.00    -0.248 NA
ATOM     34  C   UNL A   1      42.698  27.276  30.273  1.00  0.00     0.031 C 
ATOM     35  C   UNL A   1      42.879  29.963  35.714  1.00  0.00     0.029 A 
ATOM     36  C   UNL A   1      42.510  29.609  34.426  1.00  0.00     0.049 A 
ATOM     37  H   UNL A   1      40.951  30.381  33.230  1.00  0.00     0.167 HD
ATOM     38  C   UNL A   1      42.674  28.319  32.315  1.00  0.00     0.074 A 
ATOM     39  C   UNL A   1      43.286  27.322  31.459  1.00  0.00     0.031 C 
ATOM     40  C   UNL A   1      43.104  28.621  33.564  1.00  0.00     0.037 A 
BRANCH  27  41
ATOM     41  C   UNL A   1      39.843  33.058  36.367  1.00  0.00     0.057 A 
ATOM     42  C   UNL A   1      40.547  34.255  36.555  1.00  0.00     0.134 A 
ATOM     43  C   UNL A   1      38.903  32.702  37.342  1.00  0.00     0.134 A 
ATOM     44  F   UNL A   1      41.469  34.649  35.664  1.00  0.00    -0.206 F 
ATOM     45  C   UNL A   1      40.336  35.057  37.679  1.00  0.00     0.040 A 
ATOM     46  C   UNL A   1      38.667  33.507  38.459  1.00  0.00     0.040 A 
ATOM     47  F   UNL A   1      38.189  31.574  37.220  1.00  0.00    -0.206 F 
ATOM     48  C   UNL A   1      39.388  34.687  38.631  1.00  0.00     0.006 A 
ENDBRANCH  27  41
BRANCH  28  49
ATOM     49  C   UNL A   1      40.850  27.644  28.036  1.00  0.00     0.057 A 
ATOM     50  C   UNL A   1      40.218  26.405  27.886  1.00  0.00     0.134 A 
ATOM     51  C   UNL A   1      41.636  28.102  26.971  1.00  0.00     0.134 A 
ATOM     52  F   UNL A   1      39.465  25.907  28.878  1.00  0.00    -0.206 F 
ATOM     53  C   UNL A   1      40.374  25.641  26.729  1.00  0.00     0.040 A 
ATOM     54  C   UNL A   1      41.779  27.361  25.798  1.00  0.00     0.040 A 
ATOM     55  F   UNL A   1      42.261  29.286  27.050  1.00  0.00    -0.206 F 
ATOM     56  C   UNL A   1      41.152  26.123  25.677  1.00  0.00     0.006 A 
ENDBRANCH  28  49
BRANCH  40  57
ATOM     57  C   UNL A   1      44.276  27.842  34.084  1.00  0.00     0.057 A 
ATOM     58  C   UNL A   1      45.591  28.302  33.939  1.00  0.00     0.134 A 
ATOM     59  C   UNL A   1      44.084  26.625  34.748  1.00  0.00     0.134 A 
ATOM     60  F   UNL A   1      45.842  29.453  33.297  1.00  0.00    -0.206 F 
ATOM     61  C   UNL A   1      46.676  27.564  34.415  1.00  0.00     0.040 A 
ATOM     62  C   UNL A   1      45.160  25.891  35.249  1.00  0.00     0.040 A 
ATOM     63  F   UNL A   1      42.849  26.132  34.924  1.00  0.00    -0.206 F 
ATOM     64  C   UNL A   1      46.461  26.357  35.077  1.00  0.00     0.006 A 
ENDBRANCH  40  57
ENDBRANCH  14  15
ENDBRANCH   7   9
ENDBRANCH   4   5
ENDBRANCH   3   4
ENDBRANCH   2   3
ENDBRANCH   1   2
BRANCH   1  65
ATOM     65  C   UNL A   1      32.076  28.819  27.226  1.00  0.00     0.021 C 
BRANCH  65  66
ATOM     66  C   UNL A   1      32.438  27.382  26.864  1.00  0.00     0.116 C 
BRANCH  66  67
ATOM     67  N   UNL A   1      31.312  26.473  27.006  1.00  0.00    -0.352 N 
ATOM     68  C   UNL A   1      30.487  25.956  26.035  1.00  0.00     0.256 C 
ATOM     69  H   UNL A   1      31.113  26.187  27.926  1.00  0.00     0.163 HD
ATOM     70  O   UNL A   1      29.569  25.205  26.348  1.00  0.00    -0.269 OA
BRANCH  68  71
ATOM     71  C   UNL A   1      30.744  26.273  24.629  1.00  0.00     0.100 A 
ATOM     72  C   UNL A   1      30.074  27.359  24.090  1.00  0.00     0.130 A 
ATOM     73  C   UNL A   1      31.681  25.646  23.821  1.00  0.00     0.144 A 
ATOM     74  N   UNL A   1      30.218  27.782  22.822  1.00  0.00    -0.244 NA
ATOM     75  N   UNL A   1      31.846  26.062  22.541  1.00  0.00    -0.219 NA
ATOM     76  C   UNL A   1      31.109  27.094  22.103  1.00  0.00     0.224 A 
BRANCH  73  77
ATOM     77  N   UNL A   1      32.544  24.629  24.206  1.00  0.00    -0.355 N 
ATOM     78  C   UNL A   1      33.985  24.826  24.299  1.00  0.00     0.124 C 
ATOM     79  C   UNL A   1      32.062  23.304  23.780  1.00  0.00     0.133 C 
ATOM     80  C   UNL A   1      34.611  23.746  25.188  1.00  0.00     0.087 C 
ATOM     81  C   UNL A   1      32.667  22.181  24.649  1.00  0.00     0.063 C 
ATOM     82  C   UNL A   1      34.208  22.355  24.681  1.00  0.00     0.194 C 
ATOM     83  C   UNL A   1      32.368  20.813  23.985  1.00  0.00     0.023 C 
ATOM     84  N   UNL A   1      34.846  21.288  25.471  1.00  0.00    -0.343 N 
ATOM     85  C   UNL A   1      33.099  19.674  24.697  1.00  0.00     0.062 C 
ATOM     86  C   UNL A   1      34.589  19.972  24.872  1.00  0.00     0.260 C 
ATOM     87  H   UNL A   1      34.471  21.303  26.419  1.00  0.00     0.346 HD
ATOM     88  H   UNL A   1      35.853  21.449  25.486  1.00  0.00     0.346 HD
BRANCH  81  89
ATOM     89  C   UNL A   1      32.040  22.250  26.067  1.00  0.00     0.171 C 
BRANCH  89  90
ATOM     90  O   UNL A   1      30.676  21.825  26.046  1.00  0.00    -0.395 OA
ATOM     91  H   UNL A   1      30.097  22.601  26.008  1.00  0.00     0.210 HD
ENDBRANCH  89  90
ENDBRANCH  81  89
ENDBRANCH  73  77
ENDBRANCH  68  71
ENDBRANCH  66  67
ENDBRANCH  65  66
ENDBRANCH   1  65
TORSDOF 16
ENDMDL
MODEL 2
REMARK VINA RESULT:     -11.7      4.089      9.244
REMARK SMILES O=C(NCCCCCCNC(=O)c1cncnc1N1CC[C@H]2[NH2+]CCC[C@]2(CO)C1)c1ccc(-c2c3nc(c(-c4c(F)cccc4F)c4ccc([nH]4)c(-c4c(F)cccc4F)c4nc(c(-c5c(F)cccc5F)c5ccc2[nH]5)C=C4)C=C3)cc1
REMARK SMILES IDX 7 1 6 2 5 3 4 4 3 5 1 6 2 7 31 9 32 10 84 11 33 12 83 13
REMARK SMILES IDX 34 14 35 15 36 16 77 17 37 18 82 19 76 20 78 21 38 22 81 23
REMARK SMILES IDX 75 24 74 25 39 27 65 28 48 29 64 30 49 31 52 32 63 33 79 34
REMARK SMILES IDX 50 35 51 36 62 38 80 39 53 40 40 41 41 42 46 43 42 44 43 45
REMARK SMILES IDX 45 46 47 47 44 48 66 49 67 50 72 51 68 52 69 53 71 54 73 55
REMARK SMILES IDX 70 56 54 57 55 58 60 59 56 60 57 61 59 62 61 63 58 64 8 65
REMARK SMILES IDX 9 66 10 67 11 68 12 70 13 71 14 72 18 73 15 74 17 75 16 76
REMARK SMILES IDX 19 77 20 78 30 79 21 80 27 81 22 82 26 83 23 84 25 85 24 86
REMARK SMILES IDX 28 89 29 90
REMARK H PARENT 3 8 78 26 52 37 10 69 23 87 23 88 29 91
REMARK Flexibility Score: inf
ROOT
ATOM      1  C   UNL A   1      37.122  21.929  24.176  1.00  0.00     0.002 C 
ENDROOT
BRANCH   1   2
ATOM      2  C   UNL A   1      36.884  20.581  24.862  1.00  0.00     0.002 C 
BRANCH   2   3
ATOM      3  C   UNL A   1      38.080  19.631  24.893  1.00  0.00     0.021 C 
BRANCH   3   4
ATOM      4  C   UNL A   1      39.103  19.911  25.986  1.00  0.00     0.116 C 
BRANCH   4   5
ATOM      5  N   UNL A   1      40.335  19.161  25.811  1.00  0.00    -0.352 N 
ATOM      6  O   UNL A   1      42.562  18.849  25.639  1.00  0.00    -0.269 OA
ATOM      7  C   UNL A   1      41.637  19.576  25.971  1.00  0.00     0.251 C 
ATOM      8  H   UNL A   1      40.221  18.223  25.537  1.00  0.00     0.163 HD
BRANCH   7   9
ATOM      9  C   UNL A   1      41.915  20.920  26.528  1.00  0.00     0.039 A 
ATOM     10  C   UNL A   1      42.196  21.999  25.686  1.00  0.00     0.014 A 
ATOM     11  C   UNL A   1      41.883  21.102  27.913  1.00  0.00     0.014 A 
ATOM     12  C   UNL A   1      42.576  23.220  26.232  1.00  0.00     0.010 A 
ATOM     13  C   UNL A   1      42.183  22.354  28.458  1.00  0.00     0.010 A 
ATOM     14  C   UNL A   1      42.559  23.416  27.623  1.00  0.00    -0.014 A 
BRANCH  14  15
ATOM     15  C   UNL A   1      42.869  24.762  28.168  1.00  0.00     0.031 A 
ATOM     16  C   UNL A   1      44.279  25.163  28.503  1.00  0.00     0.074 A 
ATOM     17  C   UNL A   1      41.859  25.639  28.332  1.00  0.00     0.049 A 
ATOM     18  N   UNL A   1      44.720  26.305  28.968  1.00  0.00    -0.248 NA
ATOM     19  C   UNL A   1      45.329  24.155  28.295  1.00  0.00     0.031 C 
ATOM     20  C   UNL A   1      40.449  25.357  28.053  1.00  0.00     0.029 A 
ATOM     21  N   UNL A   1      41.861  26.943  28.753  1.00  0.00    -0.354 N 
ATOM     22  C   UNL A   1      46.093  26.153  29.115  1.00  0.00     0.074 A 
ATOM     23  C   UNL A   1      46.409  24.796  28.720  1.00  0.00     0.031 C 
ATOM     24  C   UNL A   1      39.728  26.467  28.268  1.00  0.00     0.029 A 
ATOM     25  C   UNL A   1      40.613  27.518  28.756  1.00  0.00     0.049 A 
ATOM     26  H   UNL A   1      42.677  27.421  29.026  1.00  0.00     0.167 HD
ATOM     27  C   UNL A   1      47.005  27.064  29.533  1.00  0.00     0.037 A 
ATOM     28  C   UNL A   1      40.220  28.749  29.127  1.00  0.00     0.037 A 
ATOM     29  C   UNL A   1      46.685  28.415  29.922  1.00  0.00     0.049 A 
ATOM     30  C   UNL A   1      41.248  29.727  29.616  1.00  0.00     0.074 A 
ATOM     31  C   UNL A   1      47.542  29.418  30.345  1.00  0.00     0.029 A 
ATOM     32  N   UNL A   1      45.405  28.952  29.939  1.00  0.00    -0.354 N 
ATOM     33  N   UNL A   1      42.545  29.574  29.724  1.00  0.00    -0.248 NA
ATOM     34  C   UNL A   1      40.757  31.045  30.037  1.00  0.00     0.031 C 
ATOM     35  C   UNL A   1      46.776  30.548  30.654  1.00  0.00     0.029 A 
ATOM     36  C   UNL A   1      45.448  30.264  30.381  1.00  0.00     0.049 A 
ATOM     37  H   UNL A   1      44.588  28.470  29.676  1.00  0.00     0.167 HD
ATOM     38  C   UNL A   1      43.028  30.781  30.210  1.00  0.00     0.074 A 
ATOM     39  C   UNL A   1      41.887  31.662  30.353  1.00  0.00     0.031 C 
ATOM     40  C   UNL A   1      44.302  31.127  30.515  1.00  0.00     0.037 A 
BRANCH  27  41
ATOM     41  C   UNL A   1      48.441  26.631  29.599  1.00  0.00     0.057 A 
ATOM     42  C   UNL A   1      49.326  26.844  28.533  1.00  0.00     0.134 A 
ATOM     43  C   UNL A   1      48.960  26.044  30.760  1.00  0.00     0.134 A 
ATOM     44  F   UNL A   1      48.892  27.393  27.390  1.00  0.00    -0.206 F 
ATOM     45  C   UNL A   1      50.669  26.471  28.614  1.00  0.00     0.040 A 
ATOM     46  C   UNL A   1      50.306  25.687  30.862  1.00  0.00     0.040 A 
ATOM     47  F   UNL A   1      48.170  25.819  31.821  1.00  0.00    -0.206 F 
ATOM     48  C   UNL A   1      51.165  25.897  29.783  1.00  0.00     0.006 A 
ENDBRANCH  27  41
BRANCH  28  49
ATOM     49  C   UNL A   1      38.785  29.120  29.056  1.00  0.00     0.057 A 
ATOM     50  C   UNL A   1      37.958  29.037  30.182  1.00  0.00     0.134 A 
ATOM     51  C   UNL A   1      38.208  29.567  27.861  1.00  0.00     0.134 A 
ATOM     52  F   UNL A   1      38.450  28.600  31.350  1.00  0.00    -0.206 F 
ATOM     53  C   UNL A   1      36.604  29.371  30.119  1.00  0.00     0.040 A 
ATOM     54  C   UNL A   1      36.863  29.930  27.791  1.00  0.00     0.040 A 
ATOM     55  F   UNL A   1      38.951  29.676  26.750  1.00  0.00    -0.206 F 
ATOM     56  C   UNL A   1      36.055  29.825  28.920  1.00  0.00     0.006 A 
ENDBRANCH  28  49
BRANCH  40  57
ATOM     57  C   UNL A   1      44.525  32.527  31.005  1.00  0.00     0.057 A 
ATOM     58  C   UNL A   1      44.765  33.588  30.124  1.00  0.00     0.134 A 
ATOM     59  C   UNL A   1      44.485  32.817  32.374  1.00  0.00     0.134 A 
ATOM     60  F   UNL A   1      44.832  33.372  28.801  1.00  0.00    -0.206 F 
ATOM     61  C   UNL A   1      44.983  34.886  30.589  1.00  0.00     0.040 A 
ATOM     62  C   UNL A   1      44.678  34.115  32.850  1.00  0.00     0.040 A 
ATOM     63  F   UNL A   1      44.254  31.846  33.270  1.00  0.00    -0.206 F 
ATOM     64  C   UNL A   1      44.934  35.153  31.956  1.00  0.00     0.006 A 
ENDBRANCH  40  57
ENDBRANCH  14  15
ENDBRANCH   7   9
ENDBRANCH   4   5
ENDBRANCH   3   4
ENDBRANCH   2   3
ENDBRANCH   1   2
BRANCH   1  65
ATOM     65  C   UNL A   1      36.931  23.172  25.052  1.00  0.00     0.021 C 
BRANCH  65  66
ATOM     66  C   UNL A   1      35.529  23.775  25.034  1.00  0.00     0.116 C 
BRANCH  66  67
ATOM     67  N   UNL A   1      35.010  23.933  23.685  1.00  0.00    -0.352 N 
ATOM     68  C   UNL A   1      33.760  23.636  23.196  1.00  0.00     0.256 C 
ATOM     69  H   UNL A   1      35.643  24.306  23.030  1.00  0.00     0.163 HD
ATOM     70  O   UNL A   1      33.503  23.827  22.012  1.00  0.00    -0.269 OA
BRANCH  68  71
ATOM     71  C   UNL A   1      32.731  23.136  24.110  1.00  0.00     0.100 A 
ATOM     72  C   UNL A   1      32.720  21.776  24.373  1.00  0.00     0.130 A 
ATOM     73  C   UNL A   1      31.833  23.922  24.818  1.00  0.00     0.144 A 
ATOM     74  N   UNL A   1      31.849  21.173  25.200  1.00  0.00    -0.244 NA
ATOM     75  N   UNL A   1      30.950  23.333  25.662  1.00  0.00    -0.219 NA
ATOM     76  C   UNL A   1      30.993  22.000  25.807  1.00  0.00     0.224 A 
BRANCH  73  77
ATOM     77  N   UNL A   1      31.766  25.307  24.799  1.00  0.00    -0.355 N 
ATOM     78  C   UNL A   1      32.273  26.126  25.892  1.00  0.00     0.124 C 
ATOM     79  C   UNL A   1      30.577  25.794  24.077  1.00  0.00     0.133 C 
ATOM     80  C   UNL A   1      32.520  27.560  25.411  1.00  0.00     0.087 C 
ATOM     81  C   UNL A   1      30.779  27.238  23.571  1.00  0.00     0.063 C 
ATOM     82  C   UNL A   1      31.248  28.118  24.759  1.00  0.00     0.194 C 
ATOM     83  C   UNL A   1      29.418  27.799  23.088  1.00  0.00     0.023 C 
ATOM     84  N   UNL A   1      31.426  29.520  24.344  1.00  0.00    -0.343 N 
ATOM     85  C   UNL A   1      29.514  29.286  22.748  1.00  0.00     0.062 C 
ATOM     86  C   UNL A   1      30.155  30.091  23.880  1.00  0.00     0.260 C 
ATOM     87  H   UNL A   1      32.107  29.561  23.586  1.00  0.00     0.346 HD
ATOM     88  H   UNL A   1      31.754  30.060  25.145  1.00  0.00     0.346 HD
BRANCH  81  89
ATOM     89  C   UNL A   1      31.810  27.225  22.410  1.00  0.00     0.171 C 
BRANCH  89  90
ATOM     90  O   UNL A   1      31.237  26.673  21.223  1.00  0.00    -0.395 OA
ATOM     91  H   UNL A   1      31.912  26.632  20.529  1.00  0.00     0.210 HD
ENDBRANCH  89  90
ENDBRANCH  81  89
ENDBRANCH  73  77
ENDBRANCH  68  71
ENDBRANCH  66  67
ENDBRANCH  65  66
ENDBRANCH   1  65
TORSDOF 16
ENDMDL
MODEL 3
REMARK VINA RESULT:     -11.7      4.110      9.311
REMARK SMILES O=C(NCCCCCCNC(=O)c1cncnc1N1CC[C@H]2[NH2+]CCC[C@]2(CO)C1)c1ccc(-c2c3nc(c(-c4c(F)cccc4F)c4ccc([nH]4)c(-c4c(F)cccc4F)c4nc(c(-c5c(F)cccc5F)c5ccc2[nH]5)C=C4)C=C3)cc1
REMARK SMILES IDX 7 1 6 2 5 3 4 4 3 5 1 6 2 7 31 9 32 10 84 11 33 12 83 13
REMARK SMILES IDX 34 14 35 15 36 16 77 17 37 18 82 19 76 20 78 21 38 22 81 23
REMARK SMILES IDX 75 24 74 25 39 27 65 28 48 29 64 30 49 31 52 32 63 33 79 34
REMARK SMILES IDX 50 35 51 36 62 38 80 39 53 40 40 41 41 42 46 43 42 44 43 45
REMARK SMILES IDX 45 46 47 47 44 48 66 49 67 50 72 51 68 52 69 53 71 54 73 55
REMARK SMILES IDX 70 56 54 57 55 58 60 59 56 60 57 61 59 62 61 63 58 64 8 65
REMARK SMILES IDX 9 66 10 67 11 68 12 70 13 71 14 72 18 73 15 74 17 75 16 76
REMARK SMILES IDX 19 77 20 78 30 79 21 80 27 81 22 82 26 83 23 84 25 85 24 86
REMARK SMILES IDX 28 89 29 90
REMARK H PARENT 3 8 78 26 52 37 10 69 23 87 23 88 29 91
REMARK Flexibility Score: inf
ROOT
ATOM      1  C   UNL A   1      36.997  21.997  24.350  1.00  0.00     0.002 C 
ENDROOT
BRANCH   1   2
ATOM      2  C   UNL A   1      36.787  20.553  24.815  1.00  0.00     0.002 C 
BRANCH   2   3
ATOM      3  C   UNL A   1      38.034  19.670  24.825  1.00  0.00     0.021 C 
BRANCH   3   4
ATOM      4  C   UNL A   1      39.022  19.955  25.948  1.00  0.00     0.116 C 
BRANCH   4   5
ATOM      5  N   UNL A   1      40.245  19.179  25.834  1.00  0.00    -0.352 N 
ATOM      6  O   UNL A   1      42.470  18.822  25.754  1.00  0.00    -0.269 OA
ATOM      7  C   UNL A   1      41.547  19.573  26.037  1.00  0.00     0.251 C 
ATOM      8  H   UNL A   1      40.124  18.238  25.574  1.00  0.00     0.163 HD
BRANCH   7   9
ATOM      9  C   UNL A   1      41.831  20.922  26.578  1.00  0.00     0.039 A 
ATOM     10  C   UNL A   1      42.090  21.996  25.724  1.00  0.00     0.014 A 
ATOM     11  C   UNL A   1      41.825  21.114  27.963  1.00  0.00     0.014 A 
ATOM     12  C   UNL A   1      42.476  23.223  26.254  1.00  0.00     0.010 A 
ATOM     13  C   UNL A   1      42.129  22.370  28.493  1.00  0.00     0.010 A 
ATOM     14  C   UNL A   1      42.484  23.429  27.643  1.00  0.00    -0.014 A 
BRANCH  14  15
ATOM     15  C   UNL A   1      42.799  24.779  28.174  1.00  0.00     0.031 A 
ATOM     16  C   UNL A   1      44.211  25.184  28.492  1.00  0.00     0.074 A 
ATOM     17  C   UNL A   1      41.790  25.657  28.338  1.00  0.00     0.049 A 
ATOM     18  N   UNL A   1      44.656  26.330  28.942  1.00  0.00    -0.248 NA
ATOM     19  C   UNL A   1      45.259  24.174  28.284  1.00  0.00     0.031 C 
ATOM     20  C   UNL A   1      40.377  25.373  28.074  1.00  0.00     0.029 A 
ATOM     21  N   UNL A   1      41.795  26.965  28.746  1.00  0.00    -0.354 N 
ATOM     22  C   UNL A   1      46.030  26.180  29.079  1.00  0.00     0.074 A 
ATOM     23  C   UNL A   1      46.344  24.820  28.694  1.00  0.00     0.031 C 
ATOM     24  C   UNL A   1      39.658  26.485  28.285  1.00  0.00     0.029 A 
ATOM     25  C   UNL A   1      40.547  27.540  28.755  1.00  0.00     0.049 A 
ATOM     26  H   UNL A   1      42.613  27.446  29.008  1.00  0.00     0.167 HD
ATOM     27  C   UNL A   1      46.945  27.095  29.479  1.00  0.00     0.037 A 
ATOM     28  C   UNL A   1      40.157  28.775  29.118  1.00  0.00     0.037 A 
ATOM     29  C   UNL A   1      46.628  28.449  29.859  1.00  0.00     0.049 A 
ATOM     30  C   UNL A   1      41.189  29.757  29.588  1.00  0.00     0.074 A 
ATOM     31  C   UNL A   1      47.489  29.457  30.265  1.00  0.00     0.029 A 
ATOM     32  N   UNL A   1      45.349  28.986  29.882  1.00  0.00    -0.354 N 
ATOM     33  N   UNL A   1      42.487  29.606  29.686  1.00  0.00    -0.248 NA
ATOM     34  C   UNL A   1      40.701  31.080  30.001  1.00  0.00     0.031 C 
ATOM     35  C   UNL A   1      46.725  30.589  30.570  1.00  0.00     0.029 A 
ATOM     36  C   UNL A   1      45.395  30.303  30.311  1.00  0.00     0.049 A 
ATOM     37  H   UNL A   1      44.529  28.502  29.631  1.00  0.00     0.167 HD
ATOM     38  C   UNL A   1      42.974  30.817  30.157  1.00  0.00     0.074 A 
ATOM     39  C   UNL A   1      41.833  31.699  30.301  1.00  0.00     0.031 C 
ATOM     40  C   UNL A   1      44.251  31.167  30.447  1.00  0.00     0.037 A 
BRANCH  27  41
ATOM     41  C   UNL A   1      48.383  26.664  29.537  1.00  0.00     0.057 A 
ATOM     42  C   UNL A   1      48.924  26.056  30.678  1.00  0.00     0.134 A 
ATOM     43  C   UNL A   1      49.220  26.809  28.424  1.00  0.00     0.134 A 
ATOM     44  F   UNL A   1      48.180  25.895  31.781  1.00  0.00    -0.206 F 
ATOM     45  C   UNL A   1      50.252  25.625  30.714  1.00  0.00     0.040 A 
ATOM     46  C   UNL A   1      50.543  26.362  28.440  1.00  0.00     0.040 A 
ATOM     47  F   UNL A   1      48.763  27.376  27.297  1.00  0.00    -0.206 F 
ATOM     48  C   UNL A   1      51.064  25.771  29.591  1.00  0.00     0.006 A 
ENDBRANCH  27  41
BRANCH  28  49
ATOM     49  C   UNL A   1      38.721  29.145  29.056  1.00  0.00     0.057 A 
ATOM     50  C   UNL A   1      38.141  29.607  27.870  1.00  0.00     0.134 A 
ATOM     51  C   UNL A   1      37.896  29.043  30.184  1.00  0.00     0.134 A 
ATOM     52  F   UNL A   1      38.885  29.741  26.763  1.00  0.00    -0.206 F 
ATOM     53  C   UNL A   1      36.795  29.969  27.809  1.00  0.00     0.040 A 
ATOM     54  C   UNL A   1      36.542  29.375  30.129  1.00  0.00     0.040 A 
ATOM     55  F   UNL A   1      38.391  28.598  31.348  1.00  0.00    -0.206 F 
ATOM     56  C   UNL A   1      35.990  29.847  28.941  1.00  0.00     0.006 A 
ENDBRANCH  28  49
BRANCH  40  57
ATOM     57  C   UNL A   1      44.477  32.571  30.922  1.00  0.00     0.057 A 
ATOM     58  C   UNL A   1      44.467  32.899  32.284  1.00  0.00     0.134 A 
ATOM     59  C   UNL A   1      44.721  33.603  30.008  1.00  0.00     0.134 A 
ATOM     60  F   UNL A   1      44.222  31.959  33.209  1.00  0.00    -0.206 F 
ATOM     61  C   UNL A   1      44.666  34.211  32.718  1.00  0.00     0.040 A 
ATOM     62  C   UNL A   1      44.945  34.913  30.432  1.00  0.00     0.040 A 
ATOM     63  F   UNL A   1      44.748  33.353  28.691  1.00  0.00    -0.206 F 
ATOM     64  C   UNL A   1      44.912  35.222  31.790  1.00  0.00     0.006 A 
ENDBRANCH  40  57
ENDBRANCH  14  15
ENDBRANCH   7   9
ENDBRANCH   4   5
ENDBRANCH   3   4
ENDBRANCH   2   3
ENDBRANCH   1   2
BRANCH   1  65
ATOM     65  C   UNL A   1      36.852  23.077  25.428  1.00  0.00     0.021 C 
BRANCH  65  66
ATOM     66  C   UNL A   1      35.683  24.039  25.236  1.00  0.00     0.116 C 
BRANCH  66  67
ATOM     67  N   UNL A   1      35.308  24.185  23.838  1.00  0.00    -0.352 N 
ATOM     68  C   UNL A   1      34.188  23.724  23.188  1.00  0.00     0.256 C 
ATOM     69  H   UNL A   1      35.946  24.684  23.280  1.00  0.00     0.163 HD
ATOM     70  O   UNL A   1      34.046  23.935  21.988  1.00  0.00    -0.269 OA
BRANCH  68  71
ATOM     71  C   UNL A   1      33.151  23.025  23.949  1.00  0.00     0.100 A 
ATOM     72  C   UNL A   1      33.257  21.648  24.053  1.00  0.00     0.130 A 
ATOM     73  C   UNL A   1      32.130  23.634  24.666  1.00  0.00     0.144 A 
ATOM     74  N   UNL A   1      32.394  20.872  24.731  1.00  0.00    -0.244 NA
ATOM     75  N   UNL A   1      31.253  22.869  25.361  1.00  0.00    -0.219 NA
ATOM     76  C   UNL A   1      31.418  21.538  25.355  1.00  0.00     0.224 A 
BRANCH  73  77
ATOM     77  N   UNL A   1      31.926  25.000  24.800  1.00  0.00    -0.355 N 
ATOM     78  C   UNL A   1      31.826  25.648  26.101  1.00  0.00     0.124 C 
ATOM     79  C   UNL A   1      31.114  25.549  23.700  1.00  0.00     0.133 C 
ATOM     80  C   UNL A   1      32.095  27.150  25.968  1.00  0.00     0.087 C 
ATOM     81  C   UNL A   1      31.353  27.063  23.527  1.00  0.00     0.063 C 
ATOM     82  C   UNL A   1      31.170  27.754  24.903  1.00  0.00     0.194 C 
ATOM     83  C   UNL A   1      30.275  27.639  22.573  1.00  0.00     0.023 C 
ATOM     84  N   UNL A   1      31.353  29.212  24.795  1.00  0.00    -0.343 N 
ATOM     85  C   UNL A   1      30.344  29.164  22.507  1.00  0.00     0.062 C 
ATOM     86  C   UNL A   1      30.348  29.798  23.899  1.00  0.00     0.260 C 
ATOM     87  H   UNL A   1      32.284  29.406  24.425  1.00  0.00     0.346 HD
ATOM     88  H   UNL A   1      31.247  29.625  25.721  1.00  0.00     0.346 HD
BRANCH  81  89
ATOM     89  C   UNL A   1      32.775  27.285  22.945  1.00  0.00     0.171 C 
BRANCH  89  90
ATOM     90  O   UNL A   1      32.860  26.801  21.603  1.00  0.00    -0.395 OA
ATOM     91  H   UNL A   1      33.662  27.150  21.185  1.00  0.00     0.210 HD
ENDBRANCH  89  90
ENDBRANCH  81  89
ENDBRANCH  73  77
ENDBRANCH  68  71
ENDBRANCH  66  67
ENDBRANCH  65  66
ENDBRANCH   1  65
TORSDOF 16
ENDMDL
