MODEL 1
REMARK VINA RESULT:     -12.3      0.000      0.000
REMARK SMILES CC[C@H](C)[C@H](NC(=O)[C@H](C)Oc1ccc2c(C)c(C)c(=O)oc2c1C)C(=O)NCCCCCCNC(=O)c1ccc(-c2c3nc(c(-c4c(F)cccc4F)c4ccc([nH]4)c(-c4c(F)cccc4F)c4nc(c(-c5c(F)cccc5F)c5ccc2[nH]5)C=C4)C=C3)cc1
REMARK SMILES IDX 30 1 29 2 28 3 26 4 27 5 5 7 3 8 4 9 2 10 1 11 6 12 7 13
REMARK SMILES IDX 8 15 9 16 10 17 11 18 12 19 13 20 24 21 14 22 23 23 25 24
REMARK SMILES IDX 15 25 22 26 16 27 20 28 17 29 18 30 21 31 19 32 31 33 32 34
REMARK SMILES IDX 33 35 34 36 35 37 36 38 37 40 38 41 39 42 91 43 40 44 90 45
REMARK SMILES IDX 41 46 42 47 43 48 84 49 44 50 89 51 83 52 85 53 45 54 88 55
REMARK SMILES IDX 82 56 81 57 46 59 72 60 55 61 71 62 56 63 59 64 70 65 86 66
REMARK SMILES IDX 57 67 58 68 69 70 87 71 60 72 47 73 48 74 53 75 49 76 50 77
REMARK SMILES IDX 52 78 54 79 51 80 73 81 74 82 79 83 75 84 76 85 78 86 80 87
REMARK SMILES IDX 77 88 61 89 62 90 67 91 63 92 64 93 66 94 68 95 65 96
REMARK H PARENT 28 6 6 14 35 39 85 58 59 69
REMARK Flexibility Score: inf
ROOT
ATOM      1  C   UNL A   1      31.839  28.749  27.188  1.00  0.00     0.021 C 
ENDROOT
BRANCH   1   2
ATOM      2  C   UNL A   1      31.965  27.404  26.498  1.00  0.00     0.116 C 
BRANCH   2   3
ATOM      3  N   UNL A   1      30.782  26.805  25.954  1.00  0.00    -0.354 N 
ATOM      4  C   UNL A   1      30.305  26.923  24.677  1.00  0.00     0.242 C 
ATOM      5  O   UNL A   1      29.511  26.043  24.318  1.00  0.00    -0.273 OA
ATOM      6  H   UNL A   1      30.253  26.246  26.568  1.00  0.00     0.163 HD
BRANCH   4   7
ATOM      7  C   UNL A   1      30.709  28.068  23.669  1.00  0.00     0.174 C 
BRANCH   7   8
ATOM      8  C   UNL A   1      29.657  28.560  22.640  1.00  0.00     0.018 C 
ATOM      9  C   UNL A   1      28.245  28.731  23.206  1.00  0.00     0.010 C 
BRANCH   8  10
ATOM     10  C   UNL A   1      30.104  29.878  21.949  1.00  0.00     0.002 C 
ATOM     11  C   UNL A   1      29.100  31.014  22.120  1.00  0.00     0.004 C 
ENDBRANCH   8  10
ENDBRANCH   7   8
BRANCH   7  12
ATOM     12  N   UNL A   1      32.075  28.120  23.106  1.00  0.00    -0.341 N 
ATOM     13  C   UNL A   1      32.991  27.259  22.599  1.00  0.00     0.261 C 
ATOM     14  H   UNL A   1      32.416  29.043  23.097  1.00  0.00     0.164 HD
ATOM     15  O   UNL A   1      33.869  27.832  21.929  1.00  0.00    -0.271 OA
BRANCH  13  16
ATOM     16  C   UNL A   1      33.172  25.712  22.909  1.00  0.00     0.258 C 
ATOM     17  C   UNL A   1      33.037  24.939  21.586  1.00  0.00     0.064 C 
BRANCH  16  18
ATOM     18  O   UNL A   1      32.857  24.974  24.087  1.00  0.00    -0.480 OA
BRANCH  18  19
ATOM     19  C   UNL A   1      33.521  23.875  24.538  1.00  0.00     0.127 A 
ATOM     20  C   UNL A   1      34.902  23.729  24.557  1.00  0.00     0.047 A 
ATOM     21  C   UNL A   1      32.731  22.786  24.963  1.00  0.00     0.035 A 
ATOM     22  C   UNL A   1      35.491  22.478  24.787  1.00  0.00     0.016 A 
ATOM     23  C   UNL A   1      33.336  21.523  25.064  1.00  0.00     0.145 A 
ATOM     24  C   UNL A   1      31.249  22.890  25.177  1.00  0.00     0.052 C 
ATOM     25  C   UNL A   1      34.704  21.336  24.937  1.00  0.00     0.021 A 
ATOM     26  O   UNL A   1      32.474  20.417  25.181  1.00  0.00    -0.422 OA
ATOM     27  C   UNL A   1      35.235  19.967  24.842  1.00  0.00    -0.030 A 
ATOM     28  C   UNL A   1      32.899  19.141  24.857  1.00  0.00     0.339 A 
ATOM     29  C   UNL A   1      36.730  19.803  24.781  1.00  0.00     0.045 C 
ATOM     30  C   UNL A   1      34.367  18.941  24.720  1.00  0.00     0.038 A 
ATOM     31  O   UNL A   1      32.095  18.225  24.731  1.00  0.00    -0.246 OA
ATOM     32  C   UNL A   1      34.791  17.534  24.403  1.00  0.00     0.052 C 
ENDBRANCH  18  19
ENDBRANCH  16  18
ENDBRANCH  13  16
ENDBRANCH   7  12
ENDBRANCH   4   7
ENDBRANCH   2   3
ENDBRANCH   1   2
BRANCH   1  33
ATOM     33  C   UNL A   1      32.286  29.958  26.367  1.00  0.00     0.002 C 
BRANCH  33  34
ATOM     34  C   UNL A   1      31.199  30.941  25.910  1.00  0.00     0.002 C 
BRANCH  34  35
ATOM     35  C   UNL A   1      31.288  32.378  26.436  1.00  0.00     0.021 C 
BRANCH  35  36
ATOM     36  C   UNL A   1      32.588  32.730  27.152  1.00  0.00     0.116 C 
BRANCH  36  37
ATOM     37  N   UNL A   1      32.592  34.097  27.647  1.00  0.00    -0.352 N 
ATOM     38  C   UNL A   1      33.353  34.676  28.630  1.00  0.00     0.251 C 
ATOM     39  H   UNL A   1      31.949  34.700  27.208  1.00  0.00     0.163 HD
ATOM     40  O   UNL A   1      33.096  35.800  29.033  1.00  0.00    -0.269 OA
BRANCH  38  41
ATOM     41  C   UNL A   1      34.488  33.929  29.209  1.00  0.00     0.039 A 
ATOM     42  C   UNL A   1      35.787  34.270  28.824  1.00  0.00     0.014 A 
ATOM     43  C   UNL A   1      34.265  32.875  30.099  1.00  0.00     0.014 A 
ATOM     44  C   UNL A   1      36.871  33.579  29.367  1.00  0.00     0.010 A 
ATOM     45  C   UNL A   1      35.347  32.224  30.683  1.00  0.00     0.010 A 
ATOM     46  C   UNL A   1      36.658  32.562  30.309  1.00  0.00    -0.014 A 
BRANCH  46  47
ATOM     47  C   UNL A   1      37.790  31.791  30.870  1.00  0.00     0.031 A 
ATOM     48  C   UNL A   1      38.278  32.097  32.256  1.00  0.00     0.074 A 
ATOM     49  C   UNL A   1      38.407  30.861  30.118  1.00  0.00     0.049 A 
ATOM     50  N   UNL A   1      39.279  31.575  32.916  1.00  0.00    -0.248 NA
ATOM     51  C   UNL A   1      37.554  33.149  32.988  1.00  0.00     0.031 C 
ATOM     52  C   UNL A   1      38.044  30.504  28.747  1.00  0.00     0.029 A 
ATOM     53  N   UNL A   1      39.484  30.060  30.400  1.00  0.00    -0.354 N 
ATOM     54  C   UNL A   1      39.307  32.237  34.137  1.00  0.00     0.074 A 
ATOM     55  C   UNL A   1      38.265  33.239  34.102  1.00  0.00     0.031 C 
ATOM     56  C   UNL A   1      38.883  29.550  28.308  1.00  0.00     0.029 A 
ATOM     57  C   UNL A   1      39.856  29.252  29.355  1.00  0.00     0.049 A 
ATOM     58  H   UNL A   1      39.945  30.064  31.270  1.00  0.00     0.167 HD
ATOM     59  C   UNL A   1      40.115  32.014  35.201  1.00  0.00     0.037 A 
ATOM     60  C   UNL A   1      40.875  28.378  29.254  1.00  0.00     0.037 A 
ATOM     61  C   UNL A   1      41.152  31.018  35.229  1.00  0.00     0.049 A 
ATOM     62  C   UNL A   1      41.785  28.174  30.436  1.00  0.00     0.074 A 
ATOM     63  C   UNL A   1      41.992  30.672  36.273  1.00  0.00     0.029 A 
ATOM     64  N   UNL A   1      41.501  30.215  34.152  1.00  0.00    -0.354 N 
ATOM     65  N   UNL A   1      41.751  28.746  31.616  1.00  0.00    -0.248 NA
ATOM     66  C   UNL A   1      42.869  27.197  30.274  1.00  0.00     0.031 C 
ATOM     67  C   UNL A   1      42.885  29.699  35.810  1.00  0.00     0.029 A 
ATOM     68  C   UNL A   1      42.566  29.399  34.494  1.00  0.00     0.049 A 
ATOM     69  H   UNL A   1      41.056  30.224  33.274  1.00  0.00     0.167 HD
ATOM     70  C   UNL A   1      42.792  28.182  32.343  1.00  0.00     0.074 A 
ATOM     71  C   UNL A   1      43.426  27.209  31.476  1.00  0.00     0.031 C 
ATOM     72  C   UNL A   1      43.188  28.442  33.614  1.00  0.00     0.037 A 
BRANCH  59  73
ATOM     73  C   UNL A   1      39.905  32.881  36.409  1.00  0.00     0.057 A 
ATOM     74  C   UNL A   1      38.933  32.556  37.362  1.00  0.00     0.134 A 
ATOM     75  C   UNL A   1      40.676  34.029  36.640  1.00  0.00     0.134 A 
ATOM     76  F   UNL A   1      38.157  31.474  37.204  1.00  0.00    -0.206 F 
ATOM     77  C   UNL A   1      38.743  33.335  38.506  1.00  0.00     0.040 A 
ATOM     78  C   UNL A   1      40.517  34.798  37.794  1.00  0.00     0.040 A 
ATOM     79  F   UNL A   1      41.636  34.389  35.774  1.00  0.00    -0.206 F 
ATOM     80  C   UNL A   1      39.544  34.452  38.730  1.00  0.00     0.006 A 
ENDBRANCH  59  73
BRANCH  60  81
ATOM     81  C   UNL A   1      41.087  27.623  27.995  1.00  0.00     0.057 A 
ATOM     82  C   UNL A   1      40.492  26.374  27.783  1.00  0.00     0.134 A 
ATOM     83  C   UNL A   1      41.875  28.144  26.963  1.00  0.00     0.134 A 
ATOM     84  F   UNL A   1      39.730  25.815  28.735  1.00  0.00    -0.206 F 
ATOM     85  C   UNL A   1      40.675  25.669  26.592  1.00  0.00     0.040 A 
ATOM     86  C   UNL A   1      42.048  27.463  25.757  1.00  0.00     0.040 A 
ATOM     87  F   UNL A   1      42.456  29.345  27.099  1.00  0.00    -0.206 F 
ATOM     88  C   UNL A   1      41.448  26.219  25.570  1.00  0.00     0.006 A 
ENDBRANCH  60  81
BRANCH  72  89
ATOM     89  C   UNL A   1      44.345  27.646  34.145  1.00  0.00     0.057 A 
ATOM     90  C   UNL A   1      44.135  26.404  34.757  1.00  0.00     0.134 A 
ATOM     91  C   UNL A   1      45.662  28.119  34.075  1.00  0.00     0.134 A 
ATOM     92  F   UNL A   1      42.898  25.896  34.863  1.00  0.00    -0.206 F 
ATOM     93  C   UNL A   1      45.193  25.662  35.284  1.00  0.00     0.040 A 
ATOM     94  C   UNL A   1      46.731  27.373  34.572  1.00  0.00     0.040 A 
ATOM     95  F   UNL A   1      45.932  29.295  33.489  1.00  0.00    -0.206 F 
ATOM     96  C   UNL A   1      46.498  26.142  35.185  1.00  0.00     0.006 A 
ENDBRANCH  72  89
ENDBRANCH  46  47
ENDBRANCH  38  41
ENDBRANCH  36  37
ENDBRANCH  35  36
ENDBRANCH  34  35
ENDBRANCH  33  34
ENDBRANCH   1  33
TORSDOF 19
ENDMDL
MODEL 2
REMARK VINA RESULT:     -12.2      5.434     10.803
REMARK SMILES CC[C@H](C)[C@H](NC(=O)[C@H](C)Oc1ccc2c(C)c(C)c(=O)oc2c1C)C(=O)NCCCCCCNC(=O)c1ccc(-c2c3nc(c(-c4c(F)cccc4F)c4ccc([nH]4)c(-c4c(F)cccc4F)c4nc(c(-c5c(F)cccc5F)c5ccc2[nH]5)C=C4)C=C3)cc1
REMARK SMILES IDX 30 1 29 2 28 3 26 4 27 5 5 7 3 8 4 9 2 10 1 11 6 12 7 13
REMARK SMILES IDX 8 15 9 16 10 17 11 18 12 19 13 20 24 21 14 22 23 23 25 24
REMARK SMILES IDX 15 25 22 26 16 27 20 28 17 29 18 30 21 31 19 32 31 33 32 34
REMARK SMILES IDX 33 35 34 36 35 37 36 38 37 40 38 41 39 42 91 43 40 44 90 45
REMARK SMILES IDX 41 46 42 47 43 48 84 49 44 50 89 51 83 52 85 53 45 54 88 55
REMARK SMILES IDX 82 56 81 57 46 59 72 60 55 61 71 62 56 63 59 64 70 65 86 66
REMARK SMILES IDX 57 67 58 68 69 70 87 71 60 72 47 73 48 74 53 75 49 76 50 77
REMARK SMILES IDX 52 78 54 79 51 80 73 81 74 82 79 83 75 84 76 85 78 86 80 87
REMARK SMILES IDX 77 88 61 89 62 90 67 91 63 92 64 93 66 94 68 95 65 96
REMARK H PARENT 28 6 6 14 35 39 85 58 59 69
REMARK Flexibility Score: inf
ROOT
ATOM      1  C   UNL A   1      39.697  22.372  26.463  1.00  0.00     0.021 C 
ENDROOT
BRANCH   1   2
ATOM      2  C   UNL A   1      38.566  21.535  25.896  1.00  0.00     0.116 C 
BRANCH   2   3
ATOM      3  N   UNL A   1      38.029  21.893  24.617  1.00  0.00    -0.354 N 
ATOM      4  C   UNL A   1      36.713  22.076  24.292  1.00  0.00     0.242 C 
ATOM      5  O   UNL A   1      36.500  22.739  23.268  1.00  0.00    -0.273 OA
ATOM      6  H   UNL A   1      38.681  22.021  23.890  1.00  0.00     0.163 HD
BRANCH   4   7
ATOM      7  C   UNL A   1      35.495  21.522  25.130  1.00  0.00     0.174 C 
BRANCH   7   8
ATOM      8  C   UNL A   1      35.178  22.170  26.502  1.00  0.00     0.018 C 
ATOM      9  C   UNL A   1      34.834  23.660  26.438  1.00  0.00     0.010 C 
BRANCH   8  10
ATOM     10  C   UNL A   1      34.051  21.407  27.251  1.00  0.00     0.002 C 
ATOM     11  C   UNL A   1      33.212  22.310  28.151  1.00  0.00     0.004 C 
ENDBRANCH   8  10
ENDBRANCH   7   8
BRANCH   7  12
ATOM     12  N   UNL A   1      35.191  20.075  25.137  1.00  0.00    -0.341 N 
ATOM     13  C   UNL A   1      34.224  19.245  24.677  1.00  0.00     0.261 C 
ATOM     14  H   UNL A   1      35.891  19.572  25.610  1.00  0.00     0.164 HD
ATOM     15  O   UNL A   1      34.591  18.057  24.632  1.00  0.00    -0.271 OA
BRANCH  13  16
ATOM     16  C   UNL A   1      32.695  19.570  24.392  1.00  0.00     0.258 C 
ATOM     17  C   UNL A   1      32.353  19.066  22.980  1.00  0.00     0.064 C 
BRANCH  16  18
ATOM     18  O   UNL A   1      31.882  20.634  24.878  1.00  0.00    -0.480 OA
BRANCH  18  19
ATOM     19  C   UNL A   1      31.910  21.922  24.438  1.00  0.00     0.127 A 
ATOM     20  C   UNL A   1      32.625  22.372  23.334  1.00  0.00     0.047 A 
ATOM     21  C   UNL A   1      31.202  22.871  25.203  1.00  0.00     0.035 A 
ATOM     22  C   UNL A   1      32.811  23.742  23.108  1.00  0.00     0.016 A 
ATOM     23  C   UNL A   1      31.507  24.231  25.030  1.00  0.00     0.145 A 
ATOM     24  C   UNL A   1      30.240  22.487  26.289  1.00  0.00     0.052 C 
ATOM     25  C   UNL A   1      32.341  24.687  24.020  1.00  0.00     0.021 A 
ATOM     26  O   UNL A   1      31.024  25.118  26.009  1.00  0.00    -0.422 OA
ATOM     27  C   UNL A   1      32.781  26.091  24.033  1.00  0.00    -0.030 A 
ATOM     28  C   UNL A   1      31.597  26.362  26.193  1.00  0.00     0.339 A 
ATOM     29  C   UNL A   1      33.623  26.567  22.881  1.00  0.00     0.045 C 
ATOM     30  C   UNL A   1      32.492  26.852  25.110  1.00  0.00     0.038 A 
ATOM     31  O   UNL A   1      31.340  27.032  27.187  1.00  0.00    -0.246 OA
ATOM     32  C   UNL A   1      33.068  28.223  25.330  1.00  0.00     0.052 C 
ENDBRANCH  18  19
ENDBRANCH  16  18
ENDBRANCH  13  16
ENDBRANCH   7  12
ENDBRANCH   4   7
ENDBRANCH   2   3
ENDBRANCH   1   2
BRANCH   1  33
ATOM     33  C   UNL A   1      41.108  21.843  26.201  1.00  0.00     0.002 C 
BRANCH  33  34
ATOM     34  C   UNL A   1      41.755  20.988  27.299  1.00  0.00     0.002 C 
BRANCH  34  35
ATOM     35  C   UNL A   1      42.337  19.634  26.881  1.00  0.00     0.021 C 
BRANCH  35  36
ATOM     36  C   UNL A   1      42.255  19.322  25.390  1.00  0.00     0.116 C 
BRANCH  36  37
ATOM     37  N   UNL A   1      43.524  18.857  24.853  1.00  0.00    -0.352 N 
ATOM     38  C   UNL A   1      44.665  19.558  24.558  1.00  0.00     0.251 C 
ATOM     39  H   UNL A   1      43.570  17.891  24.674  1.00  0.00     0.163 HD
ATOM     40  O   UNL A   1      45.580  19.026  23.947  1.00  0.00    -0.269 OA
BRANCH  38  41
ATOM     41  C   UNL A   1      44.784  20.969  24.978  1.00  0.00     0.039 A 
ATOM     42  C   UNL A   1      44.395  21.973  24.088  1.00  0.00     0.014 A 
ATOM     43  C   UNL A   1      45.309  21.296  26.232  1.00  0.00     0.014 A 
ATOM     44  C   UNL A   1      44.494  23.311  24.472  1.00  0.00     0.010 A 
ATOM     45  C   UNL A   1      45.354  22.626  26.636  1.00  0.00     0.010 A 
ATOM     46  C   UNL A   1      44.961  23.644  25.751  1.00  0.00    -0.014 A 
BRANCH  46  47
ATOM     47  C   UNL A   1      45.109  25.057  26.166  1.00  0.00     0.031 A 
ATOM     48  C   UNL A   1      46.462  25.705  26.115  1.00  0.00     0.074 A 
ATOM     49  C   UNL A   1      44.045  25.734  26.636  1.00  0.00     0.049 A 
ATOM     50  N   UNL A   1      46.817  26.912  26.475  1.00  0.00    -0.248 NA
ATOM     51  C   UNL A   1      47.568  24.875  25.612  1.00  0.00     0.031 C 
ATOM     52  C   UNL A   1      42.691  25.197  26.765  1.00  0.00     0.029 A 
ATOM     53  N   UNL A   1      43.944  27.017  27.108  1.00  0.00    -0.354 N 
ATOM     54  C   UNL A   1      48.185  26.983  26.245  1.00  0.00     0.074 A 
ATOM     55  C   UNL A   1      48.605  25.681  25.775  1.00  0.00     0.031 C 
ATOM     56  C   UNL A   1      41.892  26.147  27.280  1.00  0.00     0.029 A 
ATOM     57  C   UNL A   1      42.684  27.346  27.542  1.00  0.00     0.049 A 
ATOM     58  H   UNL A   1      44.703  27.643  27.133  1.00  0.00     0.167 HD
ATOM     59  C   UNL A   1      49.013  28.044  26.391  1.00  0.00     0.037 A 
ATOM     60  C   UNL A   1      42.226  28.484  28.096  1.00  0.00     0.037 A 
ATOM     61  C   UNL A   1      48.590  29.336  26.862  1.00  0.00     0.049 A 
ATOM     62  C   UNL A   1      43.173  29.638  28.285  1.00  0.00     0.074 A 
ATOM     63  C   UNL A   1      49.334  30.495  26.996  1.00  0.00     0.029 A 
ATOM     64  N   UNL A   1      47.304  29.634  27.290  1.00  0.00    -0.354 N 
ATOM     65  N   UNL A   1      44.448  29.722  27.988  1.00  0.00    -0.248 NA
ATOM     66  C   UNL A   1      42.614  30.859  28.881  1.00  0.00     0.031 C 
ATOM     67  C   UNL A   1      48.511  31.478  27.558  1.00  0.00     0.029 A 
ATOM     68  C   UNL A   1      47.241  30.948  27.723  1.00  0.00     0.049 A 
ATOM     69  H   UNL A   1      46.548  29.004  27.288  1.00  0.00     0.167 HD
ATOM     70  C   UNL A   1      44.836  31.010  28.337  1.00  0.00     0.074 A 
ATOM     71  C   UNL A   1      43.658  31.676  28.851  1.00  0.00     0.031 C 
ATOM     72  C   UNL A   1      46.058  31.591  28.239  1.00  0.00     0.037 A 
BRANCH  59  73
ATOM     73  C   UNL A   1      50.460  27.833  26.047  1.00  0.00     0.057 A 
ATOM     74  C   UNL A   1      50.906  27.956  24.727  1.00  0.00     0.134 A 
ATOM     75  C   UNL A   1      51.416  27.524  27.025  1.00  0.00     0.134 A 
ATOM     76  F   UNL A   1      50.045  28.246  23.739  1.00  0.00    -0.206 F 
ATOM     77  C   UNL A   1      52.252  27.790  24.392  1.00  0.00     0.040 A 
ATOM     78  C   UNL A   1      52.769  27.387  26.708  1.00  0.00     0.040 A 
ATOM     79  F   UNL A   1      51.059  27.407  28.313  1.00  0.00    -0.206 F 
ATOM     80  C   UNL A   1      53.189  27.518  25.386  1.00  0.00     0.006 A 
ENDBRANCH  59  73
BRANCH  60  81
ATOM     81  C   UNL A   1      40.804  28.593  28.505  1.00  0.00     0.057 A 
ATOM     82  C   UNL A   1      39.815  29.009  27.606  1.00  0.00     0.134 A 
ATOM     83  C   UNL A   1      40.398  28.265  29.803  1.00  0.00     0.134 A 
ATOM     84  F   UNL A   1      40.140  29.344  26.349  1.00  0.00    -0.206 F 
ATOM     85  C   UNL A   1      38.474  29.096  27.983  1.00  0.00     0.040 A 
ATOM     86  C   UNL A   1      39.057  28.324  30.188  1.00  0.00     0.040 A 
ATOM     87  F   UNL A   1      41.296  27.842  30.705  1.00  0.00    -0.206 F 
ATOM     88  C   UNL A   1      38.091  28.744  29.276  1.00  0.00     0.006 A 
ENDBRANCH  60  81
BRANCH  72  89
ATOM     89  C   UNL A   1      46.171  33.022  28.678  1.00  0.00     0.057 A 
ATOM     90  C   UNL A   1      45.947  34.066  27.770  1.00  0.00     0.134 A 
ATOM     91  C   UNL A   1      46.525  33.369  29.988  1.00  0.00     0.134 A 
ATOM     92  F   UNL A   1      45.612  33.803  26.498  1.00  0.00    -0.206 F 
ATOM     93  C   UNL A   1      46.075  35.402  28.149  1.00  0.00     0.040 A 
ATOM     94  C   UNL A   1      46.628  34.702  30.386  1.00  0.00     0.040 A 
ATOM     95  F   UNL A   1      46.738  32.418  30.909  1.00  0.00    -0.206 F 
ATOM     96  C   UNL A   1      46.409  35.724  29.463  1.00  0.00     0.006 A 
ENDBRANCH  72  89
ENDBRANCH  46  47
ENDBRANCH  38  41
ENDBRANCH  36  37
ENDBRANCH  35  36
ENDBRANCH  34  35
ENDBRANCH  33  34
ENDBRANCH   1  33
TORSDOF 19
ENDMDL
MODEL 3
REMARK VINA RESULT:     -11.9      5.517     10.237
REMARK SMILES CC[C@H](C)[C@H](NC(=O)[C@H](C)Oc1ccc2c(C)c(C)c(=O)oc2c1C)C(=O)NCCCCCCNC(=O)c1ccc(-c2c3nc(c(-c4c(F)cccc4F)c4ccc([nH]4)c(-c4c(F)cccc4F)c4nc(c(-c5c(F)cccc5F)c5ccc2[nH]5)C=C4)C=C3)cc1
REMARK SMILES IDX 30 1 29 2 28 3 26 4 27 5 5 7 3 8 4 9 2 10 1 11 6 12 7 13
REMARK SMILES IDX 8 15 9 16 10 17 11 18 12 19 13 20 24 21 14 22 23 23 25 24
REMARK SMILES IDX 15 25 22 26 16 27 20 28 17 29 18 30 21 31 19 32 31 33 32 34
REMARK SMILES IDX 33 35 34 36 35 37 36 38 37 40 38 41 39 42 91 43 40 44 90 45
REMARK SMILES IDX 41 46 42 47 43 48 84 49 44 50 89 51 83 52 85 53 45 54 88 55
REMARK SMILES IDX 82 56 81 57 46 59 72 60 55 61 71 62 56 63 59 64 70 65 86 66
REMARK SMILES IDX 57 67 58 68 69 70 87 71 60 72 47 73 48 74 53 75 49 76 50 77
REMARK SMILES IDX 52 78 54 79 51 80 73 81 74 82 79 83 75 84 76 85 78 86 80 87
REMARK SMILES IDX 77 88 61 89 62 90 67 91 63 92 64 93 66 94 68 95 65 96
REMARK H PARENT 28 6 6 14 35 39 85 58 59 69
REMARK Flexibility Score: inf
ROOT
ATOM      1  C   UNL A   1      40.257  23.031  27.262  1.00  0.00     0.021 C 
ENDROOT
BRANCH   1   2
ATOM      2  C   UNL A   1      38.996  22.818  26.445  1.00  0.00     0.116 C 
BRANCH   2   3
ATOM      3  N   UNL A   1      38.704  21.496  25.976  1.00  0.00    -0.354 N 
ATOM      4  C   UNL A   1      37.616  21.095  25.249  1.00  0.00     0.242 C 
ATOM      5  O   UNL A   1      37.745  20.029  24.634  1.00  0.00    -0.273 OA
ATOM      6  H   UNL A   1      39.359  20.797  26.203  1.00  0.00     0.163 HD
BRANCH   4   7
ATOM      7  C   UNL A   1      36.261  21.898  25.143  1.00  0.00     0.174 C 
BRANCH   7   8
ATOM      8  C   UNL A   1      36.258  23.258  24.397  1.00  0.00     0.018 C 
ATOM      9  C   UNL A   1      35.304  23.327  23.203  1.00  0.00     0.010 C 
BRANCH   8  10
ATOM     10  C   UNL A   1      35.969  24.442  25.362  1.00  0.00     0.002 C 
ATOM     11  C   UNL A   1      34.615  25.099  25.116  1.00  0.00     0.004 C 
ENDBRANCH   8  10
ENDBRANCH   7   8
BRANCH   7  12
ATOM     12  N   UNL A   1      35.305  21.902  26.270  1.00  0.00    -0.341 N 
ATOM     13  C   UNL A   1      34.175  21.251  26.638  1.00  0.00     0.261 C 
ATOM     14  H   UNL A   1      35.564  22.568  26.947  1.00  0.00     0.164 HD
ATOM     15  O   UNL A   1      33.928  21.366  27.852  1.00  0.00    -0.271 OA
BRANCH  13  16
ATOM     16  C   UNL A   1      33.086  20.560  25.710  1.00  0.00     0.258 C 
ATOM     17  C   UNL A   1      33.821  19.750  24.630  1.00  0.00     0.064 C 
BRANCH  16  18
ATOM     18  O   UNL A   1      31.773  20.994  25.367  1.00  0.00    -0.480 OA
BRANCH  18  19
ATOM     19  C   UNL A   1      31.442  22.220  24.877  1.00  0.00     0.127 A 
ATOM     20  C   UNL A   1      31.658  22.641  23.571  1.00  0.00     0.047 A 
ATOM     21  C   UNL A   1      30.893  23.143  25.791  1.00  0.00     0.035 A 
ATOM     22  C   UNL A   1      31.534  23.992  23.221  1.00  0.00     0.016 A 
ATOM     23  C   UNL A   1      30.899  24.505  25.449  1.00  0.00     0.145 A 
ATOM     24  C   UNL A   1      30.431  22.751  27.165  1.00  0.00     0.052 C 
ATOM     25  C   UNL A   1      31.256  24.958  24.188  1.00  0.00     0.021 A 
ATOM     26  O   UNL A   1      30.641  25.419  26.487  1.00  0.00    -0.422 OA
ATOM     27  C   UNL A   1      31.442  26.401  23.971  1.00  0.00    -0.030 A 
ATOM     28  C   UNL A   1      31.034  26.740  26.392  1.00  0.00     0.339 A 
ATOM     29  C   UNL A   1      31.755  26.859  22.572  1.00  0.00     0.045 C 
ATOM     30  C   UNL A   1      31.418  27.227  25.039  1.00  0.00     0.038 A 
ATOM     31  O   UNL A   1      31.025  27.472  27.375  1.00  0.00    -0.246 OA
ATOM     32  C   UNL A   1      31.806  28.677  24.969  1.00  0.00     0.052 C 
ENDBRANCH  18  19
ENDBRANCH  16  18
ENDBRANCH  13  16
ENDBRANCH   7  12
ENDBRANCH   4   7
ENDBRANCH   2   3
ENDBRANCH   1   2
BRANCH   1  33
ATOM     33  C   UNL A   1      41.450  22.157  26.874  1.00  0.00     0.002 C 
BRANCH  33  34
ATOM     34  C   UNL A   1      41.823  21.011  27.825  1.00  0.00     0.002 C 
BRANCH  34  35
ATOM     35  C   UNL A   1      42.242  19.681  27.189  1.00  0.00     0.021 C 
BRANCH  35  36
ATOM     36  C   UNL A   1      42.057  19.595  25.677  1.00  0.00     0.116 C 
BRANCH  36  37
ATOM     37  N   UNL A   1      43.233  19.067  25.007  1.00  0.00    -0.352 N 
ATOM     38  C   UNL A   1      44.382  19.704  24.611  1.00  0.00     0.251 C 
ATOM     39  H   UNL A   1      43.200  18.104  24.807  1.00  0.00     0.163 HD
ATOM     40  O   UNL A   1      45.195  19.132  23.901  1.00  0.00    -0.269 OA
BRANCH  38  41
ATOM     41  C   UNL A   1      44.631  21.094  25.042  1.00  0.00     0.039 A 
ATOM     42  C   UNL A   1      44.244  22.141  24.202  1.00  0.00     0.014 A 
ATOM     43  C   UNL A   1      45.275  21.357  26.254  1.00  0.00     0.014 A 
ATOM     44  C   UNL A   1      44.465  23.461  24.598  1.00  0.00     0.010 A 
ATOM     45  C   UNL A   1      45.444  22.672  26.674  1.00  0.00     0.010 A 
ATOM     46  C   UNL A   1      45.055  23.733  25.841  1.00  0.00    -0.014 A 
BRANCH  46  47
ATOM     47  C   UNL A   1      45.333  25.124  26.265  1.00  0.00     0.031 A 
ATOM     48  C   UNL A   1      44.211  25.977  26.782  1.00  0.00     0.074 A 
ATOM     49  C   UNL A   1      46.573  25.630  26.136  1.00  0.00     0.049 A 
ATOM     50  N   UNL A   1      44.229  27.229  27.161  1.00  0.00    -0.248 NA
ATOM     51  C   UNL A   1      42.887  25.341  26.861  1.00  0.00     0.031 C 
ATOM     52  C   UNL A   1      47.732  24.907  25.614  1.00  0.00     0.029 A 
ATOM     53  N   UNL A   1      47.057  26.881  26.420  1.00  0.00    -0.354 N 
ATOM     54  C   UNL A   1      42.922  27.530  27.519  1.00  0.00     0.074 A 
ATOM     55  C   UNL A   1      42.126  26.352  27.253  1.00  0.00     0.031 C 
ATOM     56  C   UNL A   1      48.796  25.727  25.618  1.00  0.00     0.029 A 
ATOM     57  C   UNL A   1      48.386  27.038  26.115  1.00  0.00     0.049 A 
ATOM     58  H   UNL A   1      46.504  27.598  26.805  1.00  0.00     0.167 HD
ATOM     59  C   UNL A   1      42.432  28.679  28.043  1.00  0.00     0.037 A 
ATOM     60  C   UNL A   1      49.179  28.121  26.219  1.00  0.00     0.037 A 
ATOM     61  C   UNL A   1      43.227  29.849  28.303  1.00  0.00     0.049 A 
ATOM     62  C   UNL A   1      48.603  29.399  26.767  1.00  0.00     0.074 A 
ATOM     63  C   UNL A   1      42.843  31.046  28.881  1.00  0.00     0.029 A 
ATOM     64  N   UNL A   1      44.572  29.971  27.983  1.00  0.00    -0.354 N 
ATOM     65  N   UNL A   1      47.384  29.649  27.181  1.00  0.00    -0.248 NA
ATOM     66  C   UNL A   1      49.518  30.544  26.872  1.00  0.00     0.031 C 
ATOM     67  C   UNL A   1      43.943  31.911  28.861  1.00  0.00     0.029 A 
ATOM     68  C   UNL A   1      45.026  31.236  28.320  1.00  0.00     0.049 A 
ATOM     69  H   UNL A   1      45.122  29.264  27.577  1.00  0.00     0.167 HD
ATOM     70  C   UNL A   1      47.391  30.969  27.615  1.00  0.00     0.074 A 
ATOM     71  C   UNL A   1      48.741  31.460  27.432  1.00  0.00     0.031 C 
ATOM     72  C   UNL A   1      46.373  31.708  28.123  1.00  0.00     0.037 A 
BRANCH  59  73
ATOM     73  C   UNL A   1      40.962  28.714  28.352  1.00  0.00     0.057 A 
ATOM     74  C   UNL A   1      40.496  28.436  29.642  1.00  0.00     0.134 A 
ATOM     75  C   UNL A   1      40.008  29.040  27.379  1.00  0.00     0.134 A 
ATOM     76  F   UNL A   1      41.353  28.112  30.623  1.00  0.00    -0.206 F 
ATOM     77  C   UNL A   1      39.136  28.491  29.955  1.00  0.00     0.040 A 
ATOM     78  C   UNL A   1      38.649  29.130  27.687  1.00  0.00     0.040 A 
ATOM     79  F   UNL A   1      40.388  29.334  26.126  1.00  0.00    -0.206 F 
ATOM     80  C   UNL A   1      38.210  28.851  28.979  1.00  0.00     0.006 A 
ENDBRANCH  59  73
BRANCH  60  81
ATOM     81  C   UNL A   1      50.601  28.047  25.802  1.00  0.00     0.057 A 
ATOM     82  C   UNL A   1      51.630  27.907  26.740  1.00  0.00     0.134 A 
ATOM     83  C   UNL A   1      50.962  28.094  24.451  1.00  0.00     0.134 A 
ATOM     84  F   UNL A   1      51.351  27.862  28.051  1.00  0.00    -0.206 F 
ATOM     85  C   UNL A   1      52.968  27.818  26.350  1.00  0.00     0.040 A 
ATOM     86  C   UNL A   1      52.293  27.982  24.044  1.00  0.00     0.040 A 
ATOM     87  F   UNL A   1      50.019  28.207  23.504  1.00  0.00    -0.206 F 
ATOM     88  C   UNL A   1      53.301  27.847  24.997  1.00  0.00     0.006 A 
ENDBRANCH  60  81
BRANCH  72  89
ATOM     89  C   UNL A   1      46.692  33.117  28.534  1.00  0.00     0.057 A 
ATOM     90  C   UNL A   1      47.084  33.405  29.847  1.00  0.00     0.134 A 
ATOM     91  C   UNL A   1      46.586  34.190  27.640  1.00  0.00     0.134 A 
ATOM     92  F   UNL A   1      47.198  32.424  30.756  1.00  0.00    -0.206 F 
ATOM     93  C   UNL A   1      47.356  34.710  30.258  1.00  0.00     0.040 A 
ATOM     94  C   UNL A   1      46.884  35.496  28.031  1.00  0.00     0.040 A 
ATOM     95  F   UNL A   1      46.230  33.980  26.364  1.00  0.00    -0.206 F 
ATOM     96  C   UNL A   1      47.264  35.760  29.346  1.00  0.00     0.006 A 
ENDBRANCH  72  89
ENDBRANCH  46  47
ENDBRANCH  38  41
ENDBRANCH  36  37
ENDBRANCH  35  36
ENDBRANCH  34  35
ENDBRANCH  33  34
ENDBRANCH   1  33
TORSDOF 19
ENDMDL
