MODEL 1
REMARK VINA RESULT:     -12.2      0.000      0.000
REMARK SMILES Cc1c(NC(=O)[C@@H]2CC=CC[C@@H]2C(=O)NCCCCCCNC(=O)c2ccc(-c3c4nc(c(-c5c(F)cccc5F)c5ccc([nH]5)c(-c5c(F)cccc5F)c5nc(c(-c6c(F)cccc6F)c6ccc3[nH]6)C=C5)C=C4)cc2)cccc1C(=O)N1CCOCC1
REMARK SMILES IDX 18 1 17 2 16 3 15 4 13 5 14 6 12 8 7 9 8 10 9 11 11 12 10 13
REMARK SMILES IDX 5 14 4 15 6 17 3 18 1 19 2 20 82 21 79 22 81 23 80 24 83 25
REMARK SMILES IDX 84 26 85 27 86 28 90 29 87 30 89 31 88 32 19 33 20 34 21 35
REMARK SMILES IDX 22 36 23 37 24 39 25 40 26 41 78 42 27 43 77 44 28 45 29 46
REMARK SMILES IDX 30 47 71 48 31 49 76 50 70 51 72 52 32 53 75 54 69 55 68 56
REMARK SMILES IDX 33 58 59 59 42 60 58 61 43 62 46 63 57 64 73 65 44 66 45 67
REMARK SMILES IDX 56 69 74 70 47 71 34 72 35 73 40 74 36 75 37 76 39 77 41 78
REMARK SMILES IDX 38 79 60 80 61 81 66 82 62 83 63 84 65 85 67 86 64 87 48 88
REMARK SMILES IDX 49 89 54 90 50 91 51 92 53 93 55 94 52 95
REMARK H PARENT 15 7 4 16 22 38 72 57 46 68
REMARK Flexibility Score: inf
ROOT
ATOM      1  C   UNL A   1      32.009  26.914  24.293  1.00  0.00     0.002 C 
ENDROOT
BRANCH   1   2
ATOM      2  C   UNL A   1      31.912  25.758  23.292  1.00  0.00     0.021 C 
BRANCH   2   3
ATOM      3  C   UNL A   1      31.002  24.603  23.715  1.00  0.00     0.116 C 
BRANCH   3   4
ATOM      4  N   UNL A   1      31.721  23.349  23.807  1.00  0.00    -0.356 N 
ATOM      5  C   UNL A   1      32.779  22.874  24.499  1.00  0.00     0.224 C 
ATOM      6  O   UNL A   1      32.974  21.660  24.313  1.00  0.00    -0.275 OA
ATOM      7  H   UNL A   1      31.339  22.666  23.211  1.00  0.00     0.163 HD
BRANCH   5   8
ATOM      8  C   UNL A   1      33.686  23.614  25.511  1.00  0.00     0.095 C 
ATOM      9  C   UNL A   1      35.115  23.138  25.864  1.00  0.00     0.095 C 
ATOM     10  C   UNL A   1      35.059  21.717  26.450  1.00  0.00     0.041 C 
ATOM     11  C   UNL A   1      34.046  21.623  27.559  1.00  0.00    -0.030 C 
ATOM     12  C   UNL A   1      32.908  23.740  26.851  1.00  0.00     0.041 C 
ATOM     13  C   UNL A   1      33.095  22.548  27.755  1.00  0.00    -0.030 C 
BRANCH   9  14
ATOM     14  C   UNL A   1      36.082  23.445  24.727  1.00  0.00     0.228 C 
ATOM     15  N   UNL A   1      37.432  23.396  24.821  1.00  0.00    -0.326 N 
ATOM     16  H   UNL A   1      37.856  23.400  23.933  1.00  0.00     0.169 HD
ATOM     17  O   UNL A   1      35.657  23.737  23.601  1.00  0.00    -0.274 OA
BRANCH  15  18
ATOM     18  C   UNL A   1      38.386  23.339  25.850  1.00  0.00     0.044 A 
ATOM     19  C   UNL A   1      38.617  20.891  25.279  1.00  0.00     0.047 C 
ATOM     20  C   UNL A   1      39.105  22.119  26.006  1.00  0.00    -0.015 A 
ATOM     21  C   UNL A   1      40.203  22.071  26.895  1.00  0.00     0.045 A 
ATOM     22  C   UNL A   1      38.696  24.435  26.654  1.00  0.00     0.026 A 
ATOM     23  C   UNL A   1      40.473  23.186  27.706  1.00  0.00     0.014 A 
ATOM     24  C   UNL A   1      39.714  24.348  27.602  1.00  0.00     0.003 A 
BRANCH  21  25
ATOM     25  C   UNL A   1      40.988  20.839  27.211  1.00  0.00     0.254 C 
ATOM     26  O   UNL A   1      40.445  20.012  27.945  1.00  0.00    -0.269 OA
ATOM     27  N   UNL A   1      42.243  20.603  26.660  1.00  0.00    -0.334 N 
ATOM     28  C   UNL A   1      43.250  21.598  26.271  1.00  0.00     0.148 C 
ATOM     29  C   UNL A   1      42.753  19.230  26.685  1.00  0.00     0.148 C 
ATOM     30  C   UNL A   1      44.018  21.165  25.005  1.00  0.00     0.181 C 
ATOM     31  C   UNL A   1      43.419  18.901  25.349  1.00  0.00     0.181 C 
ATOM     32  O   UNL A   1      44.499  19.814  25.094  1.00  0.00    -0.378 OA
ENDBRANCH  21  25
ENDBRANCH  15  18
ENDBRANCH   9  14
ENDBRANCH   5   8
ENDBRANCH   3   4
ENDBRANCH   2   3
ENDBRANCH   1   2
BRANCH   1  33
ATOM     33  C   UNL A   1      33.425  27.326  24.726  1.00  0.00     0.002 C 
BRANCH  33  34
ATOM     34  C   UNL A   1      33.600  27.715  26.196  1.00  0.00     0.021 C 
BRANCH  34  35
ATOM     35  C   UNL A   1      34.301  29.048  26.407  1.00  0.00     0.116 C 
BRANCH  35  36
ATOM     36  N   UNL A   1      33.404  30.189  26.498  1.00  0.00    -0.352 N 
ATOM     37  C   UNL A   1      33.426  31.291  27.343  1.00  0.00     0.251 C 
ATOM     38  H   UNL A   1      32.660  30.181  25.854  1.00  0.00     0.163 HD
ATOM     39  O   UNL A   1      32.516  32.093  27.303  1.00  0.00    -0.269 OA
BRANCH  37  40
ATOM     40  C   UNL A   1      34.621  31.567  28.189  1.00  0.00     0.039 A 
ATOM     41  C   UNL A   1      35.642  32.363  27.643  1.00  0.00     0.014 A 
ATOM     42  C   UNL A   1      34.831  30.924  29.400  1.00  0.00     0.014 A 
ATOM     43  C   UNL A   1      36.932  32.297  28.172  1.00  0.00     0.010 A 
ATOM     44  C   UNL A   1      36.120  30.759  29.853  1.00  0.00     0.010 A 
ATOM     45  C   UNL A   1      37.180  31.399  29.203  1.00  0.00    -0.014 A 
BRANCH  45  46
ATOM     46  C   UNL A   1      38.497  30.993  29.675  1.00  0.00     0.031 A 
ATOM     47  C   UNL A   1      39.102  29.746  29.165  1.00  0.00     0.074 A 
ATOM     48  C   UNL A   1      39.245  31.894  30.347  1.00  0.00     0.049 A 
ATOM     49  N   UNL A   1      40.228  29.263  29.562  1.00  0.00    -0.248 NA
ATOM     50  C   UNL A   1      38.435  28.903  28.180  1.00  0.00     0.031 C 
ATOM     51  C   UNL A   1      40.699  31.921  30.473  1.00  0.00     0.029 A 
ATOM     52  N   UNL A   1      38.801  32.880  31.239  1.00  0.00    -0.354 N 
ATOM     53  C   UNL A   1      40.563  28.215  28.734  1.00  0.00     0.074 A 
ATOM     54  C   UNL A   1      39.373  27.981  27.952  1.00  0.00     0.031 C 
ATOM     55  C   UNL A   1      41.028  32.649  31.550  1.00  0.00     0.029 A 
ATOM     56  C   UNL A   1      39.792  32.949  32.250  1.00  0.00     0.049 A 
ATOM     57  H   UNL A   1      37.976  33.413  31.176  1.00  0.00     0.167 HD
ATOM     58  C   UNL A   1      41.847  27.751  28.760  1.00  0.00     0.037 A 
ATOM     59  C   UNL A   1      39.512  32.560  33.530  1.00  0.00     0.037 A 
ATOM     60  C   UNL A   1      42.586  28.350  29.875  1.00  0.00     0.049 A 
ATOM     61  C   UNL A   1      40.340  31.401  34.047  1.00  0.00     0.074 A 
ATOM     62  C   UNL A   1      43.494  29.388  30.007  1.00  0.00     0.029 A 
ATOM     63  N   UNL A   1      42.201  28.016  31.159  1.00  0.00    -0.354 N 
ATOM     64  N   UNL A   1      41.175  30.713  33.319  1.00  0.00    -0.248 NA
ATOM     65  C   UNL A   1      40.222  30.866  35.406  1.00  0.00     0.031 C 
ATOM     66  C   UNL A   1      43.613  29.693  31.396  1.00  0.00     0.029 A 
ATOM     67  C   UNL A   1      42.791  28.832  32.099  1.00  0.00     0.049 A 
ATOM     68  H   UNL A   1      41.582  27.281  31.376  1.00  0.00     0.167 HD
ATOM     69  C   UNL A   1      41.626  29.640  34.038  1.00  0.00     0.074 A 
ATOM     70  C   UNL A   1      41.021  29.787  35.347  1.00  0.00     0.031 C 
ATOM     71  C   UNL A   1      42.414  28.672  33.493  1.00  0.00     0.037 A 
BRANCH  58  72
ATOM     72  C   UNL A   1      42.521  26.875  27.722  1.00  0.00     0.057 A 
ATOM     73  C   UNL A   1      43.235  25.725  28.127  1.00  0.00     0.134 A 
ATOM     74  C   UNL A   1      42.582  27.111  26.336  1.00  0.00     0.134 A 
ATOM     75  F   UNL A   1      43.237  25.309  29.402  1.00  0.00    -0.206 F 
ATOM     76  C   UNL A   1      43.994  24.938  27.250  1.00  0.00     0.040 A 
ATOM     77  C   UNL A   1      43.345  26.339  25.449  1.00  0.00     0.040 A 
ATOM     78  F   UNL A   1      41.891  28.080  25.737  1.00  0.00    -0.206 F 
ATOM     79  C   UNL A   1      44.068  25.253  25.904  1.00  0.00     0.006 A 
ENDBRANCH  58  72
BRANCH  59  80
ATOM     80  C   UNL A   1      38.093  32.808  33.896  1.00  0.00     0.057 A 
ATOM     81  C   UNL A   1      37.715  34.107  34.279  1.00  0.00     0.134 A 
ATOM     82  C   UNL A   1      37.079  31.943  33.474  1.00  0.00     0.134 A 
ATOM     83  F   UNL A   1      38.644  34.986  34.691  1.00  0.00    -0.206 F 
ATOM     84  C   UNL A   1      36.407  34.567  34.122  1.00  0.00     0.040 A 
ATOM     85  C   UNL A   1      35.762  32.389  33.327  1.00  0.00     0.040 A 
ATOM     86  F   UNL A   1      37.368  30.695  33.076  1.00  0.00    -0.206 F 
ATOM     87  C   UNL A   1      35.433  33.715  33.609  1.00  0.00     0.006 A 
ENDBRANCH  59  80
BRANCH  71  88
ATOM     88  C   UNL A   1      42.875  27.470  34.251  1.00  0.00     0.057 A 
ATOM     89  C   UNL A   1      41.990  26.472  34.671  1.00  0.00     0.134 A 
ATOM     90  C   UNL A   1      44.204  27.356  34.703  1.00  0.00     0.134 A 
ATOM     91  F   UNL A   1      40.701  26.500  34.304  1.00  0.00    -0.206 F 
ATOM     92  C   UNL A   1      42.402  25.422  35.500  1.00  0.00     0.040 A 
ATOM     93  C   UNL A   1      44.616  26.339  35.566  1.00  0.00     0.040 A 
ATOM     94  F   UNL A   1      45.152  28.220  34.308  1.00  0.00    -0.206 F 
ATOM     95  C   UNL A   1      43.712  25.366  35.967  1.00  0.00     0.006 A 
ENDBRANCH  71  88
ENDBRANCH  45  46
ENDBRANCH  37  40
ENDBRANCH  35  36
ENDBRANCH  34  35
ENDBRANCH  33  34
ENDBRANCH   1  33
TORSDOF 16
ENDMDL
MODEL 2
REMARK VINA RESULT:     -12.1      3.725     10.490
REMARK SMILES Cc1c(NC(=O)[C@@H]2CC=CC[C@@H]2C(=O)NCCCCCCNC(=O)c2ccc(-c3c4nc(c(-c5c(F)cccc5F)c5ccc([nH]5)c(-c5c(F)cccc5F)c5nc(c(-c6c(F)cccc6F)c6ccc3[nH]6)C=C5)C=C4)cc2)cccc1C(=O)N1CCOCC1
REMARK SMILES IDX 18 1 17 2 16 3 15 4 13 5 14 6 12 8 7 9 8 10 9 11 11 12 10 13
REMARK SMILES IDX 5 14 4 15 6 17 3 18 1 19 2 20 82 21 79 22 81 23 80 24 83 25
REMARK SMILES IDX 84 26 85 27 86 28 90 29 87 30 89 31 88 32 19 33 20 34 21 35
REMARK SMILES IDX 22 36 23 37 24 39 25 40 26 41 78 42 27 43 77 44 28 45 29 46
REMARK SMILES IDX 30 47 71 48 31 49 76 50 70 51 72 52 32 53 75 54 69 55 68 56
REMARK SMILES IDX 33 58 59 59 42 60 58 61 43 62 46 63 57 64 73 65 44 66 45 67
REMARK SMILES IDX 56 69 74 70 47 71 34 72 35 73 40 74 36 75 37 76 39 77 41 78
REMARK SMILES IDX 38 79 60 80 61 81 66 82 62 83 63 84 65 85 67 86 64 87 48 88
REMARK SMILES IDX 49 89 54 90 50 91 51 92 53 93 55 94 52 95
REMARK H PARENT 15 7 4 16 22 38 72 57 46 68
REMARK Flexibility Score: inf
ROOT
ATOM      1  C   UNL A   1      39.347  22.745  26.405  1.00  0.00     0.002 C 
ENDROOT
BRANCH   1   2
ATOM      2  C   UNL A   1      37.960  22.539  25.788  1.00  0.00     0.021 C 
BRANCH   2   3
ATOM      3  C   UNL A   1      36.944  23.645  26.078  1.00  0.00     0.116 C 
BRANCH   3   4
ATOM      4  N   UNL A   1      35.772  23.143  26.765  1.00  0.00    -0.356 N 
ATOM      5  C   UNL A   1      34.434  23.260  26.633  1.00  0.00     0.224 C 
ATOM      6  O   UNL A   1      33.804  22.538  27.426  1.00  0.00    -0.275 OA
ATOM      7  H   UNL A   1      36.015  22.566  27.524  1.00  0.00     0.163 HD
BRANCH   5   8
ATOM      8  C   UNL A   1      33.630  24.090  25.603  1.00  0.00     0.095 C 
ATOM      9  C   UNL A   1      32.130  23.845  25.313  1.00  0.00     0.095 C 
ATOM     10  C   UNL A   1      31.928  22.407  24.807  1.00  0.00     0.041 C 
ATOM     11  C   UNL A   1      32.872  22.086  23.680  1.00  0.00    -0.030 C 
ATOM     12  C   UNL A   1      34.373  24.013  24.240  1.00  0.00     0.041 C 
ATOM     13  C   UNL A   1      33.958  22.826  23.409  1.00  0.00    -0.030 C 
BRANCH   9  14
ATOM     14  C   UNL A   1      31.268  24.370  26.454  1.00  0.00     0.228 C 
ATOM     15  N   UNL A   1      30.974  25.674  26.669  1.00  0.00    -0.326 N 
ATOM     16  H   UNL A   1      30.229  25.776  27.305  1.00  0.00     0.169 HD
ATOM     17  O   UNL A   1      30.744  23.587  27.259  1.00  0.00    -0.274 OA
BRANCH  15  18
ATOM     18  C   UNL A   1      31.449  26.918  26.225  1.00  0.00     0.044 A 
ATOM     19  C   UNL A   1      30.332  26.377  24.027  1.00  0.00     0.047 C 
ATOM     20  C   UNL A   1      31.016  27.362  24.942  1.00  0.00    -0.015 A 
ATOM     21  C   UNL A   1      31.310  28.682  24.530  1.00  0.00     0.045 A 
ATOM     22  C   UNL A   1      32.251  27.745  27.011  1.00  0.00     0.026 A 
ATOM     23  C   UNL A   1      32.138  29.480  25.336  1.00  0.00     0.014 A 
ATOM     24  C   UNL A   1      32.622  29.008  26.554  1.00  0.00     0.003 A 
BRANCH  21  25
ATOM     25  C   UNL A   1      30.985  29.244  23.184  1.00  0.00     0.254 C 
ATOM     26  O   UNL A   1      31.723  28.911  22.255  1.00  0.00    -0.269 OA
ATOM     27  N   UNL A   1      29.875  30.053  22.971  1.00  0.00    -0.334 N 
ATOM     28  C   UNL A   1      29.247  30.978  23.923  1.00  0.00     0.148 C 
ATOM     29  C   UNL A   1      29.404  30.219  21.593  1.00  0.00     0.148 C 
ATOM     30  C   UNL A   1      27.714  31.009  23.757  1.00  0.00     0.181 C 
ATOM     31  C   UNL A   1      27.877  30.153  21.557  1.00  0.00     0.181 C 
ATOM     32  O   UNL A   1      27.315  31.181  22.388  1.00  0.00    -0.378 OA
ENDBRANCH  21  25
ENDBRANCH  15  18
ENDBRANCH   9  14
ENDBRANCH   5   8
ENDBRANCH   3   4
ENDBRANCH   2   3
ENDBRANCH   1   2
BRANCH   1  33
ATOM     33  C   UNL A   1      40.148  21.473  26.728  1.00  0.00     0.002 C 
BRANCH  33  34
ATOM     34  C   UNL A   1      41.669  21.626  26.796  1.00  0.00     0.021 C 
BRANCH  34  35
ATOM     35  C   UNL A   1      42.318  21.986  25.469  1.00  0.00     0.116 C 
BRANCH  35  36
ATOM     36  N   UNL A   1      43.505  21.208  25.151  1.00  0.00    -0.352 N 
ATOM     37  C   UNL A   1      44.851  21.530  25.257  1.00  0.00     0.251 C 
ATOM     38  H   UNL A   1      43.324  20.305  24.805  1.00  0.00     0.163 HD
ATOM     39  O   UNL A   1      45.686  20.749  24.848  1.00  0.00    -0.269 OA
BRANCH  37  40
ATOM     40  C   UNL A   1      45.278  22.752  25.996  1.00  0.00     0.039 A 
ATOM     41  C   UNL A   1      45.229  22.721  27.400  1.00  0.00     0.014 A 
ATOM     42  C   UNL A   1      45.538  23.950  25.348  1.00  0.00     0.014 A 
ATOM     43  C   UNL A   1      45.180  23.916  28.119  1.00  0.00     0.010 A 
ATOM     44  C   UNL A   1      45.370  25.130  26.036  1.00  0.00     0.010 A 
ATOM     45  C   UNL A   1      45.132  25.112  27.414  1.00  0.00    -0.014 A 
BRANCH  45  46
ATOM     46  C   UNL A   1      44.796  26.414  27.974  1.00  0.00     0.031 A 
ATOM     47  C   UNL A   1      43.412  26.921  27.862  1.00  0.00     0.074 A 
ATOM     48  C   UNL A   1      45.674  26.999  28.816  1.00  0.00     0.049 A 
ATOM     49  N   UNL A   1      43.023  28.081  28.264  1.00  0.00    -0.248 NA
ATOM     50  C   UNL A   1      42.351  26.153  27.222  1.00  0.00     0.031 C 
ATOM     51  C   UNL A   1      45.387  27.986  29.852  1.00  0.00     0.029 A 
ATOM     52  N   UNL A   1      47.074  26.952  28.759  1.00  0.00    -0.354 N 
ATOM     53  C   UNL A   1      41.649  28.127  28.182  1.00  0.00     0.074 A 
ATOM     54  C   UNL A   1      41.294  26.937  27.447  1.00  0.00     0.031 C 
ATOM     55  C   UNL A   1      46.516  28.649  30.144  1.00  0.00     0.029 A 
ATOM     56  C   UNL A   1      47.512  28.235  29.173  1.00  0.00     0.049 A 
ATOM     57  H   UNL A   1      47.634  26.188  28.491  1.00  0.00     0.167 HD
ATOM     58  C   UNL A   1      40.992  29.126  28.839  1.00  0.00     0.037 A 
ATOM     59  C   UNL A   1      48.136  29.076  28.295  1.00  0.00     0.037 A 
ATOM     60  C   UNL A   1      41.944  30.121  29.344  1.00  0.00     0.049 A 
ATOM     61  C   UNL A   1      47.420  30.388  28.041  1.00  0.00     0.074 A 
ATOM     62  C   UNL A   1      42.529  30.386  30.571  1.00  0.00     0.029 A 
ATOM     63  N   UNL A   1      42.636  30.879  28.419  1.00  0.00    -0.354 N 
ATOM     64  N   UNL A   1      46.235  30.678  28.501  1.00  0.00    -0.248 NA
ATOM     65  C   UNL A   1      47.946  31.439  27.167  1.00  0.00     0.031 C 
ATOM     66  C   UNL A   1      43.613  31.289  30.354  1.00  0.00     0.029 A 
ATOM     67  C   UNL A   1      43.670  31.578  29.003  1.00  0.00     0.049 A 
ATOM     68  H   UNL A   1      42.417  30.916  27.460  1.00  0.00     0.167 HD
ATOM     69  C   UNL A   1      45.811  31.856  27.951  1.00  0.00     0.074 A 
ATOM     70  C   UNL A   1      46.924  32.311  27.139  1.00  0.00     0.031 C 
ATOM     71  C   UNL A   1      44.557  32.348  28.149  1.00  0.00     0.037 A 
BRANCH  58  72
ATOM     72  C   UNL A   1      39.515  29.176  29.180  1.00  0.00     0.057 A 
ATOM     73  C   UNL A   1      38.574  29.525  28.185  1.00  0.00     0.134 A 
ATOM     74  C   UNL A   1      38.938  28.969  30.446  1.00  0.00     0.134 A 
ATOM     75  F   UNL A   1      38.934  29.700  26.904  1.00  0.00    -0.206 F 
ATOM     76  C   UNL A   1      37.211  29.722  28.445  1.00  0.00     0.040 A 
ATOM     77  C   UNL A   1      37.578  29.173  30.724  1.00  0.00     0.040 A 
ATOM     78  F   UNL A   1      39.633  28.531  31.495  1.00  0.00    -0.206 F 
ATOM     79  C   UNL A   1      36.708  29.565  29.725  1.00  0.00     0.006 A 
ENDBRANCH  58  72
BRANCH  59  80
ATOM     80  C   UNL A   1      48.928  28.340  27.275  1.00  0.00     0.057 A 
ATOM     81  C   UNL A   1      50.191  27.841  27.638  1.00  0.00     0.134 A 
ATOM     82  C   UNL A   1      48.311  27.772  26.157  1.00  0.00     0.134 A 
ATOM     83  F   UNL A   1      50.833  28.344  28.706  1.00  0.00    -0.206 F 
ATOM     84  C   UNL A   1      50.756  26.737  26.997  1.00  0.00     0.040 A 
ATOM     85  C   UNL A   1      48.875  26.675  25.497  1.00  0.00     0.040 A 
ATOM     86  F   UNL A   1      47.097  28.185  25.764  1.00  0.00    -0.206 F 
ATOM     87  C   UNL A   1      50.077  26.128  25.946  1.00  0.00     0.006 A 
ENDBRANCH  59  80
BRANCH  71  88
ATOM     88  C   UNL A   1      44.063  33.610  27.517  1.00  0.00     0.057 A 
ATOM     89  C   UNL A   1      43.713  34.732  28.275  1.00  0.00     0.134 A 
ATOM     90  C   UNL A   1      43.792  33.679  26.137  1.00  0.00     0.134 A 
ATOM     91  F   UNL A   1      43.919  34.757  29.600  1.00  0.00    -0.206 F 
ATOM     92  C   UNL A   1      43.119  35.858  27.694  1.00  0.00     0.040 A 
ATOM     93  C   UNL A   1      43.160  34.778  25.553  1.00  0.00     0.040 A 
ATOM     94  F   UNL A   1      44.147  32.687  25.306  1.00  0.00    -0.206 F 
ATOM     95  C   UNL A   1      42.821  35.874  26.334  1.00  0.00     0.006 A 
ENDBRANCH  71  88
ENDBRANCH  45  46
ENDBRANCH  37  40
ENDBRANCH  35  36
ENDBRANCH  34  35
ENDBRANCH  33  34
ENDBRANCH   1  33
TORSDOF 16
ENDMDL
MODEL 3
REMARK VINA RESULT:     -12.0      3.084      5.386
REMARK SMILES Cc1c(NC(=O)[C@@H]2CC=CC[C@@H]2C(=O)NCCCCCCNC(=O)c2ccc(-c3c4nc(c(-c5c(F)cccc5F)c5ccc([nH]5)c(-c5c(F)cccc5F)c5nc(c(-c6c(F)cccc6F)c6ccc3[nH]6)C=C5)C=C4)cc2)cccc1C(=O)N1CCOCC1
REMARK SMILES IDX 18 1 17 2 16 3 15 4 13 5 14 6 12 8 7 9 8 10 9 11 11 12 10 13
REMARK SMILES IDX 5 14 4 15 6 17 3 18 1 19 2 20 82 21 79 22 81 23 80 24 83 25
REMARK SMILES IDX 84 26 85 27 86 28 90 29 87 30 89 31 88 32 19 33 20 34 21 35
REMARK SMILES IDX 22 36 23 37 24 39 25 40 26 41 78 42 27 43 77 44 28 45 29 46
REMARK SMILES IDX 30 47 71 48 31 49 76 50 70 51 72 52 32 53 75 54 69 55 68 56
REMARK SMILES IDX 33 58 59 59 42 60 58 61 43 62 46 63 57 64 73 65 44 66 45 67
REMARK SMILES IDX 56 69 74 70 47 71 34 72 35 73 40 74 36 75 37 76 39 77 41 78
REMARK SMILES IDX 38 79 60 80 61 81 66 82 62 83 63 84 65 85 67 86 64 87 48 88
REMARK SMILES IDX 49 89 54 90 50 91 51 92 53 93 55 94 52 95
REMARK H PARENT 15 7 4 16 22 38 72 57 46 68
REMARK Flexibility Score: inf
ROOT
ATOM      1  C   UNL A   1      34.231  31.098  27.930  1.00  0.00     0.002 C 
ENDROOT
BRANCH   1   2
ATOM      2  C   UNL A   1      35.016  29.839  27.552  1.00  0.00     0.021 C 
BRANCH   2   3
ATOM      3  C   UNL A   1      34.199  28.738  26.873  1.00  0.00     0.116 C 
BRANCH   3   4
ATOM      4  N   UNL A   1      34.033  28.979  25.454  1.00  0.00    -0.356 N 
ATOM      5  C   UNL A   1      33.033  28.880  24.553  1.00  0.00     0.224 C 
ATOM      6  O   UNL A   1      33.349  29.308  23.430  1.00  0.00    -0.275 OA
ATOM      7  H   UNL A   1      34.867  29.297  25.040  1.00  0.00     0.163 HD
BRANCH   5   8
ATOM      8  C   UNL A   1      31.580  28.393  24.769  1.00  0.00     0.095 C 
ATOM      9  C   UNL A   1      31.188  26.896  24.780  1.00  0.00     0.095 C 
ATOM     10  C   UNL A   1      31.554  26.254  23.431  1.00  0.00     0.041 C 
ATOM     11  C   UNL A   1      31.019  27.061  22.279  1.00  0.00    -0.030 C 
ATOM     12  C   UNL A   1      30.678  29.089  23.711  1.00  0.00     0.041 C 
ATOM     13  C   UNL A   1      30.600  28.329  22.412  1.00  0.00    -0.030 C 
BRANCH   9  14
ATOM     14  C   UNL A   1      31.636  26.231  26.075  1.00  0.00     0.228 C 
ATOM     15  N   UNL A   1      32.572  25.257  26.164  1.00  0.00    -0.326 N 
ATOM     16  H   UNL A   1      32.876  25.132  27.092  1.00  0.00     0.169 HD
ATOM     17  O   UNL A   1      31.165  26.590  27.163  1.00  0.00    -0.274 OA
BRANCH  15  18
ATOM     18  C   UNL A   1      33.224  24.379  25.283  1.00  0.00     0.044 A 
ATOM     19  C   UNL A   1      31.133  22.969  25.401  1.00  0.00     0.047 C 
ATOM     20  C   UNL A   1      32.464  23.289  24.768  1.00  0.00    -0.015 A 
ATOM     21  C   UNL A   1      33.011  22.490  23.738  1.00  0.00     0.045 A 
ATOM     22  C   UNL A   1      34.535  24.577  24.851  1.00  0.00     0.026 A 
ATOM     23  C   UNL A   1      34.342  22.703  23.342  1.00  0.00     0.014 A 
ATOM     24  C   UNL A   1      35.103  23.722  23.908  1.00  0.00     0.003 A 
BRANCH  21  25
ATOM     25  C   UNL A   1      32.356  21.273  23.167  1.00  0.00     0.254 C 
ATOM     26  O   UNL A   1      31.739  21.424  22.110  1.00  0.00    -0.269 OA
ATOM     27  N   UNL A   1      32.483  20.021  23.758  1.00  0.00    -0.334 N 
ATOM     28  C   UNL A   1      32.650  19.720  25.185  1.00  0.00     0.148 C 
ATOM     29  C   UNL A   1      32.172  18.845  22.941  1.00  0.00     0.148 C 
ATOM     30  C   UNL A   1      33.581  18.509  25.405  1.00  0.00     0.181 C 
ATOM     31  C   UNL A   1      33.210  17.752  23.194  1.00  0.00     0.181 C 
ATOM     32  O   UNL A   1      33.221  17.387  24.583  1.00  0.00    -0.378 OA
ENDBRANCH  21  25
ENDBRANCH  15  18
ENDBRANCH   9  14
ENDBRANCH   5   8
ENDBRANCH   3   4
ENDBRANCH   2   3
ENDBRANCH   1   2
BRANCH   1  33
ATOM     33  C   UNL A   1      35.054  32.378  28.149  1.00  0.00     0.002 C 
BRANCH  33  34
ATOM     34  C   UNL A   1      34.332  33.703  27.895  1.00  0.00     0.021 C 
BRANCH  34  35
ATOM     35  C   UNL A   1      34.781  34.839  28.800  1.00  0.00     0.116 C 
BRANCH  35  36
ATOM     36  N   UNL A   1      33.810  35.216  29.816  1.00  0.00    -0.352 N 
ATOM     37  C   UNL A   1      33.678  34.806  31.136  1.00  0.00     0.251 C 
ATOM     38  H   UNL A   1      33.137  35.870  29.520  1.00  0.00     0.163 HD
ATOM     39  O   UNL A   1      32.729  35.189  31.788  1.00  0.00    -0.269 OA
BRANCH  37  40
ATOM     40  C   UNL A   1      34.762  34.023  31.793  1.00  0.00     0.039 A 
ATOM     41  C   UNL A   1      35.845  34.732  32.340  1.00  0.00     0.014 A 
ATOM     42  C   UNL A   1      34.820  32.639  31.718  1.00  0.00     0.014 A 
ATOM     43  C   UNL A   1      37.061  34.082  32.559  1.00  0.00     0.010 A 
ATOM     44  C   UNL A   1      36.043  32.017  31.816  1.00  0.00     0.010 A 
ATOM     45  C   UNL A   1      37.177  32.750  32.180  1.00  0.00    -0.014 A 
BRANCH  45  46
ATOM     46  C   UNL A   1      38.425  32.007  32.068  1.00  0.00     0.031 A 
ATOM     47  C   UNL A   1      38.454  30.741  31.306  1.00  0.00     0.074 A 
ATOM     48  C   UNL A   1      39.574  32.620  32.422  1.00  0.00     0.049 A 
ATOM     49  N   UNL A   1      39.483  29.975  31.198  1.00  0.00    -0.248 NA
ATOM     50  C   UNL A   1      37.273  30.209  30.636  1.00  0.00     0.031 C 
ATOM     51  C   UNL A   1      40.923  32.314  31.956  1.00  0.00     0.029 A 
ATOM     52  N   UNL A   1      39.766  33.545  33.458  1.00  0.00    -0.354 N 
ATOM     53  C   UNL A   1      39.203  29.005  30.262  1.00  0.00     0.074 A 
ATOM     54  C   UNL A   1      37.788  29.147  30.013  1.00  0.00     0.031 C 
ATOM     55  C   UNL A   1      41.808  32.795  32.842  1.00  0.00     0.029 A 
ATOM     56  C   UNL A   1      41.048  33.255  33.990  1.00  0.00     0.049 A 
ATOM     57  H   UNL A   1      39.143  34.248  33.753  1.00  0.00     0.167 HD
ATOM     58  C   UNL A   1      40.237  28.274  29.753  1.00  0.00     0.037 A 
ATOM     59  C   UNL A   1      41.183  32.762  35.257  1.00  0.00     0.037 A 
ATOM     60  C   UNL A   1      41.469  28.538  30.502  1.00  0.00     0.049 A 
ATOM     61  C   UNL A   1      41.821  31.390  35.350  1.00  0.00     0.074 A 
ATOM     62  C   UNL A   1      42.591  29.325  30.304  1.00  0.00     0.029 A 
ATOM     63  N   UNL A   1      41.526  28.119  31.818  1.00  0.00    -0.354 N 
ATOM     64  N   UNL A   1      42.114  30.646  34.320  1.00  0.00    -0.248 NA
ATOM     65  C   UNL A   1      42.092  30.710  36.618  1.00  0.00     0.031 C 
ATOM     66  C   UNL A   1      43.299  29.401  31.540  1.00  0.00     0.029 A 
ATOM     67  C   UNL A   1      42.614  28.648  32.477  1.00  0.00     0.049 A 
ATOM     68  H   UNL A   1      40.869  27.514  32.233  1.00  0.00     0.167 HD
ATOM     69  C   UNL A   1      42.513  29.412  34.752  1.00  0.00     0.074 A 
ATOM     70  C   UNL A   1      42.507  29.502  36.199  1.00  0.00     0.031 C 
ATOM     71  C   UNL A   1      42.763  28.382  33.897  1.00  0.00     0.037 A 
BRANCH  58  72
ATOM     72  C   UNL A   1      40.222  27.427  28.495  1.00  0.00     0.057 A 
ATOM     73  C   UNL A   1      39.604  26.157  28.509  1.00  0.00     0.134 A 
ATOM     74  C   UNL A   1      40.836  27.737  27.267  1.00  0.00     0.134 A 
ATOM     75  F   UNL A   1      38.916  25.719  29.574  1.00  0.00    -0.206 F 
ATOM     76  C   UNL A   1      39.659  25.258  27.434  1.00  0.00     0.040 A 
ATOM     77  C   UNL A   1      40.908  26.844  26.188  1.00  0.00     0.040 A 
ATOM     78  F   UNL A   1      41.381  28.925  27.010  1.00  0.00    -0.206 F 
ATOM     79  C   UNL A   1      40.330  25.592  26.271  1.00  0.00     0.006 A 
ENDBRANCH  58  72
BRANCH  59  80
ATOM     80  C   UNL A   1      40.120  33.259  36.171  1.00  0.00     0.057 A 
ATOM     81  C   UNL A   1      39.010  32.434  36.419  1.00  0.00     0.134 A 
ATOM     82  C   UNL A   1      40.380  34.280  37.089  1.00  0.00     0.134 A 
ATOM     83  F   UNL A   1      38.710  31.433  35.575  1.00  0.00    -0.206 F 
ATOM     84  C   UNL A   1      38.270  32.536  37.598  1.00  0.00     0.040 A 
ATOM     85  C   UNL A   1      39.636  34.402  38.266  1.00  0.00     0.040 A 
ATOM     86  F   UNL A   1      41.434  35.093  36.926  1.00  0.00    -0.206 F 
ATOM     87  C   UNL A   1      38.607  33.500  38.543  1.00  0.00     0.006 A 
ENDBRANCH  59  80
BRANCH  71  88
ATOM     88  C   UNL A   1      43.155  27.014  34.355  1.00  0.00     0.057 A 
ATOM     89  C   UNL A   1      44.423  26.481  34.102  1.00  0.00     0.134 A 
ATOM     90  C   UNL A   1      42.216  26.142  34.939  1.00  0.00     0.134 A 
ATOM     91  F   UNL A   1      45.381  27.228  33.536  1.00  0.00    -0.206 F 
ATOM     92  C   UNL A   1      44.738  25.151  34.407  1.00  0.00     0.040 A 
ATOM     93  C   UNL A   1      42.504  24.803  35.206  1.00  0.00     0.040 A 
ATOM     94  F   UNL A   1      40.991  26.566  35.285  1.00  0.00    -0.206 F 
ATOM     95  C   UNL A   1      43.771  24.303  34.940  1.00  0.00     0.006 A 
ENDBRANCH  71  88
ENDBRANCH  45  46
ENDBRANCH  37  40
ENDBRANCH  35  36
ENDBRANCH  34  35
ENDBRANCH  33  34
ENDBRANCH   1  33
TORSDOF 16
ENDMDL
