MODEL 1
REMARK VINA RESULT:     -11.2      0.000      0.000
REMARK SMILES CC1(C)CCSC[C@@]1(Nc1ccccc1Br)C(=O)NCCCCCCNC(=O)c1ccc(-c2c3nc(c(-c4c(F)cccc4F)c4ccc([nH]4)c(-c4c(F)cccc4F)c4nc(c(-c5c(F)cccc5F)c5ccc2[nH]5)C=C4)C=C3)cc1
REMARK SMILES IDX 22 1 21 2 20 3 19 4 17 5 18 6 8 8 1 9 2 10 3 11 4 12 5 13
REMARK SMILES IDX 7 14 6 15 9 16 10 18 11 19 15 20 12 21 14 22 16 23 13 24
REMARK SMILES IDX 23 25 24 26 25 27 26 28 27 29 28 31 29 32 30 33 82 34 31 35
REMARK SMILES IDX 81 36 32 37 33 38 34 39 75 40 35 41 80 42 74 43 76 44 36 45
REMARK SMILES IDX 79 46 73 47 72 48 37 50 63 51 46 52 62 53 47 54 50 55 61 56
REMARK SMILES IDX 77 57 48 58 49 59 60 61 78 62 51 63 38 64 39 65 44 66 40 67
REMARK SMILES IDX 41 68 43 69 45 70 42 71 64 72 65 73 70 74 66 75 67 76 69 77
REMARK SMILES IDX 71 78 68 79 52 80 53 81 58 82 54 83 55 84 57 85 59 86 56 87
REMARK H PARENT 19 7 9 17 26 30 76 49 50 60
REMARK Flexibility Score: inf
ROOT
ATOM      1  C   UNL A   1      36.321  21.845  24.521  1.00  0.00     0.002 C 
ENDROOT
BRANCH   1   2
ATOM      2  C   UNL A   1      35.993  22.807  25.669  1.00  0.00     0.021 C 
BRANCH   2   3
ATOM      3  C   UNL A   1      35.578  24.218  25.248  1.00  0.00     0.116 C 
BRANCH   3   4
ATOM      4  N   UNL A   1      34.981  24.266  23.933  1.00  0.00    -0.354 N 
ATOM      5  C   UNL A   1      33.950  24.907  23.340  1.00  0.00     0.247 C 
ATOM      6  O   UNL A   1      34.091  24.917  22.101  1.00  0.00    -0.272 OA
ATOM      7  H   UNL A   1      35.451  23.675  23.301  1.00  0.00     0.163 HD
BRANCH   5   8
ATOM      8  C   UNL A   1      32.633  25.555  23.978  1.00  0.00     0.131 C 
ATOM      9  C   UNL A   1      33.842  27.773  24.684  1.00  0.00     0.014 C 
ATOM     10  C   UNL A   1      32.772  26.719  25.070  1.00  0.00    -0.002 C 
ATOM     11  C   UNL A   1      33.078  26.130  26.480  1.00  0.00     0.014 C 
ATOM     12  C   UNL A   1      31.431  27.514  25.290  1.00  0.00     0.020 C 
ATOM     13  C   UNL A   1      30.851  28.206  24.068  1.00  0.00     0.070 C 
ATOM     14  C   UNL A   1      31.913  26.107  22.685  1.00  0.00     0.108 C 
ATOM     15  S   UNL A   1      30.320  26.969  22.884  1.00  0.00    -0.159 SA
BRANCH   8  16
ATOM     16  N   UNL A   1      31.784  24.473  24.619  1.00  0.00    -0.369 N 
ATOM     17  H   UNL A   1      31.040  24.749  25.203  1.00  0.00     0.161 HD
BRANCH  16  18
ATOM     18  C   UNL A   1      31.999  23.105  24.422  1.00  0.00     0.049 A 
ATOM     19  C   UNL A   1      31.790  22.577  23.136  1.00  0.00     0.027 A 
ATOM     20  C   UNL A   1      32.413  22.211  25.425  1.00  0.00     0.041 A 
ATOM     21  C   UNL A   1      32.041  21.237  22.837  1.00  0.00     0.002 A 
ATOM     22  C   UNL A   1      32.684  20.868  25.124  1.00  0.00     0.018 A 
ATOM     23  Br  UNL A   1      32.477  22.704  27.262  1.00  0.00    -0.049 Br
ATOM     24  C   UNL A   1      32.508  20.384  23.828  1.00  0.00     0.001 A 
ENDBRANCH  16  18
ENDBRANCH   8  16
ENDBRANCH   5   8
ENDBRANCH   3   4
ENDBRANCH   2   3
ENDBRANCH   1   2
BRANCH   1  25
ATOM     25  C   UNL A   1      36.367  20.358  24.885  1.00  0.00     0.002 C 
BRANCH  25  26
ATOM     26  C   UNL A   1      37.732  19.681  24.744  1.00  0.00     0.021 C 
BRANCH  26  27
ATOM     27  C   UNL A   1      38.788  20.121  25.751  1.00  0.00     0.116 C 
BRANCH  27  28
ATOM     28  N   UNL A   1      39.960  19.267  25.750  1.00  0.00    -0.352 N 
ATOM     29  C   UNL A   1      41.267  19.564  26.047  1.00  0.00     0.251 C 
ATOM     30  H   UNL A   1      39.794  18.330  25.497  1.00  0.00     0.163 HD
ATOM     31  O   UNL A   1      42.138  18.722  25.857  1.00  0.00    -0.269 OA
BRANCH  29  32
ATOM     32  C   UNL A   1      41.639  20.896  26.576  1.00  0.00     0.039 A 
ATOM     33  C   UNL A   1      41.540  21.114  27.954  1.00  0.00     0.014 A 
ATOM     34  C   UNL A   1      42.025  21.943  25.733  1.00  0.00     0.014 A 
ATOM     35  C   UNL A   1      41.851  22.366  28.486  1.00  0.00     0.010 A 
ATOM     36  C   UNL A   1      42.409  23.169  26.273  1.00  0.00     0.010 A 
ATOM     37  C   UNL A   1      42.299  23.402  27.651  1.00  0.00    -0.014 A 
BRANCH  37  38
ATOM     38  C   UNL A   1      42.597  24.748  28.206  1.00  0.00     0.031 A 
ATOM     39  C   UNL A   1      44.008  25.112  28.584  1.00  0.00     0.074 A 
ATOM     40  C   UNL A   1      41.600  25.636  28.386  1.00  0.00     0.049 A 
ATOM     41  N   UNL A   1      44.470  26.232  29.082  1.00  0.00    -0.248 NA
ATOM     42  C   UNL A   1      45.032  24.070  28.405  1.00  0.00     0.031 C 
ATOM     43  C   UNL A   1      40.185  25.390  28.103  1.00  0.00     0.029 A 
ATOM     44  N   UNL A   1      41.629  26.926  28.851  1.00  0.00    -0.354 N 
ATOM     45  C   UNL A   1      45.828  26.024  29.282  1.00  0.00     0.074 A 
ATOM     46  C   UNL A   1      46.106  24.654  28.914  1.00  0.00     0.031 C 
ATOM     47  C   UNL A   1      39.485  26.506  28.367  1.00  0.00     0.029 A 
ATOM     48  C   UNL A   1      40.396  27.534  28.863  1.00  0.00     0.049 A 
ATOM     49  H   UNL A   1      42.453  27.375  29.148  1.00  0.00     0.167 HD
ATOM     50  C   UNL A   1      46.768  26.902  29.707  1.00  0.00     0.037 A 
ATOM     51  C   UNL A   1      40.044  28.782  29.223  1.00  0.00     0.037 A 
ATOM     52  C   UNL A   1      46.498  28.273  30.047  1.00  0.00     0.049 A 
ATOM     53  C   UNL A   1      41.107  29.744  29.678  1.00  0.00     0.074 A 
ATOM     54  C   UNL A   1      47.385  29.256  30.450  1.00  0.00     0.029 A 
ATOM     55  N   UNL A   1      45.240  28.858  30.022  1.00  0.00    -0.354 N 
ATOM     56  N   UNL A   1      42.398  29.552  29.804  1.00  0.00    -0.248 NA
ATOM     57  C   UNL A   1      40.665  31.102  30.022  1.00  0.00     0.031 C 
ATOM     58  C   UNL A   1      46.660  30.427  30.700  1.00  0.00     0.029 A 
ATOM     59  C   UNL A   1      45.327  30.185  30.408  1.00  0.00     0.049 A 
ATOM     60  H   UNL A   1      44.408  28.397  29.766  1.00  0.00     0.167 HD
ATOM     61  C   UNL A   1      42.927  30.774  30.203  1.00  0.00     0.074 A 
ATOM     62  C   UNL A   1      41.818  31.701  30.289  1.00  0.00     0.031 C 
ATOM     63  C   UNL A   1      44.215  31.099  30.470  1.00  0.00     0.037 A 
BRANCH  50  64
ATOM     64  C   UNL A   1      48.180  26.401  29.816  1.00  0.00     0.057 A 
ATOM     65  C   UNL A   1      49.089  26.519  28.756  1.00  0.00     0.134 A 
ATOM     66  C   UNL A   1      48.643  25.813  30.999  1.00  0.00     0.134 A 
ATOM     67  F   UNL A   1      48.707  27.061  27.589  1.00  0.00    -0.206 F 
ATOM     68  C   UNL A   1      50.397  26.040  28.856  1.00  0.00     0.040 A 
ATOM     69  C   UNL A   1      49.957  25.356  31.122  1.00  0.00     0.040 A 
ATOM     70  F   UNL A   1      47.830  25.674  32.056  1.00  0.00    -0.206 F 
ATOM     71  C   UNL A   1      50.836  25.462  30.045  1.00  0.00     0.006 A 
ENDBRANCH  50  64
BRANCH  51  72
ATOM     72  C   UNL A   1      38.627  29.213  29.124  1.00  0.00     0.057 A 
ATOM     73  C   UNL A   1      37.777  29.158  30.235  1.00  0.00     0.134 A 
ATOM     74  C   UNL A   1      38.083  29.675  27.919  1.00  0.00     0.134 A 
ATOM     75  F   UNL A   1      38.235  28.708  31.412  1.00  0.00    -0.206 F 
ATOM     76  C   UNL A   1      36.433  29.525  30.148  1.00  0.00     0.040 A 
ATOM     77  C   UNL A   1      36.748  30.069  27.824  1.00  0.00     0.040 A 
ATOM     78  F   UNL A   1      38.848  29.759  26.821  1.00  0.00    -0.206 F 
ATOM     79  C   UNL A   1      35.916  29.986  28.939  1.00  0.00     0.006 A 
ENDBRANCH  51  72
BRANCH  63  80
ATOM     80  C   UNL A   1      44.501  32.529  30.825  1.00  0.00     0.057 A 
ATOM     81  C   UNL A   1      44.763  33.500  29.851  1.00  0.00     0.134 A 
ATOM     82  C   UNL A   1      44.487  32.943  32.164  1.00  0.00     0.134 A 
ATOM     83  F   UNL A   1      44.802  33.167  28.551  1.00  0.00    -0.206 F 
ATOM     84  C   UNL A   1      45.034  34.825  30.198  1.00  0.00     0.040 A 
ATOM     85  C   UNL A   1      44.729  34.269  32.521  1.00  0.00     0.040 A 
ATOM     86  F   UNL A   1      44.232  32.064  33.145  1.00  0.00    -0.206 F 
ATOM     87  C   UNL A   1      45.012  35.214  31.536  1.00  0.00     0.006 A 
ENDBRANCH  63  80
ENDBRANCH  37  38
ENDBRANCH  29  32
ENDBRANCH  27  28
ENDBRANCH  26  27
ENDBRANCH  25  26
ENDBRANCH   1  25
TORSDOF 15
ENDMDL
MODEL 2
REMARK VINA RESULT:     -11.1      1.328      2.760
REMARK SMILES CC1(C)CCSC[C@@]1(Nc1ccccc1Br)C(=O)NCCCCCCNC(=O)c1ccc(-c2c3nc(c(-c4c(F)cccc4F)c4ccc([nH]4)c(-c4c(F)cccc4F)c4nc(c(-c5c(F)cccc5F)c5ccc2[nH]5)C=C4)C=C3)cc1
REMARK SMILES IDX 22 1 21 2 20 3 19 4 17 5 18 6 8 8 1 9 2 10 3 11 4 12 5 13
REMARK SMILES IDX 7 14 6 15 9 16 10 18 11 19 15 20 12 21 14 22 16 23 13 24
REMARK SMILES IDX 23 25 24 26 25 27 26 28 27 29 28 31 29 32 30 33 82 34 31 35
REMARK SMILES IDX 81 36 32 37 33 38 34 39 75 40 35 41 80 42 74 43 76 44 36 45
REMARK SMILES IDX 79 46 73 47 72 48 37 50 63 51 46 52 62 53 47 54 50 55 61 56
REMARK SMILES IDX 77 57 48 58 49 59 60 61 78 62 51 63 38 64 39 65 44 66 40 67
REMARK SMILES IDX 41 68 43 69 45 70 42 71 64 72 65 73 70 74 66 75 67 76 69 77
REMARK SMILES IDX 71 78 68 79 52 80 53 81 58 82 54 83 55 84 57 85 59 86 56 87
REMARK H PARENT 19 7 9 17 26 30 76 49 50 60
REMARK Flexibility Score: inf
ROOT
ATOM      1  C   UNL A   1      35.950  21.394  25.437  1.00  0.00     0.002 C 
ENDROOT
BRANCH   1   2
ATOM      2  C   UNL A   1      34.588  21.614  26.107  1.00  0.00     0.021 C 
BRANCH   2   3
ATOM      3  C   UNL A   1      34.390  22.982  26.762  1.00  0.00     0.116 C 
BRANCH   3   4
ATOM      4  N   UNL A   1      33.016  23.429  26.738  1.00  0.00    -0.354 N 
ATOM      5  C   UNL A   1      32.199  24.062  25.867  1.00  0.00     0.247 C 
ATOM      6  O   UNL A   1      31.003  23.860  26.158  1.00  0.00    -0.272 OA
ATOM      7  H   UNL A   1      32.551  23.215  27.579  1.00  0.00     0.163 HD
BRANCH   5   8
ATOM      8  C   UNL A   1      32.548  25.021  24.634  1.00  0.00     0.131 C 
ATOM      9  C   UNL A   1      32.514  23.077  22.873  1.00  0.00     0.014 C 
ATOM     10  C   UNL A   1      33.197  24.401  23.307  1.00  0.00    -0.002 C 
ATOM     11  C   UNL A   1      34.730  24.185  23.482  1.00  0.00     0.014 C 
ATOM     12  C   UNL A   1      33.103  25.369  22.070  1.00  0.00     0.020 C 
ATOM     13  C   UNL A   1      31.705  25.790  21.649  1.00  0.00     0.070 C 
ATOM     14  C   UNL A   1      31.126  25.625  24.311  1.00  0.00     0.108 C 
ATOM     15  S   UNL A   1      30.982  26.811  22.934  1.00  0.00    -0.159 SA
BRANCH   8  16
ATOM     16  N   UNL A   1      33.487  26.124  25.087  1.00  0.00    -0.369 N 
ATOM     17  H   UNL A   1      34.456  25.982  24.986  1.00  0.00     0.161 HD
BRANCH  16  18
ATOM     18  C   UNL A   1      33.048  27.332  25.639  1.00  0.00     0.049 A 
ATOM     19  C   UNL A   1      32.296  27.287  26.826  1.00  0.00     0.027 A 
ATOM     20  C   UNL A   1      33.306  28.600  25.089  1.00  0.00     0.041 A 
ATOM     21  C   UNL A   1      31.872  28.447  27.478  1.00  0.00     0.002 A 
ATOM     22  C   UNL A   1      32.897  29.768  25.751  1.00  0.00     0.018 A 
ATOM     23  Br  UNL A   1      34.067  28.821  23.358  1.00  0.00    -0.049 Br
ATOM     24  C   UNL A   1      32.190  29.691  26.950  1.00  0.00     0.001 A 
ENDBRANCH  16  18
ENDBRANCH   8  16
ENDBRANCH   5   8
ENDBRANCH   3   4
ENDBRANCH   2   3
ENDBRANCH   1   2
BRANCH   1  25
ATOM     25  C   UNL A   1      36.272  19.953  25.029  1.00  0.00     0.002 C 
BRANCH  25  26
ATOM     26  C   UNL A   1      37.733  19.675  24.670  1.00  0.00     0.021 C 
BRANCH  26  27
ATOM     27  C   UNL A   1      38.757  20.096  25.719  1.00  0.00     0.116 C 
BRANCH  27  28
ATOM     28  N   UNL A   1      39.933  19.247  25.731  1.00  0.00    -0.352 N 
ATOM     29  C   UNL A   1      41.234  19.552  26.043  1.00  0.00     0.251 C 
ATOM     30  H   UNL A   1      39.775  18.309  25.477  1.00  0.00     0.163 HD
ATOM     31  O   UNL A   1      42.113  18.715  25.864  1.00  0.00    -0.269 OA
BRANCH  29  32
ATOM     32  C   UNL A   1      41.593  20.886  26.576  1.00  0.00     0.039 A 
ATOM     33  C   UNL A   1      41.533  21.086  27.958  1.00  0.00     0.014 A 
ATOM     34  C   UNL A   1      41.930  21.950  25.734  1.00  0.00     0.014 A 
ATOM     35  C   UNL A   1      41.832  22.340  28.496  1.00  0.00     0.010 A 
ATOM     36  C   UNL A   1      42.303  23.179  26.276  1.00  0.00     0.010 A 
ATOM     37  C   UNL A   1      42.231  23.395  27.659  1.00  0.00    -0.014 A 
BRANCH  37  38
ATOM     38  C   UNL A   1      42.516  24.741  28.220  1.00  0.00     0.031 A 
ATOM     39  C   UNL A   1      43.917  25.103  28.635  1.00  0.00     0.074 A 
ATOM     40  C   UNL A   1      41.517  25.631  28.372  1.00  0.00     0.049 A 
ATOM     41  N   UNL A   1      44.367  26.223  29.144  1.00  0.00    -0.248 NA
ATOM     42  C   UNL A   1      44.944  24.060  28.485  1.00  0.00     0.031 C 
ATOM     43  C   UNL A   1      40.109  25.387  28.051  1.00  0.00     0.029 A 
ATOM     44  N   UNL A   1      41.534  26.922  28.836  1.00  0.00    -0.354 N 
ATOM     45  C   UNL A   1      45.720  26.013  29.380  1.00  0.00     0.074 A 
ATOM     46  C   UNL A   1      46.005  24.642  29.021  1.00  0.00     0.031 C 
ATOM     47  C   UNL A   1      39.404  26.504  28.295  1.00  0.00     0.029 A 
ATOM     48  C   UNL A   1      40.303  27.531  28.814  1.00  0.00     0.049 A 
ATOM     49  H   UNL A   1      42.351  27.370  29.154  1.00  0.00     0.167 HD
ATOM     50  C   UNL A   1      46.649  26.890  29.829  1.00  0.00     0.037 A 
ATOM     51  C   UNL A   1      39.943  28.781  29.163  1.00  0.00     0.037 A 
ATOM     52  C   UNL A   1      46.372  28.263  30.160  1.00  0.00     0.049 A 
ATOM     53  C   UNL A   1      40.996  29.741  29.645  1.00  0.00     0.074 A 
ATOM     54  C   UNL A   1      47.250  29.245  30.585  1.00  0.00     0.029 A 
ATOM     55  N   UNL A   1      45.116  28.849  30.101  1.00  0.00    -0.354 N 
ATOM     56  N   UNL A   1      42.283  29.548  29.806  1.00  0.00    -0.248 NA
ATOM     57  C   UNL A   1      40.547  31.101  29.975  1.00  0.00     0.031 C 
ATOM     58  C   UNL A   1      46.520  30.416  30.814  1.00  0.00     0.029 A 
ATOM     59  C   UNL A   1      45.195  30.176  30.487  1.00  0.00     0.049 A 
ATOM     60  H   UNL A   1      44.291  28.389  29.823  1.00  0.00     0.167 HD
ATOM     61  C   UNL A   1      42.803  30.769  30.217  1.00  0.00     0.074 A 
ATOM     62  C   UNL A   1      41.693  31.698  30.272  1.00  0.00     0.031 C 
ATOM     63  C   UNL A   1      44.084  31.092  30.518  1.00  0.00     0.037 A 
BRANCH  50  64
ATOM     64  C   UNL A   1      48.057  26.388  29.976  1.00  0.00     0.057 A 
ATOM     65  C   UNL A   1      48.984  26.469  28.928  1.00  0.00     0.134 A 
ATOM     66  C   UNL A   1      48.498  25.834  31.185  1.00  0.00     0.134 A 
ATOM     67  F   UNL A   1      48.623  26.976  27.739  1.00  0.00    -0.206 F 
ATOM     68  C   UNL A   1      50.288  25.988  29.065  1.00  0.00     0.040 A 
ATOM     69  C   UNL A   1      49.808  25.376  31.343  1.00  0.00     0.040 A 
ATOM     70  F   UNL A   1      47.667  25.731  32.232  1.00  0.00    -0.206 F 
ATOM     71  C   UNL A   1      50.705  25.445  30.278  1.00  0.00     0.006 A 
ENDBRANCH  50  64
BRANCH  51  72
ATOM     72  C   UNL A   1      38.530  29.213  29.025  1.00  0.00     0.057 A 
ATOM     73  C   UNL A   1      37.655  29.176  30.117  1.00  0.00     0.134 A 
ATOM     74  C   UNL A   1      38.016  29.660  27.802  1.00  0.00     0.134 A 
ATOM     75  F   UNL A   1      38.084  28.740  31.311  1.00  0.00    -0.206 F 
ATOM     76  C   UNL A   1      36.314  29.545  29.994  1.00  0.00     0.040 A 
ATOM     77  C   UNL A   1      36.684  30.056  27.671  1.00  0.00     0.040 A 
ATOM     78  F   UNL A   1      38.806  29.728  26.720  1.00  0.00    -0.206 F 
ATOM     79  C   UNL A   1      35.827  29.990  28.768  1.00  0.00     0.006 A 
ENDBRANCH  51  72
BRANCH  63  80
ATOM     80  C   UNL A   1      44.362  32.523  30.878  1.00  0.00     0.057 A 
ATOM     81  C   UNL A   1      44.333  32.977  32.202  1.00  0.00     0.134 A 
ATOM     82  C   UNL A   1      44.688  33.453  29.882  1.00  0.00     0.134 A 
ATOM     83  F   UNL A   1      44.017  32.139  33.202  1.00  0.00    -0.206 F 
ATOM     84  C   UNL A   1      44.588  34.312  32.520  1.00  0.00     0.040 A 
ATOM     85  C   UNL A   1      44.971  34.783  30.190  1.00  0.00     0.040 A 
ATOM     86  F   UNL A   1      44.743  33.081  28.594  1.00  0.00    -0.206 F 
ATOM     87  C   UNL A   1      44.913  35.218  31.513  1.00  0.00     0.006 A 
ENDBRANCH  63  80
ENDBRANCH  37  38
ENDBRANCH  29  32
ENDBRANCH  27  28
ENDBRANCH  26  27
ENDBRANCH  25  26
ENDBRANCH   1  25
TORSDOF 15
ENDMDL
MODEL 3
REMARK VINA RESULT:     -11.1      0.475      6.081
REMARK SMILES CC1(C)CCSC[C@@]1(Nc1ccccc1Br)C(=O)NCCCCCCNC(=O)c1ccc(-c2c3nc(c(-c4c(F)cccc4F)c4ccc([nH]4)c(-c4c(F)cccc4F)c4nc(c(-c5c(F)cccc5F)c5ccc2[nH]5)C=C4)C=C3)cc1
REMARK SMILES IDX 22 1 21 2 20 3 19 4 17 5 18 6 8 8 1 9 2 10 3 11 4 12 5 13
REMARK SMILES IDX 7 14 6 15 9 16 10 18 11 19 15 20 12 21 14 22 16 23 13 24
REMARK SMILES IDX 23 25 24 26 25 27 26 28 27 29 28 31 29 32 30 33 82 34 31 35
REMARK SMILES IDX 81 36 32 37 33 38 34 39 75 40 35 41 80 42 74 43 76 44 36 45
REMARK SMILES IDX 79 46 73 47 72 48 37 50 63 51 46 52 62 53 47 54 50 55 61 56
REMARK SMILES IDX 77 57 48 58 49 59 60 61 78 62 51 63 38 64 39 65 44 66 40 67
REMARK SMILES IDX 41 68 43 69 45 70 42 71 64 72 65 73 70 74 66 75 67 76 69 77
REMARK SMILES IDX 71 78 68 79 52 80 53 81 58 82 54 83 55 84 57 85 59 86 56 87
REMARK H PARENT 19 7 9 17 26 30 76 49 50 60
REMARK Flexibility Score: inf
ROOT
ATOM      1  C   UNL A   1      36.307  22.102  24.209  1.00  0.00     0.002 C 
ENDROOT
BRANCH   1   2
ATOM      2  C   UNL A   1      36.522  23.328  25.105  1.00  0.00     0.021 C 
BRANCH   2   3
ATOM      3  C   UNL A   1      35.411  24.379  25.061  1.00  0.00     0.116 C 
BRANCH   3   4
ATOM      4  N   UNL A   1      34.839  24.546  23.745  1.00  0.00    -0.354 N 
ATOM      5  C   UNL A   1      33.838  25.263  23.188  1.00  0.00     0.247 C 
ATOM      6  O   UNL A   1      34.001  25.364  21.956  1.00  0.00    -0.272 OA
ATOM      7  H   UNL A   1      35.302  23.992  23.076  1.00  0.00     0.163 HD
BRANCH   5   8
ATOM      8  C   UNL A   1      32.529  25.900  23.854  1.00  0.00     0.131 C 
ATOM      9  C   UNL A   1      33.751  28.099  24.596  1.00  0.00     0.014 C 
ATOM     10  C   UNL A   1      32.683  27.039  24.970  1.00  0.00    -0.002 C 
ATOM     11  C   UNL A   1      33.003  26.418  26.363  1.00  0.00     0.014 C 
ATOM     12  C   UNL A   1      31.347  27.832  25.222  1.00  0.00     0.020 C 
ATOM     13  C   UNL A   1      30.755  28.552  24.022  1.00  0.00     0.070 C 
ATOM     14  C   UNL A   1      31.797  26.482  22.582  1.00  0.00     0.108 C 
ATOM     15  S   UNL A   1      30.208  27.343  22.817  1.00  0.00    -0.159 SA
BRANCH   8  16
ATOM     16  N   UNL A   1      31.684  24.806  24.481  1.00  0.00    -0.369 N 
ATOM     17  H   UNL A   1      30.940  25.071  25.068  1.00  0.00     0.161 HD
BRANCH  16  18
ATOM     18  C   UNL A   1      31.906  23.441  24.267  1.00  0.00     0.049 A 
ATOM     19  C   UNL A   1      31.709  22.931  22.971  1.00  0.00     0.027 A 
ATOM     20  C   UNL A   1      32.314  22.535  25.260  1.00  0.00     0.041 A 
ATOM     21  C   UNL A   1      31.967  21.596  22.655  1.00  0.00     0.002 A 
ATOM     22  C   UNL A   1      32.592  21.196  24.942  1.00  0.00     0.018 A 
ATOM     23  Br  UNL A   1      32.360  23.001  27.105  1.00  0.00    -0.049 Br
ATOM     24  C   UNL A   1      32.429  20.731  23.638  1.00  0.00     0.001 A 
ENDBRANCH  16  18
ENDBRANCH   8  16
ENDBRANCH   5   8
ENDBRANCH   3   4
ENDBRANCH   2   3
ENDBRANCH   1   2
BRANCH   1  25
ATOM     25  C   UNL A   1      36.295  20.746  24.921  1.00  0.00     0.002 C 
BRANCH  25  26
ATOM     26  C   UNL A   1      37.587  19.932  24.823  1.00  0.00     0.021 C 
BRANCH  26  27
ATOM     27  C   UNL A   1      38.690  20.335  25.795  1.00  0.00     0.116 C 
BRANCH  27  28
ATOM     28  N   UNL A   1      39.807  19.410  25.795  1.00  0.00    -0.352 N 
ATOM     29  C   UNL A   1      41.133  19.632  26.069  1.00  0.00     0.251 C 
ATOM     30  H   UNL A   1      39.580  18.480  25.564  1.00  0.00     0.163 HD
ATOM     31  O   UNL A   1      41.949  18.736  25.885  1.00  0.00    -0.269 OA
BRANCH  29  32
ATOM     32  C   UNL A   1      41.594  20.949  26.566  1.00  0.00     0.039 A 
ATOM     33  C   UNL A   1      41.550  21.191  27.942  1.00  0.00     0.014 A 
ATOM     34  C   UNL A   1      42.011  21.961  25.695  1.00  0.00     0.014 A 
ATOM     35  C   UNL A   1      41.945  22.433  28.445  1.00  0.00     0.010 A 
ATOM     36  C   UNL A   1      42.477  23.172  26.204  1.00  0.00     0.010 A 
ATOM     37  C   UNL A   1      42.423  23.430  27.581  1.00  0.00    -0.014 A 
BRANCH  37  38
ATOM     38  C   UNL A   1      42.811  24.765  28.105  1.00  0.00     0.031 A 
ATOM     39  C   UNL A   1      41.763  25.823  28.322  1.00  0.00     0.074 A 
ATOM     40  C   UNL A   1      44.105  25.034  28.368  1.00  0.00     0.049 A 
ATOM     41  N   UNL A   1      41.900  27.046  28.771  1.00  0.00    -0.248 NA
ATOM     42  C   UNL A   1      40.380  25.470  27.964  1.00  0.00     0.031 C 
ATOM     43  C   UNL A   1      45.221  24.111  28.157  1.00  0.00     0.029 A 
ATOM     44  N   UNL A   1      44.696  26.164  28.872  1.00  0.00    -0.354 N 
ATOM     45  C   UNL A   1      40.630  27.606  28.738  1.00  0.00     0.074 A 
ATOM     46  C   UNL A   1      39.745  26.615  28.167  1.00  0.00     0.031 C 
ATOM     47  C   UNL A   1      46.359  24.700  28.561  1.00  0.00     0.029 A 
ATOM     48  C   UNL A   1      46.056  26.047  29.033  1.00  0.00     0.049 A 
ATOM     49  H   UNL A   1      44.195  26.981  29.098  1.00  0.00     0.167 HD
ATOM     50  C   UNL A   1      40.226  28.824  29.170  1.00  0.00     0.037 A 
ATOM     51  C   UNL A   1      46.954  26.926  29.517  1.00  0.00     0.037 A 
ATOM     52  C   UNL A   1      41.100  29.801  29.764  1.00  0.00     0.049 A 
ATOM     53  C   UNL A   1      46.481  28.268  30.005  1.00  0.00     0.074 A 
ATOM     54  C   UNL A   1      40.785  31.049  30.272  1.00  0.00     0.029 A 
ATOM     55  N   UNL A   1      42.467  29.635  29.933  1.00  0.00    -0.354 N 
ATOM     56  N   UNL A   1      45.266  28.761  30.024  1.00  0.00    -0.248 NA
ATOM     57  C   UNL A   1      47.503  29.168  30.556  1.00  0.00     0.031 C 
ATOM     58  C   UNL A   1      41.967  31.653  30.717  1.00  0.00     0.029 A 
ATOM     59  C   UNL A   1      43.010  30.761  30.529  1.00  0.00     0.049 A 
ATOM     60  H   UNL A   1      42.976  28.834  29.667  1.00  0.00     0.167 HD
ATOM     61  C   UNL A   1      45.372  30.010  30.624  1.00  0.00     0.074 A 
ATOM     62  C   UNL A   1      46.768  30.194  30.961  1.00  0.00     0.031 C 
ATOM     63  C   UNL A   1      44.400  30.920  30.876  1.00  0.00     0.037 A 
BRANCH  50  64
ATOM     64  C   UNL A   1      38.770  29.162  29.023  1.00  0.00     0.057 A 
ATOM     65  C   UNL A   1      38.226  29.561  27.795  1.00  0.00     0.134 A 
ATOM     66  C   UNL A   1      37.897  29.068  30.114  1.00  0.00     0.134 A 
ATOM     67  F   UNL A   1      39.008  29.684  26.712  1.00  0.00    -0.206 F 
ATOM     68  C   UNL A   1      36.874  29.887  27.664  1.00  0.00     0.040 A 
ATOM     69  C   UNL A   1      36.539  29.364  29.990  1.00  0.00     0.040 A 
ATOM     70  F   UNL A   1      38.349  28.687  31.318  1.00  0.00    -0.206 F 
ATOM     71  C   UNL A   1      36.025  29.783  28.763  1.00  0.00     0.006 A 
ENDBRANCH  50  64
BRANCH  51  72
ATOM     72  C   UNL A   1      48.387  26.549  29.611  1.00  0.00     0.057 A 
ATOM     73  C   UNL A   1      48.880  25.861  30.726  1.00  0.00     0.134 A 
ATOM     74  C   UNL A   1      49.300  26.878  28.601  1.00  0.00     0.134 A 
ATOM     75  F   UNL A   1      48.057  25.534  31.734  1.00  0.00    -0.206 F 
ATOM     76  C   UNL A   1      50.231  25.532  30.845  1.00  0.00     0.040 A 
ATOM     77  C   UNL A   1      50.649  26.533  28.696  1.00  0.00     0.040 A 
ATOM     78  F   UNL A   1      48.888  27.530  27.504  1.00  0.00    -0.206 F 
ATOM     79  C   UNL A   1      51.119  25.866  29.825  1.00  0.00     0.006 A 
ENDBRANCH  51  72
BRANCH  63  80
ATOM     80  C   UNL A   1      44.804  32.171  31.600  1.00  0.00     0.057 A 
ATOM     81  C   UNL A   1      45.210  33.326  30.921  1.00  0.00     0.134 A 
ATOM     82  C   UNL A   1      44.761  32.224  33.000  1.00  0.00     0.134 A 
ATOM     83  F   UNL A   1      45.284  33.338  29.581  1.00  0.00    -0.206 F 
ATOM     84  C   UNL A   1      45.590  34.480  31.610  1.00  0.00     0.040 A 
ATOM     85  C   UNL A   1      45.112  33.380  33.697  1.00  0.00     0.040 A 
ATOM     86  F   UNL A   1      44.371  31.155  33.710  1.00  0.00    -0.206 F 
ATOM     87  C   UNL A   1      45.536  34.510  33.001  1.00  0.00     0.006 A 
ENDBRANCH  63  80
ENDBRANCH  37  38
ENDBRANCH  29  32
ENDBRANCH  27  28
ENDBRANCH  26  27
ENDBRANCH  25  26
ENDBRANCH   1  25
TORSDOF 15
ENDMDL
