MODEL 1
REMARK VINA RESULT:     -11.6      0.000      0.000
REMARK SMILES NS(=O)(=O)c1ccc(/N=N/c2ccc(O)c(C(=O)NCCCCCCNC(=O)c3ccc(-c4c5nc(c(-c6c(F)cccc6F)c6ccc([nH]6)c(-c6c(F)cccc6F)c6nc(c(-c7c(F)cccc7F)c7ccc4[nH]7)C=C6)C=C5)cc3)c2)cc1
REMARK SMILES IDX 21 1 20 2 19 3 17 4 18 5 16 7 11 8 12 9 83 10 13 11 14 12
REMARK SMILES IDX 10 13 9 14 8 15 5 16 6 17 85 18 7 19 84 20 2 21 3 22 4 23
REMARK SMILES IDX 1 24 15 27 22 29 23 30 24 31 25 32 26 33 27 34 28 36 29 37
REMARK SMILES IDX 30 38 82 39 31 40 81 41 32 42 33 43 34 44 75 45 35 46 80 47
REMARK SMILES IDX 74 48 76 49 36 50 79 51 73 52 72 53 37 55 63 56 46 57 62 58
REMARK SMILES IDX 47 59 50 60 61 61 77 62 48 63 49 64 60 66 78 67 51 68 38 69
REMARK SMILES IDX 39 70 44 71 40 72 41 73 43 74 45 75 42 76 64 77 65 78 70 79
REMARK SMILES IDX 66 80 67 81 69 82 71 83 68 84 52 85 53 86 58 87 54 88 55 89
REMARK SMILES IDX 57 90 59 91 56 92
REMARK H PARENT 19 6 1 25 1 26 15 28 26 35 76 54 50 65
REMARK Flexibility Score: inf
ROOT
ATOM      1  C   UNL A   1      34.791  24.640  24.970  1.00  0.00     0.021 C 
ENDROOT
BRANCH   1   2
ATOM      2  C   UNL A   1      34.412  24.433  23.507  1.00  0.00     0.116 C 
BRANCH   2   3
ATOM      3  N   UNL A   1      34.002  23.077  23.180  1.00  0.00    -0.352 N 
ATOM      4  C   UNL A   1      32.927  22.338  23.621  1.00  0.00     0.255 C 
ATOM      5  O   UNL A   1      32.824  21.160  23.274  1.00  0.00    -0.269 OA
ATOM      6  H   UNL A   1      34.587  22.612  22.541  1.00  0.00     0.163 HD
BRANCH   4   7
ATOM      7  C   UNL A   1      31.918  22.877  24.569  1.00  0.00     0.083 A 
ATOM      8  C   UNL A   1      30.385  24.649  25.244  1.00  0.00     0.087 A 
ATOM      9  C   UNL A   1      30.263  24.049  26.501  1.00  0.00     0.034 A 
ATOM     10  C   UNL A   1      31.140  23.994  24.260  1.00  0.00     0.048 A 
ATOM     11  C   UNL A   1      30.922  22.848  26.781  1.00  0.00     0.049 A 
ATOM     12  C   UNL A   1      31.757  22.275  25.823  1.00  0.00     0.128 A 
BRANCH   8  13
ATOM     13  N   UNL A   1      29.808  25.924  25.023  1.00  0.00    -0.151 NA
ATOM     14  N   UNL A   1      29.755  26.158  23.793  1.00  0.00    -0.151 NA
BRANCH  14  15
ATOM     15  C   UNL A   1      29.390  27.481  23.502  1.00  0.00     0.086 A 
ATOM     16  C   UNL A   1      28.594  30.022  22.632  1.00  0.00     0.082 A 
ATOM     17  C   UNL A   1      27.628  29.088  23.013  1.00  0.00     0.024 A 
ATOM     18  C   UNL A   1      29.953  29.705  22.691  1.00  0.00     0.024 A 
ATOM     19  C   UNL A   1      28.031  27.818  23.439  1.00  0.00     0.031 A 
ATOM     20  C   UNL A   1      30.345  28.434  23.122  1.00  0.00     0.031 A 
BRANCH  16  21
ATOM     21  S   UNL A   1      28.083  31.620  22.068  1.00  0.00     0.238 S 
ATOM     22  O   UNL A   1      27.279  32.246  23.089  1.00  0.00    -0.207 OA
ATOM     23  O   UNL A   1      27.652  31.501  20.694  1.00  0.00    -0.207 OA
BRANCH  21  24
ATOM     24  N   UNL A   1      29.526  32.480  22.046  1.00  0.00    -0.225 NA
ATOM     25  H   UNL A   1      30.031  32.275  21.183  1.00  0.00     0.137 HD
ATOM     26  H   UNL A   1      30.097  32.208  22.846  1.00  0.00     0.137 HD
ENDBRANCH  21  24
ENDBRANCH  16  21
ENDBRANCH  14  15
ENDBRANCH   8  13
BRANCH  12  27
ATOM     27  O   UNL A   1      32.398  21.121  26.185  1.00  0.00    -0.507 OA
ATOM     28  H   UNL A   1      32.148  20.304  25.798  1.00  0.00     0.293 HD
ENDBRANCH  12  27
ENDBRANCH   4   7
ENDBRANCH   2   3
ENDBRANCH   1   2
BRANCH   1  29
ATOM     29  C   UNL A   1      34.013  25.708  25.738  1.00  0.00     0.002 C 
BRANCH  29  30
ATOM     30  C   UNL A   1      33.495  26.898  24.928  1.00  0.00     0.002 C 
BRANCH  30  31
ATOM     31  C   UNL A   1      33.758  28.290  25.506  1.00  0.00     0.021 C 
BRANCH  31  32
ATOM     32  C   UNL A   1      33.717  28.406  27.028  1.00  0.00     0.116 C 
BRANCH  32  33
ATOM     33  N   UNL A   1      33.682  29.781  27.493  1.00  0.00    -0.352 N 
ATOM     34  C   UNL A   1      34.651  30.523  28.122  1.00  0.00     0.251 C 
ATOM     35  H   UNL A   1      32.833  30.254  27.333  1.00  0.00     0.163 HD
ATOM     36  O   UNL A   1      34.382  31.640  28.555  1.00  0.00    -0.269 OA
BRANCH  34  37
ATOM     37  C   UNL A   1      36.014  29.976  28.312  1.00  0.00     0.039 A 
ATOM     38  C   UNL A   1      36.928  30.080  27.260  1.00  0.00     0.014 A 
ATOM     39  C   UNL A   1      36.391  29.350  29.503  1.00  0.00     0.014 A 
ATOM     40  C   UNL A   1      38.238  29.624  27.427  1.00  0.00     0.010 A 
ATOM     41  C   UNL A   1      37.714  28.955  29.693  1.00  0.00     0.010 A 
ATOM     42  C   UNL A   1      38.653  29.094  28.658  1.00  0.00    -0.014 A 
BRANCH  42  43
ATOM     43  C   UNL A   1      40.070  28.707  28.888  1.00  0.00     0.031 A 
ATOM     44  C   UNL A   1      41.043  29.685  29.483  1.00  0.00     0.074 A 
ATOM     45  C   UNL A   1      40.494  27.489  28.497  1.00  0.00     0.049 A 
ATOM     46  N   UNL A   1      42.327  29.546  29.696  1.00  0.00    -0.248 NA
ATOM     47  C   UNL A   1      40.509  31.001  29.868  1.00  0.00     0.031 C 
ATOM     48  C   UNL A   1      39.660  26.465  27.866  1.00  0.00     0.029 A 
ATOM     49  N   UNL A   1      41.737  26.909  28.565  1.00  0.00    -0.354 N 
ATOM     50  C   UNL A   1      42.756  30.755  30.231  1.00  0.00     0.074 A 
ATOM     51  C   UNL A   1      41.606  31.632  30.261  1.00  0.00     0.031 C 
ATOM     52  C   UNL A   1      40.407  25.376  27.625  1.00  0.00     0.029 A 
ATOM     53  C   UNL A   1      41.779  25.637  28.049  1.00  0.00     0.049 A 
ATOM     54  H   UNL A   1      42.523  27.362  28.948  1.00  0.00     0.167 HD
ATOM     55  C   UNL A   1      43.990  31.095  30.674  1.00  0.00     0.037 A 
ATOM     56  C   UNL A   1      42.809  24.778  27.924  1.00  0.00     0.037 A 
ATOM     57  C   UNL A   1      45.128  30.212  30.665  1.00  0.00     0.049 A 
ATOM     58  C   UNL A   1      44.170  25.183  28.413  1.00  0.00     0.074 A 
ATOM     59  C   UNL A   1      46.405  30.446  31.149  1.00  0.00     0.029 A 
ATOM     60  N   UNL A   1      45.129  28.927  30.144  1.00  0.00    -0.354 N 
ATOM     61  N   UNL A   1      44.545  26.308  28.973  1.00  0.00    -0.248 NA
ATOM     62  C   UNL A   1      45.251  24.199  28.257  1.00  0.00     0.031 C 
ATOM     63  C   UNL A   1      47.189  29.321  30.877  1.00  0.00     0.029 A 
ATOM     64  C   UNL A   1      46.390  28.367  30.267  1.00  0.00     0.049 A 
ATOM     65  H   UNL A   1      44.348  28.480  29.745  1.00  0.00     0.167 HD
ATOM     66  C   UNL A   1      45.896  26.158  29.258  1.00  0.00     0.074 A 
ATOM     67  C   UNL A   1      46.271  24.829  28.822  1.00  0.00     0.031 C 
ATOM     68  C   UNL A   1      46.749  27.043  29.828  1.00  0.00     0.037 A 
BRANCH  55  69
ATOM     69  C   UNL A   1      44.176  32.485  31.209  1.00  0.00     0.057 A 
ATOM     70  C   UNL A   1      44.017  32.780  32.570  1.00  0.00     0.134 A 
ATOM     71  C   UNL A   1      44.558  33.533  30.362  1.00  0.00     0.134 A 
ATOM     72  F   UNL A   1      43.642  31.824  33.433  1.00  0.00    -0.206 F 
ATOM     73  C   UNL A   1      44.207  34.072  33.065  1.00  0.00     0.040 A 
ATOM     74  C   UNL A   1      44.778  34.822  30.848  1.00  0.00     0.040 A 
ATOM     75  F   UNL A   1      44.732  33.318  29.049  1.00  0.00    -0.206 F 
ATOM     76  C   UNL A   1      44.596  35.096  32.204  1.00  0.00     0.006 A 
ENDBRANCH  55  69
BRANCH  56  77
ATOM     77  C   UNL A   1      42.589  23.440  27.319  1.00  0.00     0.057 A 
ATOM     78  C   UNL A   1      42.213  22.345  28.106  1.00  0.00     0.134 A 
ATOM     79  C   UNL A   1      42.754  23.223  25.946  1.00  0.00     0.134 A 
ATOM     80  F   UNL A   1      42.058  22.488  29.430  1.00  0.00    -0.206 F 
ATOM     81  C   UNL A   1      42.028  21.077  27.552  1.00  0.00     0.040 A 
ATOM     82  C   UNL A   1      42.548  21.966  25.375  1.00  0.00     0.040 A 
ATOM     83  F   UNL A   1      43.103  24.235  25.138  1.00  0.00    -0.206 F 
ATOM     84  C   UNL A   1      42.191  20.886  26.182  1.00  0.00     0.006 A 
ENDBRANCH  56  77
BRANCH  68  85
ATOM     85  C   UNL A   1      48.167  26.594  30.033  1.00  0.00     0.057 A 
ATOM     86  C   UNL A   1      49.154  26.806  29.063  1.00  0.00     0.134 A 
ATOM     87  C   UNL A   1      48.554  25.972  31.227  1.00  0.00     0.134 A 
ATOM     88  F   UNL A   1      48.845  27.385  27.892  1.00  0.00    -0.206 F 
ATOM     89  C   UNL A   1      50.473  26.396  29.264  1.00  0.00     0.040 A 
ATOM     90  C   UNL A   1      49.875  25.581  31.450  1.00  0.00     0.040 A 
ATOM     91  F   UNL A   1      47.658  25.747  32.199  1.00  0.00    -0.206 F 
ATOM     92  C   UNL A   1      50.838  25.787  30.464  1.00  0.00     0.006 A 
ENDBRANCH  68  85
ENDBRANCH  42  43
ENDBRANCH  34  37
ENDBRANCH  32  33
ENDBRANCH  31  32
ENDBRANCH  30  31
ENDBRANCH  29  30
ENDBRANCH   1  29
TORSDOF 18
ENDMDL
MODEL 2
REMARK VINA RESULT:     -11.4      4.657      9.162
REMARK SMILES NS(=O)(=O)c1ccc(/N=N/c2ccc(O)c(C(=O)NCCCCCCNC(=O)c3ccc(-c4c5nc(c(-c6c(F)cccc6F)c6ccc([nH]6)c(-c6c(F)cccc6F)c6nc(c(-c7c(F)cccc7F)c7ccc4[nH]7)C=C6)C=C5)cc3)c2)cc1
REMARK SMILES IDX 21 1 20 2 19 3 17 4 18 5 16 7 11 8 12 9 83 10 13 11 14 12
REMARK SMILES IDX 10 13 9 14 8 15 5 16 6 17 85 18 7 19 84 20 2 21 3 22 4 23
REMARK SMILES IDX 1 24 15 27 22 29 23 30 24 31 25 32 26 33 27 34 28 36 29 37
REMARK SMILES IDX 30 38 82 39 31 40 81 41 32 42 33 43 34 44 75 45 35 46 80 47
REMARK SMILES IDX 74 48 76 49 36 50 79 51 73 52 72 53 37 55 63 56 46 57 62 58
REMARK SMILES IDX 47 59 50 60 61 61 77 62 48 63 49 64 60 66 78 67 51 68 38 69
REMARK SMILES IDX 39 70 44 71 40 72 41 73 43 74 45 75 42 76 64 77 65 78 70 79
REMARK SMILES IDX 66 80 67 81 69 82 71 83 68 84 52 85 53 86 58 87 54 88 55 89
REMARK SMILES IDX 57 90 59 91 56 92
REMARK H PARENT 19 6 1 25 1 26 15 28 26 35 76 54 50 65
REMARK Flexibility Score: inf
ROOT
ATOM      1  C   UNL A   1      33.341  28.300  26.158  1.00  0.00     0.021 C 
ENDROOT
BRANCH   1   2
ATOM      2  C   UNL A   1      33.050  26.846  25.801  1.00  0.00     0.116 C 
BRANCH   2   3
ATOM      3  N   UNL A   1      31.811  26.328  26.358  1.00  0.00    -0.352 N 
ATOM      4  C   UNL A   1      31.254  25.071  26.284  1.00  0.00     0.255 C 
ATOM      5  O   UNL A   1      30.135  24.880  26.763  1.00  0.00    -0.269 OA
ATOM      6  H   UNL A   1      31.285  26.982  26.871  1.00  0.00     0.163 HD
BRANCH   4   7
ATOM      7  C   UNL A   1      31.911  23.943  25.574  1.00  0.00     0.083 A 
ATOM      8  C   UNL A   1      33.793  22.413  25.322  1.00  0.00     0.087 A 
ATOM      9  C   UNL A   1      33.308  22.043  24.063  1.00  0.00     0.034 A 
ATOM     10  C   UNL A   1      33.027  23.291  26.103  1.00  0.00     0.048 A 
ATOM     11  C   UNL A   1      32.111  22.579  23.578  1.00  0.00     0.049 A 
ATOM     12  C   UNL A   1      31.426  23.535  24.325  1.00  0.00     0.128 A 
BRANCH   8  13
ATOM     13  N   UNL A   1      35.065  21.952  25.740  1.00  0.00    -0.151 NA
ATOM     14  N   UNL A   1      35.963  22.660  25.225  1.00  0.00    -0.151 NA
BRANCH  14  15
ATOM     15  C   UNL A   1      37.251  22.142  25.423  1.00  0.00     0.086 A 
ATOM     16  C   UNL A   1      39.708  20.961  26.069  1.00  0.00     0.082 A 
ATOM     17  C   UNL A   1      38.745  20.221  25.377  1.00  0.00     0.024 A 
ATOM     18  C   UNL A   1      39.461  22.287  26.432  1.00  0.00     0.024 A 
ATOM     19  C   UNL A   1      37.518  20.814  25.064  1.00  0.00     0.031 A 
ATOM     20  C   UNL A   1      38.232  22.871  26.111  1.00  0.00     0.031 A 
BRANCH  16  21
ATOM     21  S   UNL A   1      41.252  20.203  26.487  1.00  0.00     0.238 S 
ATOM     22  O   UNL A   1      42.246  21.231  26.679  1.00  0.00    -0.207 OA
ATOM     23  O   UNL A   1      41.454  19.071  25.612  1.00  0.00    -0.207 OA
BRANCH  21  24
ATOM     24  N   UNL A   1      40.951  19.580  28.019  1.00  0.00    -0.225 NA
ATOM     25  H   UNL A   1      40.169  18.926  27.972  1.00  0.00     0.137 HD
ATOM     26  H   UNL A   1      40.719  20.342  28.656  1.00  0.00     0.137 HD
ENDBRANCH  21  24
ENDBRANCH  16  21
ENDBRANCH  14  15
ENDBRANCH   8  13
BRANCH  12  27
ATOM     27  O   UNL A   1      30.283  24.042  23.767  1.00  0.00    -0.507 OA
ATOM     28  H   UNL A   1      29.518  23.505  23.695  1.00  0.00     0.293 HD
ENDBRANCH  12  27
ENDBRANCH   4   7
ENDBRANCH   2   3
ENDBRANCH   1   2
BRANCH   1  29
ATOM     29  C   UNL A   1      32.178  29.116  26.720  1.00  0.00     0.002 C 
BRANCH  29  30
ATOM     30  C   UNL A   1      31.611  30.216  25.820  1.00  0.00     0.002 C 
BRANCH  30  31
ATOM     31  C   UNL A   1      31.393  31.587  26.465  1.00  0.00     0.021 C 
BRANCH  31  32
ATOM     32  C   UNL A   1      32.610  32.214  27.140  1.00  0.00     0.116 C 
BRANCH  32  33
ATOM     33  N   UNL A   1      32.418  33.615  27.471  1.00  0.00    -0.352 N 
ATOM     34  C   UNL A   1      33.082  34.406  28.376  1.00  0.00     0.251 C 
ATOM     35  H   UNL A   1      31.702  34.068  26.968  1.00  0.00     0.163 HD
ATOM     36  O   UNL A   1      32.684  35.544  28.603  1.00  0.00    -0.269 OA
BRANCH  34  37
ATOM     37  C   UNL A   1      34.260  33.886  29.107  1.00  0.00     0.039 A 
ATOM     38  C   UNL A   1      34.051  32.996  30.165  1.00  0.00     0.014 A 
ATOM     39  C   UNL A   1      35.560  34.276  28.772  1.00  0.00     0.014 A 
ATOM     40  C   UNL A   1      35.144  32.445  30.838  1.00  0.00     0.010 A 
ATOM     41  C   UNL A   1      36.651  33.676  29.399  1.00  0.00     0.010 A 
ATOM     42  C   UNL A   1      36.454  32.749  30.435  1.00  0.00    -0.014 A 
BRANCH  42  43
ATOM     43  C   UNL A   1      37.624  32.086  31.067  1.00  0.00     0.031 A 
ATOM     44  C   UNL A   1      38.394  31.027  30.329  1.00  0.00     0.074 A 
ATOM     45  C   UNL A   1      37.953  32.395  32.337  1.00  0.00     0.049 A 
ATOM     46  N   UNL A   1      39.399  30.298  30.744  1.00  0.00    -0.248 NA
ATOM     47  C   UNL A   1      37.964  30.732  28.954  1.00  0.00     0.031 C 
ATOM     48  C   UNL A   1      37.258  33.372  33.177  1.00  0.00     0.029 A 
ATOM     49  N   UNL A   1      38.951  31.912  33.146  1.00  0.00    -0.354 N 
ATOM     50  C   UNL A   1      39.716  29.454  29.687  1.00  0.00     0.074 A 
ATOM     51  C   UNL A   1      38.764  29.725  28.632  1.00  0.00     0.031 C 
ATOM     52  C   UNL A   1      37.862  33.433  34.374  1.00  0.00     0.029 A 
ATOM     53  C   UNL A   1      38.963  32.474  34.400  1.00  0.00     0.049 A 
ATOM     54  H   UNL A   1      39.597  31.228  32.856  1.00  0.00     0.167 HD
ATOM     55  C   UNL A   1      40.721  28.549  29.597  1.00  0.00     0.037 A 
ATOM     56  C   UNL A   1      39.765  32.240  35.456  1.00  0.00     0.037 A 
ATOM     57  C   UNL A   1      41.682  28.297  30.639  1.00  0.00     0.049 A 
ATOM     58  C   UNL A   1      40.866  31.225  35.334  1.00  0.00     0.074 A 
ATOM     59  C   UNL A   1      42.773  27.444  30.617  1.00  0.00     0.029 A 
ATOM     60  N   UNL A   1      41.668  28.894  31.890  1.00  0.00    -0.354 N 
ATOM     61  N   UNL A   1      41.190  30.479  34.305  1.00  0.00    -0.248 NA
ATOM     62  C   UNL A   1      41.713  31.019  36.517  1.00  0.00     0.031 C 
ATOM     63  C   UNL A   1      43.389  27.490  31.871  1.00  0.00     0.029 A 
ATOM     64  C   UNL A   1      42.712  28.407  32.659  1.00  0.00     0.049 A 
ATOM     65  H   UNL A   1      41.012  29.565  32.188  1.00  0.00     0.167 HD
ATOM     66  C   UNL A   1      42.293  29.736  34.708  1.00  0.00     0.074 A 
ATOM     67  C   UNL A   1      42.589  30.131  36.069  1.00  0.00     0.031 C 
ATOM     68  C   UNL A   1      42.995  28.808  34.013  1.00  0.00     0.037 A 
BRANCH  55  69
ATOM     69  C   UNL A   1      40.834  27.763  28.323  1.00  0.00     0.057 A 
ATOM     70  C   UNL A   1      41.581  28.226  27.232  1.00  0.00     0.134 A 
ATOM     71  C   UNL A   1      40.221  26.510  28.199  1.00  0.00     0.134 A 
ATOM     72  F   UNL A   1      42.184  29.424  27.282  1.00  0.00    -0.206 F 
ATOM     73  C   UNL A   1      41.696  27.483  26.056  1.00  0.00     0.040 A 
ATOM     74  C   UNL A   1      40.351  25.744  27.039  1.00  0.00     0.040 A 
ATOM     75  F   UNL A   1      39.494  26.004  29.207  1.00  0.00    -0.206 F 
ATOM     76  C   UNL A   1      41.086  26.235  25.960  1.00  0.00     0.006 A 
ENDBRANCH  55  69
BRANCH  56  77
ATOM     77  C   UNL A   1      39.566  32.992  36.720  1.00  0.00     0.057 A 
ATOM     78  C   UNL A   1      40.334  34.124  37.015  1.00  0.00     0.134 A 
ATOM     79  C   UNL A   1      38.611  32.595  37.663  1.00  0.00     0.134 A 
ATOM     80  F   UNL A   1      41.277  34.541  36.158  1.00  0.00    -0.206 F 
ATOM     81  C   UNL A   1      40.173  34.825  38.211  1.00  0.00     0.040 A 
ATOM     82  C   UNL A   1      38.423  33.301  38.853  1.00  0.00     0.040 A 
ATOM     83  F   UNL A   1      37.837  31.525  37.434  1.00  0.00    -0.206 F 
ATOM     84  C   UNL A   1      39.211  34.416  39.132  1.00  0.00     0.006 A 
ENDBRANCH  56  77
BRANCH  68  85
ATOM     85  C   UNL A   1      44.166  28.174  34.706  1.00  0.00     0.057 A 
ATOM     86  C   UNL A   1      44.042  26.966  35.404  1.00  0.00     0.134 A 
ATOM     87  C   UNL A   1      45.436  28.761  34.645  1.00  0.00     0.134 A 
ATOM     88  F   UNL A   1      42.850  26.360  35.510  1.00  0.00    -0.206 F 
ATOM     89  C   UNL A   1      45.137  26.376  36.037  1.00  0.00     0.040 A 
ATOM     90  C   UNL A   1      46.544  28.167  35.252  1.00  0.00     0.040 A 
ATOM     91  F   UNL A   1      45.623  29.913  33.986  1.00  0.00    -0.206 F 
ATOM     92  C   UNL A   1      46.394  26.973  35.956  1.00  0.00     0.006 A 
ENDBRANCH  68  85
ENDBRANCH  42  43
ENDBRANCH  34  37
ENDBRANCH  32  33
ENDBRANCH  31  32
ENDBRANCH  30  31
ENDBRANCH  29  30
ENDBRANCH   1  29
TORSDOF 18
ENDMDL
MODEL 3
REMARK VINA RESULT:     -11.3      3.070      6.559
REMARK SMILES NS(=O)(=O)c1ccc(/N=N/c2ccc(O)c(C(=O)NCCCCCCNC(=O)c3ccc(-c4c5nc(c(-c6c(F)cccc6F)c6ccc([nH]6)c(-c6c(F)cccc6F)c6nc(c(-c7c(F)cccc7F)c7ccc4[nH]7)C=C6)C=C5)cc3)c2)cc1
REMARK SMILES IDX 21 1 20 2 19 3 17 4 18 5 16 7 11 8 12 9 83 10 13 11 14 12
REMARK SMILES IDX 10 13 9 14 8 15 5 16 6 17 85 18 7 19 84 20 2 21 3 22 4 23
REMARK SMILES IDX 1 24 15 27 22 29 23 30 24 31 25 32 26 33 27 34 28 36 29 37
REMARK SMILES IDX 30 38 82 39 31 40 81 41 32 42 33 43 34 44 75 45 35 46 80 47
REMARK SMILES IDX 74 48 76 49 36 50 79 51 73 52 72 53 37 55 63 56 46 57 62 58
REMARK SMILES IDX 47 59 50 60 61 61 77 62 48 63 49 64 60 66 78 67 51 68 38 69
REMARK SMILES IDX 39 70 44 71 40 72 41 73 43 74 45 75 42 76 64 77 65 78 70 79
REMARK SMILES IDX 66 80 67 81 69 82 71 83 68 84 52 85 53 86 58 87 54 88 55 89
REMARK SMILES IDX 57 90 59 91 56 92
REMARK H PARENT 19 6 1 25 1 26 15 28 26 35 76 54 50 65
REMARK Flexibility Score: inf
ROOT
ATOM      1  C   UNL A   1      34.518  24.846  24.516  1.00  0.00     0.021 C 
ENDROOT
BRANCH   1   2
ATOM      2  C   UNL A   1      34.331  24.168  23.163  1.00  0.00     0.116 C 
BRANCH   2   3
ATOM      3  N   UNL A   1      34.006  22.753  23.242  1.00  0.00    -0.352 N 
ATOM      4  C   UNL A   1      32.992  22.104  23.909  1.00  0.00     0.255 C 
ATOM      5  O   UNL A   1      32.963  20.872  23.909  1.00  0.00    -0.269 OA
ATOM      6  H   UNL A   1      34.610  22.163  22.736  1.00  0.00     0.163 HD
BRANCH   4   7
ATOM      7  C   UNL A   1      31.967  22.826  24.706  1.00  0.00     0.083 A 
ATOM      8  C   UNL A   1      30.298  24.594  24.900  1.00  0.00     0.087 A 
ATOM      9  C   UNL A   1      30.269  24.398  26.285  1.00  0.00     0.034 A 
ATOM     10  C   UNL A   1      31.080  23.731  24.118  1.00  0.00     0.048 A 
ATOM     11  C   UNL A   1      31.043  23.395  26.876  1.00  0.00     0.049 A 
ATOM     12  C   UNL A   1      31.898  22.625  26.090  1.00  0.00     0.128 A 
BRANCH   8  13
ATOM     13  N   UNL A   1      29.601  25.691  24.338  1.00  0.00    -0.151 NA
ATOM     14  N   UNL A   1      30.345  26.300  23.534  1.00  0.00    -0.151 NA
BRANCH  14  15
ATOM     15  C   UNL A   1      29.800  27.515  23.094  1.00  0.00     0.086 A 
ATOM     16  C   UNL A   1      28.802  30.062  22.489  1.00  0.00     0.082 A 
ATOM     17  C   UNL A   1      30.164  29.795  22.323  1.00  0.00     0.024 A 
ATOM     18  C   UNL A   1      27.932  29.069  22.944  1.00  0.00     0.024 A 
ATOM     19  C   UNL A   1      30.657  28.524  22.634  1.00  0.00     0.031 A 
ATOM     20  C   UNL A   1      28.436  27.800  23.248  1.00  0.00     0.031 A 
BRANCH  16  21
ATOM     21  S   UNL A   1      28.182  31.678  22.120  1.00  0.00     0.238 S 
ATOM     22  O   UNL A   1      27.234  32.063  23.136  1.00  0.00    -0.207 OA
ATOM     23  O   UNL A   1      27.885  31.739  20.707  1.00  0.00    -0.207 OA
BRANCH  21  24
ATOM     24  N   UNL A   1      29.528  32.653  22.371  1.00  0.00    -0.225 NA
ATOM     25  H   UNL A   1      30.174  32.549  21.588  1.00  0.00     0.137 HD
ATOM     26  H   UNL A   1      29.993  32.374  23.235  1.00  0.00     0.137 HD
ENDBRANCH  21  24
ENDBRANCH  16  21
ENDBRANCH  14  15
ENDBRANCH   8  13
BRANCH  12  27
ATOM     27  O   UNL A   1      32.653  21.690  26.747  1.00  0.00    -0.507 OA
ATOM     28  H   UNL A   1      33.372  21.961  27.285  1.00  0.00     0.293 HD
ENDBRANCH  12  27
ENDBRANCH   4   7
ENDBRANCH   2   3
ENDBRANCH   1   2
BRANCH   1  29
ATOM     29  C   UNL A   1      33.987  26.273  24.650  1.00  0.00     0.002 C 
BRANCH  29  30
ATOM     30  C   UNL A   1      33.198  26.597  25.921  1.00  0.00     0.002 C 
BRANCH  30  31
ATOM     31  C   UNL A   1      32.430  27.921  25.934  1.00  0.00     0.021 C 
BRANCH  31  32
ATOM     32  C   UNL A   1      33.164  29.131  25.362  1.00  0.00     0.116 C 
BRANCH  32  33
ATOM     33  N   UNL A   1      32.671  30.394  25.881  1.00  0.00    -0.352 N 
ATOM     34  C   UNL A   1      33.161  31.183  26.892  1.00  0.00     0.251 C 
ATOM     35  H   UNL A   1      31.860  30.738  25.439  1.00  0.00     0.163 HD
ATOM     36  O   UNL A   1      32.523  32.161  27.271  1.00  0.00    -0.269 OA
BRANCH  34  37
ATOM     37  C   UNL A   1      34.443  30.847  27.555  1.00  0.00     0.039 A 
ATOM     38  C   UNL A   1      35.431  31.832  27.636  1.00  0.00     0.014 A 
ATOM     39  C   UNL A   1      34.683  29.574  28.079  1.00  0.00     0.014 A 
ATOM     40  C   UNL A   1      36.628  31.564  28.304  1.00  0.00     0.010 A 
ATOM     41  C   UNL A   1      35.849  29.328  28.802  1.00  0.00     0.010 A 
ATOM     42  C   UNL A   1      36.831  30.323  28.927  1.00  0.00    -0.014 A 
BRANCH  42  43
ATOM     43  C   UNL A   1      38.051  30.062  29.734  1.00  0.00     0.031 A 
ATOM     44  C   UNL A   1      39.145  29.178  29.204  1.00  0.00     0.074 A 
ATOM     45  C   UNL A   1      38.143  30.573  30.978  1.00  0.00     0.049 A 
ATOM     46  N   UNL A   1      40.248  28.787  29.792  1.00  0.00    -0.248 NA
ATOM     47  C   UNL A   1      38.964  28.642  27.847  1.00  0.00     0.031 C 
ATOM     48  C   UNL A   1      37.131  31.409  31.626  1.00  0.00     0.029 A 
ATOM     49  N   UNL A   1      39.132  30.456  31.924  1.00  0.00    -0.354 N 
ATOM     50  C   UNL A   1      40.888  27.956  28.880  1.00  0.00     0.074 A 
ATOM     51  C   UNL A   1      40.026  27.857  27.723  1.00  0.00     0.031 C 
ATOM     52  C   UNL A   1      37.559  31.748  32.852  1.00  0.00     0.029 A 
ATOM     53  C   UNL A   1      38.857  31.124  33.092  1.00  0.00     0.049 A 
ATOM     54  H   UNL A   1      39.959  29.943  31.778  1.00  0.00     0.167 HD
ATOM     55  C   UNL A   1      42.093  27.347  28.991  1.00  0.00     0.037 A 
ATOM     56  C   UNL A   1      39.566  31.219  34.233  1.00  0.00     0.037 A 
ATOM     57  C   UNL A   1      42.961  27.465  30.134  1.00  0.00     0.049 A 
ATOM     58  C   UNL A   1      40.895  30.526  34.334  1.00  0.00     0.074 A 
ATOM     59  C   UNL A   1      44.228  26.934  30.313  1.00  0.00     0.029 A 
ATOM     60  N   UNL A   1      42.653  28.159  31.294  1.00  0.00    -0.354 N 
ATOM     61  N   UNL A   1      41.514  29.794  33.440  1.00  0.00    -0.248 NA
ATOM     62  C   UNL A   1      41.625  30.673  35.601  1.00  0.00     0.031 C 
ATOM     63  C   UNL A   1      44.665  27.268  31.599  1.00  0.00     0.029 A 
ATOM     64  C   UNL A   1      43.691  28.047  32.204  1.00  0.00     0.049 A 
ATOM     65  H   UNL A   1      41.818  28.658  31.448  1.00  0.00     0.167 HD
ATOM     66  C   UNL A   1      42.715  29.415  34.025  1.00  0.00     0.074 A 
ATOM     67  C   UNL A   1      42.743  30.009  35.345  1.00  0.00     0.031 C 
ATOM     68  C   UNL A   1      43.705  28.643  33.515  1.00  0.00     0.037 A 
BRANCH  55  69
ATOM     69  C   UNL A   1      42.548  26.495  27.841  1.00  0.00     0.057 A 
ATOM     70  C   UNL A   1      42.235  25.132  27.762  1.00  0.00     0.134 A 
ATOM     71  C   UNL A   1      43.274  27.053  26.781  1.00  0.00     0.134 A 
ATOM     72  F   UNL A   1      41.552  24.533  28.750  1.00  0.00    -0.206 F 
ATOM     73  C   UNL A   1      42.646  24.349  26.682  1.00  0.00     0.040 A 
ATOM     74  C   UNL A   1      43.668  26.287  25.683  1.00  0.00     0.040 A 
ATOM     75  F   UNL A   1      43.603  28.354  26.791  1.00  0.00    -0.206 F 
ATOM     76  C   UNL A   1      43.359  24.929  25.635  1.00  0.00     0.006 A 
ENDBRANCH  55  69
BRANCH  56  77
ATOM     77  C   UNL A   1      39.038  32.014  35.370  1.00  0.00     0.057 A 
ATOM     78  C   UNL A   1      38.298  31.410  36.393  1.00  0.00     0.134 A 
ATOM     79  C   UNL A   1      39.256  33.394  35.459  1.00  0.00     0.134 A 
ATOM     80  F   UNL A   1      38.042  30.094  36.352  1.00  0.00    -0.206 F 
ATOM     81  C   UNL A   1      37.776  32.152  37.454  1.00  0.00     0.040 A 
ATOM     82  C   UNL A   1      38.761  34.144  36.527  1.00  0.00     0.040 A 
ATOM     83  F   UNL A   1      39.967  34.030  34.516  1.00  0.00    -0.206 F 
ATOM     84  C   UNL A   1      38.012  33.523  37.525  1.00  0.00     0.006 A 
ENDBRANCH  56  77
BRANCH  68  85
ATOM     85  C   UNL A   1      44.911  28.415  34.379  1.00  0.00     0.057 A 
ATOM     86  C   UNL A   1      45.001  27.317  35.243  1.00  0.00     0.134 A 
ATOM     87  C   UNL A   1      46.006  29.286  34.320  1.00  0.00     0.134 A 
ATOM     88  F   UNL A   1      43.980  26.454  35.356  1.00  0.00    -0.206 F 
ATOM     89  C   UNL A   1      46.130  27.105  36.037  1.00  0.00     0.040 A 
ATOM     90  C   UNL A   1      47.152  29.070  35.089  1.00  0.00     0.040 A 
ATOM     91  F   UNL A   1      45.987  30.352  33.507  1.00  0.00    -0.206 F 
ATOM     92  C   UNL A   1      47.213  27.980  35.955  1.00  0.00     0.006 A 
ENDBRANCH  68  85
ENDBRANCH  42  43
ENDBRANCH  34  37
ENDBRANCH  32  33
ENDBRANCH  31  32
ENDBRANCH  30  31
ENDBRANCH  29  30
ENDBRANCH   1  29
TORSDOF 18
ENDMDL
