MODEL 1
REMARK VINA RESULT:     -12.6      0.000      0.000
REMARK SMILES CS(=O)(=O)Nc1ccc(-c2cc(Cl)cc3c2O[C@H](C(F)(F)F)C(C(=O)NCCCCCCNC(=O)c2ccc(-c4c5nc(c(-c6c(F)cccc6F)c6ccc([nH]6)c(-c6c(F)cccc6F)c6nc(c(-c7c(F)cccc7F)c7ccc4[nH]7)C=C6)C=C5)cc2)=C3)cc1
REMARK SMILES IDX 29 1 28 2 27 3 26 4 24 5 25 6 23 8 10 9 11 10 16 11 12 12
REMARK SMILES IDX 15 13 17 14 13 15 14 16 90 17 18 18 9 19 6 20 7 21 92 22
REMARK SMILES IDX 8 23 91 24 5 25 2 27 1 28 3 29 4 30 19 31 20 32 21 33 22 34
REMARK SMILES IDX 30 35 31 36 32 37 33 38 34 39 35 41 36 42 37 43 89 44 38 45
REMARK SMILES IDX 88 46 39 47 40 48 41 49 82 50 42 51 87 52 81 53 83 54 43 55
REMARK SMILES IDX 86 56 80 57 79 58 44 60 70 61 53 62 69 63 54 64 57 65 68 66
REMARK SMILES IDX 84 67 55 68 56 69 67 71 85 72 58 73 45 74 46 75 51 76 47 77
REMARK SMILES IDX 48 78 50 79 52 80 49 81 71 82 72 83 77 84 73 85 74 86 76 87
REMARK SMILES IDX 78 88 75 89 59 90 60 91 65 92 61 93 62 94 64 95 66 96 63 97
REMARK H PARENT 26 7 5 26 33 40 83 59 57 70
REMARK Flexibility Score: inf
ROOT
ATOM      1  C   UNL A   1      30.070  30.242  23.923  1.00  0.00     0.002 C 
ENDROOT
BRANCH   1   2
ATOM      2  C   UNL A   1      30.587  29.272  22.847  1.00  0.00     0.021 C 
BRANCH   2   3
ATOM      3  C   UNL A   1      29.950  27.875  22.878  1.00  0.00     0.116 C 
BRANCH   3   4
ATOM      4  N   UNL A   1      30.952  26.868  22.595  1.00  0.00    -0.352 N 
ATOM      5  C   UNL A   1      32.216  26.880  23.092  1.00  0.00     0.251 C 
ATOM      6  O   UNL A   1      33.177  26.792  22.338  1.00  0.00    -0.270 OA
ATOM      7  H   UNL A   1      30.700  26.124  22.000  1.00  0.00     0.163 HD
BRANCH   5   8
ATOM      8  C   UNL A   1      32.337  26.828  24.578  1.00  0.00     0.067 C 
ATOM      9  C   UNL A   1      34.571  23.456  24.951  1.00  0.00     0.026 A 
ATOM     10  C   UNL A   1      34.027  22.544  24.005  1.00  0.00     0.033 A 
ATOM     11  C   UNL A   1      33.792  24.594  25.219  1.00  0.00     0.135 A 
ATOM     12  C   UNL A   1      32.719  22.634  23.534  1.00  0.00     0.042 A 
ATOM     13  C   UNL A   1      32.426  24.600  24.833  1.00  0.00     0.019 A 
ATOM     14  O   UNL A   1      34.301  25.767  25.768  1.00  0.00    -0.475 OA
ATOM     15  Cl  UNL A   1      32.146  21.496  22.382  1.00  0.00    -0.084 Cl
ATOM     16  C   UNL A   1      31.880  23.614  24.018  1.00  0.00     0.032 A 
ATOM     17  C   UNL A   1      31.634  25.816  25.122  1.00  0.00     0.025 C 
ATOM     18  C   UNL A   1      33.750  27.003  25.120  1.00  0.00     0.314 C 
BRANCH   9  19
ATOM     19  C   UNL A   1      35.750  22.927  25.699  1.00  0.00    -0.014 A 
ATOM     20  C   UNL A   1      38.480  22.113  25.772  1.00  0.00     0.048 A 
ATOM     21  C   UNL A   1      38.109  23.412  26.131  1.00  0.00     0.027 A 
ATOM     22  C   UNL A   1      37.474  21.171  25.591  1.00  0.00     0.027 A 
ATOM     23  C   UNL A   1      36.762  23.807  26.124  1.00  0.00     0.011 A 
ATOM     24  C   UNL A   1      36.120  21.575  25.545  1.00  0.00     0.011 A 
BRANCH  20  25
ATOM     25  N   UNL A   1      39.874  21.888  25.578  1.00  0.00    -0.284 N 
ATOM     26  H   UNL A   1      40.254  22.251  24.745  1.00  0.00     0.180 HD
BRANCH  25  27
ATOM     27  S   UNL A   1      40.938  21.095  26.574  1.00  0.00     0.229 S 
ATOM     28  C   UNL A   1      42.511  21.909  26.347  1.00  0.00     0.183 C 
ATOM     29  O   UNL A   1      41.064  19.720  26.140  1.00  0.00    -0.207 OA
ATOM     30  O   UNL A   1      40.489  21.412  27.913  1.00  0.00    -0.207 OA
ENDBRANCH  25  27
ENDBRANCH  20  25
ENDBRANCH   9  19
BRANCH  18  31
ATOM     31  C   UNL A   1      33.731  28.216  26.079  1.00  0.00     0.429 C 
ATOM     32  F   UNL A   1      33.786  29.399  25.430  1.00  0.00    -0.167 F 
ATOM     33  F   UNL A   1      32.617  28.217  26.849  1.00  0.00    -0.167 F 
ATOM     34  F   UNL A   1      34.781  28.206  26.947  1.00  0.00    -0.167 F 
ENDBRANCH  18  31
ENDBRANCH   5   8
ENDBRANCH   3   4
ENDBRANCH   2   3
ENDBRANCH   1   2
BRANCH   1  35
ATOM     35  C   UNL A   1      30.975  30.385  25.150  1.00  0.00     0.002 C 
BRANCH  35  36
ATOM     36  C   UNL A   1      30.910  31.753  25.829  1.00  0.00     0.021 C 
BRANCH  36  37
ATOM     37  C   UNL A   1      32.093  32.065  26.736  1.00  0.00     0.116 C 
BRANCH  37  38
ATOM     38  N   UNL A   1      32.122  33.457  27.156  1.00  0.00    -0.352 N 
ATOM     39  C   UNL A   1      32.988  34.080  28.020  1.00  0.00     0.251 C 
ATOM     40  H   UNL A   1      31.422  34.031  26.768  1.00  0.00     0.163 HD
ATOM     41  O   UNL A   1      32.773  35.227  28.397  1.00  0.00    -0.269 OA
BRANCH  39  42
ATOM     42  C   UNL A   1      34.171  33.346  28.514  1.00  0.00     0.039 A 
ATOM     43  C   UNL A   1      35.385  34.026  28.633  1.00  0.00     0.014 A 
ATOM     44  C   UNL A   1      34.077  31.999  28.875  1.00  0.00     0.014 A 
ATOM     45  C   UNL A   1      36.491  33.369  29.171  1.00  0.00     0.010 A 
ATOM     46  C   UNL A   1      35.156  31.372  29.486  1.00  0.00     0.010 A 
ATOM     47  C   UNL A   1      36.377  32.048  29.635  1.00  0.00    -0.014 A 
BRANCH  47  48
ATOM     48  C   UNL A   1      37.523  31.359  30.278  1.00  0.00     0.031 A 
ATOM     49  C   UNL A   1      37.893  31.671  31.701  1.00  0.00     0.074 A 
ATOM     50  C   UNL A   1      38.272  30.501  29.559  1.00  0.00     0.049 A 
ATOM     51  N   UNL A   1      38.891  31.218  32.415  1.00  0.00    -0.248 NA
ATOM     52  C   UNL A   1      37.044  32.645  32.405  1.00  0.00     0.031 C 
ATOM     53  C   UNL A   1      38.051  30.160  28.154  1.00  0.00     0.029 A 
ATOM     54  N   UNL A   1      39.380  29.770  29.909  1.00  0.00    -0.354 N 
ATOM     55  C   UNL A   1      38.796  31.856  33.646  1.00  0.00     0.074 A 
ATOM     56  C   UNL A   1      37.683  32.776  33.557  1.00  0.00     0.031 C 
ATOM     57  C   UNL A   1      38.983  29.273  27.766  1.00  0.00     0.029 A 
ATOM     58  C   UNL A   1      39.888  29.015  28.881  1.00  0.00     0.049 A 
ATOM     59  H   UNL A   1      39.772  29.785  30.812  1.00  0.00     0.167 HD
ATOM     60  C   UNL A   1      39.549  31.673  34.756  1.00  0.00     0.037 A 
ATOM     61  C   UNL A   1      40.969  28.215  28.837  1.00  0.00     0.037 A 
ATOM     62  C   UNL A   1      40.651  30.750  34.840  1.00  0.00     0.049 A 
ATOM     63  C   UNL A   1      41.798  28.032  30.077  1.00  0.00     0.074 A 
ATOM     64  C   UNL A   1      41.443  30.448  35.934  1.00  0.00     0.029 A 
ATOM     65  N   UNL A   1      41.122  29.985  33.783  1.00  0.00    -0.354 N 
ATOM     66  N   UNL A   1      41.651  28.582  31.258  1.00  0.00    -0.248 NA
ATOM     67  C   UNL A   1      42.938  27.110  29.983  1.00  0.00     0.031 C 
ATOM     68  C   UNL A   1      42.427  29.544  35.525  1.00  0.00     0.029 A 
ATOM     69  C   UNL A   1      42.213  29.233  34.192  1.00  0.00     0.049 A 
ATOM     70  H   UNL A   1      40.739  29.976  32.876  1.00  0.00     0.167 HD
ATOM     71  C   UNL A   1      42.662  28.058  32.053  1.00  0.00     0.074 A 
ATOM     72  C   UNL A   1      43.405  27.132  31.223  1.00  0.00     0.031 C 
ATOM     73  C   UNL A   1      42.948  28.318  33.353  1.00  0.00     0.037 A 
BRANCH  60  74
ATOM     74  C   UNL A   1      39.203  32.497  35.965  1.00  0.00     0.057 A 
ATOM     75  C   UNL A   1      39.737  33.777  36.168  1.00  0.00     0.134 A 
ATOM     76  C   UNL A   1      38.319  32.008  36.936  1.00  0.00     0.134 A 
ATOM     77  F   UNL A   1      40.599  34.302  35.283  1.00  0.00    -0.206 F 
ATOM     78  C   UNL A   1      39.439  34.523  37.310  1.00  0.00     0.040 A 
ATOM     79  C   UNL A   1      37.987  32.758  38.066  1.00  0.00     0.040 A 
ATOM     80  F   UNL A   1      37.764  30.794  36.803  1.00  0.00    -0.206 F 
ATOM     81  C   UNL A   1      38.556  34.014  38.261  1.00  0.00     0.006 A 
ENDBRANCH  60  74
BRANCH  61  82
ATOM     82  C   UNL A   1      41.317  27.518  27.572  1.00  0.00     0.057 A 
ATOM     83  C   UNL A   1      42.139  28.119  26.612  1.00  0.00     0.134 A 
ATOM     84  C   UNL A   1      40.848  26.226  27.301  1.00  0.00     0.134 A 
ATOM     85  F   UNL A   1      42.605  29.362  26.807  1.00  0.00    -0.206 F 
ATOM     86  C   UNL A   1      42.469  27.469  25.423  1.00  0.00     0.040 A 
ATOM     87  C   UNL A   1      41.193  25.554  26.128  1.00  0.00     0.040 A 
ATOM     88  F   UNL A   1      40.065  25.591  28.185  1.00  0.00    -0.206 F 
ATOM     89  C   UNL A   1      42.001  26.179  25.181  1.00  0.00     0.006 A 
ENDBRANCH  61  82
BRANCH  73  90
ATOM     90  C   UNL A   1      44.098  27.573  33.967  1.00  0.00     0.057 A 
ATOM     91  C   UNL A   1      45.395  28.098  33.989  1.00  0.00     0.134 A 
ATOM     92  C   UNL A   1      43.893  26.328  34.578  1.00  0.00     0.134 A 
ATOM     93  F   UNL A   1      45.662  29.278  33.411  1.00  0.00    -0.206 F 
ATOM     94  C   UNL A   1      46.454  27.402  34.577  1.00  0.00     0.040 A 
ATOM     95  C   UNL A   1      44.937  25.637  35.195  1.00  0.00     0.040 A 
ATOM     96  F   UNL A   1      42.673  25.772  34.601  1.00  0.00    -0.206 F 
ATOM     97  C   UNL A   1      46.224  26.171  35.188  1.00  0.00     0.006 A 
ENDBRANCH  73  90
ENDBRANCH  47  48
ENDBRANCH  39  42
ENDBRANCH  37  38
ENDBRANCH  36  37
ENDBRANCH  35  36
ENDBRANCH   1  35
TORSDOF 17
ENDMDL
MODEL 2
REMARK VINA RESULT:     -12.4      0.550      5.817
REMARK SMILES CS(=O)(=O)Nc1ccc(-c2cc(Cl)cc3c2O[C@H](C(F)(F)F)C(C(=O)NCCCCCCNC(=O)c2ccc(-c4c5nc(c(-c6c(F)cccc6F)c6ccc([nH]6)c(-c6c(F)cccc6F)c6nc(c(-c7c(F)cccc7F)c7ccc4[nH]7)C=C6)C=C5)cc2)=C3)cc1
REMARK SMILES IDX 29 1 28 2 27 3 26 4 24 5 25 6 23 8 10 9 11 10 16 11 12 12
REMARK SMILES IDX 15 13 17 14 13 15 14 16 90 17 18 18 9 19 6 20 7 21 92 22
REMARK SMILES IDX 8 23 91 24 5 25 2 27 1 28 3 29 4 30 19 31 20 32 21 33 22 34
REMARK SMILES IDX 30 35 31 36 32 37 33 38 34 39 35 41 36 42 37 43 89 44 38 45
REMARK SMILES IDX 88 46 39 47 40 48 41 49 82 50 42 51 87 52 81 53 83 54 43 55
REMARK SMILES IDX 86 56 80 57 79 58 44 60 70 61 53 62 69 63 54 64 57 65 68 66
REMARK SMILES IDX 84 67 55 68 56 69 67 71 85 72 58 73 45 74 46 75 51 76 47 77
REMARK SMILES IDX 48 78 50 79 52 80 49 81 71 82 72 83 77 84 73 85 74 86 76 87
REMARK SMILES IDX 78 88 75 89 59 90 60 91 65 92 61 93 62 94 64 95 66 96 63 97
REMARK H PARENT 26 7 5 26 33 40 83 59 57 70
REMARK Flexibility Score: inf
ROOT
ATOM      1  C   UNL A   1      30.120  30.295  24.170  1.00  0.00     0.002 C 
ENDROOT
BRANCH   1   2
ATOM      2  C   UNL A   1      30.594  29.343  23.059  1.00  0.00     0.021 C 
BRANCH   2   3
ATOM      3  C   UNL A   1      29.923  27.962  23.062  1.00  0.00     0.116 C 
BRANCH   3   4
ATOM      4  N   UNL A   1      30.897  26.938  22.743  1.00  0.00    -0.352 N 
ATOM      5  C   UNL A   1      32.171  26.917  23.210  1.00  0.00     0.251 C 
ATOM      6  O   UNL A   1      33.113  26.819  22.433  1.00  0.00    -0.270 OA
ATOM      7  H   UNL A   1      30.615  26.208  22.145  1.00  0.00     0.163 HD
BRANCH   5   8
ATOM      8  C   UNL A   1      32.327  26.845  24.692  1.00  0.00     0.067 C 
ATOM      9  C   UNL A   1      34.492  23.420  24.972  1.00  0.00     0.026 A 
ATOM     10  C   UNL A   1      33.906  22.532  24.028  1.00  0.00     0.033 A 
ATOM     11  C   UNL A   1      33.746  24.571  25.272  1.00  0.00     0.135 A 
ATOM     12  C   UNL A   1      32.590  22.656  23.590  1.00  0.00     0.042 A 
ATOM     13  C   UNL A   1      32.372  24.612  24.918  1.00  0.00     0.019 A 
ATOM     14  O   UNL A   1      34.293  25.726  25.822  1.00  0.00    -0.475 OA
ATOM     15  Cl  UNL A   1      31.965  21.546  22.437  1.00  0.00    -0.084 Cl
ATOM     16  C   UNL A   1      31.785  23.648  24.105  1.00  0.00     0.032 A 
ATOM     17  C   UNL A   1      31.614  25.841  25.240  1.00  0.00     0.025 C 
ATOM     18  C   UNL A   1      33.755  26.982  25.202  1.00  0.00     0.314 C 
BRANCH   9  19
ATOM     19  C   UNL A   1      35.676  22.855  25.685  1.00  0.00    -0.014 A 
ATOM     20  C   UNL A   1      38.404  22.031  25.697  1.00  0.00     0.048 A 
ATOM     21  C   UNL A   1      38.041  23.314  26.115  1.00  0.00     0.027 A 
ATOM     22  C   UNL A   1      37.393  21.100  25.486  1.00  0.00     0.027 A 
ATOM     23  C   UNL A   1      36.696  23.714  26.138  1.00  0.00     0.011 A 
ATOM     24  C   UNL A   1      36.040  21.511  25.470  1.00  0.00     0.011 A 
BRANCH  20  25
ATOM     25  N   UNL A   1      39.795  21.810  25.481  1.00  0.00    -0.284 N 
ATOM     26  H   UNL A   1      40.103  21.895  24.549  1.00  0.00     0.180 HD
BRANCH  25  27
ATOM     27  S   UNL A   1      40.964  21.428  26.595  1.00  0.00     0.229 S 
ATOM     28  C   UNL A   1      41.355  19.709  26.316  1.00  0.00     0.183 C 
ATOM     29  O   UNL A   1      40.416  21.565  27.928  1.00  0.00    -0.207 OA
ATOM     30  O   UNL A   1      42.122  22.195  26.187  1.00  0.00    -0.207 OA
ENDBRANCH  25  27
ENDBRANCH  20  25
ENDBRANCH   9  19
BRANCH  18  31
ATOM     31  C   UNL A   1      33.786  28.183  26.176  1.00  0.00     0.429 C 
ATOM     32  F   UNL A   1      33.797  29.374  25.540  1.00  0.00    -0.167 F 
ATOM     33  F   UNL A   1      32.718  28.167  27.009  1.00  0.00    -0.167 F 
ATOM     34  F   UNL A   1      34.884  28.168  26.982  1.00  0.00    -0.167 F 
ENDBRANCH  18  31
ENDBRANCH   5   8
ENDBRANCH   3   4
ENDBRANCH   2   3
ENDBRANCH   1   2
BRANCH   1  35
ATOM     35  C   UNL A   1      31.122  30.506  25.309  1.00  0.00     0.002 C 
BRANCH  35  36
ATOM     36  C   UNL A   1      30.983  31.844  26.034  1.00  0.00     0.021 C 
BRANCH  36  37
ATOM     37  C   UNL A   1      32.186  32.227  26.887  1.00  0.00     0.116 C 
BRANCH  37  38
ATOM     38  N   UNL A   1      32.174  33.630  27.270  1.00  0.00    -0.352 N 
ATOM     39  C   UNL A   1      33.006  34.296  28.135  1.00  0.00     0.251 C 
ATOM     40  H   UNL A   1      31.470  34.177  26.851  1.00  0.00     0.163 HD
ATOM     41  O   UNL A   1      32.757  35.447  28.476  1.00  0.00    -0.269 OA
BRANCH  39  42
ATOM     42  C   UNL A   1      34.194  33.603  28.675  1.00  0.00     0.039 A 
ATOM     43  C   UNL A   1      35.420  34.273  28.682  1.00  0.00     0.014 A 
ATOM     44  C   UNL A   1      34.094  32.307  29.187  1.00  0.00     0.014 A 
ATOM     45  C   UNL A   1      36.533  33.662  29.259  1.00  0.00     0.010 A 
ATOM     46  C   UNL A   1      35.182  31.734  29.834  1.00  0.00     0.010 A 
ATOM     47  C   UNL A   1      36.415  32.403  29.872  1.00  0.00    -0.014 A 
BRANCH  47  48
ATOM     48  C   UNL A   1      37.572  31.773  30.555  1.00  0.00     0.031 A 
ATOM     49  C   UNL A   1      38.407  30.748  29.840  1.00  0.00     0.074 A 
ATOM     50  C   UNL A   1      37.830  32.075  31.842  1.00  0.00     0.049 A 
ATOM     51  N   UNL A   1      39.418  30.047  30.286  1.00  0.00    -0.248 NA
ATOM     52  C   UNL A   1      38.038  30.451  28.448  1.00  0.00     0.031 C 
ATOM     53  C   UNL A   1      37.058  33.008  32.663  1.00  0.00     0.029 A 
ATOM     54  N   UNL A   1      38.807  31.615  32.690  1.00  0.00    -0.354 N 
ATOM     55  C   UNL A   1      39.798  29.222  29.235  1.00  0.00     0.074 A 
ATOM     56  C   UNL A   1      38.867  29.462  28.153  1.00  0.00     0.031 C 
ATOM     57  C   UNL A   1      37.601  33.066  33.889  1.00  0.00     0.029 A 
ATOM     58  C   UNL A   1      38.732  32.147  33.954  1.00  0.00     0.049 A 
ATOM     59  H   UNL A   1      39.497  30.968  32.417  1.00  0.00     0.167 HD
ATOM     60  C   UNL A   1      40.843  28.362  29.167  1.00  0.00     0.037 A 
ATOM     61  C   UNL A   1      39.481  31.909  35.047  1.00  0.00     0.037 A 
ATOM     62  C   UNL A   1      41.770  28.133  30.244  1.00  0.00     0.049 A 
ATOM     63  C   UNL A   1      40.630  30.945  34.954  1.00  0.00     0.074 A 
ATOM     64  C   UNL A   1      42.893  27.326  30.259  1.00  0.00     0.029 A 
ATOM     65  N   UNL A   1      41.674  28.706  31.504  1.00  0.00    -0.354 N 
ATOM     66  N   UNL A   1      41.027  30.229  33.930  1.00  0.00    -0.248 NA
ATOM     67  C   UNL A   1      41.441  30.762  36.165  1.00  0.00     0.031 C 
ATOM     68  C   UNL A   1      43.444  27.367  31.543  1.00  0.00     0.029 A 
ATOM     69  C   UNL A   1      42.702  28.248  32.312  1.00  0.00     0.049 A 
ATOM     70  H   UNL A   1      40.979  29.346  31.783  1.00  0.00     0.167 HD
ATOM     71  C   UNL A   1      42.145  29.528  34.363  1.00  0.00     0.074 A 
ATOM     72  C   UNL A   1      42.373  29.921  35.739  1.00  0.00     0.031 C 
ATOM     73  C   UNL A   1      42.914  28.643  33.683  1.00  0.00     0.037 A 
BRANCH  60  74
ATOM     74  C   UNL A   1      41.027  27.605  27.881  1.00  0.00     0.057 A 
ATOM     75  C   UNL A   1      40.460  26.339  27.678  1.00  0.00     0.134 A 
ATOM     76  C   UNL A   1      41.775  28.150  26.830  1.00  0.00     0.134 A 
ATOM     77  F   UNL A   1      39.741  25.752  28.647  1.00  0.00    -0.206 F 
ATOM     78  C   UNL A   1      40.664  25.626  26.495  1.00  0.00     0.040 A 
ATOM     79  C   UNL A   1      41.959  27.462  25.629  1.00  0.00     0.040 A 
ATOM     80  F   UNL A   1      42.340  29.361  26.951  1.00  0.00    -0.206 F 
ATOM     81  C   UNL A   1      41.412  26.191  25.463  1.00  0.00     0.006 A 
ENDBRANCH  60  74
BRANCH  61  82
ATOM     82  C   UNL A   1      39.170  32.612  36.318  1.00  0.00     0.057 A 
ATOM     83  C   UNL A   1      39.723  33.864  36.612  1.00  0.00     0.134 A 
ATOM     84  C   UNL A   1      38.300  32.054  37.263  1.00  0.00     0.134 A 
ATOM     85  F   UNL A   1      40.578  34.441  35.754  1.00  0.00    -0.206 F 
ATOM     86  C   UNL A   1      39.435  34.529  37.804  1.00  0.00     0.040 A 
ATOM     87  C   UNL A   1      37.981  32.721  38.446  1.00  0.00     0.040 A 
ATOM     88  F   UNL A   1      37.729  30.863  37.036  1.00  0.00    -0.206 F 
ATOM     89  C   UNL A   1      38.554  33.960  38.723  1.00  0.00     0.006 A 
ENDBRANCH  61  82
BRANCH  73  90
ATOM     90  C   UNL A   1      44.092  28.056  34.408  1.00  0.00     0.057 A 
ATOM     91  C   UNL A   1      45.338  28.693  34.437  1.00  0.00     0.134 A 
ATOM     92  C   UNL A   1      43.963  26.854  35.118  1.00  0.00     0.134 A 
ATOM     93  F   UNL A   1      45.533  29.839  33.768  1.00  0.00    -0.206 F 
ATOM     94  C   UNL A   1      46.422  28.144  35.126  1.00  0.00     0.040 A 
ATOM     95  C   UNL A   1      45.031  26.312  35.835  1.00  0.00     0.040 A 
ATOM     96  F   UNL A   1      42.794  26.198  35.140  1.00  0.00    -0.206 F 
ATOM     97  C   UNL A   1      46.267  26.955  35.834  1.00  0.00     0.006 A 
ENDBRANCH  73  90
ENDBRANCH  47  48
ENDBRANCH  39  42
ENDBRANCH  37  38
ENDBRANCH  36  37
ENDBRANCH  35  36
ENDBRANCH   1  35
TORSDOF 17
ENDMDL
MODEL 3
REMARK VINA RESULT:     -11.6      5.039      9.401
REMARK SMILES CS(=O)(=O)Nc1ccc(-c2cc(Cl)cc3c2O[C@H](C(F)(F)F)C(C(=O)NCCCCCCNC(=O)c2ccc(-c4c5nc(c(-c6c(F)cccc6F)c6ccc([nH]6)c(-c6c(F)cccc6F)c6nc(c(-c7c(F)cccc7F)c7ccc4[nH]7)C=C6)C=C5)cc2)=C3)cc1
REMARK SMILES IDX 29 1 28 2 27 3 26 4 24 5 25 6 23 8 10 9 11 10 16 11 12 12
REMARK SMILES IDX 15 13 17 14 13 15 14 16 90 17 18 18 9 19 6 20 7 21 92 22
REMARK SMILES IDX 8 23 91 24 5 25 2 27 1 28 3 29 4 30 19 31 20 32 21 33 22 34
REMARK SMILES IDX 30 35 31 36 32 37 33 38 34 39 35 41 36 42 37 43 89 44 38 45
REMARK SMILES IDX 88 46 39 47 40 48 41 49 82 50 42 51 87 52 81 53 83 54 43 55
REMARK SMILES IDX 86 56 80 57 79 58 44 60 70 61 53 62 69 63 54 64 57 65 68 66
REMARK SMILES IDX 84 67 55 68 56 69 67 71 85 72 58 73 45 74 46 75 51 76 47 77
REMARK SMILES IDX 48 78 50 79 52 80 49 81 71 82 72 83 77 84 73 85 74 86 76 87
REMARK SMILES IDX 78 88 75 89 59 90 60 91 65 92 61 93 62 94 64 95 66 96 63 97
REMARK H PARENT 26 7 5 26 33 40 83 59 57 70
REMARK Flexibility Score: inf
ROOT
ATOM      1  C   UNL A   1      34.179  28.029  24.766  1.00  0.00     0.002 C 
ENDROOT
BRANCH   1   2
ATOM      2  C   UNL A   1      34.356  26.650  25.423  1.00  0.00     0.021 C 
BRANCH   2   3
ATOM      3  C   UNL A   1      34.401  25.468  24.443  1.00  0.00     0.116 C 
BRANCH   3   4
ATOM      4  N   UNL A   1      34.561  24.227  25.171  1.00  0.00    -0.352 N 
ATOM      5  C   UNL A   1      33.567  23.604  25.857  1.00  0.00     0.251 C 
ATOM      6  O   UNL A   1      33.727  23.295  27.031  1.00  0.00    -0.270 OA
ATOM      7  H   UNL A   1      35.451  23.805  25.170  1.00  0.00     0.163 HD
BRANCH   5   8
ATOM      8  C   UNL A   1      32.381  23.182  25.056  1.00  0.00     0.067 C 
ATOM      9  C   UNL A   1      30.816  26.831  24.202  1.00  0.00     0.026 A 
ATOM     10  C   UNL A   1      30.939  27.579  25.405  1.00  0.00     0.033 A 
ATOM     11  C   UNL A   1      31.023  25.447  24.319  1.00  0.00     0.135 A 
ATOM     12  C   UNL A   1      31.031  26.981  26.660  1.00  0.00     0.042 A 
ATOM     13  C   UNL A   1      30.988  24.853  25.608  1.00  0.00     0.019 A 
ATOM     14  O   UNL A   1      31.351  24.621  23.249  1.00  0.00    -0.475 OA
ATOM     15  Cl  UNL A   1      31.189  27.960  28.063  1.00  0.00    -0.084 Cl
ATOM     16  C   UNL A   1      30.965  25.610  26.774  1.00  0.00     0.032 A 
ATOM     17  C   UNL A   1      31.217  23.394  25.700  1.00  0.00     0.025 C 
ATOM     18  C   UNL A   1      32.402  23.606  23.594  1.00  0.00     0.314 C 
BRANCH   9  19
ATOM     19  C   UNL A   1      30.229  27.600  23.064  1.00  0.00    -0.014 A 
ATOM     20  C   UNL A   1      29.328  30.056  21.933  1.00  0.00     0.048 A 
ATOM     21  C   UNL A   1      30.628  29.595  21.704  1.00  0.00     0.027 A 
ATOM     22  C   UNL A   1      28.423  29.190  22.537  1.00  0.00     0.027 A 
ATOM     23  C   UNL A   1      31.066  28.373  22.236  1.00  0.00     0.011 A 
ATOM     24  C   UNL A   1      28.872  27.976  23.107  1.00  0.00     0.011 A 
BRANCH  20  25
ATOM     25  N   UNL A   1      29.064  31.405  21.560  1.00  0.00    -0.284 N 
ATOM     26  H   UNL A   1      29.470  31.703  20.713  1.00  0.00     0.180 HD
BRANCH  25  27
ATOM     27  S   UNL A   1      28.163  32.540  22.367  1.00  0.00     0.229 S 
ATOM     28  C   UNL A   1      29.335  33.528  23.282  1.00  0.00     0.183 C 
ATOM     29  O   UNL A   1      27.288  31.874  23.309  1.00  0.00    -0.207 OA
ATOM     30  O   UNL A   1      27.622  33.386  21.324  1.00  0.00    -0.207 OA
ENDBRANCH  25  27
ENDBRANCH  20  25
ENDBRANCH   9  19
BRANCH  18  31
ATOM     31  C   UNL A   1      32.290  22.323  22.737  1.00  0.00     0.429 C 
ATOM     32  F   UNL A   1      32.912  22.434  21.544  1.00  0.00    -0.167 F 
ATOM     33  F   UNL A   1      32.816  21.255  23.382  1.00  0.00    -0.167 F 
ATOM     34  F   UNL A   1      30.996  21.993  22.466  1.00  0.00    -0.167 F 
ENDBRANCH  18  31
ENDBRANCH   5   8
ENDBRANCH   3   4
ENDBRANCH   2   3
ENDBRANCH   1   2
BRANCH   1  35
ATOM     35  C   UNL A   1      34.010  29.193  25.747  1.00  0.00     0.002 C 
BRANCH  35  36
ATOM     36  C   UNL A   1      34.581  28.935  27.140  1.00  0.00     0.021 C 
BRANCH  36  37
ATOM     37  C   UNL A   1      35.437  30.068  27.692  1.00  0.00     0.116 C 
BRANCH  37  38
ATOM     38  N   UNL A   1      35.301  30.220  29.132  1.00  0.00    -0.352 N 
ATOM     39  C   UNL A   1      36.242  30.027  30.113  1.00  0.00     0.251 C 
ATOM     40  H   UNL A   1      34.410  30.498  29.446  1.00  0.00     0.163 HD
ATOM     41  O   UNL A   1      35.919  30.037  31.296  1.00  0.00    -0.269 OA
BRANCH  39  42
ATOM     42  C   UNL A   1      37.647  29.781  29.730  1.00  0.00     0.039 A 
ATOM     43  C   UNL A   1      38.553  29.376  30.713  1.00  0.00     0.014 A 
ATOM     44  C   UNL A   1      38.064  29.932  28.405  1.00  0.00     0.014 A 
ATOM     45  C   UNL A   1      39.864  29.064  30.353  1.00  0.00     0.010 A 
ATOM     46  C   UNL A   1      39.346  29.543  28.035  1.00  0.00     0.010 A 
ATOM     47  C   UNL A   1      40.261  29.110  29.007  1.00  0.00    -0.014 A 
BRANCH  47  48
ATOM     48  C   UNL A   1      41.631  28.711  28.598  1.00  0.00     0.031 A 
ATOM     49  C   UNL A   1      41.919  27.289  28.203  1.00  0.00     0.074 A 
ATOM     50  C   UNL A   1      42.629  29.613  28.645  1.00  0.00     0.049 A 
ATOM     51  N   UNL A   1      43.058  26.737  27.872  1.00  0.00    -0.248 NA
ATOM     52  C   UNL A   1      40.780  26.359  28.211  1.00  0.00     0.031 C 
ATOM     53  C   UNL A   1      42.489  31.007  29.067  1.00  0.00     0.029 A 
ATOM     54  N   UNL A   1      43.964  29.488  28.349  1.00  0.00    -0.354 N 
ATOM     55  C   UNL A   1      42.775  25.397  27.641  1.00  0.00     0.074 A 
ATOM     56  C   UNL A   1      41.371  25.207  27.935  1.00  0.00     0.031 C 
ATOM     57  C   UNL A   1      43.685  31.613  28.985  1.00  0.00     0.029 A 
ATOM     58  C   UNL A   1      44.682  30.642  28.545  1.00  0.00     0.049 A 
ATOM     59  H   UNL A   1      44.368  28.650  28.024  1.00  0.00     0.167 HD
ATOM     60  C   UNL A   1      43.602  24.419  27.200  1.00  0.00     0.037 A 
ATOM     61  C   UNL A   1      45.997  30.887  28.400  1.00  0.00     0.037 A 
ATOM     62  C   UNL A   1      44.997  24.617  26.902  1.00  0.00     0.049 A 
ATOM     63  C   UNL A   1      46.900  29.787  27.918  1.00  0.00     0.074 A 
ATOM     64  C   UNL A   1      45.909  23.707  26.397  1.00  0.00     0.029 A 
ATOM     65  N   UNL A   1      45.684  25.807  27.093  1.00  0.00    -0.354 N 
ATOM     66  N   UNL A   1      46.605  28.543  27.629  1.00  0.00    -0.248 NA
ATOM     67  C   UNL A   1      48.318  30.126  27.734  1.00  0.00     0.031 C 
ATOM     68  C   UNL A   1      47.159  24.330  26.335  1.00  0.00     0.029 A 
ATOM     69  C   UNL A   1      47.016  25.646  26.742  1.00  0.00     0.049 A 
ATOM     70  H   UNL A   1      45.286  26.642  27.427  1.00  0.00     0.167 HD
ATOM     71  C   UNL A   1      47.791  27.956  27.206  1.00  0.00     0.074 A 
ATOM     72  C   UNL A   1      48.807  28.989  27.261  1.00  0.00     0.031 C 
ATOM     73  C   UNL A   1      48.018  26.681  26.807  1.00  0.00     0.037 A 
BRANCH  60  74
ATOM     74  C   UNL A   1      43.012  23.048  27.020  1.00  0.00     0.057 A 
ATOM     75  C   UNL A   1      42.707  22.532  25.753  1.00  0.00     0.134 A 
ATOM     76  C   UNL A   1      42.750  22.231  28.127  1.00  0.00     0.134 A 
ATOM     77  F   UNL A   1      42.922  23.266  24.650  1.00  0.00    -0.206 F 
ATOM     78  C   UNL A   1      42.126  21.272  25.595  1.00  0.00     0.040 A 
ATOM     79  C   UNL A   1      42.200  20.956  27.981  1.00  0.00     0.040 A 
ATOM     80  F   UNL A   1      43.023  22.657  29.369  1.00  0.00    -0.206 F 
ATOM     81  C   UNL A   1      41.876  20.478  26.713  1.00  0.00     0.006 A 
ENDBRANCH  60  74
BRANCH  61  82
ATOM     82  C   UNL A   1      46.531  32.240  28.705  1.00  0.00     0.057 A 
ATOM     83  C   UNL A   1      46.558  33.247  27.734  1.00  0.00     0.134 A 
ATOM     84  C   UNL A   1      47.011  32.561  29.981  1.00  0.00     0.134 A 
ATOM     85  F   UNL A   1      46.127  32.995  26.489  1.00  0.00    -0.206 F 
ATOM     86  C   UNL A   1      47.057  34.519  28.014  1.00  0.00     0.040 A 
ATOM     87  C   UNL A   1      47.488  33.837  30.282  1.00  0.00     0.040 A 
ATOM     88  F   UNL A   1      47.002  31.644  30.958  1.00  0.00    -0.206 F 
ATOM     89  C   UNL A   1      47.518  34.820  29.295  1.00  0.00     0.006 A 
ENDBRANCH  61  82
BRANCH  73  90
ATOM     90  C   UNL A   1      49.414  26.334  26.373  1.00  0.00     0.057 A 
ATOM     91  C   UNL A   1      50.295  25.630  27.202  1.00  0.00     0.134 A 
ATOM     92  C   UNL A   1      49.866  26.677  25.091  1.00  0.00     0.134 A 
ATOM     93  F   UNL A   1      49.930  25.283  28.445  1.00  0.00    -0.206 F 
ATOM     94  C   UNL A   1      51.585  25.300  26.781  1.00  0.00     0.040 A 
ATOM     95  C   UNL A   1      51.142  26.327  24.649  1.00  0.00     0.040 A 
ATOM     96  F   UNL A   1      49.069  27.343  24.243  1.00  0.00    -0.206 F 
ATOM     97  C   UNL A   1      52.009  25.642  25.499  1.00  0.00     0.006 A 
ENDBRANCH  73  90
ENDBRANCH  47  48
ENDBRANCH  39  42
ENDBRANCH  37  38
ENDBRANCH  36  37
ENDBRANCH  35  36
ENDBRANCH   1  35
TORSDOF 17
ENDMDL
