MODEL 1
REMARK VINA RESULT:     -11.6      0.000      0.000
REMARK SMILES CO[C@@H]1C[C@@H](C(=O)NCCCCCCNC(=O)c2ccc(-c3c4nc(c(-c5c(F)cccc5F)c5ccc([nH]5)c(-c5c(F)cccc5F)c5nc(c(-c6c(F)cccc6F)c6ccc3[nH]6)C=C5)C=C4)cc2)N(S(=O)(=O)c2ccc(Cl)cc2F)C1
REMARK SMILES IDX 11 1 10 2 9 3 8 4 6 5 7 6 5 8 3 9 4 10 84 11 72 12 2 13 1 14
REMARK SMILES IDX 73 15 74 16 75 17 76 18 77 19 82 20 78 21 81 22 83 23 79 24
REMARK SMILES IDX 80 25 12 26 13 27 14 28 15 29 16 30 17 32 18 33 19 34 71 35
REMARK SMILES IDX 20 36 70 37 21 38 22 39 23 40 64 41 24 42 69 43 63 44 65 45
REMARK SMILES IDX 25 46 68 47 62 48 61 49 26 51 52 52 35 53 51 54 36 55 39 56
REMARK SMILES IDX 50 57 66 58 37 59 38 60 49 62 67 63 40 64 27 65 28 66 33 67
REMARK SMILES IDX 29 68 30 69 32 70 34 71 31 72 53 73 54 74 59 75 55 76 56 77
REMARK SMILES IDX 58 78 60 79 57 80 41 81 42 82 47 83 43 84 44 85 46 86 48 87
REMARK SMILES IDX 45 88
REMARK H PARENT 8 7 15 31 65 50 39 61
REMARK Flexibility Score: inf
ROOT
ATOM      1  C   UNL A   1      32.380  29.707  26.382  1.00  0.00     0.002 C 
ENDROOT
BRANCH   1   2
ATOM      2  C   UNL A   1      31.781  28.625  27.290  1.00  0.00     0.021 C 
BRANCH   2   3
ATOM      3  C   UNL A   1      32.351  27.226  27.066  1.00  0.00     0.116 C 
BRANCH   3   4
ATOM      4  N   UNL A   1      31.371  26.314  26.520  1.00  0.00    -0.355 N 
ATOM      5  C   UNL A   1      30.818  26.236  25.283  1.00  0.00     0.238 C 
ATOM      6  O   UNL A   1      30.295  25.151  25.003  1.00  0.00    -0.273 OA
ATOM      7  H   UNL A   1      31.050  25.633  27.154  1.00  0.00     0.163 HD
BRANCH   5   8
ATOM      8  C   UNL A   1      30.933  27.334  24.233  1.00  0.00     0.165 C 
ATOM      9  C   UNL A   1      30.468  28.648  22.303  1.00  0.00     0.135 C 
ATOM     10  C   UNL A   1      29.862  27.548  23.172  1.00  0.00     0.064 C 
ATOM     11  C   UNL A   1      31.992  28.542  22.505  1.00  0.00     0.135 C 
ATOM     12  N   UNL A   1      32.215  27.363  23.424  1.00  0.00    -0.183 NA
BRANCH   9  13
ATOM     13  O   UNL A   1      29.979  29.894  22.823  1.00  0.00    -0.380 OA
ATOM     14  C   UNL A   1      28.605  30.108  22.526  1.00  0.00     0.195 C 
ENDBRANCH   9  13
BRANCH  12  15
ATOM     15  S   UNL A   1      32.706  25.983  22.516  1.00  0.00     0.246 S 
ATOM     16  O   UNL A   1      31.510  25.319  22.036  1.00  0.00    -0.207 OA
ATOM     17  O   UNL A   1      33.657  26.475  21.538  1.00  0.00    -0.207 OA
BRANCH  15  18
ATOM     18  C   UNL A   1      33.601  24.874  23.547  1.00  0.00     0.118 A 
ATOM     19  C   UNL A   1      34.277  25.367  24.672  1.00  0.00     0.026 A 
ATOM     20  C   UNL A   1      33.768  23.543  23.173  1.00  0.00     0.144 A 
ATOM     21  C   UNL A   1      35.065  24.506  25.442  1.00  0.00     0.022 A 
ATOM     22  C   UNL A   1      34.531  22.676  23.950  1.00  0.00     0.061 A 
ATOM     23  F   UNL A   1      33.154  23.040  22.092  1.00  0.00    -0.205 F 
ATOM     24  C   UNL A   1      35.176  23.161  25.084  1.00  0.00     0.044 A 
ATOM     25  Cl  UNL A   1      36.125  22.097  26.047  1.00  0.00    -0.084 Cl
ENDBRANCH  15  18
ENDBRANCH  12  15
ENDBRANCH   5   8
ENDBRANCH   3   4
ENDBRANCH   2   3
ENDBRANCH   1   2
BRANCH   1  26
ATOM     26  C   UNL A   1      31.379  30.702  25.783  1.00  0.00     0.002 C 
BRANCH  26  27
ATOM     27  C   UNL A   1      31.252  32.036  26.524  1.00  0.00     0.021 C 
BRANCH  27  28
ATOM     28  C   UNL A   1      32.520  32.497  27.234  1.00  0.00     0.116 C 
BRANCH  28  29
ATOM     29  N   UNL A   1      32.444  33.892  27.634  1.00  0.00    -0.352 N 
ATOM     30  C   UNL A   1      33.181  34.580  28.565  1.00  0.00     0.251 C 
ATOM     31  H   UNL A   1      31.760  34.424  27.165  1.00  0.00     0.163 HD
ATOM     32  O   UNL A   1      32.833  35.705  28.910  1.00  0.00    -0.269 OA
BRANCH  30  33
ATOM     33  C   UNL A   1      34.383  33.966  29.172  1.00  0.00     0.039 A 
ATOM     34  C   UNL A   1      34.212  33.030  30.196  1.00  0.00     0.014 A 
ATOM     35  C   UNL A   1      35.671  34.327  28.766  1.00  0.00     0.014 A 
ATOM     36  C   UNL A   1      35.327  32.418  30.771  1.00  0.00     0.010 A 
ATOM     37  C   UNL A   1      36.779  33.664  29.290  1.00  0.00     0.010 A 
ATOM     38  C   UNL A   1      36.619  32.706  30.300  1.00  0.00    -0.014 A 
BRANCH  38  39
ATOM     39  C   UNL A   1      37.802  31.995  30.853  1.00  0.00     0.031 A 
ATOM     40  C   UNL A   1      38.350  32.353  32.206  1.00  0.00     0.074 A 
ATOM     41  C   UNL A   1      38.408  31.050  30.109  1.00  0.00     0.049 A 
ATOM     42  N   UNL A   1      39.373  31.841  32.843  1.00  0.00    -0.248 NA
ATOM     43  C   UNL A   1      37.677  33.442  32.929  1.00  0.00     0.031 C 
ATOM     44  C   UNL A   1      38.009  30.652  28.758  1.00  0.00     0.029 A 
ATOM     45  N   UNL A   1      39.490  30.251  30.384  1.00  0.00    -0.354 N 
ATOM     46  C   UNL A   1      39.470  32.548  34.035  1.00  0.00     0.074 A 
ATOM     47  C   UNL A   1      38.438  33.561  34.008  1.00  0.00     0.031 C 
ATOM     48  C   UNL A   1      38.813  29.664  28.335  1.00  0.00     0.029 A 
ATOM     49  C   UNL A   1      39.803  29.380  29.369  1.00  0.00     0.049 A 
ATOM     50  H   UNL A   1      39.994  30.298  31.228  1.00  0.00     0.167 HD
ATOM     51  C   UNL A   1      40.324  32.355  35.069  1.00  0.00     0.037 A 
ATOM     52  C   UNL A   1      40.778  28.456  29.280  1.00  0.00     0.037 A 
ATOM     53  C   UNL A   1      41.340  31.333  35.101  1.00  0.00     0.049 A 
ATOM     54  C   UNL A   1      41.713  28.261  30.440  1.00  0.00     0.074 A 
ATOM     55  C   UNL A   1      42.213  31.017  36.128  1.00  0.00     0.029 A 
ATOM     56  N   UNL A   1      41.623  30.467  34.056  1.00  0.00    -0.354 N 
ATOM     57  N   UNL A   1      41.741  28.885  31.594  1.00  0.00    -0.248 NA
ATOM     58  C   UNL A   1      42.745  27.226  30.290  1.00  0.00     0.031 C 
ATOM     59  C   UNL A   1      43.055  29.991  35.687  1.00  0.00     0.029 A 
ATOM     60  C   UNL A   1      42.674  29.633  34.403  1.00  0.00     0.049 A 
ATOM     61  H   UNL A   1      41.147  30.447  33.194  1.00  0.00     0.167 HD
ATOM     62  C   UNL A   1      42.777  28.305  32.314  1.00  0.00     0.074 A 
ATOM     63  C   UNL A   1      43.337  27.264  31.475  1.00  0.00     0.031 C 
ATOM     64  C   UNL A   1      43.226  28.607  33.556  1.00  0.00     0.037 A 
BRANCH  51  65
ATOM     65  C   UNL A   1      40.194  33.267  36.255  1.00  0.00     0.057 A 
ATOM     66  C   UNL A   1      40.967  34.429  36.382  1.00  0.00     0.134 A 
ATOM     67  C   UNL A   1      39.263  32.998  37.267  1.00  0.00     0.134 A 
ATOM     68  F   UNL A   1      41.885  34.739  35.454  1.00  0.00    -0.206 F 
ATOM     69  C   UNL A   1      40.837  35.277  37.483  1.00  0.00     0.040 A 
ATOM     70  C   UNL A   1      39.104  33.854  38.359  1.00  0.00     0.040 A 
ATOM     71  F   UNL A   1      38.486  31.907  37.207  1.00  0.00    -0.206 F 
ATOM     72  C   UNL A   1      39.898  34.994  38.472  1.00  0.00     0.006 A 
ENDBRANCH  51  65
BRANCH  52  73
ATOM     73  C   UNL A   1      40.902  27.624  28.056  1.00  0.00     0.057 A 
ATOM     74  C   UNL A   1      41.660  28.058  26.963  1.00  0.00     0.134 A 
ATOM     75  C   UNL A   1      40.265  26.383  27.948  1.00  0.00     0.134 A 
ATOM     76  F   UNL A   1      42.280  29.248  27.000  1.00  0.00    -0.206 F 
ATOM     77  C   UNL A   1      41.767  27.297  25.798  1.00  0.00     0.040 A 
ATOM     78  C   UNL A   1      40.383  25.599  26.800  1.00  0.00     0.040 A 
ATOM     79  F   UNL A   1      39.531  25.907  28.964  1.00  0.00    -0.206 F 
ATOM     80  C   UNL A   1      41.130  26.060  25.717  1.00  0.00     0.006 A 
ENDBRANCH  52  73
BRANCH  64  81
ATOM     81  C   UNL A   1      44.368  27.788  34.086  1.00  0.00     0.057 A 
ATOM     82  C   UNL A   1      45.700  28.193  33.935  1.00  0.00     0.134 A 
ATOM     83  C   UNL A   1      44.130  26.589  34.769  1.00  0.00     0.134 A 
ATOM     84  F   UNL A   1      45.997  29.325  33.280  1.00  0.00    -0.206 F 
ATOM     85  C   UNL A   1      46.756  27.419  34.419  1.00  0.00     0.040 A 
ATOM     86  C   UNL A   1      45.176  25.820  35.281  1.00  0.00     0.040 A 
ATOM     87  F   UNL A   1      42.877  26.147  34.956  1.00  0.00    -0.206 F 
ATOM     88  C   UNL A   1      46.495  26.231  35.098  1.00  0.00     0.006 A 
ENDBRANCH  64  81
ENDBRANCH  38  39
ENDBRANCH  30  33
ENDBRANCH  28  29
ENDBRANCH  27  28
ENDBRANCH  26  27
ENDBRANCH   1  26
TORSDOF 16
ENDMDL
MODEL 2
REMARK VINA RESULT:     -11.5      1.753      3.187
REMARK SMILES CO[C@@H]1C[C@@H](C(=O)NCCCCCCNC(=O)c2ccc(-c3c4nc(c(-c5c(F)cccc5F)c5ccc([nH]5)c(-c5c(F)cccc5F)c5nc(c(-c6c(F)cccc6F)c6ccc3[nH]6)C=C5)C=C4)cc2)N(S(=O)(=O)c2ccc(Cl)cc2F)C1
REMARK SMILES IDX 11 1 10 2 9 3 8 4 6 5 7 6 5 8 3 9 4 10 84 11 72 12 2 13 1 14
REMARK SMILES IDX 73 15 74 16 75 17 76 18 77 19 82 20 78 21 81 22 83 23 79 24
REMARK SMILES IDX 80 25 12 26 13 27 14 28 15 29 16 30 17 32 18 33 19 34 71 35
REMARK SMILES IDX 20 36 70 37 21 38 22 39 23 40 64 41 24 42 69 43 63 44 65 45
REMARK SMILES IDX 25 46 68 47 62 48 61 49 26 51 52 52 35 53 51 54 36 55 39 56
REMARK SMILES IDX 50 57 66 58 37 59 38 60 49 62 67 63 40 64 27 65 28 66 33 67
REMARK SMILES IDX 29 68 30 69 32 70 34 71 31 72 53 73 54 74 59 75 55 76 56 77
REMARK SMILES IDX 58 78 60 79 57 80 41 81 42 82 47 83 43 84 44 85 46 86 48 87
REMARK SMILES IDX 45 88
REMARK H PARENT 8 7 15 31 65 50 39 61
REMARK Flexibility Score: inf
ROOT
ATOM      1  C   UNL A   1      32.005  29.808  26.765  1.00  0.00     0.002 C 
ENDROOT
BRANCH   1   2
ATOM      2  C   UNL A   1      33.406  29.325  26.366  1.00  0.00     0.021 C 
BRANCH   2   3
ATOM      3  C   UNL A   1      33.630  27.824  26.539  1.00  0.00     0.116 C 
BRANCH   3   4
ATOM      4  N   UNL A   1      32.388  27.087  26.609  1.00  0.00    -0.355 N 
ATOM      5  C   UNL A   1      32.088  25.811  26.255  1.00  0.00     0.238 C 
ATOM      6  O   UNL A   1      31.057  25.349  26.759  1.00  0.00    -0.273 OA
ATOM      7  H   UNL A   1      31.630  27.597  26.976  1.00  0.00     0.163 HD
BRANCH   5   8
ATOM      8  C   UNL A   1      32.999  24.930  25.410  1.00  0.00     0.165 C 
ATOM      9  C   UNL A   1      34.976  24.048  24.419  1.00  0.00     0.135 C 
ATOM     10  C   UNL A   1      34.516  25.002  25.520  1.00  0.00     0.064 C 
ATOM     11  C   UNL A   1      33.820  24.003  23.402  1.00  0.00     0.135 C 
ATOM     12  N   UNL A   1      32.771  24.965  23.911  1.00  0.00    -0.183 NA
BRANCH   9  13
ATOM     13  O   UNL A   1      35.150  22.765  25.039  1.00  0.00    -0.380 OA
ATOM     14  C   UNL A   1      34.492  21.723  24.330  1.00  0.00     0.195 C 
ENDBRANCH   9  13
BRANCH  12  15
ATOM     15  S   UNL A   1      32.857  26.454  23.049  1.00  0.00     0.246 S 
ATOM     16  O   UNL A   1      33.879  27.271  23.674  1.00  0.00    -0.207 OA
ATOM     17  O   UNL A   1      33.026  26.092  21.655  1.00  0.00    -0.207 OA
BRANCH  15  18
ATOM     18  C   UNL A   1      31.315  27.294  23.148  1.00  0.00     0.118 A 
ATOM     19  C   UNL A   1      30.159  26.582  23.500  1.00  0.00     0.026 A 
ATOM     20  C   UNL A   1      31.207  28.619  22.733  1.00  0.00     0.144 A 
ATOM     21  C   UNL A   1      28.918  27.223  23.490  1.00  0.00     0.022 A 
ATOM     22  C   UNL A   1      29.975  29.269  22.746  1.00  0.00     0.061 A 
ATOM     23  F   UNL A   1      32.285  29.327  22.370  1.00  0.00    -0.205 F 
ATOM     24  C   UNL A   1      28.835  28.569  23.126  1.00  0.00     0.044 A 
ATOM     25  Cl  UNL A   1      27.309  29.364  23.139  1.00  0.00    -0.084 Cl
ENDBRANCH  15  18
ENDBRANCH  12  15
ENDBRANCH   5   8
ENDBRANCH   3   4
ENDBRANCH   2   3
ENDBRANCH   1   2
BRANCH   1  26
ATOM     26  C   UNL A   1      31.393  30.890  25.867  1.00  0.00     0.002 C 
BRANCH  26  27
ATOM     27  C   UNL A   1      31.270  32.278  26.500  1.00  0.00     0.021 C 
BRANCH  27  28
ATOM     28  C   UNL A   1      32.550  32.809  27.136  1.00  0.00     0.116 C 
BRANCH  28  29
ATOM     29  N   UNL A   1      32.391  34.167  27.627  1.00  0.00    -0.352 N 
ATOM     30  C   UNL A   1      33.040  34.811  28.651  1.00  0.00     0.251 C 
ATOM     31  H   UNL A   1      31.717  34.707  27.154  1.00  0.00     0.163 HD
ATOM     32  O   UNL A   1      32.625  35.895  29.051  1.00  0.00    -0.269 OA
BRANCH  30  33
ATOM     33  C   UNL A   1      34.226  34.199  29.290  1.00  0.00     0.039 A 
ATOM     34  C   UNL A   1      34.032  33.333  30.370  1.00  0.00     0.014 A 
ATOM     35  C   UNL A   1      35.522  34.495  28.858  1.00  0.00     0.014 A 
ATOM     36  C   UNL A   1      35.131  32.723  30.978  1.00  0.00     0.010 A 
ATOM     37  C   UNL A   1      36.612  33.832  29.418  1.00  0.00     0.010 A 
ATOM     38  C   UNL A   1      36.428  32.942  30.486  1.00  0.00    -0.014 A 
BRANCH  38  39
ATOM     39  C   UNL A   1      37.592  32.230  31.077  1.00  0.00     0.031 A 
ATOM     40  C   UNL A   1      38.115  32.608  32.434  1.00  0.00     0.074 A 
ATOM     41  C   UNL A   1      38.204  31.265  30.364  1.00  0.00     0.049 A 
ATOM     42  N   UNL A   1      39.120  32.099  33.103  1.00  0.00    -0.248 NA
ATOM     43  C   UNL A   1      37.439  33.718  33.122  1.00  0.00     0.031 C 
ATOM     44  C   UNL A   1      37.829  30.845  29.013  1.00  0.00     0.029 A 
ATOM     45  N   UNL A   1      39.272  30.461  30.677  1.00  0.00    -0.354 N 
ATOM     46  C   UNL A   1      39.198  32.827  34.283  1.00  0.00     0.074 A 
ATOM     47  C   UNL A   1      38.177  33.850  34.215  1.00  0.00     0.031 C 
ATOM     48  C   UNL A   1      38.631  29.841  28.626  1.00  0.00     0.029 A 
ATOM     49  C   UNL A   1      39.596  29.567  29.685  1.00  0.00     0.049 A 
ATOM     50  H   UNL A   1      39.758  30.518  31.531  1.00  0.00     0.167 HD
ATOM     51  C   UNL A   1      40.029  32.646  35.338  1.00  0.00     0.037 A 
ATOM     52  C   UNL A   1      40.563  28.632  29.635  1.00  0.00     0.037 A 
ATOM     53  C   UNL A   1      41.033  31.615  35.411  1.00  0.00     0.049 A 
ATOM     54  C   UNL A   1      41.471  28.449  30.818  1.00  0.00     0.074 A 
ATOM     55  C   UNL A   1      41.881  31.310  36.462  1.00  0.00     0.029 A 
ATOM     56  N   UNL A   1      41.329  30.725  34.389  1.00  0.00    -0.354 N 
ATOM     57  N   UNL A   1      41.482  29.095  31.960  1.00  0.00    -0.248 NA
ATOM     58  C   UNL A   1      42.495  27.402  30.710  1.00  0.00     0.031 C 
ATOM     59  C   UNL A   1      42.721  30.267  36.058  1.00  0.00     0.029 A 
ATOM     60  C   UNL A   1      42.363  29.888  34.774  1.00  0.00     0.049 A 
ATOM     61  H   UNL A   1      40.871  30.694  33.518  1.00  0.00     0.167 HD
ATOM     62  C   UNL A   1      42.496  28.519  32.713  1.00  0.00     0.074 A 
ATOM     63  C   UNL A   1      43.063  27.457  31.906  1.00  0.00     0.031 C 
ATOM     64  C   UNL A   1      42.923  28.841  33.959  1.00  0.00     0.037 A 
BRANCH  51  65
ATOM     65  C   UNL A   1      39.883  33.581  36.504  1.00  0.00     0.057 A 
ATOM     66  C   UNL A   1      40.608  34.778  36.585  1.00  0.00     0.134 A 
ATOM     67  C   UNL A   1      38.984  33.300  37.540  1.00  0.00     0.134 A 
ATOM     68  F   UNL A   1      41.495  35.102  35.632  1.00  0.00    -0.206 F 
ATOM     69  C   UNL A   1      40.464  35.648  37.668  1.00  0.00     0.040 A 
ATOM     70  C   UNL A   1      38.810  34.177  38.614  1.00  0.00     0.040 A 
ATOM     71  F   UNL A   1      38.253  32.176  37.523  1.00  0.00    -0.206 F 
ATOM     72  C   UNL A   1      39.557  35.351  38.683  1.00  0.00     0.006 A 
ENDBRANCH  51  65
BRANCH  52  73
ATOM     73  C   UNL A   1      40.705  27.775  28.430  1.00  0.00     0.057 A 
ATOM     74  C   UNL A   1      41.502  28.173  27.352  1.00  0.00     0.134 A 
ATOM     75  C   UNL A   1      40.045  26.545  28.326  1.00  0.00     0.134 A 
ATOM     76  F   UNL A   1      42.145  29.350  27.386  1.00  0.00    -0.206 F 
ATOM     77  C   UNL A   1      41.626  27.389  26.204  1.00  0.00     0.040 A 
ATOM     78  C   UNL A   1      40.179  25.739  27.195  1.00  0.00     0.040 A 
ATOM     79  F   UNL A   1      39.272  26.104  29.328  1.00  0.00    -0.206 F 
ATOM     80  C   UNL A   1      40.965  26.164  26.126  1.00  0.00     0.006 A 
ENDBRANCH  52  73
BRANCH  64  81
ATOM     81  C   UNL A   1      44.044  28.021  34.528  1.00  0.00     0.057 A 
ATOM     82  C   UNL A   1      43.808  26.829  35.225  1.00  0.00     0.134 A 
ATOM     83  C   UNL A   1      45.376  28.420  34.363  1.00  0.00     0.134 A 
ATOM     84  F   UNL A   1      42.555  26.397  35.429  1.00  0.00    -0.206 F 
ATOM     85  C   UNL A   1      44.856  26.079  35.763  1.00  0.00     0.040 A 
ATOM     86  C   UNL A   1      46.434  27.665  34.873  1.00  0.00     0.040 A 
ATOM     87  F   UNL A   1      45.673  29.547  33.698  1.00  0.00    -0.206 F 
ATOM     88  C   UNL A   1      46.173  26.495  35.583  1.00  0.00     0.006 A 
ENDBRANCH  64  81
ENDBRANCH  38  39
ENDBRANCH  30  33
ENDBRANCH  28  29
ENDBRANCH  27  28
ENDBRANCH  26  27
ENDBRANCH   1  26
TORSDOF 16
ENDMDL
MODEL 3
REMARK VINA RESULT:     -11.5      4.648      8.807
REMARK SMILES CO[C@@H]1C[C@@H](C(=O)NCCCCCCNC(=O)c2ccc(-c3c4nc(c(-c5c(F)cccc5F)c5ccc([nH]5)c(-c5c(F)cccc5F)c5nc(c(-c6c(F)cccc6F)c6ccc3[nH]6)C=C5)C=C4)cc2)N(S(=O)(=O)c2ccc(Cl)cc2F)C1
REMARK SMILES IDX 11 1 10 2 9 3 8 4 6 5 7 6 5 8 3 9 4 10 84 11 72 12 2 13 1 14
REMARK SMILES IDX 73 15 74 16 75 17 76 18 77 19 82 20 78 21 81 22 83 23 79 24
REMARK SMILES IDX 80 25 12 26 13 27 14 28 15 29 16 30 17 32 18 33 19 34 71 35
REMARK SMILES IDX 20 36 70 37 21 38 22 39 23 40 64 41 24 42 69 43 63 44 65 45
REMARK SMILES IDX 25 46 68 47 62 48 61 49 26 51 52 52 35 53 51 54 36 55 39 56
REMARK SMILES IDX 50 57 66 58 37 59 38 60 49 62 67 63 40 64 27 65 28 66 33 67
REMARK SMILES IDX 29 68 30 69 32 70 34 71 31 72 53 73 54 74 59 75 55 76 56 77
REMARK SMILES IDX 58 78 60 79 57 80 41 81 42 82 47 83 43 84 44 85 46 86 48 87
REMARK SMILES IDX 45 88
REMARK H PARENT 8 7 15 31 65 50 39 61
REMARK Flexibility Score: inf
ROOT
ATOM      1  C   UNL A   1      36.848  21.874  24.381  1.00  0.00     0.002 C 
ENDROOT
BRANCH   1   2
ATOM      2  C   UNL A   1      37.010  23.008  25.402  1.00  0.00     0.021 C 
BRANCH   2   3
ATOM      3  C   UNL A   1      36.029  24.164  25.222  1.00  0.00     0.116 C 
BRANCH   3   4
ATOM      4  N   UNL A   1      35.257  24.047  24.006  1.00  0.00    -0.355 N 
ATOM      5  C   UNL A   1      34.113  24.663  23.613  1.00  0.00     0.238 C 
ATOM      6  O   UNL A   1      33.889  24.640  22.397  1.00  0.00    -0.273 OA
ATOM      7  H   UNL A   1      35.624  23.411  23.350  1.00  0.00     0.163 HD
BRANCH   5   8
ATOM      8  C   UNL A   1      33.213  25.456  24.552  1.00  0.00     0.165 C 
ATOM      9  C   UNL A   1      32.526  26.829  26.372  1.00  0.00     0.135 C 
ATOM     10  C   UNL A   1      33.780  26.366  25.634  1.00  0.00     0.064 C 
ATOM     11  C   UNL A   1      31.469  25.737  26.116  1.00  0.00     0.135 C 
ATOM     12  N   UNL A   1      32.156  24.666  25.300  1.00  0.00    -0.183 NA
BRANCH   9  13
ATOM     13  O   UNL A   1      32.127  28.065  25.762  1.00  0.00    -0.380 OA
ATOM     14  C   UNL A   1      32.040  29.133  26.696  1.00  0.00     0.195 C 
ENDBRANCH   9  13
BRANCH  12  15
ATOM     15  S   UNL A   1      32.605  23.343  26.309  1.00  0.00     0.246 S 
ATOM     16  O   UNL A   1      33.914  23.632  26.863  1.00  0.00    -0.207 OA
ATOM     17  O   UNL A   1      31.498  23.155  27.226  1.00  0.00    -0.207 OA
BRANCH  15  18
ATOM     18  C   UNL A   1      32.701  21.868  25.356  1.00  0.00     0.118 A 
ATOM     19  C   UNL A   1      32.201  21.856  24.046  1.00  0.00     0.026 A 
ATOM     20  C   UNL A   1      33.128  20.679  25.940  1.00  0.00     0.144 A 
ATOM     21  C   UNL A   1      32.189  20.663  23.318  1.00  0.00     0.022 A 
ATOM     22  C   UNL A   1      33.143  19.493  25.210  1.00  0.00     0.061 A 
ATOM     23  F   UNL A   1      33.595  20.646  27.197  1.00  0.00    -0.205 F 
ATOM     24  C   UNL A   1      32.675  19.490  23.899  1.00  0.00     0.044 A 
ATOM     25  Cl  UNL A   1      32.684  18.028  22.993  1.00  0.00    -0.084 Cl
ENDBRANCH  15  18
ENDBRANCH  12  15
ENDBRANCH   5   8
ENDBRANCH   3   4
ENDBRANCH   2   3
ENDBRANCH   1   2
BRANCH   1  26
ATOM     26  C   UNL A   1      36.656  20.471  24.970  1.00  0.00     0.002 C 
BRANCH  26  27
ATOM     27  C   UNL A   1      37.900  19.579  24.968  1.00  0.00     0.021 C 
BRANCH  27  28
ATOM     28  C   UNL A   1      39.091  20.138  25.740  1.00  0.00     0.116 C 
BRANCH  28  29
ATOM     29  N   UNL A   1      40.167  19.169  25.858  1.00  0.00    -0.352 N 
ATOM     30  C   UNL A   1      41.498  19.364  26.125  1.00  0.00     0.251 C 
ATOM     31  H   UNL A   1      39.899  18.230  25.728  1.00  0.00     0.163 HD
ATOM     32  O   UNL A   1      42.292  18.438  25.983  1.00  0.00    -0.269 OA
BRANCH  30  33
ATOM     33  C   UNL A   1      41.989  20.689  26.565  1.00  0.00     0.039 A 
ATOM     34  C   UNL A   1      42.409  21.603  25.594  1.00  0.00     0.014 A 
ATOM     35  C   UNL A   1      42.068  21.025  27.919  1.00  0.00     0.014 A 
ATOM     36  C   UNL A   1      42.854  22.869  25.978  1.00  0.00     0.010 A 
ATOM     37  C   UNL A   1      42.445  22.312  28.297  1.00  0.00     0.010 A 
ATOM     38  C   UNL A   1      42.845  23.246  27.331  1.00  0.00    -0.014 A 
BRANCH  38  39
ATOM     39  C   UNL A   1      43.240  24.621  27.737  1.00  0.00     0.031 A 
ATOM     40  C   UNL A   1      42.198  25.655  28.060  1.00  0.00     0.074 A 
ATOM     41  C   UNL A   1      44.546  24.947  27.773  1.00  0.00     0.049 A 
ATOM     42  N   UNL A   1      42.359  26.902  28.428  1.00  0.00    -0.248 NA
ATOM     43  C   UNL A   1      40.791  25.245  27.932  1.00  0.00     0.031 C 
ATOM     44  C   UNL A   1      45.651  24.052  27.425  1.00  0.00     0.029 A 
ATOM     45  N   UNL A   1      45.167  26.122  28.118  1.00  0.00    -0.354 N 
ATOM     46  C   UNL A   1      41.080  27.424  28.569  1.00  0.00     0.074 A 
ATOM     47  C   UNL A   1      40.154  26.377  28.192  1.00  0.00     0.031 C 
ATOM     48  C   UNL A   1      46.814  24.698  27.606  1.00  0.00     0.029 A 
ATOM     49  C   UNL A   1      46.538  26.060  28.049  1.00  0.00     0.049 A 
ATOM     50  H   UNL A   1      44.677  26.931  28.389  1.00  0.00     0.167 HD
ATOM     51  C   UNL A   1      40.708  28.655  28.996  1.00  0.00     0.037 A 
ATOM     52  C   UNL A   1      47.469  26.996  28.315  1.00  0.00     0.037 A 
ATOM     53  C   UNL A   1      41.631  29.690  29.387  1.00  0.00     0.049 A 
ATOM     54  C   UNL A   1      47.031  28.353  28.788  1.00  0.00     0.074 A 
ATOM     55  C   UNL A   1      41.353  30.948  29.893  1.00  0.00     0.029 A 
ATOM     56  N   UNL A   1      43.012  29.588  29.310  1.00  0.00    -0.354 N 
ATOM     57  N   UNL A   1      45.818  28.807  28.991  1.00  0.00    -0.248 NA
ATOM     58  C   UNL A   1      48.094  29.326  29.077  1.00  0.00     0.031 C 
ATOM     59  C   UNL A   1      42.563  31.624  30.077  1.00  0.00     0.029 A 
ATOM     60  C   UNL A   1      43.599  30.770  29.733  1.00  0.00     0.049 A 
ATOM     61  H   UNL A   1      43.503  28.794  28.998  1.00  0.00     0.167 HD
ATOM     62  C   UNL A   1      45.970  30.108  29.452  1.00  0.00     0.074 A 
ATOM     63  C   UNL A   1      47.395  30.362  29.519  1.00  0.00     0.031 C 
ATOM     64  C   UNL A   1      45.018  31.012  29.788  1.00  0.00     0.037 A 
BRANCH  51  65
ATOM     65  C   UNL A   1      39.237  28.949  29.067  1.00  0.00     0.057 A 
ATOM     66  C   UNL A   1      38.503  28.766  30.248  1.00  0.00     0.134 A 
ATOM     67  C   UNL A   1      38.553  29.453  27.954  1.00  0.00     0.134 A 
ATOM     68  F   UNL A   1      39.095  28.276  31.347  1.00  0.00    -0.206 F 
ATOM     69  C   UNL A   1      37.137  29.048  30.310  1.00  0.00     0.040 A 
ATOM     70  C   UNL A   1      37.192  29.765  28.013  1.00  0.00     0.040 A 
ATOM     71  F   UNL A   1      39.194  29.659  26.794  1.00  0.00    -0.206 F 
ATOM     72  C   UNL A   1      36.479  29.556  29.192  1.00  0.00     0.006 A 
ENDBRANCH  51  65
BRANCH  52  73
ATOM     73  C   UNL A   1      48.910  26.672  28.166  1.00  0.00     0.057 A 
ATOM     74  C   UNL A   1      49.593  26.951  26.977  1.00  0.00     0.134 A 
ATOM     75  C   UNL A   1      49.635  26.073  29.202  1.00  0.00     0.134 A 
ATOM     76  F   UNL A   1      48.947  27.508  25.942  1.00  0.00    -0.206 F 
ATOM     77  C   UNL A   1      50.942  26.630  26.815  1.00  0.00     0.040 A 
ATOM     78  C   UNL A   1      50.990  25.770  29.064  1.00  0.00     0.040 A 
ATOM     79  F   UNL A   1      49.040  25.787  30.369  1.00  0.00    -0.206 F 
ATOM     80  C   UNL A   1      51.645  26.041  27.864  1.00  0.00     0.006 A 
ENDBRANCH  52  73
BRANCH  64  81
ATOM     81  C   UNL A   1      45.491  32.351  30.274  1.00  0.00     0.057 A 
ATOM     82  C   UNL A   1      45.682  33.429  29.401  1.00  0.00     0.134 A 
ATOM     83  C   UNL A   1      45.742  32.569  31.635  1.00  0.00     0.134 A 
ATOM     84  F   UNL A   1      45.471  33.284  28.084  1.00  0.00    -0.206 F 
ATOM     85  C   UNL A   1      46.135  34.668  29.859  1.00  0.00     0.040 A 
ATOM     86  C   UNL A   1      46.169  33.811  32.109  1.00  0.00     0.040 A 
ATOM     87  F   UNL A   1      45.571  31.582  32.527  1.00  0.00    -0.206 F 
ATOM     88  C   UNL A   1      46.375  34.862  31.218  1.00  0.00     0.006 A 
ENDBRANCH  64  81
ENDBRANCH  38  39
ENDBRANCH  30  33
ENDBRANCH  28  29
ENDBRANCH  27  28
ENDBRANCH  26  27
ENDBRANCH   1  26
TORSDOF 16
ENDMDL
