MODEL 1
REMARK VINA RESULT:     -11.5      0.000      0.000
REMARK SMILES O=C(CCCCCN1C(=O)/C(=C2\C(=O)Nc3ccccc32)SC1=S)NCCCCCCNC(=O)c1ccc(-c2c3nc(c(-c4c(F)cccc4F)c4ccc([nH]4)c(-c4c(F)cccc4F)c4nc(c(-c5c(F)cccc5F)c5ccc2[nH]5)C=C4)C=C3)cc1
REMARK SMILES IDX 27 1 26 2 25 3 1 4 2 5 3 7 4 8 5 9 6 10 7 11 8 12 9 13 23 14
REMARK SMILES IDX 10 15 11 16 22 17 24 18 12 19 13 20 21 21 14 22 15 23 16 24
REMARK SMILES IDX 20 25 17 27 19 28 18 29 28 30 29 31 30 32 31 33 32 34 33 35
REMARK SMILES IDX 34 37 35 38 36 39 88 40 37 41 87 42 38 43 39 44 40 45 81 46
REMARK SMILES IDX 41 47 86 48 80 49 82 50 42 51 85 52 79 53 78 54 43 56 69 57
REMARK SMILES IDX 52 58 68 59 53 60 56 61 67 62 83 63 54 64 55 65 66 67 84 68
REMARK SMILES IDX 57 69 44 70 45 71 50 72 46 73 47 74 49 75 51 76 48 77 70 78
REMARK SMILES IDX 71 79 76 80 72 81 73 82 75 83 77 84 74 85 58 86 59 87 64 88
REMARK SMILES IDX 60 89 61 90 63 91 65 92 62 93
REMARK H PARENT 25 6 15 26 32 36 82 55 56 66
REMARK Flexibility Score: inf
ROOT
ATOM      1  C   UNL A   1      35.902  31.880  28.007  1.00  0.00     0.021 C 
ENDROOT
BRANCH   1   2
ATOM      2  C   UNL A   1      35.601  30.384  28.078  1.00  0.00     0.116 C 
BRANCH   2   3
ATOM      3  N   UNL A   1      34.177  30.150  28.032  1.00  0.00    -0.356 N 
ATOM      4  O   UNL A   1      33.970  29.899  25.761  1.00  0.00    -0.275 OA
ATOM      5  C   UNL A   1      33.478  29.883  26.883  1.00  0.00     0.219 C 
ATOM      6  H   UNL A   1      33.676  30.184  28.879  1.00  0.00     0.163 HD
BRANCH   5   7
ATOM      7  C   UNL A   1      32.017  29.566  27.134  1.00  0.00     0.100 C 
BRANCH   7   8
ATOM      8  C   UNL A   1      31.773  28.087  27.441  1.00  0.00     0.010 C 
BRANCH   8   9
ATOM      9  C   UNL A   1      31.932  27.100  26.273  1.00  0.00     0.002 C 
BRANCH   9  10
ATOM     10  C   UNL A   1      33.328  26.496  26.093  1.00  0.00     0.022 C 
BRANCH  10  11
ATOM     11  C   UNL A   1      33.504  25.657  24.828  1.00  0.00     0.127 C 
BRANCH  11  12
ATOM     12  N   UNL A   1      33.029  24.284  24.976  1.00  0.00    -0.293 N 
ATOM     13  C   UNL A   1      33.863  23.343  25.568  1.00  0.00     0.267 C 
ATOM     14  C   UNL A   1      31.792  23.840  24.572  1.00  0.00     0.148 C 
ATOM     15  O   UNL A   1      34.849  23.613  26.229  1.00  0.00    -0.268 OA
ATOM     16  C   UNL A   1      33.333  21.974  25.304  1.00  0.00     0.093 C 
ATOM     17  S   UNL A   1      31.647  22.140  24.949  1.00  0.00    -0.053 SA
ATOM     18  S   UNL A   1      30.567  24.685  23.821  1.00  0.00    -0.052 S 
ATOM     19  C   UNL A   1      34.056  20.848  25.178  1.00  0.00     0.069 C 
ATOM     20  C   UNL A   1      35.543  20.722  25.436  1.00  0.00     0.257 C 
ATOM     21  C   UNL A   1      33.627  19.539  24.630  1.00  0.00     0.012 A 
ATOM     22  O   UNL A   1      36.337  21.536  25.860  1.00  0.00    -0.269 OA
ATOM     23  N   UNL A   1      35.875  19.435  25.055  1.00  0.00    -0.321 N 
ATOM     24  C   UNL A   1      34.778  18.748  24.561  1.00  0.00     0.049 A 
ATOM     25  C   UNL A   1      32.438  19.036  24.123  1.00  0.00     0.011 A 
ATOM     26  H   UNL A   1      36.780  19.054  25.125  1.00  0.00     0.170 HD
ATOM     27  C   UNL A   1      34.796  17.480  24.014  1.00  0.00     0.027 A 
ATOM     28  C   UNL A   1      32.431  17.760  23.546  1.00  0.00     0.001 A 
ATOM     29  C   UNL A   1      33.600  16.989  23.492  1.00  0.00     0.002 A 
ENDBRANCH  11  12
ENDBRANCH  10  11
ENDBRANCH   9  10
ENDBRANCH   8   9
ENDBRANCH   7   8
ENDBRANCH   5   7
ENDBRANCH   2   3
ENDBRANCH   1   2
BRANCH   1  30
ATOM     30  C   UNL A   1      34.909  32.779  28.765  1.00  0.00     0.002 C 
BRANCH  30  31
ATOM     31  C   UNL A   1      34.131  33.779  27.904  1.00  0.00     0.002 C 
BRANCH  31  32
ATOM     32  C   UNL A   1      33.068  34.582  28.649  1.00  0.00     0.021 C 
BRANCH  32  33
ATOM     33  C   UNL A   1      33.605  35.497  29.741  1.00  0.00     0.116 C 
BRANCH  33  34
ATOM     34  N   UNL A   1      32.605  35.859  30.736  1.00  0.00    -0.352 N 
ATOM     35  C   UNL A   1      32.623  35.634  32.096  1.00  0.00     0.251 C 
ATOM     36  H   UNL A   1      31.810  36.327  30.392  1.00  0.00     0.163 HD
ATOM     37  O   UNL A   1      31.641  35.887  32.785  1.00  0.00    -0.269 OA
BRANCH  35  38
ATOM     38  C   UNL A   1      33.829  35.036  32.709  1.00  0.00     0.039 A 
ATOM     39  C   UNL A   1      35.037  35.734  32.709  1.00  0.00     0.014 A 
ATOM     40  C   UNL A   1      33.769  33.735  33.215  1.00  0.00     0.014 A 
ATOM     41  C   UNL A   1      36.215  35.064  33.010  1.00  0.00     0.010 A 
ATOM     42  C   UNL A   1      34.946  33.098  33.622  1.00  0.00     0.010 A 
ATOM     43  C   UNL A   1      36.188  33.733  33.460  1.00  0.00    -0.014 A 
BRANCH  43  44
ATOM     44  C   UNL A   1      37.473  33.028  33.717  1.00  0.00     0.031 A 
ATOM     45  C   UNL A   1      38.241  33.257  34.995  1.00  0.00     0.074 A 
ATOM     46  C   UNL A   1      37.916  32.117  32.828  1.00  0.00     0.049 A 
ATOM     47  N   UNL A   1      39.358  32.704  35.400  1.00  0.00    -0.248 NA
ATOM     48  C   UNL A   1      37.687  34.239  35.940  1.00  0.00     0.031 C 
ATOM     49  C   UNL A   1      37.259  31.786  31.561  1.00  0.00     0.029 A 
ATOM     50  N   UNL A   1      39.004  31.282  32.865  1.00  0.00    -0.354 N 
ATOM     51  C   UNL A   1      39.646  33.279  36.633  1.00  0.00     0.074 A 
ATOM     52  C   UNL A   1      38.609  34.255  36.891  1.00  0.00     0.031 C 
ATOM     53  C   UNL A   1      37.924  30.783  30.969  1.00  0.00     0.029 A 
ATOM     54  C   UNL A   1      39.094  30.451  31.775  1.00  0.00     0.049 A 
ATOM     55  H   UNL A   1      39.657  31.280  33.601  1.00  0.00     0.167 HD
ATOM     56  C   UNL A   1      40.668  33.009  37.482  1.00  0.00     0.037 A 
ATOM     57  C   UNL A   1      40.023  29.536  31.448  1.00  0.00     0.037 A 
ATOM     58  C   UNL A   1      41.699  32.034  37.229  1.00  0.00     0.049 A 
ATOM     59  C   UNL A   1      41.187  29.313  32.372  1.00  0.00     0.074 A 
ATOM     60  C   UNL A   1      42.770  31.681  38.032  1.00  0.00     0.029 A 
ATOM     61  N   UNL A   1      41.791  31.260  36.081  1.00  0.00    -0.354 N 
ATOM     62  N   UNL A   1      41.434  29.853  33.541  1.00  0.00    -0.248 NA
ATOM     63  C   UNL A   1      42.206  28.354  31.924  1.00  0.00     0.031 C 
ATOM     64  C   UNL A   1      43.542  30.736  37.344  1.00  0.00     0.029 A 
ATOM     65  C   UNL A   1      42.915  30.453  36.142  1.00  0.00     0.049 A 
ATOM     66  H   UNL A   1      41.152  31.282  35.333  1.00  0.00     0.167 HD
ATOM     67  C   UNL A   1      42.621  29.278  33.980  1.00  0.00     0.074 A 
ATOM     68  C   UNL A   1      43.028  28.332  32.962  1.00  0.00     0.031 C 
ATOM     69  C   UNL A   1      43.312  29.514  35.122  1.00  0.00     0.037 A 
BRANCH  56  70
ATOM     70  C   UNL A   1      40.737  33.804  38.758  1.00  0.00     0.057 A 
ATOM     71  C   UNL A   1      41.532  34.954  38.841  1.00  0.00     0.134 A 
ATOM     72  C   UNL A   1      40.033  33.426  39.911  1.00  0.00     0.134 A 
ATOM     73  F   UNL A   1      42.243  35.369  37.781  1.00  0.00    -0.206 F 
ATOM     74  C   UNL A   1      41.621  35.701  40.018  1.00  0.00     0.040 A 
ATOM     75  C   UNL A   1      40.088  34.181  41.083  1.00  0.00     0.040 A 
ATOM     76  F   UNL A   1      39.243  32.340  39.900  1.00  0.00    -0.206 F 
ATOM     77  C   UNL A   1      40.889  35.321  41.141  1.00  0.00     0.006 A 
ENDBRANCH  56  70
BRANCH  57  78
ATOM     78  C   UNL A   1      39.912  28.776  30.177  1.00  0.00     0.057 A 
ATOM     79  C   UNL A   1      39.217  27.561  30.113  1.00  0.00     0.134 A 
ATOM     80  C   UNL A   1      40.463  29.265  28.988  1.00  0.00     0.134 A 
ATOM     81  F   UNL A   1      38.671  27.033  31.217  1.00  0.00    -0.206 F 
ATOM     82  C   UNL A   1      39.077  26.860  28.914  1.00  0.00     0.040 A 
ATOM     83  C   UNL A   1      40.302  28.593  27.776  1.00  0.00     0.040 A 
ATOM     84  F   UNL A   1      41.124  30.432  28.980  1.00  0.00    -0.206 F 
ATOM     85  C   UNL A   1      39.608  27.383  27.739  1.00  0.00     0.006 A 
ENDBRANCH  57  78
BRANCH  69  86
ATOM     86  C   UNL A   1      44.555  28.700  35.345  1.00  0.00     0.057 A 
ATOM     87  C   UNL A   1      45.803  29.177  34.920  1.00  0.00     0.134 A 
ATOM     88  C   UNL A   1      44.526  27.451  35.980  1.00  0.00     0.134 A 
ATOM     89  F   UNL A   1      45.905  30.360  34.298  1.00  0.00    -0.206 F 
ATOM     90  C   UNL A   1      46.973  28.445  35.124  1.00  0.00     0.040 A 
ATOM     91  C   UNL A   1      45.694  26.725  36.221  1.00  0.00     0.040 A 
ATOM     92  F   UNL A   1      43.366  26.942  36.425  1.00  0.00    -0.206 F 
ATOM     93  C   UNL A   1      46.922  27.221  35.787  1.00  0.00     0.006 A 
ENDBRANCH  69  86
ENDBRANCH  43  44
ENDBRANCH  35  38
ENDBRANCH  33  34
ENDBRANCH  32  33
ENDBRANCH  31  32
ENDBRANCH  30  31
ENDBRANCH   1  30
TORSDOF 18
ENDMDL
MODEL 2
REMARK VINA RESULT:     -10.8      5.529      9.154
REMARK SMILES O=C(CCCCCN1C(=O)/C(=C2\C(=O)Nc3ccccc32)SC1=S)NCCCCCCNC(=O)c1ccc(-c2c3nc(c(-c4c(F)cccc4F)c4ccc([nH]4)c(-c4c(F)cccc4F)c4nc(c(-c5c(F)cccc5F)c5ccc2[nH]5)C=C4)C=C3)cc1
REMARK SMILES IDX 27 1 26 2 25 3 1 4 2 5 3 7 4 8 5 9 6 10 7 11 8 12 9 13 23 14
REMARK SMILES IDX 10 15 11 16 22 17 24 18 12 19 13 20 21 21 14 22 15 23 16 24
REMARK SMILES IDX 20 25 17 27 19 28 18 29 28 30 29 31 30 32 31 33 32 34 33 35
REMARK SMILES IDX 34 37 35 38 36 39 88 40 37 41 87 42 38 43 39 44 40 45 81 46
REMARK SMILES IDX 41 47 86 48 80 49 82 50 42 51 85 52 79 53 78 54 43 56 69 57
REMARK SMILES IDX 52 58 68 59 53 60 56 61 67 62 83 63 54 64 55 65 66 67 84 68
REMARK SMILES IDX 57 69 44 70 45 71 50 72 46 73 47 74 49 75 51 76 48 77 70 78
REMARK SMILES IDX 71 79 76 80 72 81 73 82 75 83 77 84 74 85 58 86 59 87 64 88
REMARK SMILES IDX 60 89 61 90 63 91 65 92 62 93
REMARK H PARENT 25 6 15 26 32 36 82 55 56 66
REMARK Flexibility Score: inf
ROOT
ATOM      1  C   UNL A   1      31.852  29.501  25.800  1.00  0.00     0.021 C 
ENDROOT
BRANCH   1   2
ATOM      2  C   UNL A   1      31.011  29.315  24.538  1.00  0.00     0.116 C 
BRANCH   2   3
ATOM      3  N   UNL A   1      31.529  28.231  23.738  1.00  0.00    -0.356 N 
ATOM      4  O   UNL A   1      30.043  28.382  21.997  1.00  0.00    -0.275 OA
ATOM      5  C   UNL A   1      31.033  27.876  22.510  1.00  0.00     0.219 C 
ATOM      6  H   UNL A   1      32.287  27.715  24.096  1.00  0.00     0.163 HD
BRANCH   5   7
ATOM      7  C   UNL A   1      31.835  26.777  21.839  1.00  0.00     0.100 C 
BRANCH   7   8
ATOM      8  C   UNL A   1      31.994  25.535  22.718  1.00  0.00     0.010 C 
BRANCH   8   9
ATOM      9  C   UNL A   1      33.426  25.146  23.117  1.00  0.00     0.002 C 
BRANCH   9  10
ATOM     10  C   UNL A   1      34.051  25.965  24.251  1.00  0.00     0.022 C 
BRANCH  10  11
ATOM     11  C   UNL A   1      33.409  25.756  25.622  1.00  0.00     0.127 C 
BRANCH  11  12
ATOM     12  N   UNL A   1      33.095  24.358  25.904  1.00  0.00    -0.293 N 
ATOM     13  C   UNL A   1      34.136  23.468  26.142  1.00  0.00     0.267 C 
ATOM     14  C   UNL A   1      31.822  23.841  25.961  1.00  0.00     0.148 C 
ATOM     15  O   UNL A   1      35.277  23.797  26.411  1.00  0.00    -0.268 OA
ATOM     16  C   UNL A   1      33.624  22.071  26.059  1.00  0.00     0.093 C 
ATOM     17  S   UNL A   1      31.915  22.137  26.333  1.00  0.00    -0.053 SA
ATOM     18  S   UNL A   1      30.365  24.612  25.712  1.00  0.00    -0.052 S 
ATOM     19  C   UNL A   1      34.315  20.989  25.662  1.00  0.00     0.069 C 
ATOM     20  C   UNL A   1      35.800  20.950  25.370  1.00  0.00     0.257 C 
ATOM     21  C   UNL A   1      33.791  19.655  25.279  1.00  0.00     0.012 A 
ATOM     22  O   UNL A   1      36.647  21.810  25.497  1.00  0.00    -0.269 OA
ATOM     23  N   UNL A   1      36.045  19.684  24.871  1.00  0.00    -0.321 N 
ATOM     24  C   UNL A   1      34.883  18.932  24.790  1.00  0.00     0.049 A 
ATOM     25  C   UNL A   1      32.529  19.082  25.221  1.00  0.00     0.011 A 
ATOM     26  H   UNL A   1      36.935  19.356  24.607  1.00  0.00     0.170 HD
ATOM     27  C   UNL A   1      34.775  17.666  24.249  1.00  0.00     0.027 A 
ATOM     28  C   UNL A   1      32.387  17.807  24.662  1.00  0.00     0.001 A 
ATOM     29  C   UNL A   1      33.501  17.105  24.178  1.00  0.00     0.002 A 
ENDBRANCH  11  12
ENDBRANCH  10  11
ENDBRANCH   9  10
ENDBRANCH   8   9
ENDBRANCH   7   8
ENDBRANCH   5   7
ENDBRANCH   2   3
ENDBRANCH   1   2
BRANCH   1  30
ATOM     30  C   UNL A   1      31.725  30.882  26.467  1.00  0.00     0.002 C 
BRANCH  30  31
ATOM     31  C   UNL A   1      32.954  31.355  27.249  1.00  0.00     0.002 C 
BRANCH  31  32
ATOM     32  C   UNL A   1      34.075  30.328  27.374  1.00  0.00     0.021 C 
BRANCH  32  33
ATOM     33  C   UNL A   1      35.364  30.859  27.988  1.00  0.00     0.116 C 
BRANCH  33  34
ATOM     34  N   UNL A   1      35.314  30.955  29.441  1.00  0.00    -0.352 N 
ATOM     35  C   UNL A   1      36.170  30.403  30.370  1.00  0.00     0.251 C 
ATOM     36  H   UNL A   1      34.570  31.484  29.809  1.00  0.00     0.163 HD
ATOM     37  O   UNL A   1      35.920  30.468  31.569  1.00  0.00    -0.269 OA
BRANCH  35  38
ATOM     38  C   UNL A   1      37.376  29.685  29.898  1.00  0.00     0.039 A 
ATOM     39  C   UNL A   1      38.142  28.937  30.792  1.00  0.00     0.014 A 
ATOM     40  C   UNL A   1      37.785  29.830  28.570  1.00  0.00     0.014 A 
ATOM     41  C   UNL A   1      39.413  28.519  30.420  1.00  0.00     0.010 A 
ATOM     42  C   UNL A   1      39.020  29.311  28.169  1.00  0.00     0.010 A 
ATOM     43  C   UNL A   1      39.875  28.710  29.107  1.00  0.00    -0.014 A 
BRANCH  43  44
ATOM     44  C   UNL A   1      41.264  28.302  28.760  1.00  0.00     0.031 A 
ATOM     45  C   UNL A   1      41.572  26.890  28.329  1.00  0.00     0.074 A 
ATOM     46  C   UNL A   1      42.243  29.228  28.760  1.00  0.00     0.049 A 
ATOM     47  N   UNL A   1      42.715  26.369  27.957  1.00  0.00    -0.248 NA
ATOM     48  C   UNL A   1      40.453  25.936  28.316  1.00  0.00     0.031 C 
ATOM     49  C   UNL A   1      42.076  30.633  29.139  1.00  0.00     0.029 A 
ATOM     50  N   UNL A   1      43.565  29.135  28.404  1.00  0.00    -0.354 N 
ATOM     51  C   UNL A   1      42.457  25.030  27.684  1.00  0.00     0.074 A 
ATOM     52  C   UNL A   1      41.056  24.808  27.973  1.00  0.00     0.031 C 
ATOM     53  C   UNL A   1      43.233  31.282  28.943  1.00  0.00     0.029 A 
ATOM     54  C   UNL A   1      44.242  30.327  28.497  1.00  0.00     0.049 A 
ATOM     55  H   UNL A   1      43.988  28.296  28.112  1.00  0.00     0.167 HD
ATOM     56  C   UNL A   1      43.301  24.076  27.219  1.00  0.00     0.037 A 
ATOM     57  C   UNL A   1      45.535  30.618  28.269  1.00  0.00     0.037 A 
ATOM     58  C   UNL A   1      44.695  24.297  26.926  1.00  0.00     0.049 A 
ATOM     59  C   UNL A   1      46.465  29.523  27.829  1.00  0.00     0.074 A 
ATOM     60  C   UNL A   1      45.629  23.397  26.442  1.00  0.00     0.029 A 
ATOM     61  N   UNL A   1      45.358  25.503  27.099  1.00  0.00    -0.354 N 
ATOM     62  N   UNL A   1      46.200  28.267  27.559  1.00  0.00    -0.248 NA
ATOM     63  C   UNL A   1      47.878  29.888  27.667  1.00  0.00     0.031 C 
ATOM     64  C   UNL A   1      46.869  24.044  26.377  1.00  0.00     0.029 A 
ATOM     65  C   UNL A   1      46.694  25.364  26.758  1.00  0.00     0.049 A 
ATOM     66  H   UNL A   1      44.941  26.336  27.417  1.00  0.00     0.167 HD
ATOM     67  C   UNL A   1      47.407  27.701  27.169  1.00  0.00     0.074 A 
ATOM     68  C   UNL A   1      48.397  28.757  27.214  1.00  0.00     0.031 C 
ATOM     69  C   UNL A   1      47.672  26.421  26.808  1.00  0.00     0.037 A 
BRANCH  56  70
ATOM     70  C   UNL A   1      42.742  22.693  27.024  1.00  0.00     0.057 A 
ATOM     71  C   UNL A   1      42.504  21.857  28.123  1.00  0.00     0.134 A 
ATOM     72  C   UNL A   1      42.454  22.177  25.752  1.00  0.00     0.134 A 
ATOM     73  F   UNL A   1      42.766  22.279  29.370  1.00  0.00    -0.206 F 
ATOM     74  C   UNL A   1      41.997  20.565  27.966  1.00  0.00     0.040 A 
ATOM     75  C   UNL A   1      41.918  20.899  25.584  1.00  0.00     0.040 A 
ATOM     76  F   UNL A   1      42.649  22.926  24.655  1.00  0.00    -0.206 F 
ATOM     77  C   UNL A   1      41.692  20.087  26.693  1.00  0.00     0.006 A 
ENDBRANCH  56  70
BRANCH  57  78
ATOM     78  C   UNL A   1      46.040  31.999  28.475  1.00  0.00     0.057 A 
ATOM     79  C   UNL A   1      46.442  32.447  29.740  1.00  0.00     0.134 A 
ATOM     80  C   UNL A   1      46.169  32.892  27.405  1.00  0.00     0.134 A 
ATOM     81  F   UNL A   1      46.339  31.644  30.808  1.00  0.00    -0.206 F 
ATOM     82  C   UNL A   1      46.952  33.731  29.933  1.00  0.00     0.040 A 
ATOM     83  C   UNL A   1      46.709  34.167  27.578  1.00  0.00     0.040 A 
ATOM     84  F   UNL A   1      45.818  32.517  26.166  1.00  0.00    -0.206 F 
ATOM     85  C   UNL A   1      47.100  34.591  28.848  1.00  0.00     0.006 A 
ENDBRANCH  57  78
BRANCH  69  86
ATOM     86  C   UNL A   1      49.082  26.111  26.391  1.00  0.00     0.057 A 
ATOM     87  C   UNL A   1      49.522  26.407  25.094  1.00  0.00     0.134 A 
ATOM     88  C   UNL A   1      50.006  25.525  27.266  1.00  0.00     0.134 A 
ATOM     89  F   UNL A   1      48.688  26.960  24.201  1.00  0.00    -0.206 F 
ATOM     90  C   UNL A   1      50.829  26.138  24.686  1.00  0.00     0.040 A 
ATOM     91  C   UNL A   1      51.326  25.282  26.881  1.00  0.00     0.040 A 
ATOM     92  F   UNL A   1      49.655  25.229  28.528  1.00  0.00    -0.206 F 
ATOM     93  C   UNL A   1      51.739  25.586  25.585  1.00  0.00     0.006 A 
ENDBRANCH  69  86
ENDBRANCH  43  44
ENDBRANCH  35  38
ENDBRANCH  33  34
ENDBRANCH  32  33
ENDBRANCH  31  32
ENDBRANCH  30  31
ENDBRANCH   1  30
TORSDOF 18
ENDMDL
MODEL 3
REMARK VINA RESULT:     -10.8      6.921     13.775
REMARK SMILES O=C(CCCCCN1C(=O)/C(=C2\C(=O)Nc3ccccc32)SC1=S)NCCCCCCNC(=O)c1ccc(-c2c3nc(c(-c4c(F)cccc4F)c4ccc([nH]4)c(-c4c(F)cccc4F)c4nc(c(-c5c(F)cccc5F)c5ccc2[nH]5)C=C4)C=C3)cc1
REMARK SMILES IDX 27 1 26 2 25 3 1 4 2 5 3 7 4 8 5 9 6 10 7 11 8 12 9 13 23 14
REMARK SMILES IDX 10 15 11 16 22 17 24 18 12 19 13 20 21 21 14 22 15 23 16 24
REMARK SMILES IDX 20 25 17 27 19 28 18 29 28 30 29 31 30 32 31 33 32 34 33 35
REMARK SMILES IDX 34 37 35 38 36 39 88 40 37 41 87 42 38 43 39 44 40 45 81 46
REMARK SMILES IDX 41 47 86 48 80 49 82 50 42 51 85 52 79 53 78 54 43 56 69 57
REMARK SMILES IDX 52 58 68 59 53 60 56 61 67 62 83 63 54 64 55 65 66 67 84 68
REMARK SMILES IDX 57 69 44 70 45 71 50 72 46 73 47 74 49 75 51 76 48 77 70 78
REMARK SMILES IDX 71 79 76 80 72 81 73 82 75 83 77 84 74 85 58 86 59 87 64 88
REMARK SMILES IDX 60 89 61 90 63 91 65 92 62 93
REMARK H PARENT 25 6 15 26 32 36 82 55 56 66
REMARK Flexibility Score: inf
ROOT
ATOM      1  C   UNL A   1      45.400  24.573  24.878  1.00  0.00     0.021 C 
ENDROOT
BRANCH   1   2
ATOM      2  C   UNL A   1      46.489  25.645  24.880  1.00  0.00     0.116 C 
BRANCH   2   3
ATOM      3  N   UNL A   1      46.145  26.716  25.785  1.00  0.00    -0.356 N 
ATOM      4  O   UNL A   1      46.606  28.475  24.387  1.00  0.00    -0.275 OA
ATOM      5  C   UNL A   1      46.188  28.046  25.456  1.00  0.00     0.219 C 
ATOM      6  H   UNL A   1      45.859  26.475  26.696  1.00  0.00     0.163 HD
BRANCH   5   7
ATOM      7  C   UNL A   1      45.667  28.950  26.556  1.00  0.00     0.100 C 
BRANCH   7   8
ATOM      8  C   UNL A   1      44.168  28.779  26.806  1.00  0.00     0.010 C 
BRANCH   8   9
ATOM      9  C   UNL A   1      43.302  30.047  26.726  1.00  0.00     0.002 C 
BRANCH   9  10
ATOM     10  C   UNL A   1      43.997  31.357  27.108  1.00  0.00     0.022 C 
BRANCH  10  11
ATOM     11  C   UNL A   1      44.327  32.274  25.930  1.00  0.00     0.127 C 
BRANCH  11  12
ATOM     12  N   UNL A   1      45.136  33.429  26.307  1.00  0.00    -0.293 N 
ATOM     13  C   UNL A   1      46.491  33.249  26.561  1.00  0.00     0.267 C 
ATOM     14  C   UNL A   1      44.655  34.711  26.429  1.00  0.00     0.148 C 
ATOM     15  O   UNL A   1      47.131  32.267  26.230  1.00  0.00    -0.268 OA
ATOM     16  C   UNL A   1      47.032  34.454  27.252  1.00  0.00     0.093 C 
ATOM     17  S   UNL A   1      45.966  35.770  26.890  1.00  0.00    -0.053 SA
ATOM     18  S   UNL A   1      43.100  35.273  26.218  1.00  0.00    -0.052 S 
ATOM     19  C   UNL A   1      48.042  34.482  28.138  1.00  0.00     0.069 C 
ATOM     20  C   UNL A   1      48.935  33.313  28.492  1.00  0.00     0.257 C 
ATOM     21  C   UNL A   1      48.420  35.577  29.065  1.00  0.00     0.012 A 
ATOM     22  O   UNL A   1      48.981  32.192  28.027  1.00  0.00    -0.269 OA
ATOM     23  N   UNL A   1      49.732  33.758  29.530  1.00  0.00    -0.321 N 
ATOM     24  C   UNL A   1      49.425  35.061  29.888  1.00  0.00     0.049 A 
ATOM     25  C   UNL A   1      47.939  36.853  29.314  1.00  0.00     0.011 A 
ATOM     26  H   UNL A   1      50.432  33.217  29.961  1.00  0.00     0.170 HD
ATOM     27  C   UNL A   1      49.973  35.761  30.945  1.00  0.00     0.027 A 
ATOM     28  C   UNL A   1      48.464  37.579  30.390  1.00  0.00     0.001 A 
ATOM     29  C   UNL A   1      49.472  37.036  31.199  1.00  0.00     0.002 A 
ENDBRANCH  11  12
ENDBRANCH  10  11
ENDBRANCH   9  10
ENDBRANCH   8   9
ENDBRANCH   7   8
ENDBRANCH   5   7
ENDBRANCH   2   3
ENDBRANCH   1   2
BRANCH   1  30
ATOM     30  C   UNL A   1      45.822  23.221  24.277  1.00  0.00     0.002 C 
BRANCH  30  31
ATOM     31  C   UNL A   1      45.689  22.012  25.207  1.00  0.00     0.002 C 
BRANCH  31  32
ATOM     32  C   UNL A   1      45.052  20.777  24.575  1.00  0.00     0.021 C 
BRANCH  32  33
ATOM     33  C   UNL A   1      44.710  19.662  25.554  1.00  0.00     0.116 C 
BRANCH  33  34
ATOM     34  N   UNL A   1      43.370  19.120  25.368  1.00  0.00    -0.352 N 
ATOM     35  C   UNL A   1      42.164  19.649  25.773  1.00  0.00     0.251 C 
ATOM     36  H   UNL A   1      43.320  18.261  24.889  1.00  0.00     0.163 HD
ATOM     37  O   UNL A   1      41.126  19.006  25.653  1.00  0.00    -0.269 OA
BRANCH  35  38
ATOM     38  C   UNL A   1      42.141  20.989  26.400  1.00  0.00     0.039 A 
ATOM     39  C   UNL A   1      42.045  22.134  25.609  1.00  0.00     0.014 A 
ATOM     40  C   UNL A   1      42.299  21.102  27.784  1.00  0.00     0.014 A 
ATOM     41  C   UNL A   1      42.322  23.375  26.166  1.00  0.00     0.010 A 
ATOM     42  C   UNL A   1      42.468  22.366  28.358  1.00  0.00     0.010 A 
ATOM     43  C   UNL A   1      42.548  23.508  27.546  1.00  0.00    -0.014 A 
BRANCH  43  44
ATOM     44  C   UNL A   1      42.899  24.845  28.099  1.00  0.00     0.031 A 
ATOM     45  C   UNL A   1      41.832  25.880  28.360  1.00  0.00     0.074 A 
ATOM     46  C   UNL A   1      44.177  25.105  28.439  1.00  0.00     0.049 A 
ATOM     47  N   UNL A   1      41.952  27.081  28.869  1.00  0.00    -0.248 NA
ATOM     48  C   UNL A   1      40.452  25.523  27.999  1.00  0.00     0.031 C 
ATOM     49  C   UNL A   1      45.302  24.185  28.255  1.00  0.00     0.029 A 
ATOM     50  N   UNL A   1      44.741  26.204  29.034  1.00  0.00    -0.354 N 
ATOM     51  C   UNL A   1      40.672  27.625  28.875  1.00  0.00     0.074 A 
ATOM     52  C   UNL A   1      39.797  26.639  28.279  1.00  0.00     0.031 C 
ATOM     53  C   UNL A   1      46.408  24.733  28.778  1.00  0.00     0.029 A 
ATOM     54  C   UNL A   1      46.089  26.071  29.265  1.00  0.00     0.049 A 
ATOM     55  H   UNL A   1      44.230  27.010  29.273  1.00  0.00     0.167 HD
ATOM     56  C   UNL A   1      40.259  28.827  29.347  1.00  0.00     0.037 A 
ATOM     57  C   UNL A   1      46.975  26.934  29.791  1.00  0.00     0.037 A 
ATOM     58  C   UNL A   1      41.129  29.808  29.945  1.00  0.00     0.049 A 
ATOM     59  C   UNL A   1      46.501  28.289  30.235  1.00  0.00     0.074 A 
ATOM     60  C   UNL A   1      40.803  31.050  30.463  1.00  0.00     0.029 A 
ATOM     61  N   UNL A   1      42.500  29.661  30.098  1.00  0.00    -0.354 N 
ATOM     62  N   UNL A   1      45.285  28.780  30.249  1.00  0.00    -0.248 NA
ATOM     63  C   UNL A   1      47.529  29.213  30.732  1.00  0.00     0.031 C 
ATOM     64  C   UNL A   1      41.985  31.678  30.876  1.00  0.00     0.029 A 
ATOM     65  C   UNL A   1      43.038  30.800  30.676  1.00  0.00     0.049 A 
ATOM     66  H   UNL A   1      43.015  28.866  29.834  1.00  0.00     0.167 HD
ATOM     67  C   UNL A   1      45.400  30.059  30.782  1.00  0.00     0.074 A 
ATOM     68  C   UNL A   1      46.798  30.254  31.100  1.00  0.00     0.031 C 
ATOM     69  C   UNL A   1      44.433  30.986  30.987  1.00  0.00     0.037 A 
BRANCH  56  70
ATOM     70  C   UNL A   1      38.798  29.159  29.210  1.00  0.00     0.057 A 
ATOM     71  C   UNL A   1      38.269  29.560  27.976  1.00  0.00     0.134 A 
ATOM     72  C   UNL A   1      37.914  29.100  30.297  1.00  0.00     0.134 A 
ATOM     73  F   UNL A   1      39.058  29.651  26.894  1.00  0.00    -0.206 F 
ATOM     74  C   UNL A   1      36.919  29.885  27.827  1.00  0.00     0.040 A 
ATOM     75  C   UNL A   1      36.556  29.392  30.154  1.00  0.00     0.040 A 
ATOM     76  F   UNL A   1      38.350  28.714  31.507  1.00  0.00    -0.206 F 
ATOM     77  C   UNL A   1      36.056  29.791  28.917  1.00  0.00     0.006 A 
ENDBRANCH  56  70
BRANCH  57  78
ATOM     78  C   UNL A   1      48.408  26.560  29.906  1.00  0.00     0.057 A 
ATOM     79  C   UNL A   1      49.323  26.861  28.890  1.00  0.00     0.134 A 
ATOM     80  C   UNL A   1      48.903  25.929  31.053  1.00  0.00     0.134 A 
ATOM     81  F   UNL A   1      48.914  27.459  27.763  1.00  0.00    -0.206 F 
ATOM     82  C   UNL A   1      50.678  26.545  29.008  1.00  0.00     0.040 A 
ATOM     83  C   UNL A   1      50.260  25.639  31.199  1.00  0.00     0.040 A 
ATOM     84  F   UNL A   1      48.080  25.632  32.069  1.00  0.00    -0.206 F 
ATOM     85  C   UNL A   1      51.151  25.945  30.172  1.00  0.00     0.006 A 
ENDBRANCH  57  78
BRANCH  69  86
ATOM     86  C   UNL A   1      44.856  32.279  31.626  1.00  0.00     0.057 A 
ATOM     87  C   UNL A   1      45.232  33.373  30.836  1.00  0.00     0.134 A 
ATOM     88  C   UNL A   1      44.891  32.447  33.017  1.00  0.00     0.134 A 
ATOM     89  F   UNL A   1      45.231  33.280  29.498  1.00  0.00    -0.206 F 
ATOM     90  C   UNL A   1      45.619  34.587  31.405  1.00  0.00     0.040 A 
ATOM     91  C   UNL A   1      45.243  33.667  33.598  1.00  0.00     0.040 A 
ATOM     92  F   UNL A   1      44.529  31.444  33.833  1.00  0.00    -0.206 F 
ATOM     93  C   UNL A   1      45.613  34.740  32.789  1.00  0.00     0.006 A 
ENDBRANCH  69  86
ENDBRANCH  43  44
ENDBRANCH  35  38
ENDBRANCH  33  34
ENDBRANCH  32  33
ENDBRANCH  31  32
ENDBRANCH  30  31
ENDBRANCH   1  30
TORSDOF 18
ENDMDL
