MODEL 1
REMARK VINA RESULT:      -9.9      0.000      0.000
REMARK SMILES CC[N@@H+](CCC(C)(C)O)C[C@@H](C)C(=O)NCCCCCCNC(=O)c1ccc(-c2c3nc(c(-c4c(F)cccc4F)c4ccc([nH]4)c(-c4c(F)cccc4F)c4nc(c(-c5c(F)cccc5F)c5ccc2[nH]5)C=C4)C=C3)cc1
REMARK SMILES IDX 16 1 15 2 13 3 14 4 11 6 12 7 10 8 3 9 2 11 1 12 4 13 5 14
REMARK SMILES IDX 6 15 7 16 8 17 9 18 17 20 18 21 19 22 20 23 21 24 22 25
REMARK SMILES IDX 23 26 24 28 25 29 26 30 78 31 27 32 77 33 28 34 29 35 30 36
REMARK SMILES IDX 71 37 31 38 76 39 70 40 72 41 32 42 75 43 69 44 68 45 33 47
REMARK SMILES IDX 59 48 42 49 58 50 43 51 46 52 57 53 73 54 44 55 45 56 56 58
REMARK SMILES IDX 74 59 47 60 34 61 35 62 40 63 36 64 37 65 39 66 41 67 38 68
REMARK SMILES IDX 60 69 61 70 66 71 62 72 63 73 65 74 67 75 64 76 48 77 49 78
REMARK SMILES IDX 54 79 50 80 51 81 53 82 55 83 52 84
REMARK H PARENT 15 5 3 10 9 19 22 27 72 46 46 57
REMARK Flexibility Score: inf
ROOT
ATOM      1  C   UNL A   1      31.534  27.446  26.407  1.00  0.00     0.116 C 
ENDROOT
BRANCH   1   2
ATOM      2  N   UNL A   1      31.304  26.119  26.934  1.00  0.00    -0.356 N 
ATOM      3  C   UNL A   1      31.417  24.915  26.321  1.00  0.00     0.228 C 
ATOM      4  O   UNL A   1      31.157  23.897  26.971  1.00  0.00    -0.275 OA
ATOM      5  H   UNL A   1      31.026  26.086  27.877  1.00  0.00     0.163 HD
BRANCH   3   6
ATOM      6  C   UNL A   1      31.865  24.816  24.872  1.00  0.00     0.130 C 
ATOM      7  C   UNL A   1      30.704  24.368  23.988  1.00  0.00     0.024 C 
BRANCH   6   8
ATOM      8  C   UNL A   1      33.228  24.083  24.784  1.00  0.00     0.275 C 
BRANCH   8   9
ATOM      9  N   UNL A   1      33.324  22.660  25.104  1.00  0.00    -0.334 N 
ATOM     10  H   UNL A   1      32.494  22.547  25.686  1.00  0.00     0.348 HD
BRANCH   9  11
ATOM     11  C   UNL A   1      33.018  21.704  24.048  1.00  0.00     0.258 C 
ATOM     12  C   UNL A   1      32.428  20.388  24.566  1.00  0.00     0.071 C 
ENDBRANCH   9  11
BRANCH   9  13
ATOM     13  C   UNL A   1      34.427  22.287  26.005  1.00  0.00     0.265 C 
BRANCH  13  14
ATOM     14  C   UNL A   1      35.680  21.614  25.411  1.00  0.00     0.096 C 
BRANCH  14  15
ATOM     15  C   UNL A   1      36.797  22.553  24.869  1.00  0.00     0.064 C 
ATOM     16  C   UNL A   1      36.573  22.883  23.392  1.00  0.00     0.042 C 
ATOM     17  C   UNL A   1      36.827  23.851  25.688  1.00  0.00     0.042 C 
BRANCH  15  18
ATOM     18  O   UNL A   1      38.080  21.936  24.914  1.00  0.00    -0.390 OA
ATOM     19  H   UNL A   1      38.750  22.558  24.593  1.00  0.00     0.211 HD
ENDBRANCH  15  18
ENDBRANCH  14  15
ENDBRANCH  13  14
ENDBRANCH   9  13
ENDBRANCH   8   9
ENDBRANCH   6   8
ENDBRANCH   3   6
ENDBRANCH   1   2
BRANCH   1  20
ATOM     20  C   UNL A   1      31.797  28.446  27.526  1.00  0.00     0.021 C 
BRANCH  20  21
ATOM     21  C   UNL A   1      32.487  29.726  27.050  1.00  0.00     0.002 C 
BRANCH  21  22
ATOM     22  C   UNL A   1      31.651  30.584  26.093  1.00  0.00     0.002 C 
BRANCH  22  23
ATOM     23  C   UNL A   1      31.399  32.017  26.567  1.00  0.00     0.021 C 
BRANCH  23  24
ATOM     24  C   UNL A   1      32.566  32.635  27.317  1.00  0.00     0.116 C 
BRANCH  24  25
ATOM     25  N   UNL A   1      32.343  34.044  27.580  1.00  0.00    -0.352 N 
ATOM     26  C   UNL A   1      32.967  34.845  28.499  1.00  0.00     0.251 C 
ATOM     27  H   UNL A   1      31.655  34.481  27.027  1.00  0.00     0.163 HD
ATOM     28  O   UNL A   1      32.518  35.951  28.778  1.00  0.00    -0.269 OA
BRANCH  26  29
ATOM     29  C   UNL A   1      34.186  34.345  29.162  1.00  0.00     0.039 A 
ATOM     30  C   UNL A   1      34.093  33.840  30.459  1.00  0.00     0.014 A 
ATOM     31  C   UNL A   1      35.410  34.352  28.484  1.00  0.00     0.014 A 
ATOM     32  C   UNL A   1      35.226  33.300  31.066  1.00  0.00     0.010 A 
ATOM     33  C   UNL A   1      36.517  33.740  29.059  1.00  0.00     0.010 A 
ATOM     34  C   UNL A   1      36.438  33.223  30.359  1.00  0.00    -0.014 A 
BRANCH  34  35
ATOM     35  C   UNL A   1      37.642  32.617  30.975  1.00  0.00     0.031 A 
ATOM     36  C   UNL A   1      38.264  31.396  30.362  1.00  0.00     0.074 A 
ATOM     37  C   UNL A   1      38.135  33.133  32.116  1.00  0.00     0.049 A 
ATOM     38  N   UNL A   1      39.292  30.697  30.772  1.00  0.00    -0.248 NA
ATOM     39  C   UNL A   1      37.627  30.869  29.145  1.00  0.00     0.031 C 
ATOM     40  C   UNL A   1      37.579  34.280  32.834  1.00  0.00     0.029 A 
ATOM     41  N   UNL A   1      39.212  32.753  32.875  1.00  0.00    -0.354 N 
ATOM     42  C   UNL A   1      39.419  29.649  29.870  1.00  0.00     0.074 A 
ATOM     43  C   UNL A   1      38.323  29.764  28.932  1.00  0.00     0.031 C 
ATOM     44  C   UNL A   1      38.331  34.525  33.919  1.00  0.00     0.029 A 
ATOM     45  C   UNL A   1      39.400  33.533  33.989  1.00  0.00     0.049 A 
ATOM     46  H   UNL A   1      39.794  31.994  32.643  1.00  0.00     0.167 HD
ATOM     47  C   UNL A   1      40.376  28.694  29.812  1.00  0.00     0.037 A 
ATOM     48  C   UNL A   1      40.329  33.453  34.961  1.00  0.00     0.037 A 
ATOM     49  C   UNL A   1      41.470  28.595  30.742  1.00  0.00     0.049 A 
ATOM     50  C   UNL A   1      41.381  32.385  34.880  1.00  0.00     0.074 A 
ATOM     51  C   UNL A   1      42.529  27.706  30.738  1.00  0.00     0.029 A 
ATOM     52  N   UNL A   1      41.638  29.413  31.850  1.00  0.00    -0.354 N 
ATOM     53  N   UNL A   1      41.538  31.447  33.976  1.00  0.00    -0.248 NA
ATOM     54  C   UNL A   1      42.391  32.368  35.946  1.00  0.00     0.031 C 
ATOM     55  C   UNL A   1      43.311  27.954  31.872  1.00  0.00     0.029 A 
ATOM     56  C   UNL A   1      42.767  29.031  32.554  1.00  0.00     0.049 A 
ATOM     57  H   UNL A   1      41.042  30.156  32.100  1.00  0.00     0.167 HD
ATOM     58  C   UNL A   1      42.672  30.739  34.354  1.00  0.00     0.074 A 
ATOM     59  C   UNL A   1      43.172  31.369  35.560  1.00  0.00     0.031 C 
ATOM     60  C   UNL A   1      43.245  29.665  33.759  1.00  0.00     0.037 A 
BRANCH  47  61
ATOM     61  C   UNL A   1      40.271  27.685  28.705  1.00  0.00     0.057 A 
ATOM     62  C   UNL A   1      39.529  26.503  28.848  1.00  0.00     0.134 A 
ATOM     63  C   UNL A   1      40.921  27.892  27.482  1.00  0.00     0.134 A 
ATOM     64  F   UNL A   1      38.893  26.234  29.998  1.00  0.00    -0.206 F 
ATOM     65  C   UNL A   1      39.472  25.548  27.830  1.00  0.00     0.040 A 
ATOM     66  C   UNL A   1      40.845  26.959  26.447  1.00  0.00     0.040 A 
ATOM     67  F   UNL A   1      41.644  29.002  27.273  1.00  0.00    -0.206 F 
ATOM     68  C   UNL A   1      40.127  25.778  26.623  1.00  0.00     0.006 A 
ENDBRANCH  47  61
BRANCH  48  69
ATOM     69  C   UNL A   1      40.309  34.434  36.074  1.00  0.00     0.057 A 
ATOM     70  C   UNL A   1      41.008  35.643  35.986  1.00  0.00     0.134 A 
ATOM     71  C   UNL A   1      39.567  34.199  37.239  1.00  0.00     0.134 A 
ATOM     72  F   UNL A   1      41.747  35.916  34.900  1.00  0.00    -0.206 F 
ATOM     73  C   UNL A   1      40.978  36.581  37.018  1.00  0.00     0.040 A 
ATOM     74  C   UNL A   1      39.511  35.139  38.270  1.00  0.00     0.040 A 
ATOM     75  F   UNL A   1      38.867  33.064  37.379  1.00  0.00    -0.206 F 
ATOM     76  C   UNL A   1      40.220  36.333  38.162  1.00  0.00     0.006 A 
ENDBRANCH  48  69
BRANCH  60  77
ATOM     77  C   UNL A   1      44.486  29.111  34.396  1.00  0.00     0.057 A 
ATOM     78  C   UNL A   1      45.760  29.597  34.074  1.00  0.00     0.134 A 
ATOM     79  C   UNL A   1      44.403  28.109  35.370  1.00  0.00     0.134 A 
ATOM     80  F   UNL A   1      45.911  30.547  33.139  1.00  0.00    -0.206 F 
ATOM     81  C   UNL A   1      46.909  29.086  34.682  1.00  0.00     0.040 A 
ATOM     82  C   UNL A   1      45.541  27.611  36.005  1.00  0.00     0.040 A 
ATOM     83  F   UNL A   1      43.211  27.607  35.732  1.00  0.00    -0.206 F 
ATOM     84  C   UNL A   1      46.800  28.097  35.656  1.00  0.00     0.006 A 
ENDBRANCH  60  77
ENDBRANCH  34  35
ENDBRANCH  26  29
ENDBRANCH  24  25
ENDBRANCH  23  24
ENDBRANCH  22  23
ENDBRANCH  21  22
ENDBRANCH  20  21
ENDBRANCH   1  20
TORSDOF 20
ENDMDL
MODEL 2
REMARK VINA RESULT:      -9.6      4.840     10.313
REMARK SMILES CC[N@@H+](CCC(C)(C)O)C[C@@H](C)C(=O)NCCCCCCNC(=O)c1ccc(-c2c3nc(c(-c4c(F)cccc4F)c4ccc([nH]4)c(-c4c(F)cccc4F)c4nc(c(-c5c(F)cccc5F)c5ccc2[nH]5)C=C4)C=C3)cc1
REMARK SMILES IDX 16 1 15 2 13 3 14 4 11 6 12 7 10 8 3 9 2 11 1 12 4 13 5 14
REMARK SMILES IDX 6 15 7 16 8 17 9 18 17 20 18 21 19 22 20 23 21 24 22 25
REMARK SMILES IDX 23 26 24 28 25 29 26 30 78 31 27 32 77 33 28 34 29 35 30 36
REMARK SMILES IDX 71 37 31 38 76 39 70 40 72 41 32 42 75 43 69 44 68 45 33 47
REMARK SMILES IDX 59 48 42 49 58 50 43 51 46 52 57 53 73 54 44 55 45 56 56 58
REMARK SMILES IDX 74 59 47 60 34 61 35 62 40 63 36 64 37 65 39 66 41 67 38 68
REMARK SMILES IDX 60 69 61 70 66 71 62 72 63 73 65 74 67 75 64 76 48 77 49 78
REMARK SMILES IDX 54 79 50 80 51 81 53 82 55 83 52 84
REMARK H PARENT 15 5 3 10 9 19 22 27 72 46 46 57
REMARK Flexibility Score: inf
ROOT
ATOM      1  C   UNL A   1      35.604  23.617  25.344  1.00  0.00     0.116 C 
ENDROOT
BRANCH   1   2
ATOM      2  N   UNL A   1      34.565  23.471  24.349  1.00  0.00    -0.356 N 
ATOM      3  C   UNL A   1      33.219  23.574  24.485  1.00  0.00     0.228 C 
ATOM      4  O   UNL A   1      32.513  23.398  23.487  1.00  0.00    -0.275 OA
ATOM      5  H   UNL A   1      34.881  23.270  23.440  1.00  0.00     0.163 HD
BRANCH   3   6
ATOM      6  C   UNL A   1      32.594  23.910  25.828  1.00  0.00     0.130 C 
ATOM      7  C   UNL A   1      31.437  22.959  26.126  1.00  0.00     0.024 C 
BRANCH   6   8
ATOM      8  C   UNL A   1      32.385  25.441  25.951  1.00  0.00     0.275 C 
BRANCH   8   9
ATOM      9  N   UNL A   1      32.572  26.308  24.788  1.00  0.00    -0.334 N 
ATOM     10  H   UNL A   1      32.921  25.631  24.110  1.00  0.00     0.348 HD
BRANCH   9  11
ATOM     11  C   UNL A   1      31.382  26.771  24.087  1.00  0.00     0.258 C 
ATOM     12  C   UNL A   1      30.074  26.413  24.800  1.00  0.00     0.071 C 
ENDBRANCH   9  11
BRANCH   9  13
ATOM     13  C   UNL A   1      33.671  27.281  24.896  1.00  0.00     0.265 C 
BRANCH  13  14
ATOM     14  C   UNL A   1      33.860  28.050  26.219  1.00  0.00     0.096 C 
BRANCH  14  15
ATOM     15  C   UNL A   1      33.206  29.459  26.316  1.00  0.00     0.064 C 
ATOM     16  C   UNL A   1      31.778  29.370  26.858  1.00  0.00     0.042 C 
ATOM     17  C   UNL A   1      34.048  30.361  27.230  1.00  0.00     0.042 C 
BRANCH  15  18
ATOM     18  O   UNL A   1      33.073  30.074  25.038  1.00  0.00    -0.390 OA
ATOM     19  H   UNL A   1      33.796  29.783  24.462  1.00  0.00     0.211 HD
ENDBRANCH  15  18
ENDBRANCH  14  15
ENDBRANCH  13  14
ENDBRANCH   9  13
ENDBRANCH   8   9
ENDBRANCH   6   8
ENDBRANCH   3   6
ENDBRANCH   1   2
BRANCH   1  20
ATOM     20  C   UNL A   1      36.110  22.259  25.816  1.00  0.00     0.021 C 
BRANCH  20  21
ATOM     21  C   UNL A   1      36.705  21.406  24.694  1.00  0.00     0.002 C 
BRANCH  21  22
ATOM     22  C   UNL A   1      36.771  19.905  25.000  1.00  0.00     0.002 C 
BRANCH  22  23
ATOM     23  C   UNL A   1      38.158  19.277  24.843  1.00  0.00     0.021 C 
BRANCH  23  24
ATOM     24  C   UNL A   1      39.172  19.755  25.869  1.00  0.00     0.116 C 
BRANCH  24  25
ATOM     25  N   UNL A   1      40.310  18.857  25.948  1.00  0.00    -0.352 N 
ATOM     26  C   UNL A   1      41.636  19.178  26.062  1.00  0.00     0.251 C 
ATOM     27  H   UNL A   1      40.102  17.895  25.916  1.00  0.00     0.163 HD
ATOM     28  O   UNL A   1      42.506  18.333  25.879  1.00  0.00    -0.269 OA
BRANCH  26  29
ATOM     29  C   UNL A   1      42.003  20.568  26.392  1.00  0.00     0.039 A 
ATOM     30  C   UNL A   1      42.188  20.920  27.730  1.00  0.00     0.014 A 
ATOM     31  C   UNL A   1      42.191  21.508  25.374  1.00  0.00     0.014 A 
ATOM     32  C   UNL A   1      42.605  22.212  28.045  1.00  0.00     0.010 A 
ATOM     33  C   UNL A   1      42.684  22.769  25.684  1.00  0.00     0.010 A 
ATOM     34  C   UNL A   1      42.880  23.136  27.023  1.00  0.00    -0.014 A 
BRANCH  34  35
ATOM     35  C   UNL A   1      43.361  24.502  27.340  1.00  0.00     0.031 A 
ATOM     36  C   UNL A   1      42.389  25.554  27.790  1.00  0.00     0.074 A 
ATOM     37  C   UNL A   1      44.660  24.804  27.165  1.00  0.00     0.049 A 
ATOM     38  N   UNL A   1      42.606  26.812  28.075  1.00  0.00    -0.248 NA
ATOM     39  C   UNL A   1      40.980  25.147  27.903  1.00  0.00     0.031 C 
ATOM     40  C   UNL A   1      45.685  23.881  26.676  1.00  0.00     0.029 A 
ATOM     41  N   UNL A   1      45.338  25.978  27.372  1.00  0.00    -0.354 N 
ATOM     42  C   UNL A   1      41.365  27.346  28.393  1.00  0.00     0.074 A 
ATOM     43  C   UNL A   1      40.390  26.295  28.199  1.00  0.00     0.031 C 
ATOM     44  C   UNL A   1      46.866  24.517  26.640  1.00  0.00     0.029 A 
ATOM     45  C   UNL A   1      46.676  25.899  27.072  1.00  0.00     0.049 A 
ATOM     46  H   UNL A   1      44.908  26.798  27.703  1.00  0.00     0.167 HD
ATOM     47  C   UNL A   1      41.066  28.592  28.832  1.00  0.00     0.037 A 
ATOM     48  C   UNL A   1      47.639  26.837  27.133  1.00  0.00     0.037 A 
ATOM     49  C   UNL A   1      42.045  29.628  29.034  1.00  0.00     0.049 A 
ATOM     50  C   UNL A   1      47.288  28.214  27.621  1.00  0.00     0.074 A 
ATOM     51  C   UNL A   1      41.860  30.904  29.535  1.00  0.00     0.029 A 
ATOM     52  N   UNL A   1      43.394  29.507  28.734  1.00  0.00    -0.354 N 
ATOM     53  N   UNL A   1      46.122  28.685  27.996  1.00  0.00    -0.248 NA
ATOM     54  C   UNL A   1      48.385  29.187  27.703  1.00  0.00     0.031 C 
ATOM     55  C   UNL A   1      43.089  31.571  29.491  1.00  0.00     0.029 A 
ATOM     56  C   UNL A   1      44.049  30.695  29.012  1.00  0.00     0.049 A 
ATOM     57  H   UNL A   1      43.823  28.696  28.377  1.00  0.00     0.167 HD
ATOM     58  C   UNL A   1      46.347  30.002  28.374  1.00  0.00     0.074 A 
ATOM     59  C   UNL A   1      47.765  30.248  28.200  1.00  0.00     0.031 C 
ATOM     60  C   UNL A   1      45.461  30.924  28.823  1.00  0.00     0.037 A 
BRANCH  47  61
ATOM     61  C   UNL A   1      39.622  28.891  29.117  1.00  0.00     0.057 A 
ATOM     62  C   UNL A   1      38.753  29.363  28.123  1.00  0.00     0.134 A 
ATOM     63  C   UNL A   1      39.093  28.708  30.400  1.00  0.00     0.134 A 
ATOM     64  F   UNL A   1      39.198  29.575  26.875  1.00  0.00    -0.206 F 
ATOM     65  C   UNL A   1      37.423  29.681  28.405  1.00  0.00     0.040 A 
ATOM     66  C   UNL A   1      37.757  28.992  30.686  1.00  0.00     0.040 A 
ATOM     67  F   UNL A   1      39.865  28.253  31.398  1.00  0.00    -0.206 F 
ATOM     68  C   UNL A   1      36.920  29.491  29.690  1.00  0.00     0.006 A 
ENDBRANCH  47  61
BRANCH  48  69
ATOM     69  C   UNL A   1      49.027  26.488  26.745  1.00  0.00     0.057 A 
ATOM     70  C   UNL A   1      49.910  25.902  27.659  1.00  0.00     0.134 A 
ATOM     71  C   UNL A   1      49.495  26.702  25.442  1.00  0.00     0.134 A 
ATOM     72  F   UNL A   1      49.522  25.686  28.925  1.00  0.00    -0.206 F 
ATOM     73  C   UNL A   1      51.210  25.550  27.297  1.00  0.00     0.040 A 
ATOM     74  C   UNL A   1      50.787  26.334  25.060  1.00  0.00     0.040 A 
ATOM     75  F   UNL A   1      48.695  27.250  24.516  1.00  0.00    -0.206 F 
ATOM     76  C   UNL A   1      51.650  25.759  25.990  1.00  0.00     0.006 A 
ENDBRANCH  48  69
BRANCH  60  77
ATOM     77  C   UNL A   1      46.002  32.280  29.171  1.00  0.00     0.057 A 
ATOM     78  C   UNL A   1      46.502  32.570  30.447  1.00  0.00     0.134 A 
ATOM     79  C   UNL A   1      46.058  33.295  28.207  1.00  0.00     0.134 A 
ATOM     80  F   UNL A   1      46.465  31.647  31.419  1.00  0.00    -0.206 F 
ATOM     81  C   UNL A   1      47.018  33.830  30.757  1.00  0.00     0.040 A 
ATOM     82  C   UNL A   1      46.597  34.548  28.498  1.00  0.00     0.040 A 
ATOM     83  F   UNL A   1      45.605  33.079  26.963  1.00  0.00    -0.206 F 
ATOM     84  C   UNL A   1      47.073  34.821  29.779  1.00  0.00     0.006 A 
ENDBRANCH  60  77
ENDBRANCH  34  35
ENDBRANCH  26  29
ENDBRANCH  24  25
ENDBRANCH  23  24
ENDBRANCH  22  23
ENDBRANCH  21  22
ENDBRANCH  20  21
ENDBRANCH   1  20
TORSDOF 20
ENDMDL
MODEL 3
REMARK VINA RESULT:      -9.5      1.209      2.220
REMARK SMILES CC[N@@H+](CCC(C)(C)O)C[C@@H](C)C(=O)NCCCCCCNC(=O)c1ccc(-c2c3nc(c(-c4c(F)cccc4F)c4ccc([nH]4)c(-c4c(F)cccc4F)c4nc(c(-c5c(F)cccc5F)c5ccc2[nH]5)C=C4)C=C3)cc1
REMARK SMILES IDX 16 1 15 2 13 3 14 4 11 6 12 7 10 8 3 9 2 11 1 12 4 13 5 14
REMARK SMILES IDX 6 15 7 16 8 17 9 18 17 20 18 21 19 22 20 23 21 24 22 25
REMARK SMILES IDX 23 26 24 28 25 29 26 30 78 31 27 32 77 33 28 34 29 35 30 36
REMARK SMILES IDX 71 37 31 38 76 39 70 40 72 41 32 42 75 43 69 44 68 45 33 47
REMARK SMILES IDX 59 48 42 49 58 50 43 51 46 52 57 53 73 54 44 55 45 56 56 58
REMARK SMILES IDX 74 59 47 60 34 61 35 62 40 63 36 64 37 65 39 66 41 67 38 68
REMARK SMILES IDX 60 69 61 70 66 71 62 72 63 73 65 74 67 75 64 76 48 77 49 78
REMARK SMILES IDX 54 79 50 80 51 81 53 82 55 83 52 84
REMARK H PARENT 15 5 3 10 9 19 22 27 72 46 46 57
REMARK Flexibility Score: inf
ROOT
ATOM      1  C   UNL A   1      31.769  27.495  26.141  1.00  0.00     0.116 C 
ENDROOT
BRANCH   1   2
ATOM      2  N   UNL A   1      32.876  26.565  26.167  1.00  0.00    -0.356 N 
ATOM      3  C   UNL A   1      33.734  26.215  25.176  1.00  0.00     0.228 C 
ATOM      4  O   UNL A   1      34.610  25.381  25.424  1.00  0.00    -0.275 OA
ATOM      5  H   UNL A   1      33.030  26.121  27.032  1.00  0.00     0.163 HD
BRANCH   3   6
ATOM      6  C   UNL A   1      33.630  26.844  23.797  1.00  0.00     0.130 C 
ATOM      7  C   UNL A   1      33.292  28.327  23.914  1.00  0.00     0.024 C 
BRANCH   6   8
ATOM      8  C   UNL A   1      32.796  25.934  22.858  1.00  0.00     0.275 C 
BRANCH   8   9
ATOM      9  N   UNL A   1      32.270  24.659  23.342  1.00  0.00    -0.334 N 
ATOM     10  H   UNL A   1      32.748  24.592  24.240  1.00  0.00     0.348 HD
BRANCH   9  11
ATOM     11  C   UNL A   1      30.886  24.623  23.796  1.00  0.00     0.258 C 
ATOM     12  C   UNL A   1      30.120  25.923  23.529  1.00  0.00     0.071 C 
ENDBRANCH   9  11
BRANCH   9  13
ATOM     13  C   UNL A   1      32.736  23.466  22.615  1.00  0.00     0.265 C 
BRANCH  13  14
ATOM     14  C   UNL A   1      34.024  22.762  23.084  1.00  0.00     0.096 C 
BRANCH  14  15
ATOM     15  C   UNL A   1      33.949  21.969  24.421  1.00  0.00     0.064 C 
ATOM     16  C   UNL A   1      33.134  20.684  24.257  1.00  0.00     0.042 C 
ATOM     17  C   UNL A   1      35.366  21.622  24.900  1.00  0.00     0.042 C 
BRANCH  15  18
ATOM     18  O   UNL A   1      33.272  22.702  25.438  1.00  0.00    -0.390 OA
ATOM     19  H   UNL A   1      33.751  23.526  25.616  1.00  0.00     0.211 HD
ENDBRANCH  15  18
ENDBRANCH  14  15
ENDBRANCH  13  14
ENDBRANCH   9  13
ENDBRANCH   8   9
ENDBRANCH   6   8
ENDBRANCH   3   6
ENDBRANCH   1   2
BRANCH   1  20
ATOM     20  C   UNL A   1      31.767  28.384  27.379  1.00  0.00     0.021 C 
BRANCH  20  21
ATOM     21  C   UNL A   1      32.457  29.732  27.162  1.00  0.00     0.002 C 
BRANCH  21  22
ATOM     22  C   UNL A   1      31.703  30.694  26.237  1.00  0.00     0.002 C 
BRANCH  22  23
ATOM     23  C   UNL A   1      31.466  32.090  26.816  1.00  0.00     0.021 C 
BRANCH  23  24
ATOM     24  C   UNL A   1      32.726  32.776  27.315  1.00  0.00     0.116 C 
BRANCH  24  25
ATOM     25  N   UNL A   1      32.487  34.175  27.614  1.00  0.00    -0.352 N 
ATOM     26  C   UNL A   1      33.027  34.931  28.621  1.00  0.00     0.251 C 
ATOM     27  H   UNL A   1      31.857  34.641  27.019  1.00  0.00     0.163 HD
ATOM     28  O   UNL A   1      32.560  36.030  28.903  1.00  0.00    -0.269 OA
BRANCH  26  29
ATOM     29  C   UNL A   1      34.175  34.392  29.374  1.00  0.00     0.039 A 
ATOM     30  C   UNL A   1      33.942  33.717  30.572  1.00  0.00     0.014 A 
ATOM     31  C   UNL A   1      35.474  34.534  28.874  1.00  0.00     0.014 A 
ATOM     32  C   UNL A   1      35.015  33.143  31.252  1.00  0.00     0.010 A 
ATOM     33  C   UNL A   1      36.529  33.893  29.511  1.00  0.00     0.010 A 
ATOM     34  C   UNL A   1      36.311  33.205  30.713  1.00  0.00    -0.014 A 
BRANCH  34  35
ATOM     35  C   UNL A   1      37.456  32.567  31.404  1.00  0.00     0.031 A 
ATOM     36  C   UNL A   1      38.166  31.408  30.765  1.00  0.00     0.074 A 
ATOM     37  C   UNL A   1      37.814  32.995  32.628  1.00  0.00     0.049 A 
ATOM     38  N   UNL A   1      39.161  30.693  31.226  1.00  0.00    -0.248 NA
ATOM     39  C   UNL A   1      37.674  30.975  29.448  1.00  0.00     0.031 C 
ATOM     40  C   UNL A   1      37.160  34.072  33.372  1.00  0.00     0.029 A 
ATOM     41  N   UNL A   1      38.813  32.568  33.465  1.00  0.00    -0.354 N 
ATOM     42  C   UNL A   1      39.405  29.724  30.262  1.00  0.00     0.074 A 
ATOM     43  C   UNL A   1      38.413  29.900  29.224  1.00  0.00     0.031 C 
ATOM     44  C   UNL A   1      37.787  34.237  34.547  1.00  0.00     0.029 A 
ATOM     45  C   UNL A   1      38.864  33.257  34.652  1.00  0.00     0.049 A 
ATOM     46  H   UNL A   1      39.433  31.839  33.238  1.00  0.00     0.167 HD
ATOM     47  C   UNL A   1      40.384  28.790  30.231  1.00  0.00     0.037 A 
ATOM     48  C   UNL A   1      39.686  33.111  35.708  1.00  0.00     0.037 A 
ATOM     49  C   UNL A   1      41.375  28.630  31.262  1.00  0.00     0.049 A 
ATOM     50  C   UNL A   1      40.765  32.067  35.656  1.00  0.00     0.074 A 
ATOM     51  C   UNL A   1      42.449  27.759  31.301  1.00  0.00     0.029 A 
ATOM     52  N   UNL A   1      41.407  29.357  32.444  1.00  0.00    -0.354 N 
ATOM     53  N   UNL A   1      41.038  31.208  34.702  1.00  0.00    -0.248 NA
ATOM     54  C   UNL A   1      41.656  31.977  36.820  1.00  0.00     0.031 C 
ATOM     55  C   UNL A   1      43.100  27.923  32.528  1.00  0.00     0.029 A 
ATOM     56  C   UNL A   1      42.464  28.934  33.232  1.00  0.00     0.049 A 
ATOM     57  H   UNL A   1      40.771  30.069  32.686  1.00  0.00     0.167 HD
ATOM     58  C   UNL A   1      42.140  30.488  35.142  1.00  0.00     0.074 A 
ATOM     59  C   UNL A   1      42.496  31.024  36.441  1.00  0.00     0.031 C 
ATOM     60  C   UNL A   1      42.797  29.474  34.528  1.00  0.00     0.037 A 
BRANCH  47  61
ATOM     61  C   UNL A   1      40.420  27.873  29.042  1.00  0.00     0.057 A 
ATOM     62  C   UNL A   1      41.207  28.151  27.915  1.00  0.00     0.134 A 
ATOM     63  C   UNL A   1      39.655  26.700  29.019  1.00  0.00     0.134 A 
ATOM     64  F   UNL A   1      41.953  29.265  27.864  1.00  0.00    -0.206 F 
ATOM     65  C   UNL A   1      41.202  27.316  26.795  1.00  0.00     0.040 A 
ATOM     66  C   UNL A   1      39.666  25.842  27.917  1.00  0.00     0.040 A 
ATOM     67  F   UNL A   1      38.883  26.368  30.064  1.00  0.00    -0.206 F 
ATOM     68  C   UNL A   1      40.433  26.156  26.797  1.00  0.00     0.006 A 
ENDBRANCH  47  61
BRANCH  48  69
ATOM     69  C   UNL A   1      39.528  33.997  36.887  1.00  0.00     0.057 A 
ATOM     70  C   UNL A   1      38.804  33.584  38.011  1.00  0.00     0.134 A 
ATOM     71  C   UNL A   1      40.122  35.265  36.932  1.00  0.00     0.134 A 
ATOM     72  F   UNL A   1      38.201  32.385  38.021  1.00  0.00    -0.206 F 
ATOM     73  C   UNL A   1      38.667  34.401  39.134  1.00  0.00     0.040 A 
ATOM     74  C   UNL A   1      40.012  36.084  38.057  1.00  0.00     0.040 A 
ATOM     75  F   UNL A   1      40.838  35.714  35.891  1.00  0.00    -0.206 F 
ATOM     76  C   UNL A   1      39.280  35.653  39.161  1.00  0.00     0.006 A 
ENDBRANCH  48  69
BRANCH  60  77
ATOM     77  C   UNL A   1      43.976  28.887  35.248  1.00  0.00     0.057 A 
ATOM     78  C   UNL A   1      45.270  29.395  35.081  1.00  0.00     0.134 A 
ATOM     79  C   UNL A   1      43.808  27.827  36.147  1.00  0.00     0.134 A 
ATOM     80  F   UNL A   1      45.502  30.400  34.224  1.00  0.00    -0.206 F 
ATOM     81  C   UNL A   1      46.360  28.853  35.766  1.00  0.00     0.040 A 
ATOM     82  C   UNL A   1      44.883  27.296  36.859  1.00  0.00     0.040 A 
ATOM     83  F   UNL A   1      42.592  27.300  36.361  1.00  0.00    -0.206 F 
ATOM     84  C   UNL A   1      46.166  27.805  36.663  1.00  0.00     0.006 A 
ENDBRANCH  60  77
ENDBRANCH  34  35
ENDBRANCH  26  29
ENDBRANCH  24  25
ENDBRANCH  23  24
ENDBRANCH  22  23
ENDBRANCH  21  22
ENDBRANCH  20  21
ENDBRANCH   1  20
TORSDOF 20
ENDMDL
