MODEL 1
REMARK VINA RESULT:     -12.5      0.000      0.000
REMARK SMILES O=C(NCCCCCCNC(=O)c1ccc(-c2c3nc(c(-c4c(F)cccc4F)c4ccc([nH]4)c(-c4c(F)cccc4F)c4nc(c(-c5c(F)cccc5F)c5ccc2[nH]5)C=C4)C=C3)cc1)C1=Cc2cc(Cl)cc(-c3ccc(CO)cc3)c2O[C@@H]1C(F)(F)F
REMARK SMILES IDX 6 1 5 2 4 3 3 4 1 5 2 6 67 8 68 9 85 10 69 11 84 12 70 13
REMARK SMILES IDX 83 14 71 15 74 16 72 17 73 18 86 19 87 20 88 21 89 22 75 23
REMARK SMILES IDX 76 24 82 25 77 26 81 27 78 28 79 29 80 30 7 32 8 33 9 34
REMARK SMILES IDX 10 35 11 36 12 38 13 39 14 40 66 41 15 42 65 43 16 44 17 45
REMARK SMILES IDX 18 46 59 47 19 48 64 49 58 50 60 51 20 52 63 53 57 54 56 55
REMARK SMILES IDX 21 57 47 58 30 59 46 60 31 61 34 62 45 63 61 64 32 65 33 66
REMARK SMILES IDX 44 68 62 69 35 70 22 71 23 72 28 73 24 74 25 75 27 76 29 77
REMARK SMILES IDX 26 78 48 79 49 80 54 81 50 82 51 83 53 84 55 85 52 86 36 87
REMARK SMILES IDX 37 88 42 89 38 90 39 91 41 92 43 93 40 94
REMARK H PARENT 3 7 80 31 10 37 60 56 34 67
REMARK Flexibility Score: inf
ROOT
ATOM      1  C   UNL A   1      37.089  21.241  24.848  1.00  0.00     0.002 C 
ENDROOT
BRANCH   1   2
ATOM      2  C   UNL A   1      36.624  22.353  23.902  1.00  0.00     0.021 C 
BRANCH   2   3
ATOM      3  C   UNL A   1      35.327  23.081  24.269  1.00  0.00     0.116 C 
BRANCH   3   4
ATOM      4  N   UNL A   1      34.860  24.046  23.279  1.00  0.00    -0.352 N 
ATOM      5  O   UNL A   1      33.836  25.880  22.472  1.00  0.00    -0.270 OA
ATOM      6  C   UNL A   1      33.959  25.078  23.395  1.00  0.00     0.251 C 
ATOM      7  H   UNL A   1      35.253  23.941  22.382  1.00  0.00     0.163 HD
BRANCH   6   8
ATOM      8  C   UNL A   1      33.257  25.345  24.684  1.00  0.00     0.067 C 
ATOM      9  C   UNL A   1      33.821  25.973  25.723  1.00  0.00     0.025 C 
ATOM     10  C   UNL A   1      31.764  25.456  24.561  1.00  0.00     0.314 C 
ATOM     11  C   UNL A   1      33.248  27.290  26.018  1.00  0.00     0.019 A 
ATOM     12  O   UNL A   1      31.351  26.843  24.544  1.00  0.00    -0.475 OA
ATOM     13  C   UNL A   1      34.031  28.211  26.724  1.00  0.00     0.032 A 
ATOM     14  C   UNL A   1      32.108  27.716  25.296  1.00  0.00     0.135 A 
ATOM     15  C   UNL A   1      33.706  29.561  26.668  1.00  0.00     0.042 A 
ATOM     16  C   UNL A   1      31.814  29.086  25.192  1.00  0.00     0.026 A 
ATOM     17  Cl  UNL A   1      34.752  30.721  27.391  1.00  0.00    -0.084 Cl
ATOM     18  C   UNL A   1      32.618  29.995  25.913  1.00  0.00     0.033 A 
BRANCH  10  19
ATOM     19  C   UNL A   1      31.074  24.640  25.682  1.00  0.00     0.429 C 
ATOM     20  F   UNL A   1      31.956  24.254  26.632  1.00  0.00    -0.167 F 
ATOM     21  F   UNL A   1      30.115  25.367  26.311  1.00  0.00    -0.167 F 
ATOM     22  F   UNL A   1      30.469  23.517  25.223  1.00  0.00    -0.167 F 
ENDBRANCH  10  19
BRANCH  16  23
ATOM     23  C   UNL A   1      30.892  29.634  24.183  1.00  0.00    -0.015 A 
ATOM     24  C   UNL A   1      30.106  30.740  24.542  1.00  0.00     0.009 A 
ATOM     25  C   UNL A   1      30.702  29.091  22.913  1.00  0.00     0.009 A 
ATOM     26  C   UNL A   1      29.110  31.249  23.715  1.00  0.00     0.007 A 
ATOM     27  C   UNL A   1      29.700  29.598  22.066  1.00  0.00     0.007 A 
ATOM     28  C   UNL A   1      28.877  30.658  22.474  1.00  0.00    -0.023 A 
BRANCH  28  29
ATOM     29  C   UNL A   1      27.739  31.160  21.625  1.00  0.00     0.191 C 
BRANCH  29  30
ATOM     30  O   UNL A   1      27.624  30.384  20.437  1.00  0.00    -0.392 OA
ATOM     31  H   UNL A   1      26.787  29.892  20.451  1.00  0.00     0.211 HD
ENDBRANCH  29  30
ENDBRANCH  28  29
ENDBRANCH  16  23
ENDBRANCH   6   8
ENDBRANCH   3   4
ENDBRANCH   2   3
ENDBRANCH   1   2
BRANCH   1  32
ATOM     32  C   UNL A   1      38.379  21.493  25.638  1.00  0.00     0.002 C 
BRANCH  32  33
ATOM     33  C   UNL A   1      38.569  22.900  26.212  1.00  0.00     0.021 C 
BRANCH  33  34
ATOM     34  C   UNL A   1      39.888  23.168  26.920  1.00  0.00     0.116 C 
BRANCH  34  35
ATOM     35  N   UNL A   1      40.847  23.820  26.045  1.00  0.00    -0.352 N 
ATOM     36  C   UNL A   1      41.319  25.111  26.020  1.00  0.00     0.251 C 
ATOM     37  H   UNL A   1      41.225  23.235  25.348  1.00  0.00     0.163 HD
ATOM     38  O   UNL A   1      41.951  25.491  25.040  1.00  0.00    -0.269 OA
BRANCH  36  39
ATOM     39  C   UNL A   1      41.084  26.053  27.144  1.00  0.00     0.039 A 
ATOM     40  C   UNL A   1      41.937  27.157  27.281  1.00  0.00     0.014 A 
ATOM     41  C   UNL A   1      40.101  25.829  28.110  1.00  0.00     0.014 A 
ATOM     42  C   UNL A   1      41.783  28.040  28.354  1.00  0.00     0.010 A 
ATOM     43  C   UNL A   1      39.887  26.759  29.126  1.00  0.00     0.010 A 
ATOM     44  C   UNL A   1      40.741  27.861  29.276  1.00  0.00    -0.014 A 
BRANCH  44  45
ATOM     45  C   UNL A   1      40.555  28.779  30.430  1.00  0.00     0.031 A 
ATOM     46  C   UNL A   1      39.480  29.833  30.389  1.00  0.00     0.074 A 
ATOM     47  C   UNL A   1      41.387  28.710  31.487  1.00  0.00     0.049 A 
ATOM     48  N   UNL A   1      39.220  30.789  31.247  1.00  0.00    -0.248 NA
ATOM     49  C   UNL A   1      38.599  29.834  29.210  1.00  0.00     0.031 C 
ATOM     50  C   UNL A   1      42.496  27.767  31.631  1.00  0.00     0.029 A 
ATOM     51  N   UNL A   1      41.437  29.459  32.636  1.00  0.00    -0.354 N 
ATOM     52  C   UNL A   1      38.168  31.514  30.699  1.00  0.00     0.074 A 
ATOM     53  C   UNL A   1      37.874  30.923  29.411  1.00  0.00     0.031 C 
ATOM     54  C   UNL A   1      43.107  27.982  32.807  1.00  0.00     0.029 A 
ATOM     55  C   UNL A   1      42.457  29.100  33.483  1.00  0.00     0.049 A 
ATOM     56  H   UNL A   1      40.801  30.184  32.835  1.00  0.00     0.167 HD
ATOM     57  C   UNL A   1      37.489  32.559  31.229  1.00  0.00     0.037 A 
ATOM     58  C   UNL A   1      42.832  29.619  34.667  1.00  0.00     0.037 A 
ATOM     59  C   UNL A   1      37.759  33.123  32.526  1.00  0.00     0.049 A 
ATOM     60  C   UNL A   1      42.056  30.770  35.245  1.00  0.00     0.074 A 
ATOM     61  C   UNL A   1      37.093  34.145  33.179  1.00  0.00     0.029 A 
ATOM     62  N   UNL A   1      38.778  32.705  33.368  1.00  0.00    -0.354 N 
ATOM     63  N   UNL A   1      41.028  31.410  34.740  1.00  0.00    -0.248 NA
ATOM     64  C   UNL A   1      42.484  31.265  36.560  1.00  0.00     0.031 C 
ATOM     65  C   UNL A   1      37.733  34.369  34.403  1.00  0.00     0.029 A 
ATOM     66  C   UNL A   1      38.769  33.460  34.530  1.00  0.00     0.049 A 
ATOM     67  H   UNL A   1      39.415  31.980  33.170  1.00  0.00     0.167 HD
ATOM     68  C   UNL A   1      40.674  32.365  35.683  1.00  0.00     0.074 A 
ATOM     69  C   UNL A   1      41.586  32.211  36.798  1.00  0.00     0.031 C 
ATOM     70  C   UNL A   1      39.683  33.288  35.631  1.00  0.00     0.037 A 
BRANCH  57  71
ATOM     71  C   UNL A   1      36.381  33.151  30.406  1.00  0.00     0.057 A 
ATOM     72  C   UNL A   1      36.639  34.015  29.333  1.00  0.00     0.134 A 
ATOM     73  C   UNL A   1      35.041  32.843  30.678  1.00  0.00     0.134 A 
ATOM     74  F   UNL A   1      37.898  34.362  29.027  1.00  0.00    -0.206 F 
ATOM     75  C   UNL A   1      35.604  34.578  28.581  1.00  0.00     0.040 A 
ATOM     76  C   UNL A   1      34.001  33.377  29.915  1.00  0.00     0.040 A 
ATOM     77  F   UNL A   1      34.722  32.018  31.685  1.00  0.00    -0.206 F 
ATOM     78  C   UNL A   1      34.280  34.254  28.870  1.00  0.00     0.006 A 
ENDBRANCH  57  71
BRANCH  58  79
ATOM     79  C   UNL A   1      43.988  29.039  35.396  1.00  0.00     0.057 A 
ATOM     80  C   UNL A   1      45.289  29.503  35.171  1.00  0.00     0.134 A 
ATOM     81  C   UNL A   1      43.820  28.018  36.338  1.00  0.00     0.134 A 
ATOM     82  F   UNL A   1      45.516  30.468  34.268  1.00  0.00    -0.206 F 
ATOM     83  C   UNL A   1      46.385  28.963  35.847  1.00  0.00     0.040 A 
ATOM     84  C   UNL A   1      44.903  27.484  37.038  1.00  0.00     0.040 A 
ATOM     85  F   UNL A   1      42.597  27.536  36.604  1.00  0.00    -0.206 F 
ATOM     86  C   UNL A   1      46.192  27.954  36.788  1.00  0.00     0.006 A 
ENDBRANCH  58  79
BRANCH  70  87
ATOM     87  C   UNL A   1      39.517  34.183  36.824  1.00  0.00     0.057 A 
ATOM     88  C   UNL A   1      40.004  35.496  36.836  1.00  0.00     0.134 A 
ATOM     89  C   UNL A   1      38.825  33.738  37.957  1.00  0.00     0.134 A 
ATOM     90  F   UNL A   1      40.686  35.978  35.785  1.00  0.00    -0.206 F 
ATOM     91  C   UNL A   1      39.828  36.328  37.943  1.00  0.00     0.040 A 
ATOM     92  C   UNL A   1      38.622  34.568  39.060  1.00  0.00     0.040 A 
ATOM     93  F   UNL A   1      38.327  32.493  38.006  1.00  0.00    -0.206 F 
ATOM     94  C   UNL A   1      39.129  35.865  39.057  1.00  0.00     0.006 A 
ENDBRANCH  70  87
ENDBRANCH  44  45
ENDBRANCH  36  39
ENDBRANCH  34  35
ENDBRANCH  33  34
ENDBRANCH  32  33
ENDBRANCH   1  32
TORSDOF 17
ENDMDL
MODEL 2
REMARK VINA RESULT:     -12.4      0.510      5.924
REMARK SMILES O=C(NCCCCCCNC(=O)c1ccc(-c2c3nc(c(-c4c(F)cccc4F)c4ccc([nH]4)c(-c4c(F)cccc4F)c4nc(c(-c5c(F)cccc5F)c5ccc2[nH]5)C=C4)C=C3)cc1)C1=Cc2cc(Cl)cc(-c3ccc(CO)cc3)c2O[C@@H]1C(F)(F)F
REMARK SMILES IDX 6 1 5 2 4 3 3 4 1 5 2 6 67 8 68 9 85 10 69 11 84 12 70 13
REMARK SMILES IDX 83 14 71 15 74 16 72 17 73 18 86 19 87 20 88 21 89 22 75 23
REMARK SMILES IDX 76 24 82 25 77 26 81 27 78 28 79 29 80 30 7 32 8 33 9 34
REMARK SMILES IDX 10 35 11 36 12 38 13 39 14 40 66 41 15 42 65 43 16 44 17 45
REMARK SMILES IDX 18 46 59 47 19 48 64 49 58 50 60 51 20 52 63 53 57 54 56 55
REMARK SMILES IDX 21 57 47 58 30 59 46 60 31 61 34 62 45 63 61 64 32 65 33 66
REMARK SMILES IDX 44 68 62 69 35 70 22 71 23 72 28 73 24 74 25 75 27 76 29 77
REMARK SMILES IDX 26 78 48 79 49 80 54 81 50 82 51 83 53 84 55 85 52 86 36 87
REMARK SMILES IDX 37 88 42 89 38 90 39 91 41 92 43 93 40 94
REMARK H PARENT 3 7 80 31 10 37 60 56 34 67
REMARK Flexibility Score: inf
ROOT
ATOM      1  C   UNL A   1      36.648  21.950  24.451  1.00  0.00     0.002 C 
ENDROOT
BRANCH   1   2
ATOM      2  C   UNL A   1      35.477  22.848  24.862  1.00  0.00     0.021 C 
BRANCH   2   3
ATOM      3  C   UNL A   1      34.278  22.906  23.909  1.00  0.00     0.116 C 
BRANCH   3   4
ATOM      4  N   UNL A   1      34.183  24.124  23.111  1.00  0.00    -0.352 N 
ATOM      5  O   UNL A   1      33.818  26.297  22.653  1.00  0.00    -0.270 OA
ATOM      6  C   UNL A   1      33.640  25.351  23.416  1.00  0.00     0.251 C 
ATOM      7  H   UNL A   1      34.571  24.058  22.208  1.00  0.00     0.163 HD
BRANCH   6   8
ATOM      8  C   UNL A   1      32.989  25.597  24.736  1.00  0.00     0.067 C 
ATOM      9  C   UNL A   1      33.597  26.198  25.765  1.00  0.00     0.025 C 
ATOM     10  C   UNL A   1      31.494  25.724  24.670  1.00  0.00     0.314 C 
ATOM     11  C   UNL A   1      33.048  27.513  26.109  1.00  0.00     0.019 A 
ATOM     12  O   UNL A   1      31.094  27.115  24.697  1.00  0.00    -0.475 OA
ATOM     13  C   UNL A   1      33.866  28.412  26.804  1.00  0.00     0.032 A 
ATOM     14  C   UNL A   1      31.887  27.965  25.438  1.00  0.00     0.135 A 
ATOM     15  C   UNL A   1      33.553  29.765  26.788  1.00  0.00     0.042 A 
ATOM     16  C   UNL A   1      31.603  29.339  25.373  1.00  0.00     0.026 A 
ATOM     17  Cl  UNL A   1      34.636  30.901  27.496  1.00  0.00    -0.084 Cl
ATOM     18  C   UNL A   1      32.443  30.225  26.083  1.00  0.00     0.033 A 
BRANCH  10  19
ATOM     19  C   UNL A   1      30.836  24.891  25.799  1.00  0.00     0.429 C 
ATOM     20  F   UNL A   1      31.709  24.637  26.801  1.00  0.00    -0.167 F 
ATOM     21  F   UNL A   1      29.783  25.545  26.353  1.00  0.00    -0.167 F 
ATOM     22  F   UNL A   1      30.367  23.695  25.369  1.00  0.00    -0.167 F 
ENDBRANCH  10  19
BRANCH  16  23
ATOM     23  C   UNL A   1      30.650  29.917  24.411  1.00  0.00    -0.015 A 
ATOM     24  C   UNL A   1      30.477  29.262  23.182  1.00  0.00     0.009 A 
ATOM     25  C   UNL A   1      29.951  31.107  24.614  1.00  0.00     0.009 A 
ATOM     26  C   UNL A   1      29.707  29.795  22.154  1.00  0.00     0.007 A 
ATOM     27  C   UNL A   1      29.168  31.655  23.583  1.00  0.00     0.007 A 
ATOM     28  C   UNL A   1      29.067  31.019  22.336  1.00  0.00    -0.023 A 
BRANCH  28  29
ATOM     29  C   UNL A   1      28.309  31.629  21.186  1.00  0.00     0.191 C 
BRANCH  29  30
ATOM     30  O   UNL A   1      27.631  32.809  21.606  1.00  0.00    -0.392 OA
ATOM     31  H   UNL A   1      28.252  33.392  22.071  1.00  0.00     0.211 HD
ENDBRANCH  29  30
ENDBRANCH  28  29
ENDBRANCH  16  23
ENDBRANCH   6   8
ENDBRANCH   3   4
ENDBRANCH   2   3
ENDBRANCH   1   2
BRANCH   1  32
ATOM     32  C   UNL A   1      37.821  21.842  25.433  1.00  0.00     0.002 C 
BRANCH  32  33
ATOM     33  C   UNL A   1      38.314  23.150  26.061  1.00  0.00     0.021 C 
BRANCH  33  34
ATOM     34  C   UNL A   1      39.591  23.066  26.880  1.00  0.00     0.116 C 
BRANCH  34  35
ATOM     35  N   UNL A   1      40.746  23.525  26.128  1.00  0.00    -0.352 N 
ATOM     36  C   UNL A   1      41.411  24.728  26.130  1.00  0.00     0.251 C 
ATOM     37  H   UNL A   1      41.119  22.856  25.507  1.00  0.00     0.163 HD
ATOM     38  O   UNL A   1      42.217  24.961  25.237  1.00  0.00    -0.269 OA
BRANCH  36  39
ATOM     39  C   UNL A   1      41.177  25.750  27.183  1.00  0.00     0.039 A 
ATOM     40  C   UNL A   1      41.982  26.897  27.192  1.00  0.00     0.014 A 
ATOM     41  C   UNL A   1      40.244  25.565  28.205  1.00  0.00     0.014 A 
ATOM     42  C   UNL A   1      41.830  27.859  28.196  1.00  0.00     0.010 A 
ATOM     43  C   UNL A   1      40.026  26.567  29.150  1.00  0.00     0.010 A 
ATOM     44  C   UNL A   1      40.834  27.713  29.173  1.00  0.00    -0.014 A 
BRANCH  44  45
ATOM     45  C   UNL A   1      40.651  28.715  30.256  1.00  0.00     0.031 A 
ATOM     46  C   UNL A   1      41.497  28.644  31.500  1.00  0.00     0.074 A 
ATOM     47  C   UNL A   1      39.687  29.650  30.152  1.00  0.00     0.049 A 
ATOM     48  N   UNL A   1      41.426  29.360  32.595  1.00  0.00    -0.248 NA
ATOM     49  C   UNL A   1      42.541  27.608  31.531  1.00  0.00     0.031 C 
ATOM     50  C   UNL A   1      38.770  29.799  29.021  1.00  0.00     0.029 A 
ATOM     51  N   UNL A   1      39.308  30.643  31.020  1.00  0.00    -0.354 N 
ATOM     52  C   UNL A   1      42.394  28.844  33.448  1.00  0.00     0.074 A 
ATOM     53  C   UNL A   1      43.002  27.721  32.767  1.00  0.00     0.031 C 
ATOM     54  C   UNL A   1      37.946  30.832  29.256  1.00  0.00     0.029 A 
ATOM     55  C   UNL A   1      38.251  31.396  30.568  1.00  0.00     0.049 A 
ATOM     56  H   UNL A   1      39.752  30.803  31.883  1.00  0.00     0.167 HD
ATOM     57  C   UNL A   1      42.765  29.281  34.675  1.00  0.00     0.037 A 
ATOM     58  C   UNL A   1      37.595  32.418  31.148  1.00  0.00     0.037 A 
ATOM     59  C   UNL A   1      42.185  30.420  35.336  1.00  0.00     0.049 A 
ATOM     60  C   UNL A   1      38.033  32.897  32.504  1.00  0.00     0.074 A 
ATOM     61  C   UNL A   1      42.527  30.978  36.555  1.00  0.00     0.029 A 
ATOM     62  N   UNL A   1      41.141  31.178  34.827  1.00  0.00    -0.354 N 
ATOM     63  N   UNL A   1      38.987  32.434  33.276  1.00  0.00    -0.248 NA
ATOM     64  C   UNL A   1      37.309  34.045  33.068  1.00  0.00     0.031 C 
ATOM     65  C   UNL A   1      41.666  32.054  36.799  1.00  0.00     0.029 A 
ATOM     66  C   UNL A   1      40.816  32.190  35.714  1.00  0.00     0.049 A 
ATOM     67  H   UNL A   1      40.695  31.019  33.963  1.00  0.00     0.167 HD
ATOM     68  C   UNL A   1      38.994  33.245  34.402  1.00  0.00     0.074 A 
ATOM     69  C   UNL A   1      37.959  34.240  34.207  1.00  0.00     0.031 C 
ATOM     70  C   UNL A   1      39.785  33.174  35.500  1.00  0.00     0.037 A 
BRANCH  57  71
ATOM     71  C   UNL A   1      43.858  28.525  35.375  1.00  0.00     0.057 A 
ATOM     72  C   UNL A   1      45.208  28.867  35.222  1.00  0.00     0.134 A 
ATOM     73  C   UNL A   1      43.559  27.453  36.226  1.00  0.00     0.134 A 
ATOM     74  F   UNL A   1      45.566  29.875  34.412  1.00  0.00    -0.206 F 
ATOM     75  C   UNL A   1      46.223  28.151  35.860  1.00  0.00     0.040 A 
ATOM     76  C   UNL A   1      44.562  26.748  36.892  1.00  0.00     0.040 A 
ATOM     77  F   UNL A   1      42.287  27.075  36.426  1.00  0.00    -0.206 F 
ATOM     78  C   UNL A   1      45.900  27.090  36.704  1.00  0.00     0.006 A 
ENDBRANCH  57  71
BRANCH  58  79
ATOM     79  C   UNL A   1      36.469  33.073  30.437  1.00  0.00     0.057 A 
ATOM     80  C   UNL A   1      36.702  34.006  29.421  1.00  0.00     0.134 A 
ATOM     81  C   UNL A   1      35.137  32.774  30.746  1.00  0.00     0.134 A 
ATOM     82  F   UNL A   1      37.957  34.346  29.090  1.00  0.00    -0.206 F 
ATOM     83  C   UNL A   1      35.651  34.631  28.747  1.00  0.00     0.040 A 
ATOM     84  C   UNL A   1      34.076  33.374  30.066  1.00  0.00     0.040 A 
ATOM     85  F   UNL A   1      34.848  31.882  31.705  1.00  0.00    -0.206 F 
ATOM     86  C   UNL A   1      34.334  34.311  29.066  1.00  0.00     0.006 A 
ENDBRANCH  58  79
BRANCH  70  87
ATOM     87  C   UNL A   1      39.580  34.215  36.561  1.00  0.00     0.057 A 
ATOM     88  C   UNL A   1      38.839  33.952  37.720  1.00  0.00     0.134 A 
ATOM     89  C   UNL A   1      40.166  35.481  36.439  1.00  0.00     0.134 A 
ATOM     90  F   UNL A   1      38.243  32.762  37.891  1.00  0.00    -0.206 F 
ATOM     91  C   UNL A   1      38.670  34.921  38.711  1.00  0.00     0.040 A 
ATOM     92  C   UNL A   1      40.024  36.449  37.433  1.00  0.00     0.040 A 
ATOM     93  F   UNL A   1      40.895  35.793  35.356  1.00  0.00    -0.206 F 
ATOM     94  C   UNL A   1      39.270  36.172  38.571  1.00  0.00     0.006 A 
ENDBRANCH  70  87
ENDBRANCH  44  45
ENDBRANCH  36  39
ENDBRANCH  34  35
ENDBRANCH  33  34
ENDBRANCH  32  33
ENDBRANCH   1  32
TORSDOF 17
ENDMDL
MODEL 3
REMARK VINA RESULT:     -11.7      5.250     11.500
REMARK SMILES O=C(NCCCCCCNC(=O)c1ccc(-c2c3nc(c(-c4c(F)cccc4F)c4ccc([nH]4)c(-c4c(F)cccc4F)c4nc(c(-c5c(F)cccc5F)c5ccc2[nH]5)C=C4)C=C3)cc1)C1=Cc2cc(Cl)cc(-c3ccc(CO)cc3)c2O[C@@H]1C(F)(F)F
REMARK SMILES IDX 6 1 5 2 4 3 3 4 1 5 2 6 67 8 68 9 85 10 69 11 84 12 70 13
REMARK SMILES IDX 83 14 71 15 74 16 72 17 73 18 86 19 87 20 88 21 89 22 75 23
REMARK SMILES IDX 76 24 82 25 77 26 81 27 78 28 79 29 80 30 7 32 8 33 9 34
REMARK SMILES IDX 10 35 11 36 12 38 13 39 14 40 66 41 15 42 65 43 16 44 17 45
REMARK SMILES IDX 18 46 59 47 19 48 64 49 58 50 60 51 20 52 63 53 57 54 56 55
REMARK SMILES IDX 21 57 47 58 30 59 46 60 31 61 34 62 45 63 61 64 32 65 33 66
REMARK SMILES IDX 44 68 62 69 35 70 22 71 23 72 28 73 24 74 25 75 27 76 29 77
REMARK SMILES IDX 26 78 48 79 49 80 54 81 50 82 51 83 53 84 55 85 52 86 36 87
REMARK SMILES IDX 37 88 42 89 38 90 39 91 41 92 43 93 40 94
REMARK H PARENT 3 7 80 31 10 37 60 56 34 67
REMARK Flexibility Score: inf
ROOT
ATOM      1  C   UNL A   1      47.401  23.350  39.048  1.00  0.00     0.002 C 
ENDROOT
BRANCH   1   2
ATOM      2  C   UNL A   1      46.884  23.246  37.609  1.00  0.00     0.021 C 
BRANCH   2   3
ATOM      3  C   UNL A   1      46.006  22.037  37.270  1.00  0.00     0.116 C 
BRANCH   3   4
ATOM      4  N   UNL A   1      46.215  21.476  35.940  1.00  0.00    -0.352 N 
ATOM      5  O   UNL A   1      46.339  21.421  33.693  1.00  0.00    -0.270 OA
ATOM      6  C   UNL A   1      45.921  21.991  34.698  1.00  0.00     0.251 C 
ATOM      7  H   UNL A   1      46.635  20.586  35.928  1.00  0.00     0.163 HD
BRANCH   6   8
ATOM      8  C   UNL A   1      45.257  23.319  34.554  1.00  0.00     0.067 C 
ATOM      9  C   UNL A   1      45.920  24.468  34.377  1.00  0.00     0.025 C 
ATOM     10  C   UNL A   1      43.864  23.254  33.997  1.00  0.00     0.314 C 
ATOM     11  C   UNL A   1      45.725  25.082  33.060  1.00  0.00     0.019 A 
ATOM     12  O   UNL A   1      43.859  23.578  32.586  1.00  0.00    -0.475 OA
ATOM     13  C   UNL A   1      46.698  25.975  32.594  1.00  0.00     0.032 A 
ATOM     14  C   UNL A   1      44.791  24.505  32.168  1.00  0.00     0.135 A 
ATOM     15  C   UNL A   1      46.769  26.252  31.235  1.00  0.00     0.042 A 
ATOM     16  C   UNL A   1      44.899  24.739  30.788  1.00  0.00     0.026 A 
ATOM     17  Cl  UNL A   1      48.060  27.214  30.625  1.00  0.00    -0.084 Cl
ATOM     18  C   UNL A   1      45.888  25.643  30.343  1.00  0.00     0.033 A 
BRANCH  10  19
ATOM     19  C   UNL A   1      42.914  24.158  34.822  1.00  0.00     0.429 C 
ATOM     20  F   UNL A   1      41.704  23.578  34.998  1.00  0.00    -0.167 F 
ATOM     21  F   UNL A   1      43.413  24.407  36.059  1.00  0.00    -0.167 F 
ATOM     22  F   UNL A   1      42.695  25.363  34.242  1.00  0.00    -0.167 F 
ENDBRANCH  10  19
BRANCH  16  23
ATOM     23  C   UNL A   1      44.222  23.908  29.777  1.00  0.00    -0.015 A 
ATOM     24  C   UNL A   1      44.938  23.569  28.618  1.00  0.00     0.009 A 
ATOM     25  C   UNL A   1      42.896  23.486  29.866  1.00  0.00     0.009 A 
ATOM     26  C   UNL A   1      44.349  22.907  27.546  1.00  0.00     0.007 A 
ATOM     27  C   UNL A   1      42.291  22.813  28.790  1.00  0.00     0.007 A 
ATOM     28  C   UNL A   1      43.005  22.548  27.611  1.00  0.00    -0.023 A 
BRANCH  28  29
ATOM     29  C   UNL A   1      42.356  21.911  26.410  1.00  0.00     0.191 C 
BRANCH  29  30
ATOM     30  O   UNL A   1      43.329  21.240  25.616  1.00  0.00    -0.392 OA
ATOM     31  H   UNL A   1      42.883  20.719  24.928  1.00  0.00     0.211 HD
ENDBRANCH  29  30
ENDBRANCH  28  29
ENDBRANCH  16  23
ENDBRANCH   6   8
ENDBRANCH   3   4
ENDBRANCH   2   3
ENDBRANCH   1   2
BRANCH   1  32
ATOM     32  C   UNL A   1      47.239  24.703  39.751  1.00  0.00     0.002 C 
BRANCH  32  33
ATOM     33  C   UNL A   1      45.985  25.511  39.403  1.00  0.00     0.021 C 
BRANCH  33  34
ATOM     34  C   UNL A   1      46.214  26.926  38.895  1.00  0.00     0.116 C 
BRANCH  34  35
ATOM     35  N   UNL A   1      47.353  26.998  37.997  1.00  0.00    -0.352 N 
ATOM     36  C   UNL A   1      47.431  27.260  36.650  1.00  0.00     0.251 C 
ATOM     37  H   UNL A   1      48.223  26.831  38.430  1.00  0.00     0.163 HD
ATOM     38  O   UNL A   1      48.484  27.036  36.064  1.00  0.00    -0.269 OA
BRANCH  36  39
ATOM     39  C   UNL A   1      46.276  27.804  35.889  1.00  0.00     0.039 A 
ATOM     40  C   UNL A   1      46.516  28.794  34.927  1.00  0.00     0.014 A 
ATOM     41  C   UNL A   1      44.961  27.423  36.162  1.00  0.00     0.014 A 
ATOM     42  C   UNL A   1      45.452  29.370  34.226  1.00  0.00     0.010 A 
ATOM     43  C   UNL A   1      43.909  27.927  35.397  1.00  0.00     0.010 A 
ATOM     44  C   UNL A   1      44.139  28.925  34.439  1.00  0.00    -0.014 A 
BRANCH  44  45
ATOM     45  C   UNL A   1      42.986  29.521  33.713  1.00  0.00     0.031 A 
ATOM     46  C   UNL A   1      42.274  30.719  34.284  1.00  0.00     0.074 A 
ATOM     47  C   UNL A   1      42.540  28.953  32.577  1.00  0.00     0.049 A 
ATOM     48  N   UNL A   1      41.192  31.324  33.858  1.00  0.00    -0.248 NA
ATOM     49  C   UNL A   1      42.832  31.295  35.518  1.00  0.00     0.031 C 
ATOM     50  C   UNL A   1      43.110  27.764  31.943  1.00  0.00     0.029 A 
ATOM     51  N   UNL A   1      41.490  29.292  31.760  1.00  0.00    -0.354 N 
ATOM     52  C   UNL A   1      40.931  32.329  34.781  1.00  0.00     0.074 A 
ATOM     53  C   UNL A   1      41.933  32.218  35.820  1.00  0.00     0.031 C 
ATOM     54  C   UNL A   1      42.417  27.482  30.829  1.00  0.00     0.029 A 
ATOM     55  C   UNL A   1      41.330  28.447  30.689  1.00  0.00     0.049 A 
ATOM     56  H   UNL A   1      40.908  30.068  31.926  1.00  0.00     0.167 HD
ATOM     57  C   UNL A   1      39.963  33.276  34.756  1.00  0.00     0.037 A 
ATOM     58  C   UNL A   1      40.407  28.444  29.709  1.00  0.00     0.037 A 
ATOM     59  C   UNL A   1      38.989  33.407  33.704  1.00  0.00     0.049 A 
ATOM     60  C   UNL A   1      39.350  29.513  29.691  1.00  0.00     0.074 A 
ATOM     61  C   UNL A   1      38.003  34.365  33.555  1.00  0.00     0.029 A 
ATOM     62  N   UNL A   1      38.885  32.551  32.617  1.00  0.00    -0.354 N 
ATOM     63  N   UNL A   1      39.149  30.490  30.543  1.00  0.00    -0.248 NA
ATOM     64  C   UNL A   1      38.397  29.485  28.573  1.00  0.00     0.031 C 
ATOM     65  C   UNL A   1      37.278  34.069  32.395  1.00  0.00     0.029 A 
ATOM     66  C   UNL A   1      37.841  32.951  31.800  1.00  0.00     0.049 A 
ATOM     67  H   UNL A   1      39.467  31.774  32.451  1.00  0.00     0.167 HD
ATOM     68  C   UNL A   1      38.064  31.204  30.053  1.00  0.00     0.074 A 
ATOM     69  C   UNL A   1      37.659  30.558  28.821  1.00  0.00     0.031 C 
ATOM     70  C   UNL A   1      37.457  32.298  30.575  1.00  0.00     0.037 A 
BRANCH  57  71
ATOM     71  C   UNL A   1      39.920  34.249  35.898  1.00  0.00     0.057 A 
ATOM     72  C   UNL A   1      39.190  33.987  37.065  1.00  0.00     0.134 A 
ATOM     73  C   UNL A   1      40.629  35.457  35.840  1.00  0.00     0.134 A 
ATOM     74  F   UNL A   1      38.478  32.856  37.182  1.00  0.00    -0.206 F 
ATOM     75  C   UNL A   1      39.138  34.904  38.119  1.00  0.00     0.040 A 
ATOM     76  C   UNL A   1      40.608  36.367  36.898  1.00  0.00     0.040 A 
ATOM     77  F   UNL A   1      41.356  35.769  34.757  1.00  0.00    -0.206 F 
ATOM     78  C   UNL A   1      39.854  36.097  38.038  1.00  0.00     0.006 A 
ENDBRANCH  57  71
BRANCH  58  79
ATOM     79  C   UNL A   1      40.456  27.404  28.651  1.00  0.00     0.057 A 
ATOM     80  C   UNL A   1      39.706  26.228  28.759  1.00  0.00     0.134 A 
ATOM     81  C   UNL A   1      41.242  27.566  27.504  1.00  0.00     0.134 A 
ATOM     82  F   UNL A   1      38.946  26.009  29.843  1.00  0.00    -0.206 F 
ATOM     83  C   UNL A   1      39.747  25.242  27.772  1.00  0.00     0.040 A 
ATOM     84  C   UNL A   1      41.275  26.598  26.499  1.00  0.00     0.040 A 
ATOM     85  F   UNL A   1      41.977  28.675  27.337  1.00  0.00    -0.206 F 
ATOM     86  C   UNL A   1      40.529  25.429  26.635  1.00  0.00     0.006 A 
ENDBRANCH  58  79
BRANCH  70  87
ATOM     87  C   UNL A   1      36.309  32.879  29.802  1.00  0.00     0.057 A 
ATOM     88  C   UNL A   1      36.510  33.645  28.647  1.00  0.00     0.134 A 
ATOM     89  C   UNL A   1      34.988  32.633  30.196  1.00  0.00     0.134 A 
ATOM     90  F   UNL A   1      37.753  33.926  28.225  1.00  0.00    -0.206 F 
ATOM     91  C   UNL A   1      35.436  34.165  27.923  1.00  0.00     0.040 A 
ATOM     92  C   UNL A   1      33.906  33.128  29.467  1.00  0.00     0.040 A 
ATOM     93  F   UNL A   1      34.728  31.900  31.288  1.00  0.00    -0.206 F 
ATOM     94  C   UNL A   1      34.129  33.901  28.330  1.00  0.00     0.006 A 
ENDBRANCH  70  87
ENDBRANCH  44  45
ENDBRANCH  36  39
ENDBRANCH  34  35
ENDBRANCH  33  34
ENDBRANCH  32  33
ENDBRANCH   1  32
TORSDOF 17
ENDMDL
