MODEL 1
REMARK VINA RESULT:     -12.1      0.000      0.000
REMARK SMILES COc1ccc2c(c1)c(CC(=O)NCCCCCCNC(=O)c1ccc(-c3c4nc(c(-c5c(F)cccc5F)c5ccc([nH]5)c(-c5c(F)cccc5F)c5nc(c(-c6c(F)cccc6F)c6ccc3[nH]6)C=C5)C=C4)cc1)c(C)n2Cc1ccn(C(F)F)c(=O)c1
REMARK SMILES IDX 15 1 14 2 13 3 11 4 12 5 10 7 9 8 3 9 4 10 8 11 5 12 7 13
REMARK SMILES IDX 6 14 79 15 77 16 78 17 2 18 1 19 80 20 81 21 82 22 90 23
REMARK SMILES IDX 83 24 88 25 84 26 89 27 85 28 86 29 87 30 16 31 17 32 18 33
REMARK SMILES IDX 19 34 20 35 21 36 22 38 23 39 24 40 76 41 25 42 75 43 26 44
REMARK SMILES IDX 27 45 28 46 69 47 29 48 74 49 68 50 70 51 30 52 73 53 67 54
REMARK SMILES IDX 66 55 31 57 57 58 40 59 56 60 41 61 44 62 55 63 71 64 42 65
REMARK SMILES IDX 43 66 54 68 72 69 45 70 32 71 33 72 38 73 34 74 35 75 37 76
REMARK SMILES IDX 39 77 36 78 58 79 59 80 64 81 60 82 61 83 63 84 65 85 62 86
REMARK SMILES IDX 46 87 47 88 52 89 48 90 49 91 51 92 53 93 50 94
REMARK H PARENT 13 6 20 37 70 56 44 67
REMARK Flexibility Score: inf
ROOT
ATOM      1  C   UNL A   1      39.925  22.195  26.665  1.00  0.00     0.021 C 
ENDROOT
BRANCH   1   2
ATOM      2  C   UNL A   1      38.481  22.655  26.463  1.00  0.00     0.116 C 
BRANCH   2   3
ATOM      3  N   UNL A   1      38.135  22.713  25.055  1.00  0.00    -0.356 N 
ATOM      4  C   UNL A   1      37.053  23.282  24.447  1.00  0.00     0.224 C 
ATOM      5  O   UNL A   1      36.935  23.141  23.227  1.00  0.00    -0.275 OA
ATOM      6  H   UNL A   1      38.775  22.275  24.448  1.00  0.00     0.163 HD
BRANCH   4   7
ATOM      7  C   UNL A   1      36.081  24.146  25.236  1.00  0.00     0.138 C 
BRANCH   7   8
ATOM      8  C   UNL A   1      34.643  23.773  25.039  1.00  0.00    -0.010 A 
ATOM      9  C   UNL A   1      32.662  25.996  22.660  1.00  0.00     0.119 A 
ATOM     10  C   UNL A   1      31.481  25.265  22.715  1.00  0.00     0.048 A 
ATOM     11  C   UNL A   1      33.790  25.559  23.354  1.00  0.00     0.057 A 
ATOM     12  C   UNL A   1      31.392  24.093  23.485  1.00  0.00     0.031 A 
ATOM     13  C   UNL A   1      33.712  24.414  24.174  1.00  0.00     0.007 A 
ATOM     14  C   UNL A   1      32.519  23.685  24.224  1.00  0.00     0.049 A 
ATOM     15  N   UNL A   1      32.741  22.602  25.069  1.00  0.00    -0.340 N 
ATOM     16  C   UNL A   1      33.945  22.790  25.728  1.00  0.00     0.020 A 
ATOM     17  C   UNL A   1      34.407  22.030  26.923  1.00  0.00     0.065 C 
BRANCH   9  18
ATOM     18  O   UNL A   1      32.831  27.114  21.888  1.00  0.00    -0.497 OA
ATOM     19  C   UNL A   1      33.087  28.300  22.637  1.00  0.00     0.278 C 
ENDBRANCH   9  18
BRANCH  15  20
ATOM     20  C   UNL A   1      31.792  21.501  25.295  1.00  0.00     0.158 C 
BRANCH  20  21
ATOM     21  C   UNL A   1      32.261  20.141  24.801  1.00  0.00    -0.021 A 
ATOM     22  C   UNL A   1      32.723  19.156  25.762  1.00  0.00     0.024 A 
ATOM     23  C   UNL A   1      32.165  19.760  23.513  1.00  0.00     0.077 A 
ATOM     24  C   UNL A   1      33.137  17.945  25.377  1.00  0.00     0.095 A 
ATOM     25  C   UNL A   1      32.562  18.384  23.073  1.00  0.00     0.255 A 
ATOM     26  N   UNL A   1      33.090  17.561  24.051  1.00  0.00    -0.258 N 
ATOM     27  O   UNL A   1      32.395  18.078  21.893  1.00  0.00    -0.269 OA
BRANCH  26  28
ATOM     28  C   UNL A   1      33.418  16.199  23.700  1.00  0.00     0.451 C 
ATOM     29  F   UNL A   1      34.496  16.166  22.881  1.00  0.00    -0.185 F 
ATOM     30  F   UNL A   1      33.696  15.440  24.785  1.00  0.00    -0.185 F 
ENDBRANCH  26  28
ENDBRANCH  20  21
ENDBRANCH  15  20
ENDBRANCH   7   8
ENDBRANCH   4   7
ENDBRANCH   2   3
ENDBRANCH   1   2
BRANCH   1  31
ATOM     31  C   UNL A   1      40.359  21.097  25.685  1.00  0.00     0.002 C 
BRANCH  31  32
ATOM     32  C   UNL A   1      40.873  19.812  26.347  1.00  0.00     0.002 C 
BRANCH  32  33
ATOM     33  C   UNL A   1      42.308  19.891  26.879  1.00  0.00     0.021 C 
BRANCH  33  34
ATOM     34  C   UNL A   1      43.236  18.822  26.298  1.00  0.00     0.116 C 
BRANCH  34  35
ATOM     35  N   UNL A   1      43.664  19.103  24.947  1.00  0.00    -0.352 N 
ATOM     36  C   UNL A   1      44.302  20.153  24.351  1.00  0.00     0.251 C 
ATOM     37  H   UNL A   1      43.448  18.377  24.316  1.00  0.00     0.163 HD
ATOM     38  O   UNL A   1      44.681  19.975  23.191  1.00  0.00    -0.269 OA
BRANCH  36  39
ATOM     39  C   UNL A   1      44.478  21.501  24.958  1.00  0.00     0.039 A 
ATOM     40  C   UNL A   1      45.372  21.834  25.977  1.00  0.00     0.014 A 
ATOM     41  C   UNL A   1      43.576  22.484  24.508  1.00  0.00     0.014 A 
ATOM     42  C   UNL A   1      45.266  23.052  26.635  1.00  0.00     0.010 A 
ATOM     43  C   UNL A   1      43.483  23.714  25.142  1.00  0.00     0.010 A 
ATOM     44  C   UNL A   1      44.279  23.960  26.254  1.00  0.00    -0.014 A 
BRANCH  44  45
ATOM     45  C   UNL A   1      44.154  25.196  27.016  1.00  0.00     0.031 A 
ATOM     46  C   UNL A   1      45.239  26.188  26.775  1.00  0.00     0.074 A 
ATOM     47  C   UNL A   1      43.081  25.452  27.791  1.00  0.00     0.049 A 
ATOM     48  N   UNL A   1      46.069  26.689  27.631  1.00  0.00    -0.248 NA
ATOM     49  C   UNL A   1      45.518  26.570  25.381  1.00  0.00     0.031 C 
ATOM     50  C   UNL A   1      41.851  24.665  27.919  1.00  0.00     0.029 A 
ATOM     51  N   UNL A   1      42.820  26.542  28.563  1.00  0.00    -0.354 N 
ATOM     52  C   UNL A   1      46.852  27.600  26.921  1.00  0.00     0.074 A 
ATOM     53  C   UNL A   1      46.575  27.368  25.529  1.00  0.00     0.031 C 
ATOM     54  C   UNL A   1      40.898  25.418  28.513  1.00  0.00     0.029 A 
ATOM     55  C   UNL A   1      41.484  26.681  28.919  1.00  0.00     0.049 A 
ATOM     56  H   UNL A   1      43.517  27.176  28.845  1.00  0.00     0.167 HD
ATOM     57  C   UNL A   1      47.485  28.629  27.550  1.00  0.00     0.037 A 
ATOM     58  C   UNL A   1      40.898  27.792  29.435  1.00  0.00     0.037 A 
ATOM     59  C   UNL A   1      47.648  28.354  28.956  1.00  0.00     0.049 A 
ATOM     60  C   UNL A   1      41.975  28.644  29.998  1.00  0.00     0.074 A 
ATOM     61  C   UNL A   1      48.285  27.373  29.691  1.00  0.00     0.029 A 
ATOM     62  N   UNL A   1      46.804  28.983  29.839  1.00  0.00    -0.354 N 
ATOM     63  N   UNL A   1      42.669  28.324  31.055  1.00  0.00    -0.248 NA
ATOM     64  C   UNL A   1      42.604  29.611  29.110  1.00  0.00     0.031 C 
ATOM     65  C   UNL A   1      47.432  27.138  30.810  1.00  0.00     0.029 A 
ATOM     66  C   UNL A   1      46.364  28.033  30.721  1.00  0.00     0.049 A 
ATOM     67  H   UNL A   1      46.562  29.937  29.838  1.00  0.00     0.167 HD
ATOM     68  C   UNL A   1      43.972  28.691  30.747  1.00  0.00     0.074 A 
ATOM     69  C   UNL A   1      43.858  29.549  29.569  1.00  0.00     0.031 C 
ATOM     70  C   UNL A   1      45.040  28.033  31.289  1.00  0.00     0.037 A 
BRANCH  57  71
ATOM     71  C   UNL A   1      47.560  30.040  26.997  1.00  0.00     0.057 A 
ATOM     72  C   UNL A   1      46.441  30.844  26.699  1.00  0.00     0.134 A 
ATOM     73  C   UNL A   1      48.779  30.740  27.100  1.00  0.00     0.134 A 
ATOM     74  F   UNL A   1      45.207  30.349  26.560  1.00  0.00    -0.206 F 
ATOM     75  C   UNL A   1      46.508  32.237  26.619  1.00  0.00     0.040 A 
ATOM     76  C   UNL A   1      48.849  32.138  27.066  1.00  0.00     0.040 A 
ATOM     77  F   UNL A   1      49.929  30.092  27.344  1.00  0.00    -0.206 F 
ATOM     78  C   UNL A   1      47.705  32.893  26.851  1.00  0.00     0.006 A 
ENDBRANCH  57  71
BRANCH  58  79
ATOM     79  C   UNL A   1      39.528  28.296  29.177  1.00  0.00     0.057 A 
ATOM     80  C   UNL A   1      39.204  28.981  27.990  1.00  0.00     0.134 A 
ATOM     81  C   UNL A   1      38.562  28.347  30.192  1.00  0.00     0.134 A 
ATOM     82  F   UNL A   1      40.083  29.079  26.984  1.00  0.00    -0.206 F 
ATOM     83  C   UNL A   1      38.000  29.670  27.821  1.00  0.00     0.040 A 
ATOM     84  C   UNL A   1      37.353  29.043  30.038  1.00  0.00     0.040 A 
ATOM     85  F   UNL A   1      38.792  27.771  31.381  1.00  0.00    -0.206 F 
ATOM     86  C   UNL A   1      37.072  29.714  28.851  1.00  0.00     0.006 A 
ENDBRANCH  58  79
BRANCH  70  87
ATOM     87  C   UNL A   1      44.772  27.049  32.392  1.00  0.00     0.057 A 
ATOM     88  C   UNL A   1      44.528  25.712  32.062  1.00  0.00     0.134 A 
ATOM     89  C   UNL A   1      44.605  27.409  33.738  1.00  0.00     0.134 A 
ATOM     90  F   UNL A   1      44.603  25.306  30.784  1.00  0.00    -0.206 F 
ATOM     91  C   UNL A   1      44.154  24.772  33.025  1.00  0.00     0.040 A 
ATOM     92  C   UNL A   1      44.265  26.472  34.718  1.00  0.00     0.040 A 
ATOM     93  F   UNL A   1      44.703  28.684  34.131  1.00  0.00    -0.206 F 
ATOM     94  C   UNL A   1      44.034  25.147  34.361  1.00  0.00     0.006 A 
ENDBRANCH  70  87
ENDBRANCH  44  45
ENDBRANCH  36  39
ENDBRANCH  34  35
ENDBRANCH  33  34
ENDBRANCH  32  33
ENDBRANCH  31  32
ENDBRANCH   1  31
TORSDOF 18
ENDMDL
MODEL 2
REMARK VINA RESULT:     -11.7      2.303      4.093
REMARK SMILES COc1ccc2c(c1)c(CC(=O)NCCCCCCNC(=O)c1ccc(-c3c4nc(c(-c5c(F)cccc5F)c5ccc([nH]5)c(-c5c(F)cccc5F)c5nc(c(-c6c(F)cccc6F)c6ccc3[nH]6)C=C5)C=C4)cc1)c(C)n2Cc1ccn(C(F)F)c(=O)c1
REMARK SMILES IDX 15 1 14 2 13 3 11 4 12 5 10 7 9 8 3 9 4 10 8 11 5 12 7 13
REMARK SMILES IDX 6 14 79 15 77 16 78 17 2 18 1 19 80 20 81 21 82 22 90 23
REMARK SMILES IDX 83 24 88 25 84 26 89 27 85 28 86 29 87 30 16 31 17 32 18 33
REMARK SMILES IDX 19 34 20 35 21 36 22 38 23 39 24 40 76 41 25 42 75 43 26 44
REMARK SMILES IDX 27 45 28 46 69 47 29 48 74 49 68 50 70 51 30 52 73 53 67 54
REMARK SMILES IDX 66 55 31 57 57 58 40 59 56 60 41 61 44 62 55 63 71 64 42 65
REMARK SMILES IDX 43 66 54 68 72 69 45 70 32 71 33 72 38 73 34 74 35 75 37 76
REMARK SMILES IDX 39 77 36 78 58 79 59 80 64 81 60 82 61 83 63 84 65 85 62 86
REMARK SMILES IDX 46 87 47 88 52 89 48 90 49 91 51 92 53 93 50 94
REMARK H PARENT 13 6 20 37 70 56 44 67
REMARK Flexibility Score: inf
ROOT
ATOM      1  C   UNL A   1      40.209  22.130  27.167  1.00  0.00     0.021 C 
ENDROOT
BRANCH   1   2
ATOM      2  C   UNL A   1      38.930  22.491  26.411  1.00  0.00     0.116 C 
BRANCH   2   3
ATOM      3  N   UNL A   1      38.616  21.502  25.397  1.00  0.00    -0.356 N 
ATOM      4  C   UNL A   1      37.415  20.941  25.069  1.00  0.00     0.224 C 
ATOM      5  O   UNL A   1      37.405  20.057  24.208  1.00  0.00    -0.275 OA
ATOM      6  H   UNL A   1      39.384  21.189  24.866  1.00  0.00     0.163 HD
BRANCH   4   7
ATOM      7  C   UNL A   1      36.121  21.460  25.678  1.00  0.00     0.138 C 
BRANCH   7   8
ATOM      8  C   UNL A   1      34.918  21.257  24.806  1.00  0.00    -0.010 A 
ATOM      9  C   UNL A   1      33.443  17.743  24.808  1.00  0.00     0.119 A 
ATOM     10  C   UNL A   1      32.364  18.030  23.980  1.00  0.00     0.048 A 
ATOM     11  C   UNL A   1      34.325  18.755  25.186  1.00  0.00     0.057 A 
ATOM     12  C   UNL A   1      32.154  19.330  23.491  1.00  0.00     0.031 A 
ATOM     13  C   UNL A   1      34.164  20.057  24.669  1.00  0.00     0.007 A 
ATOM     14  C   UNL A   1      33.076  20.336  23.836  1.00  0.00     0.049 A 
ATOM     15  N   UNL A   1      33.149  21.688  23.513  1.00  0.00    -0.340 N 
ATOM     16  C   UNL A   1      34.381  22.177  23.916  1.00  0.00     0.020 A 
ATOM     17  C   UNL A   1      34.977  23.477  23.498  1.00  0.00     0.065 C 
BRANCH   9  18
ATOM     18  O   UNL A   1      33.675  16.511  25.361  1.00  0.00    -0.497 OA
ATOM     19  C   UNL A   1      32.529  15.664  25.386  1.00  0.00     0.278 C 
ENDBRANCH   9  18
BRANCH  15  20
ATOM     20  C   UNL A   1      32.123  22.433  22.769  1.00  0.00     0.158 C 
BRANCH  20  21
ATOM     21  C   UNL A   1      31.713  23.757  23.396  1.00  0.00    -0.021 A 
ATOM     22  C   UNL A   1      31.784  24.971  22.604  1.00  0.00     0.024 A 
ATOM     23  C   UNL A   1      31.177  23.846  24.628  1.00  0.00     0.077 A 
ATOM     24  C   UNL A   1      31.428  26.156  23.108  1.00  0.00     0.095 A 
ATOM     25  C   UNL A   1      30.710  25.155  25.185  1.00  0.00     0.255 A 
ATOM     26  N   UNL A   1      30.924  26.267  24.389  1.00  0.00    -0.258 N 
ATOM     27  O   UNL A   1      30.175  25.162  26.293  1.00  0.00    -0.269 OA
BRANCH  26  28
ATOM     28  C   UNL A   1      30.425  27.543  24.842  1.00  0.00     0.451 C 
ATOM     29  F   UNL A   1      31.442  28.322  25.283  1.00  0.00    -0.185 F 
ATOM     30  F   UNL A   1      29.776  28.219  23.866  1.00  0.00    -0.185 F 
ENDBRANCH  26  28
ENDBRANCH  20  21
ENDBRANCH  15  20
ENDBRANCH   7   8
ENDBRANCH   4   7
ENDBRANCH   2   3
ENDBRANCH   1   2
BRANCH   1  31
ATOM     31  C   UNL A   1      41.194  21.297  26.337  1.00  0.00     0.002 C 
BRANCH  31  32
ATOM     32  C   UNL A   1      42.022  20.290  27.145  1.00  0.00     0.002 C 
BRANCH  32  33
ATOM     33  C   UNL A   1      42.256  18.943  26.450  1.00  0.00     0.021 C 
BRANCH  33  34
ATOM     34  C   UNL A   1      43.708  18.719  26.024  1.00  0.00     0.116 C 
BRANCH  34  35
ATOM     35  N   UNL A   1      43.971  19.090  24.653  1.00  0.00    -0.352 N 
ATOM     36  C   UNL A   1      44.486  20.202  24.051  1.00  0.00     0.251 C 
ATOM     37  H   UNL A   1      43.724  18.385  24.010  1.00  0.00     0.163 HD
ATOM     38  O   UNL A   1      44.744  20.103  22.849  1.00  0.00    -0.269 OA
BRANCH  36  39
ATOM     39  C   UNL A   1      44.659  21.526  24.710  1.00  0.00     0.039 A 
ATOM     40  C   UNL A   1      45.502  21.806  25.786  1.00  0.00     0.014 A 
ATOM     41  C   UNL A   1      43.806  22.545  24.241  1.00  0.00     0.014 A 
ATOM     42  C   UNL A   1      45.388  23.006  26.475  1.00  0.00     0.010 A 
ATOM     43  C   UNL A   1      43.707  23.757  24.908  1.00  0.00     0.010 A 
ATOM     44  C   UNL A   1      44.444  23.949  26.069  1.00  0.00    -0.014 A 
BRANCH  44  45
ATOM     45  C   UNL A   1      44.306  25.165  26.862  1.00  0.00     0.031 A 
ATOM     46  C   UNL A   1      45.399  26.158  26.674  1.00  0.00     0.074 A 
ATOM     47  C   UNL A   1      43.216  25.403  27.618  1.00  0.00     0.049 A 
ATOM     48  N   UNL A   1      46.211  26.632  27.563  1.00  0.00    -0.248 NA
ATOM     49  C   UNL A   1      45.712  26.578  25.298  1.00  0.00     0.031 C 
ATOM     50  C   UNL A   1      41.981  24.618  27.696  1.00  0.00     0.029 A 
ATOM     51  N   UNL A   1      42.940  26.473  28.414  1.00  0.00    -0.354 N 
ATOM     52  C   UNL A   1      47.013  27.560  26.897  1.00  0.00     0.074 A 
ATOM     53  C   UNL A   1      46.769  27.367  25.492  1.00  0.00     0.031 C 
ATOM     54  C   UNL A   1      41.016  25.358  28.288  1.00  0.00     0.029 A 
ATOM     55  C   UNL A   1      41.596  26.607  28.742  1.00  0.00     0.049 A 
ATOM     56  H   UNL A   1      43.633  27.096  28.729  1.00  0.00     0.167 HD
ATOM     57  C   UNL A   1      47.635  28.568  27.569  1.00  0.00     0.037 A 
ATOM     58  C   UNL A   1      41.003  27.706  29.275  1.00  0.00     0.037 A 
ATOM     59  C   UNL A   1      47.764  28.254  28.969  1.00  0.00     0.049 A 
ATOM     60  C   UNL A   1      42.069  28.538  29.887  1.00  0.00     0.074 A 
ATOM     61  C   UNL A   1      48.380  27.251  29.692  1.00  0.00     0.029 A 
ATOM     62  N   UNL A   1      46.902  28.862  29.850  1.00  0.00    -0.354 N 
ATOM     63  N   UNL A   1      42.737  28.186  30.950  1.00  0.00    -0.248 NA
ATOM     64  C   UNL A   1      42.722  29.527  29.040  1.00  0.00     0.031 C 
ATOM     65  C   UNL A   1      47.500  26.988  30.784  1.00  0.00     0.029 A 
ATOM     66  C   UNL A   1      46.438  27.889  30.694  1.00  0.00     0.049 A 
ATOM     67  H   UNL A   1      46.662  29.816  29.870  1.00  0.00     0.167 HD
ATOM     68  C   UNL A   1      44.048  28.556  30.683  1.00  0.00     0.074 A 
ATOM     69  C   UNL A   1      43.964  29.446  29.526  1.00  0.00     0.031 C 
ATOM     70  C   UNL A   1      45.100  27.879  31.231  1.00  0.00     0.037 A 
BRANCH  57  71
ATOM     71  C   UNL A   1      47.727  29.993  27.057  1.00  0.00     0.057 A 
ATOM     72  C   UNL A   1      46.618  30.804  26.740  1.00  0.00     0.134 A 
ATOM     73  C   UNL A   1      48.941  30.691  27.222  1.00  0.00     0.134 A 
ATOM     74  F   UNL A   1      45.391  30.312  26.543  1.00  0.00    -0.206 F 
ATOM     75  C   UNL A   1      46.687  32.199  26.700  1.00  0.00     0.040 A 
ATOM     76  C   UNL A   1      49.010  32.090  27.228  1.00  0.00     0.040 A 
ATOM     77  F   UNL A   1      50.082  30.038  27.490  1.00  0.00    -0.206 F 
ATOM     78  C   UNL A   1      47.874  32.850  26.992  1.00  0.00     0.006 A 
ENDBRANCH  57  71
BRANCH  58  79
ATOM     79  C   UNL A   1      39.641  28.222  28.999  1.00  0.00     0.057 A 
ATOM     80  C   UNL A   1      39.342  28.923  27.814  1.00  0.00     0.134 A 
ATOM     81  C   UNL A   1      38.657  28.269  29.997  1.00  0.00     0.134 A 
ATOM     82  F   UNL A   1      40.239  29.026  26.824  1.00  0.00    -0.206 F 
ATOM     83  C   UNL A   1      38.146  29.622  27.632  1.00  0.00     0.040 A 
ATOM     84  C   UNL A   1      37.456  28.975  29.831  1.00  0.00     0.040 A 
ATOM     85  F   UNL A   1      38.863  27.678  31.183  1.00  0.00    -0.206 F 
ATOM     86  C   UNL A   1      37.201  29.661  28.647  1.00  0.00     0.006 A 
ENDBRANCH  58  79
BRANCH  70  87
ATOM     87  C   UNL A   1      44.804  26.866  32.300  1.00  0.00     0.057 A 
ATOM     88  C   UNL A   1      44.935  27.239  33.642  1.00  0.00     0.134 A 
ATOM     89  C   UNL A   1      44.542  25.512  32.043  1.00  0.00     0.134 A 
ATOM     90  F   UNL A   1      45.252  28.503  33.964  1.00  0.00    -0.206 F 
ATOM     91  C   UNL A   1      44.793  26.316  34.680  1.00  0.00     0.040 A 
ATOM     92  C   UNL A   1      44.362  24.584  33.073  1.00  0.00     0.040 A 
ATOM     93  F   UNL A   1      44.513  25.038  30.792  1.00  0.00    -0.206 F 
ATOM     94  C   UNL A   1      44.492  24.985  34.398  1.00  0.00     0.006 A 
ENDBRANCH  70  87
ENDBRANCH  44  45
ENDBRANCH  36  39
ENDBRANCH  34  35
ENDBRANCH  33  34
ENDBRANCH  32  33
ENDBRANCH  31  32
ENDBRANCH   1  31
TORSDOF 18
ENDMDL
MODEL 3
REMARK VINA RESULT:     -11.3      4.082      9.136
REMARK SMILES COc1ccc2c(c1)c(CC(=O)NCCCCCCNC(=O)c1ccc(-c3c4nc(c(-c5c(F)cccc5F)c5ccc([nH]5)c(-c5c(F)cccc5F)c5nc(c(-c6c(F)cccc6F)c6ccc3[nH]6)C=C5)C=C4)cc1)c(C)n2Cc1ccn(C(F)F)c(=O)c1
REMARK SMILES IDX 15 1 14 2 13 3 11 4 12 5 10 7 9 8 3 9 4 10 8 11 5 12 7 13
REMARK SMILES IDX 6 14 79 15 77 16 78 17 2 18 1 19 80 20 81 21 82 22 90 23
REMARK SMILES IDX 83 24 88 25 84 26 89 27 85 28 86 29 87 30 16 31 17 32 18 33
REMARK SMILES IDX 19 34 20 35 21 36 22 38 23 39 24 40 76 41 25 42 75 43 26 44
REMARK SMILES IDX 27 45 28 46 69 47 29 48 74 49 68 50 70 51 30 52 73 53 67 54
REMARK SMILES IDX 66 55 31 57 57 58 40 59 56 60 41 61 44 62 55 63 71 64 42 65
REMARK SMILES IDX 43 66 54 68 72 69 45 70 32 71 33 72 38 73 34 74 35 75 37 76
REMARK SMILES IDX 39 77 36 78 58 79 59 80 64 81 60 82 61 83 63 84 65 85 62 86
REMARK SMILES IDX 46 87 47 88 52 89 48 90 49 91 51 92 53 93 50 94
REMARK H PARENT 13 6 20 37 70 56 44 67
REMARK Flexibility Score: inf
ROOT
ATOM      1  C   UNL A   1      35.393  31.495  28.549  1.00  0.00     0.021 C 
ENDROOT
BRANCH   1   2
ATOM      2  C   UNL A   1      34.435  30.699  27.663  1.00  0.00     0.116 C 
BRANCH   2   3
ATOM      3  N   UNL A   1      33.293  31.500  27.264  1.00  0.00    -0.356 N 
ATOM      4  C   UNL A   1      32.052  31.104  26.855  1.00  0.00     0.224 C 
ATOM      5  O   UNL A   1      31.256  31.976  26.494  1.00  0.00    -0.275 OA
ATOM      6  H   UNL A   1      33.434  32.474  27.293  1.00  0.00     0.163 HD
BRANCH   4   7
ATOM      7  C   UNL A   1      31.633  29.644  26.936  1.00  0.00     0.138 C 
BRANCH   7   8
ATOM      8  C   UNL A   1      31.782  28.899  25.643  1.00  0.00    -0.010 A 
ATOM      9  C   UNL A   1      29.351  29.878  22.876  1.00  0.00     0.119 A 
ATOM     10  C   UNL A   1      29.885  29.043  21.902  1.00  0.00     0.048 A 
ATOM     11  C   UNL A   1      29.938  29.945  24.139  1.00  0.00     0.057 A 
ATOM     12  C   UNL A   1      31.003  28.237  22.174  1.00  0.00     0.031 A 
ATOM     13  C   UNL A   1      31.030  29.110  24.453  1.00  0.00     0.007 A 
ATOM     14  C   UNL A   1      31.560  28.272  23.466  1.00  0.00     0.049 A 
ATOM     15  N   UNL A   1      32.637  27.603  24.039  1.00  0.00    -0.340 N 
ATOM     16  C   UNL A   1      32.620  27.818  25.407  1.00  0.00     0.020 A 
ATOM     17  C   UNL A   1      33.405  27.052  26.416  1.00  0.00     0.065 C 
BRANCH   9  18
ATOM     18  O   UNL A   1      28.298  30.727  22.660  1.00  0.00    -0.497 OA
ATOM     19  C   UNL A   1      28.394  31.959  23.370  1.00  0.00     0.278 C 
ENDBRANCH   9  18
BRANCH  15  20
ATOM     20  C   UNL A   1      33.567  26.725  23.312  1.00  0.00     0.158 C 
BRANCH  20  21
ATOM     21  C   UNL A   1      33.397  25.240  23.593  1.00  0.00    -0.021 A 
ATOM     22  C   UNL A   1      32.066  24.661  23.578  1.00  0.00     0.024 A 
ATOM     23  C   UNL A   1      34.440  24.402  23.749  1.00  0.00     0.077 A 
ATOM     24  C   UNL A   1      31.867  23.360  23.812  1.00  0.00     0.095 A 
ATOM     25  C   UNL A   1      34.240  22.931  23.945  1.00  0.00     0.255 A 
ATOM     26  N   UNL A   1      32.927  22.501  24.023  1.00  0.00    -0.258 N 
ATOM     27  O   UNL A   1      35.234  22.211  24.022  1.00  0.00    -0.269 OA
BRANCH  26  28
ATOM     28  C   UNL A   1      32.674  21.084  24.135  1.00  0.00     0.451 C 
ATOM     29  F   UNL A   1      31.652  20.850  24.993  1.00  0.00    -0.185 F 
ATOM     30  F   UNL A   1      32.356  20.521  22.946  1.00  0.00    -0.185 F 
ENDBRANCH  26  28
ENDBRANCH  20  21
ENDBRANCH  15  20
ENDBRANCH   7   8
ENDBRANCH   4   7
ENDBRANCH   2   3
ENDBRANCH   1   2
BRANCH   1  31
ATOM     31  C   UNL A   1      35.875  32.802  27.907  1.00  0.00     0.002 C 
BRANCH  31  32
ATOM     32  C   UNL A   1      36.077  33.963  28.889  1.00  0.00     0.002 C 
BRANCH  32  33
ATOM     33  C   UNL A   1      34.874  34.902  29.034  1.00  0.00     0.021 C 
BRANCH  33  34
ATOM     34  C   UNL A   1      33.709  34.289  29.812  1.00  0.00     0.116 C 
BRANCH  34  35
ATOM     35  N   UNL A   1      33.597  34.781  31.166  1.00  0.00    -0.352 N 
ATOM     36  C   UNL A   1      34.436  34.800  32.242  1.00  0.00     0.251 C 
ATOM     37  H   UNL A   1      32.722  35.194  31.353  1.00  0.00     0.163 HD
ATOM     38  O   UNL A   1      34.072  35.478  33.207  1.00  0.00    -0.269 OA
BRANCH  36  39
ATOM     39  C   UNL A   1      35.682  33.995  32.367  1.00  0.00     0.039 A 
ATOM     40  C   UNL A   1      36.984  34.497  32.406  1.00  0.00     0.014 A 
ATOM     41  C   UNL A   1      35.501  32.599  32.345  1.00  0.00     0.014 A 
ATOM     42  C   UNL A   1      38.071  33.644  32.265  1.00  0.00     0.010 A 
ATOM     43  C   UNL A   1      36.582  31.739  32.232  1.00  0.00     0.010 A 
ATOM     44  C   UNL A   1      37.859  32.274  32.115  1.00  0.00    -0.014 A 
BRANCH  44  45
ATOM     45  C   UNL A   1      39.021  31.420  31.898  1.00  0.00     0.031 A 
ATOM     46  C   UNL A   1      39.782  31.080  33.132  1.00  0.00     0.074 A 
ATOM     47  C   UNL A   1      39.309  30.901  30.687  1.00  0.00     0.049 A 
ATOM     48  N   UNL A   1      41.022  31.330  33.401  1.00  0.00    -0.248 NA
ATOM     49  C   UNL A   1      39.032  30.503  34.260  1.00  0.00     0.031 C 
ATOM     50  C   UNL A   1      38.509  30.970  29.461  1.00  0.00     0.029 A 
ATOM     51  N   UNL A   1      40.348  30.103  30.321  1.00  0.00    -0.354 N 
ATOM     52  C   UNL A   1      41.265  30.770  34.656  1.00  0.00     0.074 A 
ATOM     53  C   UNL A   1      39.978  30.420  35.195  1.00  0.00     0.031 C 
ATOM     54  C   UNL A   1      38.962  30.051  28.579  1.00  0.00     0.029 A 
ATOM     55  C   UNL A   1      40.153  29.427  29.123  1.00  0.00     0.049 A 
ATOM     56  H   UNL A   1      41.168  30.012  30.859  1.00  0.00     0.167 HD
ATOM     57  C   UNL A   1      42.524  30.425  35.045  1.00  0.00     0.037 A 
ATOM     58  C   UNL A   1      40.879  28.376  28.662  1.00  0.00     0.037 A 
ATOM     59  C   UNL A   1      43.515  31.137  34.278  1.00  0.00     0.049 A 
ATOM     60  C   UNL A   1      42.176  28.378  29.385  1.00  0.00     0.074 A 
ATOM     61  C   UNL A   1      43.826  32.468  34.082  1.00  0.00     0.029 A 
ATOM     62  N   UNL A   1      44.169  30.458  33.278  1.00  0.00    -0.354 N 
ATOM     63  N   UNL A   1      43.093  29.291  29.217  1.00  0.00    -0.248 NA
ATOM     64  C   UNL A   1      42.250  27.643  30.640  1.00  0.00     0.031 C 
ATOM     65  C   UNL A   1      44.212  32.559  32.711  1.00  0.00     0.029 A 
ATOM     66  C   UNL A   1      44.174  31.271  32.177  1.00  0.00     0.049 A 
ATOM     67  H   UNL A   1      44.560  29.557  33.342  1.00  0.00     0.167 HD
ATOM     68  C   UNL A   1      43.570  29.550  30.495  1.00  0.00     0.074 A 
ATOM     69  C   UNL A   1      43.070  28.451  31.319  1.00  0.00     0.031 C 
ATOM     70  C   UNL A   1      44.073  30.775  30.827  1.00  0.00     0.037 A 
BRANCH  57  71
ATOM     71  C   UNL A   1      42.857  29.149  35.794  1.00  0.00     0.057 A 
ATOM     72  C   UNL A   1      42.583  27.848  35.323  1.00  0.00     0.134 A 
ATOM     73  C   UNL A   1      43.793  29.210  36.846  1.00  0.00     0.134 A 
ATOM     74  F   UNL A   1      41.718  27.601  34.334  1.00  0.00    -0.206 F 
ATOM     75  C   UNL A   1      43.261  26.717  35.783  1.00  0.00     0.040 A 
ATOM     76  C   UNL A   1      44.510  28.089  37.282  1.00  0.00     0.040 A 
ATOM     77  F   UNL A   1      44.120  30.382  37.413  1.00  0.00    -0.206 F 
ATOM     78  C   UNL A   1      44.263  26.840  36.731  1.00  0.00     0.006 A 
ENDBRANCH  57  71
BRANCH  58  79
ATOM     79  C   UNL A   1      40.391  27.207  27.892  1.00  0.00     0.057 A 
ATOM     80  C   UNL A   1      39.568  26.226  28.478  1.00  0.00     0.134 A 
ATOM     81  C   UNL A   1      40.922  26.883  26.635  1.00  0.00     0.134 A 
ATOM     82  F   UNL A   1      39.076  26.383  29.715  1.00  0.00    -0.206 F 
ATOM     83  C   UNL A   1      39.291  25.005  27.859  1.00  0.00     0.040 A 
ATOM     84  C   UNL A   1      40.659  25.657  26.006  1.00  0.00     0.040 A 
ATOM     85  F   UNL A   1      41.759  27.726  26.012  1.00  0.00    -0.206 F 
ATOM     86  C   UNL A   1      39.846  24.710  26.622  1.00  0.00     0.006 A 
ENDBRANCH  58  79
BRANCH  70  87
ATOM     87  C   UNL A   1      44.299  31.766  29.720  1.00  0.00     0.057 A 
ATOM     88  C   UNL A   1      45.584  31.904  29.187  1.00  0.00     0.134 A 
ATOM     89  C   UNL A   1      43.328  32.678  29.277  1.00  0.00     0.134 A 
ATOM     90  F   UNL A   1      46.581  31.112  29.611  1.00  0.00    -0.206 F 
ATOM     91  C   UNL A   1      45.888  32.888  28.243  1.00  0.00     0.040 A 
ATOM     92  C   UNL A   1      43.609  33.645  28.308  1.00  0.00     0.040 A 
ATOM     93  F   UNL A   1      42.102  32.699  29.813  1.00  0.00    -0.206 F 
ATOM     94  C   UNL A   1      44.896  33.755  27.790  1.00  0.00     0.006 A 
ENDBRANCH  70  87
ENDBRANCH  44  45
ENDBRANCH  36  39
ENDBRANCH  34  35
ENDBRANCH  33  34
ENDBRANCH  32  33
ENDBRANCH  31  32
ENDBRANCH   1  31
TORSDOF 18
ENDMDL
