MODEL 1
REMARK VINA RESULT:     -12.8      0.000      0.000
REMARK SMILES O=C(NCCCCCCNC(=O)c1sccc1S(=O)(=O)Nc1ccc(-c2nc3ccccc3n2C(F)F)cc1)c1ccc(-c2c3nc(c(-c4c(F)cccc4F)c4ccc([nH]4)c(-c4c(F)cccc4F)c4nc(c(-c5c(F)cccc5F)c5ccc2[nH]5)C=C4)C=C3)cc1
REMARK SMILES IDX 8 1 7 2 6 3 5 4 4 5 3 6 1 7 2 8 40 10 41 11 93 12 42 13
REMARK SMILES IDX 92 14 43 15 44 16 45 17 86 18 46 19 91 20 85 21 87 22 47 23
REMARK SMILES IDX 90 24 84 25 83 26 48 28 74 29 57 30 73 31 58 32 61 33 72 34
REMARK SMILES IDX 88 35 59 36 60 37 71 39 89 40 62 41 49 42 50 43 55 44 51 45
REMARK SMILES IDX 52 46 54 47 56 48 53 49 75 50 76 51 81 52 77 53 78 54 80 55
REMARK SMILES IDX 82 56 79 57 63 58 64 59 69 60 65 61 66 62 68 63 70 64 67 65
REMARK SMILES IDX 9 66 10 67 11 68 12 70 13 71 14 72 17 73 15 74 16 75 18 76
REMARK SMILES IDX 19 77 20 78 21 79 22 81 23 82 39 83 24 84 38 85 25 86 26 87
REMARK SMILES IDX 27 88 34 89 28 90 33 91 29 92 32 93 30 94 31 95 35 96 36 97
REMARK SMILES IDX 37 98
REMARK H PARENT 3 9 87 27 61 38 10 69 21 80
REMARK Flexibility Score: inf
ROOT
ATOM      1  C   UNL A   1      33.900  27.430  25.759  1.00  0.00     0.021 C 
ENDROOT
BRANCH   1   2
ATOM      2  C   UNL A   1      32.814  27.854  26.759  1.00  0.00     0.002 C 
BRANCH   2   3
ATOM      3  C   UNL A   1      31.938  29.036  26.326  1.00  0.00     0.002 C 
BRANCH   3   4
ATOM      4  C   UNL A   1      32.189  30.362  27.057  1.00  0.00     0.021 C 
BRANCH   4   5
ATOM      5  C   UNL A   1      33.663  30.727  27.224  1.00  0.00     0.116 C 
BRANCH   5   6
ATOM      6  N   UNL A   1      33.911  31.592  28.354  1.00  0.00    -0.352 N 
ATOM      7  O   UNL A   1      34.831  32.730  29.999  1.00  0.00    -0.269 OA
ATOM      8  C   UNL A   1      34.958  31.792  29.206  1.00  0.00     0.251 C 
ATOM      9  H   UNL A   1      33.144  32.174  28.558  1.00  0.00     0.163 HD
BRANCH   8  10
ATOM     10  C   UNL A   1      36.184  30.952  29.285  1.00  0.00     0.039 A 
ATOM     11  C   UNL A   1      36.233  29.574  29.504  1.00  0.00     0.014 A 
ATOM     12  C   UNL A   1      37.401  31.651  29.157  1.00  0.00     0.014 A 
ATOM     13  C   UNL A   1      37.459  28.929  29.655  1.00  0.00     0.010 A 
ATOM     14  C   UNL A   1      38.626  31.012  29.299  1.00  0.00     0.010 A 
ATOM     15  C   UNL A   1      38.654  29.653  29.585  1.00  0.00    -0.014 A 
BRANCH  15  16
ATOM     16  C   UNL A   1      39.917  28.921  29.661  1.00  0.00     0.031 A 
ATOM     17  C   UNL A   1      40.479  28.805  31.040  1.00  0.00     0.074 A 
ATOM     18  C   UNL A   1      40.479  28.271  28.621  1.00  0.00     0.049 A 
ATOM     19  N   UNL A   1      41.611  29.247  31.484  1.00  0.00    -0.248 NA
ATOM     20  C   UNL A   1      39.624  28.210  32.080  1.00  0.00     0.031 C 
ATOM     21  C   UNL A   1      39.927  28.031  27.286  1.00  0.00     0.029 A 
ATOM     22  N   UNL A   1      41.669  27.606  28.578  1.00  0.00    -0.354 N 
ATOM     23  C   UNL A   1      41.689  28.845  32.817  1.00  0.00     0.074 A 
ATOM     24  C   UNL A   1      40.395  28.319  33.163  1.00  0.00     0.031 C 
ATOM     25  C   UNL A   1      40.677  27.100  26.649  1.00  0.00     0.029 A 
ATOM     26  C   UNL A   1      41.838  26.789  27.467  1.00  0.00     0.049 A 
ATOM     27  H   UNL A   1      42.354  27.696  29.280  1.00  0.00     0.167 HD
ATOM     28  C   UNL A   1      42.873  28.804  33.489  1.00  0.00     0.037 A 
ATOM     29  C   UNL A   1      42.838  25.895  27.259  1.00  0.00     0.037 A 
ATOM     30  C   UNL A   1      43.872  29.614  32.848  1.00  0.00     0.049 A 
ATOM     31  C   UNL A   1      43.958  26.258  28.160  1.00  0.00     0.074 A 
ATOM     32  C   UNL A   1      43.995  30.962  32.569  1.00  0.00     0.029 A 
ATOM     33  N   UNL A   1      44.805  28.989  32.058  1.00  0.00    -0.354 N 
ATOM     34  N   UNL A   1      44.680  27.334  28.027  1.00  0.00    -0.248 NA
ATOM     35  C   UNL A   1      43.983  25.644  29.478  1.00  0.00     0.031 C 
ATOM     36  C   UNL A   1      44.604  31.013  31.281  1.00  0.00     0.029 A 
ATOM     37  C   UNL A   1      44.877  29.702  30.890  1.00  0.00     0.049 A 
ATOM     38  H   UNL A   1      45.323  28.184  32.288  1.00  0.00     0.167 HD
ATOM     39  C   UNL A   1      44.888  27.777  29.324  1.00  0.00     0.074 A 
ATOM     40  C   UNL A   1      44.501  26.656  30.177  1.00  0.00     0.031 C 
ATOM     41  C   UNL A   1      45.088  29.099  29.596  1.00  0.00     0.037 A 
BRANCH  28  42
ATOM     42  C   UNL A   1      43.221  27.776  34.536  1.00  0.00     0.057 A 
ATOM     43  C   UNL A   1      43.437  26.439  34.157  1.00  0.00     0.134 A 
ATOM     44  C   UNL A   1      43.063  27.987  35.920  1.00  0.00     0.134 A 
ATOM     45  F   UNL A   1      43.585  26.103  32.865  1.00  0.00    -0.206 F 
ATOM     46  C   UNL A   1      43.429  25.384  35.080  1.00  0.00     0.040 A 
ATOM     47  C   UNL A   1      43.100  26.950  36.855  1.00  0.00     0.040 A 
ATOM     48  F   UNL A   1      42.762  29.189  36.428  1.00  0.00    -0.206 F 
ATOM     49  C   UNL A   1      43.253  25.638  36.434  1.00  0.00     0.006 A 
ENDBRANCH  28  42
BRANCH  29  50
ATOM     50  C   UNL A   1      42.786  24.574  26.590  1.00  0.00     0.057 A 
ATOM     51  C   UNL A   1      43.453  24.339  25.378  1.00  0.00     0.134 A 
ATOM     52  C   UNL A   1      42.335  23.434  27.276  1.00  0.00     0.134 A 
ATOM     53  F   UNL A   1      43.963  25.359  24.673  1.00  0.00    -0.206 F 
ATOM     54  C   UNL A   1      43.681  23.044  24.889  1.00  0.00     0.040 A 
ATOM     55  C   UNL A   1      42.553  22.136  26.799  1.00  0.00     0.040 A 
ATOM     56  F   UNL A   1      41.754  23.538  28.479  1.00  0.00    -0.206 F 
ATOM     57  C   UNL A   1      43.241  21.937  25.607  1.00  0.00     0.006 A 
ENDBRANCH  29  50
BRANCH  41  58
ATOM     58  C   UNL A   1      45.300  30.035  28.436  1.00  0.00     0.057 A 
ATOM     59  C   UNL A   1      44.264  30.686  27.748  1.00  0.00     0.134 A 
ATOM     60  C   UNL A   1      46.607  30.410  28.109  1.00  0.00     0.134 A 
ATOM     61  F   UNL A   1      42.979  30.469  28.057  1.00  0.00    -0.206 F 
ATOM     62  C   UNL A   1      44.521  31.636  26.755  1.00  0.00     0.040 A 
ATOM     63  C   UNL A   1      46.876  31.382  27.144  1.00  0.00     0.040 A 
ATOM     64  F   UNL A   1      47.648  29.871  28.763  1.00  0.00    -0.206 F 
ATOM     65  C   UNL A   1      45.831  31.993  26.455  1.00  0.00     0.006 A 
ENDBRANCH  41  58
ENDBRANCH  15  16
ENDBRANCH   8  10
ENDBRANCH   5   6
ENDBRANCH   4   5
ENDBRANCH   3   4
ENDBRANCH   2   3
ENDBRANCH   1   2
BRANCH   1  66
ATOM     66  C   UNL A   1      34.121  25.925  25.694  1.00  0.00     0.116 C 
BRANCH  66  67
ATOM     67  N   UNL A   1      33.842  25.430  24.367  1.00  0.00    -0.351 N 
ATOM     68  C   UNL A   1      34.334  24.328  23.726  1.00  0.00     0.262 C 
ATOM     69  H   UNL A   1      33.201  25.966  23.846  1.00  0.00     0.163 HD
ATOM     70  O   UNL A   1      34.132  24.264  22.512  1.00  0.00    -0.268 OA
BRANCH  68  71
ATOM     71  C   UNL A   1      35.112  23.356  24.457  1.00  0.00     0.112 A 
ATOM     72  S   UNL A   1      36.767  23.242  23.959  1.00  0.00    -0.137 S 
ATOM     73  C   UNL A   1      34.832  22.436  25.455  1.00  0.00     0.111 A 
ATOM     74  C   UNL A   1      37.132  22.081  25.144  1.00  0.00     0.067 A 
ATOM     75  C   UNL A   1      36.022  21.743  25.878  1.00  0.00     0.035 A 
BRANCH  73  76
ATOM     76  S   UNL A   1      33.323  22.025  26.218  1.00  0.00     0.263 S 
ATOM     77  O   UNL A   1      33.578  20.702  26.755  1.00  0.00    -0.201 OA
ATOM     78  O   UNL A   1      33.109  23.146  27.106  1.00  0.00    -0.201 OA
BRANCH  76  79
ATOM     79  N   UNL A   1      31.957  21.948  25.283  1.00  0.00    -0.280 N 
ATOM     80  H   UNL A   1      31.675  21.053  24.984  1.00  0.00     0.180 HD
BRANCH  79  81
ATOM     81  C   UNL A   1      31.157  23.034  24.872  1.00  0.00     0.049 A 
ATOM     82  C   UNL A   1      30.761  23.925  25.875  1.00  0.00     0.027 A 
ATOM     83  C   UNL A   1      30.892  23.336  23.549  1.00  0.00     0.027 A 
ATOM     84  C   UNL A   1      30.290  25.204  25.555  1.00  0.00     0.014 A 
ATOM     85  C   UNL A   1      30.409  24.608  23.236  1.00  0.00     0.014 A 
ATOM     86  C   UNL A   1      30.170  25.592  24.222  1.00  0.00     0.018 A 
BRANCH  86  87
ATOM     87  C   UNL A   1      29.867  26.954  23.738  1.00  0.00     0.145 A 
ATOM     88  N   UNL A   1      28.643  27.449  23.837  1.00  0.00    -0.228 NA
ATOM     89  N   UNL A   1      30.661  27.851  23.038  1.00  0.00    -0.266 N 
ATOM     90  C   UNL A   1      28.603  28.580  23.085  1.00  0.00     0.089 A 
ATOM     91  C   UNL A   1      29.848  28.859  22.542  1.00  0.00     0.074 A 
ATOM     92  C   UNL A   1      27.512  29.414  22.817  1.00  0.00     0.030 A 
ATOM     93  C   UNL A   1      30.059  29.963  21.702  1.00  0.00     0.029 A 
ATOM     94  C   UNL A   1      27.702  30.522  21.991  1.00  0.00     0.002 A 
ATOM     95  C   UNL A   1      28.956  30.788  21.439  1.00  0.00     0.002 A 
BRANCH  89  96
ATOM     96  C   UNL A   1      32.094  27.811  22.848  1.00  0.00     0.451 C 
ATOM     97  F   UNL A   1      32.439  26.963  21.842  1.00  0.00    -0.185 F 
ATOM     98  F   UNL A   1      32.610  29.029  22.537  1.00  0.00    -0.185 F 
ENDBRANCH  89  96
ENDBRANCH  86  87
ENDBRANCH  79  81
ENDBRANCH  76  79
ENDBRANCH  73  76
ENDBRANCH  68  71
ENDBRANCH  66  67
ENDBRANCH   1  66
TORSDOF 18
ENDMDL
MODEL 2
REMARK VINA RESULT:     -12.5      2.787      7.587
REMARK SMILES O=C(NCCCCCCNC(=O)c1sccc1S(=O)(=O)Nc1ccc(-c2nc3ccccc3n2C(F)F)cc1)c1ccc(-c2c3nc(c(-c4c(F)cccc4F)c4ccc([nH]4)c(-c4c(F)cccc4F)c4nc(c(-c5c(F)cccc5F)c5ccc2[nH]5)C=C4)C=C3)cc1
REMARK SMILES IDX 8 1 7 2 6 3 5 4 4 5 3 6 1 7 2 8 40 10 41 11 93 12 42 13
REMARK SMILES IDX 92 14 43 15 44 16 45 17 86 18 46 19 91 20 85 21 87 22 47 23
REMARK SMILES IDX 90 24 84 25 83 26 48 28 74 29 57 30 73 31 58 32 61 33 72 34
REMARK SMILES IDX 88 35 59 36 60 37 71 39 89 40 62 41 49 42 50 43 55 44 51 45
REMARK SMILES IDX 52 46 54 47 56 48 53 49 75 50 76 51 81 52 77 53 78 54 80 55
REMARK SMILES IDX 82 56 79 57 63 58 64 59 69 60 65 61 66 62 68 63 70 64 67 65
REMARK SMILES IDX 9 66 10 67 11 68 12 70 13 71 14 72 17 73 15 74 16 75 18 76
REMARK SMILES IDX 19 77 20 78 21 79 22 81 23 82 39 83 24 84 38 85 25 86 26 87
REMARK SMILES IDX 27 88 34 89 28 90 33 91 29 92 32 93 30 94 31 95 35 96 36 97
REMARK SMILES IDX 37 98
REMARK H PARENT 3 9 87 27 61 38 10 69 21 80
REMARK Flexibility Score: inf
ROOT
ATOM      1  C   UNL A   1      36.298  22.865  24.840  1.00  0.00     0.021 C 
ENDROOT
BRANCH   1   2
ATOM      2  C   UNL A   1      36.851  23.664  26.029  1.00  0.00     0.002 C 
BRANCH   2   3
ATOM      3  C   UNL A   1      38.375  23.637  26.196  1.00  0.00     0.002 C 
BRANCH   3   4
ATOM      4  C   UNL A   1      39.025  22.247  26.208  1.00  0.00     0.021 C 
BRANCH   4   5
ATOM      5  C   UNL A   1      40.427  22.205  26.812  1.00  0.00     0.116 C 
BRANCH   5   6
ATOM      6  N   UNL A   1      41.464  22.570  25.875  1.00  0.00    -0.352 N 
ATOM      7  O   UNL A   1      43.148  23.535  24.837  1.00  0.00    -0.269 OA
ATOM      8  C   UNL A   1      42.289  23.645  25.717  1.00  0.00     0.251 C 
ATOM      9  H   UNL A   1      41.608  21.882  25.186  1.00  0.00     0.163 HD
BRANCH   8  10
ATOM     10  C   UNL A   1      42.198  24.926  26.470  1.00  0.00     0.039 A 
ATOM     11  C   UNL A   1      42.877  25.246  27.647  1.00  0.00     0.014 A 
ATOM     12  C   UNL A   1      41.305  25.876  25.934  1.00  0.00     0.014 A 
ATOM     13  C   UNL A   1      42.620  26.449  28.302  1.00  0.00     0.010 A 
ATOM     14  C   UNL A   1      41.051  27.079  26.579  1.00  0.00     0.010 A 
ATOM     15  C   UNL A   1      41.684  27.352  27.785  1.00  0.00    -0.014 A 
BRANCH  15  16
ATOM     16  C   UNL A   1      41.514  28.638  28.457  1.00  0.00     0.031 A 
ATOM     17  C   UNL A   1      42.635  29.601  28.237  1.00  0.00     0.074 A 
ATOM     18  C   UNL A   1      40.391  29.010  29.107  1.00  0.00     0.049 A 
ATOM     19  N   UNL A   1      43.420  30.131  29.118  1.00  0.00    -0.248 NA
ATOM     20  C   UNL A   1      42.987  29.934  26.848  1.00  0.00     0.031 C 
ATOM     21  C   UNL A   1      39.101  28.322  29.171  1.00  0.00     0.029 A 
ATOM     22  N   UNL A   1      40.154  30.159  29.802  1.00  0.00    -0.354 N 
ATOM     23  C   UNL A   1      44.264  30.993  28.417  1.00  0.00     0.074 A 
ATOM     24  C   UNL A   1      44.034  30.743  27.018  1.00  0.00     0.031 C 
ATOM     25  C   UNL A   1      38.166  29.162  29.675  1.00  0.00     0.029 A 
ATOM     26  C   UNL A   1      38.817  30.389  30.104  1.00  0.00     0.049 A 
ATOM     27  H   UNL A   1      40.872  30.778  30.068  1.00  0.00     0.167 HD
ATOM     28  C   UNL A   1      44.959  31.985  29.041  1.00  0.00     0.037 A 
ATOM     29  C   UNL A   1      38.285  31.522  30.630  1.00  0.00     0.037 A 
ATOM     30  C   UNL A   1      45.072  31.743  30.453  1.00  0.00     0.049 A 
ATOM     31  C   UNL A   1      39.388  32.284  31.263  1.00  0.00     0.074 A 
ATOM     32  C   UNL A   1      45.652  30.754  31.224  1.00  0.00     0.029 A 
ATOM     33  N   UNL A   1      44.221  32.415  31.295  1.00  0.00    -0.354 N 
ATOM     34  N   UNL A   1      40.019  31.895  32.334  1.00  0.00    -0.248 NA
ATOM     35  C   UNL A   1      40.088  33.258  30.440  1.00  0.00     0.031 C 
ATOM     36  C   UNL A   1      44.746  30.560  32.308  1.00  0.00     0.029 A 
ATOM     37  C   UNL A   1      43.713  31.487  32.167  1.00  0.00     0.049 A 
ATOM     38  H   UNL A   1      44.016  33.377  31.276  1.00  0.00     0.167 HD
ATOM     39  C   UNL A   1      41.345  32.223  32.097  1.00  0.00     0.074 A 
ATOM     40  C   UNL A   1      41.315  33.128  30.950  1.00  0.00     0.031 C 
ATOM     41  C   UNL A   1      42.362  31.518  32.671  1.00  0.00     0.037 A 
BRANCH  28  42
ATOM     42  C   UNL A   1      45.251  33.332  28.429  1.00  0.00     0.057 A 
ATOM     43  C   UNL A   1      44.188  34.170  28.046  1.00  0.00     0.134 A 
ATOM     44  C   UNL A   1      46.517  33.707  27.936  1.00  0.00     0.134 A 
ATOM     45  F   UNL A   1      42.930  33.910  28.434  1.00  0.00    -0.206 F 
ATOM     46  C   UNL A   1      44.364  35.260  27.182  1.00  0.00     0.040 A 
ATOM     47  C   UNL A   1      46.711  34.819  27.113  1.00  0.00     0.040 A 
ATOM     48  F   UNL A   1      47.611  32.962  28.139  1.00  0.00    -0.206 F 
ATOM     49  C   UNL A   1      45.628  35.583  26.707  1.00  0.00     0.006 A 
ENDBRANCH  28  42
BRANCH  29  50
ATOM     50  C   UNL A   1      36.975  32.155  30.351  1.00  0.00     0.057 A 
ATOM     51  C   UNL A   1      35.906  32.056  31.255  1.00  0.00     0.134 A 
ATOM     52  C   UNL A   1      36.839  33.121  29.340  1.00  0.00     0.134 A 
ATOM     53  F   UNL A   1      35.962  31.197  32.283  1.00  0.00    -0.206 F 
ATOM     54  C   UNL A   1      34.779  32.887  31.174  1.00  0.00     0.040 A 
ATOM     55  C   UNL A   1      35.718  33.955  29.245  1.00  0.00     0.040 A 
ATOM     56  F   UNL A   1      37.831  33.353  28.470  1.00  0.00    -0.206 F 
ATOM     57  C   UNL A   1      34.688  33.849  30.173  1.00  0.00     0.006 A 
ENDBRANCH  29  50
BRANCH  41  58
ATOM     58  C   UNL A   1      42.012  30.520  33.742  1.00  0.00     0.057 A 
ATOM     59  C   UNL A   1      41.670  29.181  33.491  1.00  0.00     0.134 A 
ATOM     60  C   UNL A   1      42.183  30.886  35.081  1.00  0.00     0.134 A 
ATOM     61  F   UNL A   1      41.580  28.708  32.242  1.00  0.00    -0.206 F 
ATOM     62  C   UNL A   1      41.468  28.264  34.527  1.00  0.00     0.040 A 
ATOM     63  C   UNL A   1      42.018  29.972  36.123  1.00  0.00     0.040 A 
ATOM     64  F   UNL A   1      42.564  32.134  35.396  1.00  0.00    -0.206 F 
ATOM     65  C   UNL A   1      41.651  28.657  35.849  1.00  0.00     0.006 A 
ENDBRANCH  41  58
ENDBRANCH  15  16
ENDBRANCH   8  10
ENDBRANCH   5   6
ENDBRANCH   4   5
ENDBRANCH   3   4
ENDBRANCH   2   3
ENDBRANCH   1   2
BRANCH   1  66
ATOM     66  C   UNL A   1      35.607  21.569  25.238  1.00  0.00     0.116 C 
BRANCH  66  67
ATOM     67  N   UNL A   1      34.467  21.843  26.082  1.00  0.00    -0.351 N 
ATOM     68  C   UNL A   1      33.175  21.412  25.968  1.00  0.00     0.262 C 
ATOM     69  H   UNL A   1      34.648  22.427  26.854  1.00  0.00     0.163 HD
ATOM     70  O   UNL A   1      32.343  21.988  26.671  1.00  0.00    -0.268 OA
BRANCH  68  71
ATOM     71  C   UNL A   1      32.837  20.390  25.006  1.00  0.00     0.112 A 
ATOM     72  S   UNL A   1      33.018  18.770  25.590  1.00  0.00    -0.137 S 
ATOM     73  C   UNL A   1      32.437  20.397  23.679  1.00  0.00     0.111 A 
ATOM     74  C   UNL A   1      32.447  18.094  24.140  1.00  0.00     0.067 A 
ATOM     75  C   UNL A   1      32.165  19.062  23.209  1.00  0.00     0.035 A 
BRANCH  73  76
ATOM     76  S   UNL A   1      32.237  21.720  22.569  1.00  0.00     0.263 S 
ATOM     77  O   UNL A   1      33.497  22.431  22.676  1.00  0.00    -0.201 OA
ATOM     78  O   UNL A   1      31.882  21.043  21.341  1.00  0.00    -0.201 OA
BRANCH  76  79
ATOM     79  N   UNL A   1      31.011  22.802  22.835  1.00  0.00    -0.280 N 
ATOM     80  H   UNL A   1      30.095  22.485  22.661  1.00  0.00     0.180 HD
BRANCH  79  81
ATOM     81  C   UNL A   1      31.145  24.131  23.286  1.00  0.00     0.049 A 
ATOM     82  C   UNL A   1      30.810  24.367  24.624  1.00  0.00     0.027 A 
ATOM     83  C   UNL A   1      31.725  25.141  22.541  1.00  0.00     0.027 A 
ATOM     84  C   UNL A   1      31.236  25.530  25.277  1.00  0.00     0.014 A 
ATOM     85  C   UNL A   1      32.137  26.304  23.195  1.00  0.00     0.014 A 
ATOM     86  C   UNL A   1      31.969  26.492  24.586  1.00  0.00     0.018 A 
BRANCH  86  87
ATOM     87  C   UNL A   1      32.638  27.667  25.180  1.00  0.00     0.145 A 
ATOM     88  N   UNL A   1      33.764  27.530  25.862  1.00  0.00    -0.228 NA
ATOM     89  N   UNL A   1      32.219  28.987  25.262  1.00  0.00    -0.266 N 
ATOM     90  C   UNL A   1      33.995  28.707  26.501  1.00  0.00     0.089 A 
ATOM     91  C   UNL A   1      33.032  29.647  26.171  1.00  0.00     0.074 A 
ATOM     92  C   UNL A   1      35.020  29.028  27.398  1.00  0.00     0.030 A 
ATOM     93  C   UNL A   1      33.035  30.936  26.726  1.00  0.00     0.029 A 
ATOM     94  C   UNL A   1      35.047  30.307  27.955  1.00  0.00     0.002 A 
ATOM     95  C   UNL A   1      34.066  31.243  27.625  1.00  0.00     0.002 A 
BRANCH  89  96
ATOM     96  C   UNL A   1      31.148  29.628  24.531  1.00  0.00     0.451 C 
ATOM     97  F   UNL A   1      30.088  28.791  24.368  1.00  0.00    -0.185 F 
ATOM     98  F   UNL A   1      30.684  30.740  25.161  1.00  0.00    -0.185 F 
ENDBRANCH  89  96
ENDBRANCH  86  87
ENDBRANCH  79  81
ENDBRANCH  76  79
ENDBRANCH  73  76
ENDBRANCH  68  71
ENDBRANCH  66  67
ENDBRANCH   1  66
TORSDOF 18
ENDMDL
MODEL 3
REMARK VINA RESULT:     -11.9      2.076      5.595
REMARK SMILES O=C(NCCCCCCNC(=O)c1sccc1S(=O)(=O)Nc1ccc(-c2nc3ccccc3n2C(F)F)cc1)c1ccc(-c2c3nc(c(-c4c(F)cccc4F)c4ccc([nH]4)c(-c4c(F)cccc4F)c4nc(c(-c5c(F)cccc5F)c5ccc2[nH]5)C=C4)C=C3)cc1
REMARK SMILES IDX 8 1 7 2 6 3 5 4 4 5 3 6 1 7 2 8 40 10 41 11 93 12 42 13
REMARK SMILES IDX 92 14 43 15 44 16 45 17 86 18 46 19 91 20 85 21 87 22 47 23
REMARK SMILES IDX 90 24 84 25 83 26 48 28 74 29 57 30 73 31 58 32 61 33 72 34
REMARK SMILES IDX 88 35 59 36 60 37 71 39 89 40 62 41 49 42 50 43 55 44 51 45
REMARK SMILES IDX 52 46 54 47 56 48 53 49 75 50 76 51 81 52 77 53 78 54 80 55
REMARK SMILES IDX 82 56 79 57 63 58 64 59 69 60 65 61 66 62 68 63 70 64 67 65
REMARK SMILES IDX 9 66 10 67 11 68 12 70 13 71 14 72 17 73 15 74 16 75 18 76
REMARK SMILES IDX 19 77 20 78 21 79 22 81 23 82 39 83 24 84 38 85 25 86 26 87
REMARK SMILES IDX 27 88 34 89 28 90 33 91 29 92 32 93 30 94 31 95 35 96 36 97
REMARK SMILES IDX 37 98
REMARK H PARENT 3 9 87 27 61 38 10 69 21 80
REMARK Flexibility Score: inf
ROOT
ATOM      1  C   UNL A   1      31.760  28.252  27.407  1.00  0.00     0.021 C 
ENDROOT
BRANCH   1   2
ATOM      2  C   UNL A   1      31.669  29.386  26.376  1.00  0.00     0.002 C 
BRANCH   2   3
ATOM      3  C   UNL A   1      32.981  30.125  26.085  1.00  0.00     0.002 C 
BRANCH   3   4
ATOM      4  C   UNL A   1      33.963  30.238  27.258  1.00  0.00     0.021 C 
BRANCH   4   5
ATOM      5  C   UNL A   1      34.353  31.668  27.627  1.00  0.00     0.116 C 
BRANCH   5   6
ATOM      6  N   UNL A   1      34.223  31.949  29.038  1.00  0.00    -0.352 N 
ATOM      7  O   UNL A   1      34.598  32.347  31.170  1.00  0.00    -0.269 OA
ATOM      8  C   UNL A   1      35.063  31.912  30.111  1.00  0.00     0.251 C 
ATOM      9  H   UNL A   1      33.312  32.233  29.283  1.00  0.00     0.163 HD
BRANCH   8  10
ATOM     10  C   UNL A   1      36.442  31.352  30.115  1.00  0.00     0.039 A 
ATOM     11  C   UNL A   1      37.630  32.074  30.228  1.00  0.00     0.014 A 
ATOM     12  C   UNL A   1      36.523  29.954  29.953  1.00  0.00     0.014 A 
ATOM     13  C   UNL A   1      38.860  31.427  30.115  1.00  0.00     0.010 A 
ATOM     14  C   UNL A   1      37.745  29.304  29.847  1.00  0.00     0.010 A 
ATOM     15  C   UNL A   1      38.918  30.047  29.893  1.00  0.00    -0.014 A 
BRANCH  15  16
ATOM     16  C   UNL A   1      40.227  29.400  29.871  1.00  0.00     0.031 A 
ATOM     17  C   UNL A   1      40.777  29.076  31.222  1.00  0.00     0.074 A 
ATOM     18  C   UNL A   1      40.849  28.987  28.747  1.00  0.00     0.049 A 
ATOM     19  N   UNL A   1      41.868  29.506  31.767  1.00  0.00    -0.248 NA
ATOM     20  C   UNL A   1      39.952  28.247  32.115  1.00  0.00     0.031 C 
ATOM     21  C   UNL A   1      40.335  28.956  27.376  1.00  0.00     0.029 A 
ATOM     22  N   UNL A   1      42.084  28.422  28.617  1.00  0.00    -0.354 N 
ATOM     23  C   UNL A   1      41.957  28.876  33.009  1.00  0.00     0.074 A 
ATOM     24  C   UNL A   1      40.698  28.210  33.220  1.00  0.00     0.031 C 
ATOM     25  C   UNL A   1      41.157  28.207  26.603  1.00  0.00     0.029 A 
ATOM     26  C   UNL A   1      42.326  27.832  27.383  1.00  0.00     0.049 A 
ATOM     27  H   UNL A   1      42.751  28.430  29.342  1.00  0.00     0.167 HD
ATOM     28  C   UNL A   1      43.131  28.795  33.694  1.00  0.00     0.037 A 
ATOM     29  C   UNL A   1      43.390  27.060  27.045  1.00  0.00     0.037 A 
ATOM     30  C   UNL A   1      44.079  29.772  33.234  1.00  0.00     0.049 A 
ATOM     31  C   UNL A   1      44.469  27.329  28.026  1.00  0.00     0.074 A 
ATOM     32  C   UNL A   1      44.109  31.153  33.204  1.00  0.00     0.029 A 
ATOM     33  N   UNL A   1      45.065  29.364  32.371  1.00  0.00    -0.354 N 
ATOM     34  N   UNL A   1      45.114  28.458  28.106  1.00  0.00    -0.248 NA
ATOM     35  C   UNL A   1      44.518  26.491  29.213  1.00  0.00     0.031 C 
ATOM     36  C   UNL A   1      44.732  31.477  31.963  1.00  0.00     0.029 A 
ATOM     37  C   UNL A   1      45.102  30.279  31.351  1.00  0.00     0.049 A 
ATOM     38  H   UNL A   1      45.635  28.567  32.467  1.00  0.00     0.167 HD
ATOM     39  C   UNL A   1      45.271  28.673  29.467  1.00  0.00     0.074 A 
ATOM     40  C   UNL A   1      44.953  27.393  30.096  1.00  0.00     0.031 C 
ATOM     41  C   UNL A   1      45.373  29.935  29.976  1.00  0.00     0.037 A 
BRANCH  28  42
ATOM     42  C   UNL A   1      43.536  27.621  34.549  1.00  0.00     0.057 A 
ATOM     43  C   UNL A   1      43.550  26.327  33.997  1.00  0.00     0.134 A 
ATOM     44  C   UNL A   1      43.626  27.673  35.954  1.00  0.00     0.134 A 
ATOM     45  F   UNL A   1      43.451  26.141  32.671  1.00  0.00    -0.206 F 
ATOM     46  C   UNL A   1      43.583  25.172  34.790  1.00  0.00     0.040 A 
ATOM     47  C   UNL A   1      43.708  26.529  36.752  1.00  0.00     0.040 A 
ATOM     48  F   UNL A   1      43.537  28.824  36.632  1.00  0.00    -0.206 F 
ATOM     49  C   UNL A   1      43.655  25.271  36.174  1.00  0.00     0.006 A 
ENDBRANCH  28  42
BRANCH  29  50
ATOM     50  C   UNL A   1      43.441  25.881  26.150  1.00  0.00     0.057 A 
ATOM     51  C   UNL A   1      44.496  25.693  25.243  1.00  0.00     0.134 A 
ATOM     52  C   UNL A   1      42.619  24.764  26.377  1.00  0.00     0.134 A 
ATOM     53  F   UNL A   1      45.364  26.685  24.995  1.00  0.00    -0.206 F 
ATOM     54  C   UNL A   1      44.735  24.460  24.619  1.00  0.00     0.040 A 
ATOM     55  C   UNL A   1      42.844  23.529  25.759  1.00  0.00     0.040 A 
ATOM     56  F   UNL A   1      41.629  24.809  27.280  1.00  0.00    -0.206 F 
ATOM     57  C   UNL A   1      43.914  23.369  24.886  1.00  0.00     0.006 A 
ENDBRANCH  29  50
BRANCH  41  58
ATOM     58  C   UNL A   1      45.535  31.076  29.009  1.00  0.00     0.057 A 
ATOM     59  C   UNL A   1      46.766  31.492  28.477  1.00  0.00     0.134 A 
ATOM     60  C   UNL A   1      44.386  31.671  28.477  1.00  0.00     0.134 A 
ATOM     61  F   UNL A   1      47.915  30.914  28.849  1.00  0.00    -0.206 F 
ATOM     62  C   UNL A   1      46.849  32.481  27.492  1.00  0.00     0.040 A 
ATOM     63  C   UNL A   1      44.453  32.635  27.468  1.00  0.00     0.040 A 
ATOM     64  F   UNL A   1      43.170  31.286  28.896  1.00  0.00    -0.206 F 
ATOM     65  C   UNL A   1      45.688  33.050  26.978  1.00  0.00     0.006 A 
ENDBRANCH  41  58
ENDBRANCH  15  16
ENDBRANCH   8  10
ENDBRANCH   5   6
ENDBRANCH   4   5
ENDBRANCH   3   4
ENDBRANCH   2   3
ENDBRANCH   1   2
BRANCH   1  66
ATOM     66  C   UNL A   1      32.495  27.019  26.902  1.00  0.00     0.116 C 
BRANCH  66  67
ATOM     67  N   UNL A   1      31.590  25.898  26.797  1.00  0.00    -0.351 N 
ATOM     68  C   UNL A   1      30.746  25.553  25.779  1.00  0.00     0.262 C 
ATOM     69  H   UNL A   1      31.580  25.293  27.573  1.00  0.00     0.163 HD
ATOM     70  O   UNL A   1      29.899  24.695  26.038  1.00  0.00    -0.268 OA
BRANCH  68  71
ATOM     71  C   UNL A   1      30.826  26.238  24.511  1.00  0.00     0.112 A 
ATOM     72  S   UNL A   1      29.463  27.245  24.154  1.00  0.00    -0.137 S 
ATOM     73  C   UNL A   1      31.735  26.246  23.465  1.00  0.00     0.111 A 
ATOM     74  C   UNL A   1      30.136  27.782  22.690  1.00  0.00     0.067 A 
ATOM     75  C   UNL A   1      31.347  27.185  22.442  1.00  0.00     0.035 A 
BRANCH  73  76
ATOM     76  S   UNL A   1      33.191  25.326  23.230  1.00  0.00     0.263 S 
ATOM     77  O   UNL A   1      33.391  25.389  21.794  1.00  0.00    -0.201 OA
ATOM     78  O   UNL A   1      34.119  25.979  24.127  1.00  0.00    -0.201 OA
BRANCH  76  79
ATOM     79  N   UNL A   1      33.204  23.731  23.681  1.00  0.00    -0.280 N 
ATOM     80  H   UNL A   1      32.334  23.271  23.707  1.00  0.00     0.180 HD
BRANCH  79  81
ATOM     81  C   UNL A   1      34.335  22.966  24.034  1.00  0.00     0.049 A 
ATOM     82  C   UNL A   1      35.399  22.980  23.125  1.00  0.00     0.027 A 
ATOM     83  C   UNL A   1      34.499  22.359  25.265  1.00  0.00     0.027 A 
ATOM     84  C   UNL A   1      36.681  22.575  23.514  1.00  0.00     0.014 A 
ATOM     85  C   UNL A   1      35.778  21.944  25.643  1.00  0.00     0.014 A 
ATOM     86  C   UNL A   1      36.907  22.111  24.808  1.00  0.00     0.018 A 
BRANCH  86  87
ATOM     87  C   UNL A   1      38.224  21.827  25.412  1.00  0.00     0.145 A 
ATOM     88  N   UNL A   1      38.862  20.699  25.140  1.00  0.00    -0.228 NA
ATOM     89  N   UNL A   1      38.932  22.524  26.381  1.00  0.00    -0.266 N 
ATOM     90  C   UNL A   1      39.889  20.593  26.023  1.00  0.00     0.089 A 
ATOM     91  C   UNL A   1      39.956  21.710  26.841  1.00  0.00     0.074 A 
ATOM     92  C   UNL A   1      40.801  19.543  26.182  1.00  0.00     0.030 A 
ATOM     93  C   UNL A   1      40.918  21.827  27.857  1.00  0.00     0.029 A 
ATOM     94  C   UNL A   1      41.771  19.643  27.180  1.00  0.00     0.002 A 
ATOM     95  C   UNL A   1      41.823  20.766  28.007  1.00  0.00     0.002 A 
BRANCH  89  96
ATOM     96  C   UNL A   1      38.708  23.873  26.848  1.00  0.00     0.451 C 
ATOM     97  F   UNL A   1      39.226  24.790  25.987  1.00  0.00    -0.185 F 
ATOM     98  F   UNL A   1      37.387  24.161  26.988  1.00  0.00    -0.185 F 
ENDBRANCH  89  96
ENDBRANCH  86  87
ENDBRANCH  79  81
ENDBRANCH  76  79
ENDBRANCH  73  76
ENDBRANCH  68  71
ENDBRANCH  66  67
ENDBRANCH   1  66
TORSDOF 18
ENDMDL
