MODEL 1
REMARK VINA RESULT:     -11.7      0.000      0.000
REMARK SMILES O=C(Cc1ccc(-c2cccc(F)c2F)cc1)NCCCCCCNC(=O)c1ccc(-c2c3nc(c(-c4c(F)cccc4F)c4ccc([nH]4)c(-c4c(F)cccc4F)c4nc(c(-c5c(F)cccc5F)c5ccc2[nH]5)C=C4)C=C3)cc1
REMARK SMILES IDX 21 1 20 2 19 3 18 4 1 5 2 6 3 8 4 9 5 10 17 11 6 12 16 13
REMARK SMILES IDX 7 14 8 15 9 16 14 17 10 18 12 19 15 20 11 21 13 22 22 23
REMARK SMILES IDX 23 24 24 25 25 26 26 27 27 29 28 30 29 31 81 32 30 33 80 34
REMARK SMILES IDX 31 35 32 36 33 37 74 38 34 39 79 40 73 41 75 42 35 43 78 44
REMARK SMILES IDX 72 45 71 46 36 48 62 49 45 50 61 51 46 52 49 53 60 54 76 55
REMARK SMILES IDX 47 56 48 57 59 59 77 60 50 61 37 62 38 63 43 64 39 65 40 66
REMARK SMILES IDX 42 67 44 68 41 69 63 70 64 71 69 72 65 73 66 74 68 75 70 76
REMARK SMILES IDX 67 77 51 78 52 79 57 80 53 81 54 82 56 83 58 84 55 85
REMARK H PARENT 18 7 25 28 75 47 49 58
REMARK Flexibility Score: inf
ROOT
ATOM      1  C   UNL A   1      31.766  28.882  26.760  1.00  0.00     0.002 C 
ENDROOT
BRANCH   1   2
ATOM      2  C   UNL A   1      33.110  28.148  26.856  1.00  0.00     0.021 C 
BRANCH   2   3
ATOM      3  C   UNL A   1      33.088  26.705  26.357  1.00  0.00     0.116 C 
BRANCH   3   4
ATOM      4  N   UNL A   1      32.062  26.494  25.359  1.00  0.00    -0.356 N 
ATOM      5  O   UNL A   1      31.940  24.213  25.588  1.00  0.00    -0.275 OA
ATOM      6  C   UNL A   1      31.540  25.252  25.068  1.00  0.00     0.224 C 
ATOM      7  H   UNL A   1      31.721  27.273  24.864  1.00  0.00     0.163 HD
BRANCH   6   8
ATOM      8  C   UNL A   1      30.469  25.245  23.987  1.00  0.00     0.135 C 
BRANCH   8   9
ATOM      9  C   UNL A   1      30.030  26.611  23.505  1.00  0.00    -0.039 A 
ATOM     10  C   UNL A   1      30.931  27.436  22.820  1.00  0.00     0.005 A 
ATOM     11  C   UNL A   1      28.717  27.062  23.692  1.00  0.00     0.005 A 
ATOM     12  C   UNL A   1      30.539  28.703  22.373  1.00  0.00     0.009 A 
ATOM     13  C   UNL A   1      28.332  28.334  23.258  1.00  0.00     0.009 A 
ATOM     14  C   UNL A   1      29.238  29.177  22.598  1.00  0.00    -0.015 A 
BRANCH  14  15
ATOM     15  C   UNL A   1      28.830  30.515  22.148  1.00  0.00     0.020 A 
ATOM     16  C   UNL A   1      28.258  30.705  20.875  1.00  0.00     0.012 A 
ATOM     17  C   UNL A   1      28.988  31.643  22.968  1.00  0.00     0.166 A 
ATOM     18  C   UNL A   1      27.857  31.974  20.444  1.00  0.00     0.004 A 
ATOM     19  C   UNL A   1      28.592  32.905  22.535  1.00  0.00     0.159 A 
ATOM     20  F   UNL A   1      29.535  31.517  24.189  1.00  0.00    -0.203 F 
ATOM     21  C   UNL A   1      28.025  33.078  21.277  1.00  0.00     0.042 A 
ATOM     22  F   UNL A   1      28.754  33.971  23.332  1.00  0.00    -0.204 F 
ENDBRANCH  14  15
ENDBRANCH   8   9
ENDBRANCH   6   8
ENDBRANCH   3   4
ENDBRANCH   2   3
ENDBRANCH   1   2
BRANCH   1  23
ATOM     23  C   UNL A   1      31.787  30.209  25.995  1.00  0.00     0.002 C 
BRANCH  23  24
ATOM     24  C   UNL A   1      31.635  31.469  26.851  1.00  0.00     0.021 C 
BRANCH  24  25
ATOM     25  C   UNL A   1      32.832  32.416  26.839  1.00  0.00     0.116 C 
BRANCH  25  26
ATOM     26  N   UNL A   1      32.517  33.732  27.373  1.00  0.00    -0.352 N 
ATOM     27  C   UNL A   1      33.070  34.400  28.436  1.00  0.00     0.251 C 
ATOM     28  H   UNL A   1      31.800  34.214  26.901  1.00  0.00     0.163 HD
ATOM     29  O   UNL A   1      32.575  35.460  28.820  1.00  0.00    -0.269 OA
BRANCH  27  30
ATOM     30  C   UNL A   1      34.243  33.845  29.148  1.00  0.00     0.039 A 
ATOM     31  C   UNL A   1      34.027  32.946  30.198  1.00  0.00     0.014 A 
ATOM     32  C   UNL A   1      35.545  34.213  28.803  1.00  0.00     0.014 A 
ATOM     33  C   UNL A   1      35.116  32.373  30.859  1.00  0.00     0.010 A 
ATOM     34  C   UNL A   1      36.632  33.591  29.418  1.00  0.00     0.010 A 
ATOM     35  C   UNL A   1      36.427  32.666  30.453  1.00  0.00    -0.014 A 
BRANCH  35  36
ATOM     36  C   UNL A   1      37.593  32.007  31.095  1.00  0.00     0.031 A 
ATOM     37  C   UNL A   1      38.350  30.923  30.378  1.00  0.00     0.074 A 
ATOM     38  C   UNL A   1      37.938  32.344  32.354  1.00  0.00     0.049 A 
ATOM     39  N   UNL A   1      39.370  30.214  30.791  1.00  0.00    -0.248 NA
ATOM     40  C   UNL A   1      37.883  30.575  29.027  1.00  0.00     0.031 C 
ATOM     41  C   UNL A   1      37.259  33.346  33.177  1.00  0.00     0.029 A 
ATOM     42  N   UNL A   1      38.945  31.877  33.160  1.00  0.00    -0.354 N 
ATOM     43  C   UNL A   1      39.653  29.324  29.762  1.00  0.00     0.074 A 
ATOM     44  C   UNL A   1      38.670  29.554  28.725  1.00  0.00     0.031 C 
ATOM     45  C   UNL A   1      37.888  33.442  34.359  1.00  0.00     0.029 A 
ATOM     46  C   UNL A   1      38.992  32.488  34.390  1.00  0.00     0.049 A 
ATOM     47  H   UNL A   1      39.574  31.173  32.884  1.00  0.00     0.167 HD
ATOM     48  C   UNL A   1      40.652  28.413  29.680  1.00  0.00     0.037 A 
ATOM     49  C   UNL A   1      39.833  32.302  35.425  1.00  0.00     0.037 A 
ATOM     50  C   UNL A   1      41.648  28.206  30.699  1.00  0.00     0.049 A 
ATOM     51  C   UNL A   1      40.932  31.284  35.310  1.00  0.00     0.074 A 
ATOM     52  C   UNL A   1      42.748  27.365  30.672  1.00  0.00     0.029 A 
ATOM     53  N   UNL A   1      41.663  28.843  31.930  1.00  0.00    -0.354 N 
ATOM     54  N   UNL A   1      41.237  30.506  34.300  1.00  0.00    -0.248 NA
ATOM     55  C   UNL A   1      41.807  31.123  36.480  1.00  0.00     0.031 C 
ATOM     56  C   UNL A   1      43.404  27.463  31.906  1.00  0.00     0.029 A 
ATOM     57  C   UNL A   1      42.736  28.395  32.684  1.00  0.00     0.049 A 
ATOM     58  H   UNL A   1      41.006  29.515  32.226  1.00  0.00     0.167 HD
ATOM     59  C   UNL A   1      42.354  29.784  34.700  1.00  0.00     0.074 A 
ATOM     60  C   UNL A   1      42.678  30.225  36.042  1.00  0.00     0.031 C 
ATOM     61  C   UNL A   1      43.050  28.844  34.017  1.00  0.00     0.037 A 
BRANCH  48  62
ATOM     62  C   UNL A   1      40.711  27.567  28.442  1.00  0.00     0.057 A 
ATOM     63  C   UNL A   1      41.481  27.933  27.330  1.00  0.00     0.134 A 
ATOM     64  C   UNL A   1      40.003  26.361  28.367  1.00  0.00     0.134 A 
ATOM     65  F   UNL A   1      42.175  29.082  27.332  1.00  0.00    -0.206 F 
ATOM     66  C   UNL A   1      41.518  27.148  26.176  1.00  0.00     0.040 A 
ATOM     67  C   UNL A   1      40.053  25.554  27.229  1.00  0.00     0.040 A 
ATOM     68  F   UNL A   1      39.252  25.946  29.398  1.00  0.00    -0.206 F 
ATOM     69  C   UNL A   1      40.805  25.951  26.126  1.00  0.00     0.006 A 
ENDBRANCH  48  62
BRANCH  49  70
ATOM     70  C   UNL A   1      39.696  33.131  36.648  1.00  0.00     0.057 A 
ATOM     71  C   UNL A   1      40.443  34.304  36.803  1.00  0.00     0.134 A 
ATOM     72  C   UNL A   1      38.827  32.776  37.684  1.00  0.00     0.134 A 
ATOM     73  F   UNL A   1      41.309  34.683  35.850  1.00  0.00    -0.206 F 
ATOM     74  C   UNL A   1      40.341  35.090  37.951  1.00  0.00     0.040 A 
ATOM     75  C   UNL A   1      38.698  33.563  38.829  1.00  0.00     0.040 A 
ATOM     76  F   UNL A   1      38.081  31.665  37.593  1.00  0.00    -0.206 F 
ATOM     77  C   UNL A   1      39.461  34.722  38.967  1.00  0.00     0.006 A 
ENDBRANCH  49  70
BRANCH  61  78
ATOM     78  C   UNL A   1      44.249  28.252  34.697  1.00  0.00     0.057 A 
ATOM     79  C   UNL A   1      45.515  28.844  34.609  1.00  0.00     0.134 A 
ATOM     80  C   UNL A   1      44.129  27.088  35.466  1.00  0.00     0.134 A 
ATOM     81  F   UNL A   1      45.700  29.951  33.875  1.00  0.00    -0.206 F 
ATOM     82  C   UNL A   1      46.627  28.284  35.244  1.00  0.00     0.040 A 
ATOM     83  C   UNL A   1      45.228  26.533  36.126  1.00  0.00     0.040 A 
ATOM     84  F   UNL A   1      42.943  26.476  35.597  1.00  0.00    -0.206 F 
ATOM     85  C   UNL A   1      46.483  27.128  36.009  1.00  0.00     0.006 A 
ENDBRANCH  61  78
ENDBRANCH  35  36
ENDBRANCH  27  30
ENDBRANCH  25  26
ENDBRANCH  24  25
ENDBRANCH  23  24
ENDBRANCH   1  23
TORSDOF 15
ENDMDL
MODEL 2
REMARK VINA RESULT:     -11.5      5.330     11.007
REMARK SMILES O=C(Cc1ccc(-c2cccc(F)c2F)cc1)NCCCCCCNC(=O)c1ccc(-c2c3nc(c(-c4c(F)cccc4F)c4ccc([nH]4)c(-c4c(F)cccc4F)c4nc(c(-c5c(F)cccc5F)c5ccc2[nH]5)C=C4)C=C3)cc1
REMARK SMILES IDX 21 1 20 2 19 3 18 4 1 5 2 6 3 8 4 9 5 10 17 11 6 12 16 13
REMARK SMILES IDX 7 14 8 15 9 16 14 17 10 18 12 19 15 20 11 21 13 22 22 23
REMARK SMILES IDX 23 24 24 25 25 26 26 27 27 29 28 30 29 31 81 32 30 33 80 34
REMARK SMILES IDX 31 35 32 36 33 37 74 38 34 39 79 40 73 41 75 42 35 43 78 44
REMARK SMILES IDX 72 45 71 46 36 48 62 49 45 50 61 51 46 52 49 53 60 54 76 55
REMARK SMILES IDX 47 56 48 57 59 59 77 60 50 61 37 62 38 63 43 64 39 65 40 66
REMARK SMILES IDX 42 67 44 68 41 69 63 70 64 71 69 72 65 73 66 74 68 75 70 76
REMARK SMILES IDX 67 77 51 78 52 79 57 80 53 81 54 82 56 83 58 84 55 85
REMARK H PARENT 18 7 25 28 75 47 49 58
REMARK Flexibility Score: inf
ROOT
ATOM      1  C   UNL A   1      35.151  34.409  34.304  1.00  0.00     0.002 C 
ENDROOT
BRANCH   1   2
ATOM      2  C   UNL A   1      36.649  34.083  34.236  1.00  0.00     0.021 C 
BRANCH   2   3
ATOM      3  C   UNL A   1      37.000  32.623  34.508  1.00  0.00     0.116 C 
BRANCH   3   4
ATOM      4  N   UNL A   1      38.428  32.423  34.630  1.00  0.00    -0.356 N 
ATOM      5  O   UNL A   1      38.367  30.130  34.700  1.00  0.00    -0.275 OA
ATOM      6  C   UNL A   1      39.011  31.177  34.688  1.00  0.00     0.224 C 
ATOM      7  H   UNL A   1      39.011  33.216  34.673  1.00  0.00     0.163 HD
BRANCH   6   8
ATOM      8  C   UNL A   1      40.527  31.184  34.814  1.00  0.00     0.135 C 
BRANCH   8   9
ATOM      9  C   UNL A   1      41.200  29.847  34.592  1.00  0.00    -0.039 A 
ATOM     10  C   UNL A   1      41.981  29.278  35.606  1.00  0.00     0.005 A 
ATOM     11  C   UNL A   1      41.026  29.133  33.399  1.00  0.00     0.005 A 
ATOM     12  C   UNL A   1      42.611  28.044  35.413  1.00  0.00     0.009 A 
ATOM     13  C   UNL A   1      41.670  27.908  33.203  1.00  0.00     0.009 A 
ATOM     14  C   UNL A   1      42.477  27.346  34.203  1.00  0.00    -0.015 A 
BRANCH  14  15
ATOM     15  C   UNL A   1      43.156  26.061  33.989  1.00  0.00     0.020 A 
ATOM     16  C   UNL A   1      44.028  25.878  32.899  1.00  0.00     0.012 A 
ATOM     17  C   UNL A   1      42.966  24.979  34.863  1.00  0.00     0.166 A 
ATOM     18  C   UNL A   1      44.686  24.660  32.694  1.00  0.00     0.004 A 
ATOM     19  C   UNL A   1      43.619  23.767  34.655  1.00  0.00     0.159 A 
ATOM     20  F   UNL A   1      42.139  25.099  35.915  1.00  0.00    -0.203 F 
ATOM     21  C   UNL A   1      44.480  23.601  33.576  1.00  0.00     0.042 A 
ATOM     22  F   UNL A   1      43.423  22.744  35.499  1.00  0.00    -0.204 F 
ENDBRANCH  14  15
ENDBRANCH   8   9
ENDBRANCH   6   8
ENDBRANCH   3   4
ENDBRANCH   2   3
ENDBRANCH   1   2
BRANCH   1  23
ATOM     23  C   UNL A   1      34.718  35.697  33.597  1.00  0.00     0.002 C 
BRANCH  23  24
ATOM     24  C   UNL A   1      33.480  35.578  32.706  1.00  0.00     0.021 C 
BRANCH  24  25
ATOM     25  C   UNL A   1      33.538  36.359  31.396  1.00  0.00     0.116 C 
BRANCH  25  26
ATOM     26  N   UNL A   1      32.803  35.714  30.320  1.00  0.00    -0.352 N 
ATOM     27  C   UNL A   1      33.197  34.715  29.465  1.00  0.00     0.251 C 
ATOM     28  H   UNL A   1      31.885  36.044  30.183  1.00  0.00     0.163 HD
ATOM     29  O   UNL A   1      32.473  34.390  28.525  1.00  0.00    -0.269 OA
BRANCH  27  30
ATOM     30  C   UNL A   1      34.502  34.042  29.647  1.00  0.00     0.039 A 
ATOM     31  C   UNL A   1      35.556  34.377  28.789  1.00  0.00     0.014 A 
ATOM     32  C   UNL A   1      34.692  33.075  30.637  1.00  0.00     0.014 A 
ATOM     33  C   UNL A   1      36.811  33.789  28.965  1.00  0.00     0.010 A 
ATOM     34  C   UNL A   1      35.960  32.538  30.854  1.00  0.00     0.010 A 
ATOM     35  C   UNL A   1      37.032  32.888  30.018  1.00  0.00    -0.014 A 
BRANCH  35  36
ATOM     36  C   UNL A   1      38.379  32.313  30.264  1.00  0.00     0.031 A 
ATOM     37  C   UNL A   1      39.379  33.045  31.115  1.00  0.00     0.074 A 
ATOM     38  C   UNL A   1      38.725  31.153  29.671  1.00  0.00     0.049 A 
ATOM     39  N   UNL A   1      40.611  32.715  31.413  1.00  0.00    -0.248 NA
ATOM     40  C   UNL A   1      38.946  34.330  31.686  1.00  0.00     0.031 C 
ATOM     41  C   UNL A   1      37.865  30.366  28.786  1.00  0.00     0.029 A 
ATOM     42  N   UNL A   1      39.894  30.437  29.723  1.00  0.00    -0.354 N 
ATOM     43  C   UNL A   1      41.105  33.757  32.188  1.00  0.00     0.074 A 
ATOM     44  C   UNL A   1      40.055  34.750  32.276  1.00  0.00     0.031 C 
ATOM     45  C   UNL A   1      38.523  29.260  28.405  1.00  0.00     0.029 A 
ATOM     46  C   UNL A   1      39.860  29.275  28.989  1.00  0.00     0.049 A 
ATOM     47  H   UNL A   1      40.681  30.727  30.237  1.00  0.00     0.167 HD
ATOM     48  C   UNL A   1      42.315  33.869  32.787  1.00  0.00     0.037 A 
ATOM     49  C   UNL A   1      40.800  28.328  28.811  1.00  0.00     0.037 A 
ATOM     50  C   UNL A   1      43.348  32.868  32.724  1.00  0.00     0.049 A 
ATOM     51  C   UNL A   1      42.135  28.475  29.485  1.00  0.00     0.074 A 
ATOM     52  C   UNL A   1      44.575  32.853  33.365  1.00  0.00     0.029 A 
ATOM     53  N   UNL A   1      43.276  31.706  31.971  1.00  0.00    -0.354 N 
ATOM     54  N   UNL A   1      42.559  29.428  30.280  1.00  0.00    -0.248 NA
ATOM     55  C   UNL A   1      43.119  27.413  29.240  1.00  0.00     0.031 C 
ATOM     56  C   UNL A   1      45.263  31.701  32.966  1.00  0.00     0.029 A 
ATOM     57  C   UNL A   1      44.448  30.979  32.109  1.00  0.00     0.049 A 
ATOM     58  H   UNL A   1      42.506  31.437  31.419  1.00  0.00     0.167 HD
ATOM     59  C   UNL A   1      43.847  29.066  30.652  1.00  0.00     0.074 A 
ATOM     60  C   UNL A   1      44.130  27.801  30.004  1.00  0.00     0.031 C 
ATOM     61  C   UNL A   1      44.716  29.720  31.461  1.00  0.00     0.037 A 
BRANCH  48  62
ATOM     62  C   UNL A   1      42.585  35.126  33.561  1.00  0.00     0.057 A 
ATOM     63  C   UNL A   1      42.290  35.234  34.927  1.00  0.00     0.134 A 
ATOM     64  C   UNL A   1      43.165  36.238  32.937  1.00  0.00     0.134 A 
ATOM     65  F   UNL A   1      41.723  34.209  35.582  1.00  0.00    -0.206 F 
ATOM     66  C   UNL A   1      42.530  36.412  35.635  1.00  0.00     0.040 A 
ATOM     67  C   UNL A   1      43.435  37.412  33.641  1.00  0.00     0.040 A 
ATOM     68  F   UNL A   1      43.481  36.201  31.634  1.00  0.00    -0.206 F 
ATOM     69  C   UNL A   1      43.109  37.505  34.993  1.00  0.00     0.006 A 
ENDBRANCH  48  62
BRANCH  49  70
ATOM     70  C   UNL A   1      40.497  27.130  27.992  1.00  0.00     0.057 A 
ATOM     71  C   UNL A   1      39.707  26.095  28.504  1.00  0.00     0.134 A 
ATOM     72  C   UNL A   1      40.984  26.987  26.688  1.00  0.00     0.134 A 
ATOM     73  F   UNL A   1      39.229  26.167  29.756  1.00  0.00    -0.206 F 
ATOM     74  C   UNL A   1      39.422  24.952  27.755  1.00  0.00     0.040 A 
ATOM     75  C   UNL A   1      40.690  25.859  25.920  1.00  0.00     0.040 A 
ATOM     76  F   UNL A   1      41.743  27.946  26.139  1.00  0.00    -0.206 F 
ATOM     77  C   UNL A   1      39.911  24.835  26.456  1.00  0.00     0.006 A 
ENDBRANCH  49  70
BRANCH  61  78
ATOM     78  C   UNL A   1      46.041  29.064  31.714  1.00  0.00     0.057 A 
ATOM     79  C   UNL A   1      46.339  28.447  32.935  1.00  0.00     0.134 A 
ATOM     80  C   UNL A   1      47.021  29.030  30.715  1.00  0.00     0.134 A 
ATOM     81  F   UNL A   1      45.449  28.458  33.938  1.00  0.00    -0.206 F 
ATOM     82  C   UNL A   1      47.576  27.841  33.163  1.00  0.00     0.040 A 
ATOM     83  C   UNL A   1      48.253  28.405  30.922  1.00  0.00     0.040 A 
ATOM     84  F   UNL A   1      46.797  29.596  29.520  1.00  0.00    -0.206 F 
ATOM     85  C   UNL A   1      48.535  27.814  32.152  1.00  0.00     0.006 A 
ENDBRANCH  61  78
ENDBRANCH  35  36
ENDBRANCH  27  30
ENDBRANCH  25  26
ENDBRANCH  24  25
ENDBRANCH  23  24
ENDBRANCH   1  23
TORSDOF 15
ENDMDL
MODEL 3
REMARK VINA RESULT:     -11.5      0.706      6.338
REMARK SMILES O=C(Cc1ccc(-c2cccc(F)c2F)cc1)NCCCCCCNC(=O)c1ccc(-c2c3nc(c(-c4c(F)cccc4F)c4ccc([nH]4)c(-c4c(F)cccc4F)c4nc(c(-c5c(F)cccc5F)c5ccc2[nH]5)C=C4)C=C3)cc1
REMARK SMILES IDX 21 1 20 2 19 3 18 4 1 5 2 6 3 8 4 9 5 10 17 11 6 12 16 13
REMARK SMILES IDX 7 14 8 15 9 16 14 17 10 18 12 19 15 20 11 21 13 22 22 23
REMARK SMILES IDX 23 24 24 25 25 26 26 27 27 29 28 30 29 31 81 32 30 33 80 34
REMARK SMILES IDX 31 35 32 36 33 37 74 38 34 39 79 40 73 41 75 42 35 43 78 44
REMARK SMILES IDX 72 45 71 46 36 48 62 49 45 50 61 51 46 52 49 53 60 54 76 55
REMARK SMILES IDX 47 56 48 57 59 59 77 60 50 61 37 62 38 63 43 64 39 65 40 66
REMARK SMILES IDX 42 67 44 68 41 69 63 70 64 71 69 72 65 73 66 74 68 75 70 76
REMARK SMILES IDX 67 77 51 78 52 79 57 80 53 81 54 82 56 83 58 84 55 85
REMARK H PARENT 18 7 25 28 75 47 49 58
REMARK Flexibility Score: inf
ROOT
ATOM      1  C   UNL A   1      31.778  28.990  26.925  1.00  0.00     0.002 C 
ENDROOT
BRANCH   1   2
ATOM      2  C   UNL A   1      33.182  28.386  27.061  1.00  0.00     0.021 C 
BRANCH   2   3
ATOM      3  C   UNL A   1      33.336  26.985  26.475  1.00  0.00     0.116 C 
BRANCH   3   4
ATOM      4  N   UNL A   1      32.352  26.716  25.449  1.00  0.00    -0.356 N 
ATOM      5  O   UNL A   1      32.093  24.484  25.912  1.00  0.00    -0.275 OA
ATOM      6  C   UNL A   1      31.779  25.478  25.263  1.00  0.00     0.224 C 
ATOM      7  H   UNL A   1      32.080  27.453  24.855  1.00  0.00     0.163 HD
BRANCH   6   8
ATOM      8  C   UNL A   1      30.765  25.406  24.129  1.00  0.00     0.135 C 
BRANCH   8   9
ATOM      9  C   UNL A   1      30.275  26.743  23.616  1.00  0.00    -0.039 A 
ATOM     10  C   UNL A   1      31.160  27.610  22.964  1.00  0.00     0.005 A 
ATOM     11  C   UNL A   1      28.933  27.124  23.741  1.00  0.00     0.005 A 
ATOM     12  C   UNL A   1      30.722  28.850  22.488  1.00  0.00     0.009 A 
ATOM     13  C   UNL A   1      28.501  28.370  23.278  1.00  0.00     0.009 A 
ATOM     14  C   UNL A   1      29.388  29.256  22.650  1.00  0.00    -0.015 A 
BRANCH  14  15
ATOM     15  C   UNL A   1      28.930  30.567  22.171  1.00  0.00     0.020 A 
ATOM     16  C   UNL A   1      28.389  30.713  20.879  1.00  0.00     0.012 A 
ATOM     17  C   UNL A   1      29.006  31.711  22.980  1.00  0.00     0.166 A 
ATOM     18  C   UNL A   1      27.941  31.956  20.418  1.00  0.00     0.004 A 
ATOM     19  C   UNL A   1      28.562  32.946  22.518  1.00  0.00     0.159 A 
ATOM     20  F   UNL A   1      29.520  31.626  24.219  1.00  0.00    -0.203 F 
ATOM     21  C   UNL A   1      28.028  33.077  21.242  1.00  0.00     0.042 A 
ATOM     22  F   UNL A   1      28.647  34.028  23.306  1.00  0.00    -0.204 F 
ENDBRANCH  14  15
ENDBRANCH   8   9
ENDBRANCH   6   8
ENDBRANCH   3   4
ENDBRANCH   2   3
ENDBRANCH   1   2
BRANCH   1  23
ATOM     23  C   UNL A   1      31.682  30.267  26.085  1.00  0.00     0.002 C 
BRANCH  23  24
ATOM     24  C   UNL A   1      31.546  31.570  26.876  1.00  0.00     0.021 C 
BRANCH  24  25
ATOM     25  C   UNL A   1      32.506  32.686  26.470  1.00  0.00     0.116 C 
BRANCH  25  26
ATOM     26  N   UNL A   1      32.336  33.894  27.261  1.00  0.00    -0.352 N 
ATOM     27  C   UNL A   1      33.014  34.311  28.379  1.00  0.00     0.251 C 
ATOM     28  H   UNL A   1      31.629  34.504  26.948  1.00  0.00     0.163 HD
ATOM     29  O   UNL A   1      32.633  35.308  28.991  1.00  0.00    -0.269 OA
BRANCH  27  30
ATOM     30  C   UNL A   1      34.185  33.555  28.875  1.00  0.00     0.039 A 
ATOM     31  C   UNL A   1      35.435  34.183  28.885  1.00  0.00     0.014 A 
ATOM     32  C   UNL A   1      34.067  32.233  29.312  1.00  0.00     0.014 A 
ATOM     33  C   UNL A   1      36.550  33.508  29.388  1.00  0.00     0.010 A 
ATOM     34  C   UNL A   1      35.165  31.584  29.874  1.00  0.00     0.010 A 
ATOM     35  C   UNL A   1      36.418  32.215  29.916  1.00  0.00    -0.014 A 
BRANCH  35  36
ATOM     36  C   UNL A   1      37.578  31.514  30.524  1.00  0.00     0.031 A 
ATOM     37  C   UNL A   1      37.979  31.790  31.947  1.00  0.00     0.074 A 
ATOM     38  C   UNL A   1      38.310  30.666  29.774  1.00  0.00     0.049 A 
ATOM     39  N   UNL A   1      38.980  31.300  32.634  1.00  0.00    -0.248 NA
ATOM     40  C   UNL A   1      37.162  32.765  32.685  1.00  0.00     0.031 C 
ATOM     41  C   UNL A   1      38.056  30.345  28.369  1.00  0.00     0.029 A 
ATOM     42  N   UNL A   1      39.419  29.923  30.090  1.00  0.00    -0.354 N 
ATOM     43  C   UNL A   1      38.924  31.920  33.876  1.00  0.00     0.074 A 
ATOM     44  C   UNL A   1      37.819  32.854  33.832  1.00  0.00     0.031 C 
ATOM     45  C   UNL A   1      38.962  29.445  27.954  1.00  0.00     0.029 A 
ATOM     46  C   UNL A   1      39.879  29.151  29.050  1.00  0.00     0.049 A 
ATOM     47  H   UNL A   1      39.844  29.940  30.978  1.00  0.00     0.167 HD
ATOM     48  C   UNL A   1      39.710  31.716  34.961  1.00  0.00     0.037 A 
ATOM     49  C   UNL A   1      40.921  28.301  28.989  1.00  0.00     0.037 A 
ATOM     50  C   UNL A   1      40.789  30.765  35.015  1.00  0.00     0.049 A 
ATOM     51  C   UNL A   1      41.777  28.093  30.205  1.00  0.00     0.074 A 
ATOM     52  C   UNL A   1      41.589  30.427  36.095  1.00  0.00     0.029 A 
ATOM     53  N   UNL A   1      41.225  30.002  33.942  1.00  0.00    -0.354 N 
ATOM     54  N   UNL A   1      41.665  28.626  31.397  1.00  0.00    -0.248 NA
ATOM     55  C   UNL A   1      42.904  27.160  30.067  1.00  0.00     0.031 C 
ATOM     56  C   UNL A   1      42.536  29.491  35.662  1.00  0.00     0.029 A 
ATOM     57  C   UNL A   1      42.299  29.215  34.325  1.00  0.00     0.049 A 
ATOM     58  H   UNL A   1      40.829  30.019  33.040  1.00  0.00     0.167 HD
ATOM     59  C   UNL A   1      42.686  28.074  32.159  1.00  0.00     0.074 A 
ATOM     60  C   UNL A   1      43.402  27.156  31.296  1.00  0.00     0.031 C 
ATOM     61  C   UNL A   1      43.001  28.304  33.457  1.00  0.00     0.037 A 
BRANCH  48  62
ATOM     62  C   UNL A   1      39.427  32.545  36.180  1.00  0.00     0.057 A 
ATOM     63  C   UNL A   1      38.485  32.155  37.141  1.00  0.00     0.134 A 
ATOM     64  C   UNL A   1      40.120  33.742  36.406  1.00  0.00     0.134 A 
ATOM     65  F   UNL A   1      37.778  31.025  36.980  1.00  0.00    -0.206 F 
ATOM     66  C   UNL A   1      38.217  32.941  38.263  1.00  0.00     0.040 A 
ATOM     67  C   UNL A   1      39.881  34.522  37.537  1.00  0.00     0.040 A 
ATOM     68  F   UNL A   1      41.042  34.171  35.530  1.00  0.00    -0.206 F 
ATOM     69  C   UNL A   1      38.920  34.126  38.466  1.00  0.00     0.006 A 
ENDBRANCH  48  62
BRANCH  49  70
ATOM     70  C   UNL A   1      41.186  27.545  27.741  1.00  0.00     0.057 A 
ATOM     71  C   UNL A   1      40.616  26.283  27.534  1.00  0.00     0.134 A 
ATOM     72  C   UNL A   1      42.009  28.056  26.731  1.00  0.00     0.134 A 
ATOM     73  F   UNL A   1      39.835  25.734  28.477  1.00  0.00    -0.206 F 
ATOM     74  C   UNL A   1      40.865  25.549  26.374  1.00  0.00     0.040 A 
ATOM     75  C   UNL A   1      42.249  27.342  25.556  1.00  0.00     0.040 A 
ATOM     76  F   UNL A   1      42.580  29.261  26.868  1.00  0.00    -0.206 F 
ATOM     77  C   UNL A   1      41.681  26.082  25.378  1.00  0.00     0.006 A 
ENDBRANCH  49  70
BRANCH  61  78
ATOM     78  C   UNL A   1      44.150  27.527  34.030  1.00  0.00     0.057 A 
ATOM     79  C   UNL A   1      43.971  26.266  34.612  1.00  0.00     0.134 A 
ATOM     80  C   UNL A   1      45.452  28.038  33.977  1.00  0.00     0.134 A 
ATOM     81  F   UNL A   1      42.746  25.727  34.708  1.00  0.00    -0.206 F 
ATOM     82  C   UNL A   1      45.046  25.551  35.145  1.00  0.00     0.040 A 
ATOM     83  C   UNL A   1      46.538  27.322  34.484  1.00  0.00     0.040 A 
ATOM     84  F   UNL A   1      45.692  29.237  33.426  1.00  0.00    -0.206 F 
ATOM     85  C   UNL A   1      46.335  26.077  35.077  1.00  0.00     0.006 A 
ENDBRANCH  61  78
ENDBRANCH  35  36
ENDBRANCH  27  30
ENDBRANCH  25  26
ENDBRANCH  24  25
ENDBRANCH  23  24
ENDBRANCH   1  23
TORSDOF 15
ENDMDL
