MODEL 1
REMARK VINA RESULT:     -11.7      0.000      0.000
REMARK SMILES CC(C)C[NH2+][C@@H](CC(=O)Nc1cccc(Cl)c1)C(=O)NCCCCCCNC(=O)c1ccc(-c2c3nc(c(-c4c(F)cccc4F)c4ccc([nH]4)c(-c4c(F)cccc4F)c4nc(c(-c5c(F)cccc5F)c5ccc2[nH]5)C=C4)C=C3)cc1
REMARK SMILES IDX 23 1 22 2 21 3 20 4 18 5 19 6 6 8 5 9 4 12 2 13 1 14 3 15
REMARK SMILES IDX 7 16 8 17 9 18 10 19 11 21 12 22 17 23 13 24 15 25 14 26
REMARK SMILES IDX 16 27 24 28 25 29 26 30 27 31 28 32 29 34 30 35 31 36 83 37
REMARK SMILES IDX 32 38 82 39 33 40 34 41 35 42 76 43 36 44 81 45 75 46 77 47
REMARK SMILES IDX 37 48 80 49 74 50 73 51 38 53 64 54 47 55 63 56 48 57 51 58
REMARK SMILES IDX 62 59 78 60 49 61 50 62 61 64 79 65 52 66 39 67 40 68 45 69
REMARK SMILES IDX 41 70 42 71 44 72 46 73 43 74 65 75 66 76 71 77 67 78 68 79
REMARK SMILES IDX 70 80 72 81 69 82 53 83 54 84 59 85 55 86 56 87 58 88 60 89
REMARK SMILES IDX 57 90
REMARK H PARENT 20 7 5 10 5 11 10 20 27 33 77 52 51 63
REMARK Flexibility Score: inf
ROOT
ATOM      1  C   UNL A   1      32.365  29.650  27.114  1.00  0.00     0.002 C 
ENDROOT
BRANCH   1   2
ATOM      2  C   UNL A   1      31.771  28.251  27.176  1.00  0.00     0.021 C 
BRANCH   2   3
ATOM      3  C   UNL A   1      32.586  27.177  26.466  1.00  0.00     0.116 C 
BRANCH   3   4
ATOM      4  N   UNL A   1      33.482  27.626  25.434  1.00  0.00    -0.351 N 
ATOM      5  C   UNL A   1      33.196  28.064  24.168  1.00  0.00     0.278 C 
ATOM      6  O   UNL A   1      34.152  28.504  23.515  1.00  0.00    -0.268 OA
ATOM      7  H   UNL A   1      34.438  27.616  25.670  1.00  0.00     0.163 HD
BRANCH   5   8
ATOM      8  C   UNL A   1      31.781  27.963  23.493  1.00  0.00     0.281 C 
BRANCH   8   9
ATOM      9  N   UNL A   1      31.626  29.033  22.516  1.00  0.00    -0.335 N 
ATOM     10  H   UNL A   1      32.019  29.874  22.939  1.00  0.00     0.346 HD
ATOM     11  H   UNL A   1      32.088  28.658  21.688  1.00  0.00     0.346 HD
BRANCH   9  12
ATOM     12  C   UNL A   1      30.300  29.394  22.017  1.00  0.00     0.264 C 
BRANCH  12  13
ATOM     13  C   UNL A   1      29.111  30.274  23.089  1.00  0.00     0.038 C 
ATOM     14  C   UNL A   1      28.767  32.424  23.311  1.00  0.00     0.013 C 
ATOM     15  C   UNL A   1      27.953  28.986  22.927  1.00  0.00     0.013 C 
ENDBRANCH  12  13
ENDBRANCH   9  12
ENDBRANCH   8   9
BRANCH   8  16
ATOM     16  C   UNL A   1      31.325  26.559  23.127  1.00  0.00     0.175 C 
BRANCH  16  17
ATOM     17  C   UNL A   1      31.764  25.807  21.883  1.00  0.00     0.230 C 
ATOM     18  O   UNL A   1      31.470  26.289  20.778  1.00  0.00    -0.274 OA
ATOM     19  N   UNL A   1      32.593  24.730  21.850  1.00  0.00    -0.326 N 
ATOM     20  H   UNL A   1      32.960  24.567  20.950  1.00  0.00     0.169 HD
BRANCH  19  21
ATOM     21  C   UNL A   1      33.050  23.792  22.792  1.00  0.00     0.042 A 
ATOM     22  C   UNL A   1      32.449  22.084  23.011  1.00  0.00     0.026 A 
ATOM     23  C   UNL A   1      34.477  24.348  23.732  1.00  0.00     0.046 A 
ATOM     24  C   UNL A   1      33.256  20.966  24.180  1.00  0.00     0.004 A 
ATOM     25  C   UNL A   1      35.298  23.218  24.855  1.00  0.00     0.043 A 
ATOM     26  C   UNL A   1      34.659  21.558  25.131  1.00  0.00     0.020 A 
ATOM     27  Cl  UNL A   1      36.808  23.679  25.551  1.00  0.00    -0.084 Cl
ENDBRANCH  19  21
ENDBRANCH  16  17
ENDBRANCH   8  16
ENDBRANCH   5   8
ENDBRANCH   3   4
ENDBRANCH   2   3
ENDBRANCH   1   2
BRANCH   1  28
ATOM     28  C   UNL A   1      31.690  30.596  26.115  1.00  0.00     0.002 C 
BRANCH  28  29
ATOM     29  C   UNL A   1      31.439  32.024  26.613  1.00  0.00     0.021 C 
BRANCH  29  30
ATOM     30  C   UNL A   1      32.610  32.663  27.355  1.00  0.00     0.116 C 
BRANCH  30  31
ATOM     31  N   UNL A   1      32.379  34.071  27.640  1.00  0.00    -0.352 N 
ATOM     32  C   UNL A   1      32.992  34.903  28.541  1.00  0.00     0.251 C 
ATOM     33  H   UNL A   1      31.671  34.493  27.101  1.00  0.00     0.163 HD
ATOM     34  O   UNL A   1      32.512  36.006  28.788  1.00  0.00    -0.269 OA
BRANCH  32  35
ATOM     35  C   UNL A   1      34.222  34.466  29.231  1.00  0.00     0.039 A 
ATOM     36  C   UNL A   1      34.120  33.908  30.507  1.00  0.00     0.014 A 
ATOM     37  C   UNL A   1      35.472  34.607  28.621  1.00  0.00     0.014 A 
ATOM     38  C   UNL A   1      35.265  33.419  31.140  1.00  0.00     0.010 A 
ATOM     39  C   UNL A   1      36.598  34.051  29.219  1.00  0.00     0.010 A 
ATOM     40  C   UNL A   1      36.505  33.442  30.480  1.00  0.00    -0.014 A 
BRANCH  40  41
ATOM     41  C   UNL A   1      37.703  32.796  31.072  1.00  0.00     0.031 A 
ATOM     42  C   UNL A   1      38.299  31.569  30.443  1.00  0.00     0.074 A 
ATOM     43  C   UNL A   1      38.211  33.278  32.224  1.00  0.00     0.049 A 
ATOM     44  N   UNL A   1      39.289  30.822  30.863  1.00  0.00    -0.248 NA
ATOM     45  C   UNL A   1      37.686  31.103  29.189  1.00  0.00     0.031 C 
ATOM     46  C   UNL A   1      37.700  34.442  32.951  1.00  0.00     0.029 A 
ATOM     47  N   UNL A   1      39.260  32.842  32.994  1.00  0.00    -0.354 N 
ATOM     48  C   UNL A   1      39.414  29.800  29.932  1.00  0.00     0.074 A 
ATOM     49  C   UNL A   1      38.364  29.990  28.954  1.00  0.00     0.031 C 
ATOM     50  C   UNL A   1      38.450  34.641  34.046  1.00  0.00     0.029 A 
ATOM     51  C   UNL A   1      39.457  33.589  34.130  1.00  0.00     0.049 A 
ATOM     52  H   UNL A   1      39.820  32.067  32.754  1.00  0.00     0.167 HD
ATOM     53  C   UNL A   1      40.333  28.807  29.885  1.00  0.00     0.037 A 
ATOM     54  C   UNL A   1      40.336  33.433  35.140  1.00  0.00     0.037 A 
ATOM     55  C   UNL A   1      41.378  28.626  30.861  1.00  0.00     0.049 A 
ATOM     56  C   UNL A   1      41.310  32.288  35.092  1.00  0.00     0.074 A 
ATOM     57  C   UNL A   1      42.386  27.679  30.876  1.00  0.00     0.029 A 
ATOM     58  N   UNL A   1      41.538  29.397  32.003  1.00  0.00    -0.354 N 
ATOM     59  N   UNL A   1      41.464  31.370  34.168  1.00  0.00    -0.248 NA
ATOM     60  C   UNL A   1      42.235  32.157  36.226  1.00  0.00     0.031 C 
ATOM     61  C   UNL A   1      43.112  27.831  32.061  1.00  0.00     0.029 A 
ATOM     62  C   UNL A   1      42.604  28.920  32.750  1.00  0.00     0.049 A 
ATOM     63  H   UNL A   1      40.977  30.168  32.248  1.00  0.00     0.167 HD
ATOM     64  C   UNL A   1      42.519  30.573  34.595  1.00  0.00     0.074 A 
ATOM     65  C   UNL A   1      42.978  31.126  35.851  1.00  0.00     0.031 C 
ATOM     66  C   UNL A   1      43.057  29.481  33.998  1.00  0.00     0.037 A 
BRANCH  53  67
ATOM     67  C   UNL A   1      40.245  27.827  28.749  1.00  0.00     0.057 A 
ATOM     68  C   UNL A   1      40.917  28.034  27.536  1.00  0.00     0.134 A 
ATOM     69  C   UNL A   1      39.515  26.639  28.884  1.00  0.00     0.134 A 
ATOM     70  F   UNL A   1      41.630  29.153  27.335  1.00  0.00    -0.206 F 
ATOM     71  C   UNL A   1      40.841  27.111  26.491  1.00  0.00     0.040 A 
ATOM     72  C   UNL A   1      39.459  25.693  27.859  1.00  0.00     0.040 A 
ATOM     73  F   UNL A   1      38.855  26.370  30.021  1.00  0.00    -0.206 F 
ATOM     74  C   UNL A   1      40.117  25.932  26.654  1.00  0.00     0.006 A 
ENDBRANCH  53  67
BRANCH  54  75
ATOM     75  C   UNL A   1      40.333  34.380  36.285  1.00  0.00     0.057 A 
ATOM     76  C   UNL A   1      39.567  34.129  37.430  1.00  0.00     0.134 A 
ATOM     77  C   UNL A   1      41.080  35.565  36.258  1.00  0.00     0.134 A 
ATOM     78  F   UNL A   1      38.816  33.021  37.511  1.00  0.00    -0.206 F 
ATOM     79  C   UNL A   1      39.524  35.032  38.494  1.00  0.00     0.040 A 
ATOM     80  C   UNL A   1      41.071  36.460  37.328  1.00  0.00     0.040 A 
ATOM     81  F   UNL A   1      41.841  35.862  35.195  1.00  0.00    -0.206 F 
ATOM     82  C   UNL A   1      40.283  36.199  38.446  1.00  0.00     0.006 A 
ENDBRANCH  54  75
BRANCH  66  83
ATOM     83  C   UNL A   1      44.228  28.828  34.675  1.00  0.00     0.057 A 
ATOM     84  C   UNL A   1      45.548  29.226  34.426  1.00  0.00     0.134 A 
ATOM     85  C   UNL A   1      44.028  27.823  35.631  1.00  0.00     0.134 A 
ATOM     86  F   UNL A   1      45.812  30.173  33.513  1.00  0.00    -0.206 F 
ATOM     87  C   UNL A   1      46.626  28.633  35.085  1.00  0.00     0.040 A 
ATOM     88  C   UNL A   1      45.095  27.247  36.322  1.00  0.00     0.040 A 
ATOM     89  F   UNL A   1      42.789  27.401  35.926  1.00  0.00    -0.206 F 
ATOM     90  C   UNL A   1      46.399  27.648  36.045  1.00  0.00     0.006 A 
ENDBRANCH  66  83
ENDBRANCH  40  41
ENDBRANCH  32  35
ENDBRANCH  30  31
ENDBRANCH  29  30
ENDBRANCH  28  29
ENDBRANCH   1  28
TORSDOF 19
ENDMDL
MODEL 2
REMARK VINA RESULT:     -11.5      1.289      2.144
REMARK SMILES CC(C)C[NH2+][C@@H](CC(=O)Nc1cccc(Cl)c1)C(=O)NCCCCCCNC(=O)c1ccc(-c2c3nc(c(-c4c(F)cccc4F)c4ccc([nH]4)c(-c4c(F)cccc4F)c4nc(c(-c5c(F)cccc5F)c5ccc2[nH]5)C=C4)C=C3)cc1
REMARK SMILES IDX 23 1 22 2 21 3 20 4 18 5 19 6 6 8 5 9 4 12 2 13 1 14 3 15
REMARK SMILES IDX 7 16 8 17 9 18 10 19 11 21 12 22 17 23 13 24 15 25 14 26
REMARK SMILES IDX 16 27 24 28 25 29 26 30 27 31 28 32 29 34 30 35 31 36 83 37
REMARK SMILES IDX 32 38 82 39 33 40 34 41 35 42 76 43 36 44 81 45 75 46 77 47
REMARK SMILES IDX 37 48 80 49 74 50 73 51 38 53 64 54 47 55 63 56 48 57 51 58
REMARK SMILES IDX 62 59 78 60 49 61 50 62 61 64 79 65 52 66 39 67 40 68 45 69
REMARK SMILES IDX 41 70 42 71 44 72 46 73 43 74 65 75 66 76 71 77 67 78 68 79
REMARK SMILES IDX 70 80 72 81 69 82 53 83 54 84 59 85 55 86 56 87 58 88 60 89
REMARK SMILES IDX 57 90
REMARK H PARENT 20 7 5 10 5 11 10 20 27 33 77 52 51 63
REMARK Flexibility Score: inf
ROOT
ATOM      1  C   UNL A   1      31.716  29.904  25.212  1.00  0.00     0.002 C 
ENDROOT
BRANCH   1   2
ATOM      2  C   UNL A   1      33.004  29.225  24.772  1.00  0.00     0.021 C 
BRANCH   2   3
ATOM      3  C   UNL A   1      33.125  28.994  23.271  1.00  0.00     0.116 C 
BRANCH   3   4
ATOM      4  N   UNL A   1      31.902  29.020  22.514  1.00  0.00    -0.351 N 
ATOM      5  C   UNL A   1      30.889  28.099  22.473  1.00  0.00     0.278 C 
ATOM      6  O   UNL A   1      29.886  28.419  21.821  1.00  0.00    -0.268 OA
ATOM      7  H   UNL A   1      31.774  29.812  21.943  1.00  0.00     0.163 HD
BRANCH   5   8
ATOM      8  C   UNL A   1      30.965  26.668  23.118  1.00  0.00     0.281 C 
BRANCH   8   9
ATOM      9  N   UNL A   1      29.683  26.335  23.726  1.00  0.00    -0.335 N 
ATOM     10  H   UNL A   1      29.013  27.029  23.395  1.00  0.00     0.346 HD
ATOM     11  H   UNL A   1      29.540  25.365  23.446  1.00  0.00     0.346 HD
BRANCH   9  12
ATOM     12  C   UNL A   1      29.546  26.280  25.181  1.00  0.00     0.264 C 
BRANCH  12  13
ATOM     13  C   UNL A   1      30.467  25.041  26.155  1.00  0.00     0.038 C 
ATOM     14  C   UNL A   1      30.711  22.895  25.799  1.00  0.00     0.013 C 
ATOM     15  C   UNL A   1      31.660  26.223  26.603  1.00  0.00     0.013 C 
ENDBRANCH  12  13
ENDBRANCH   9  12
ENDBRANCH   8   9
BRANCH   8  16
ATOM     16  C   UNL A   1      31.687  25.611  22.295  1.00  0.00     0.175 C 
BRANCH  16  17
ATOM     17  C   UNL A   1      33.169  25.637  21.971  1.00  0.00     0.230 C 
ATOM     18  O   UNL A   1      33.546  26.348  21.027  1.00  0.00    -0.274 OA
ATOM     19  N   UNL A   1      34.161  25.078  22.715  1.00  0.00    -0.326 N 
ATOM     20  H   UNL A   1      35.050  25.435  22.482  1.00  0.00     0.169 HD
BRANCH  19  21
ATOM     21  C   UNL A   1      34.222  24.114  23.735  1.00  0.00     0.042 A 
ATOM     22  C   UNL A   1      34.630  24.406  25.488  1.00  0.00     0.026 A 
ATOM     23  C   UNL A   1      33.673  22.481  23.221  1.00  0.00     0.046 A 
ATOM     24  C   UNL A   1      34.517  23.066  26.697  1.00  0.00     0.004 A 
ATOM     25  C   UNL A   1      33.520  21.171  24.435  1.00  0.00     0.043 A 
ATOM     26  C   UNL A   1      33.997  21.436  26.150  1.00  0.00     0.020 A 
ATOM     27  Cl  UNL A   1      32.753  19.695  23.980  1.00  0.00    -0.084 Cl
ENDBRANCH  19  21
ENDBRANCH  16  17
ENDBRANCH   8  16
ENDBRANCH   5   8
ENDBRANCH   3   4
ENDBRANCH   2   3
ENDBRANCH   1   2
BRANCH   1  28
ATOM     28  C   UNL A   1      31.722  30.429  26.652  1.00  0.00     0.002 C 
BRANCH  28  29
ATOM     29  C   UNL A   1      31.523  31.941  26.813  1.00  0.00     0.021 C 
BRANCH  29  30
ATOM     30  C   UNL A   1      32.766  32.712  27.248  1.00  0.00     0.116 C 
BRANCH  30  31
ATOM     31  N   UNL A   1      32.467  34.097  27.580  1.00  0.00    -0.352 N 
ATOM     32  C   UNL A   1      32.993  34.907  28.554  1.00  0.00     0.251 C 
ATOM     33  H   UNL A   1      31.778  34.519  27.017  1.00  0.00     0.163 HD
ATOM     34  O   UNL A   1      32.459  35.979  28.819  1.00  0.00    -0.269 OA
BRANCH  32  35
ATOM     35  C   UNL A   1      34.194  34.479  29.299  1.00  0.00     0.039 A 
ATOM     36  C   UNL A   1      34.042  33.955  30.585  1.00  0.00     0.014 A 
ATOM     37  C   UNL A   1      35.467  34.597  28.732  1.00  0.00     0.014 A 
ATOM     38  C   UNL A   1      35.159  33.475  31.271  1.00  0.00     0.010 A 
ATOM     39  C   UNL A   1      36.566  34.049  29.385  1.00  0.00     0.010 A 
ATOM     40  C   UNL A   1      36.422  33.473  30.656  1.00  0.00    -0.014 A 
BRANCH  40  41
ATOM     41  C   UNL A   1      37.594  32.835  31.308  1.00  0.00     0.031 A 
ATOM     42  C   UNL A   1      38.233  31.616  30.706  1.00  0.00     0.074 A 
ATOM     43  C   UNL A   1      38.035  33.315  32.488  1.00  0.00     0.049 A 
ATOM     44  N   UNL A   1      39.207  30.877  31.174  1.00  0.00    -0.248 NA
ATOM     45  C   UNL A   1      37.693  31.152  29.418  1.00  0.00     0.031 C 
ATOM     46  C   UNL A   1      37.476  34.470  33.192  1.00  0.00     0.029 A 
ATOM     47  N   UNL A   1      39.046  32.885  33.310  1.00  0.00    -0.354 N 
ATOM     48  C   UNL A   1      39.391  29.861  30.245  1.00  0.00     0.074 A 
ATOM     49  C   UNL A   1      38.392  30.046  29.214  1.00  0.00     0.031 C 
ATOM     50  C   UNL A   1      38.164  34.670  34.326  1.00  0.00     0.029 A 
ATOM     51  C   UNL A   1      39.176  33.628  34.459  1.00  0.00     0.049 A 
ATOM     52  H   UNL A   1      39.625  32.116  33.096  1.00  0.00     0.167 HD
ATOM     53  C   UNL A   1      40.321  28.876  30.243  1.00  0.00     0.037 A 
ATOM     54  C   UNL A   1      40.001  33.474  35.513  1.00  0.00     0.037 A 
ATOM     55  C   UNL A   1      41.313  28.700  31.272  1.00  0.00     0.049 A 
ATOM     56  C   UNL A   1      40.987  32.339  35.511  1.00  0.00     0.074 A 
ATOM     57  C   UNL A   1      42.328  27.762  31.336  1.00  0.00     0.029 A 
ATOM     58  N   UNL A   1      41.405  29.466  32.424  1.00  0.00    -0.354 N 
ATOM     59  N   UNL A   1      41.198  31.427  34.592  1.00  0.00    -0.248 NA
ATOM     60  C   UNL A   1      41.852  32.210  36.692  1.00  0.00     0.031 C 
ATOM     61  C   UNL A   1      42.989  27.914  32.558  1.00  0.00     0.029 A 
ATOM     62  C   UNL A   1      42.435  28.995  33.224  1.00  0.00     0.049 A 
ATOM     63  H   UNL A   1      40.825  30.231  32.643  1.00  0.00     0.167 HD
ATOM     64  C   UNL A   1      42.236  30.637  35.070  1.00  0.00     0.074 A 
ATOM     65  C   UNL A   1      42.623  31.188  36.352  1.00  0.00     0.031 C 
ATOM     66  C   UNL A   1      42.815  29.553  34.498  1.00  0.00     0.037 A 
BRANCH  53  67
ATOM     67  C   UNL A   1      40.302  27.902  29.099  1.00  0.00     0.057 A 
ATOM     68  C   UNL A   1      41.078  28.094  27.947  1.00  0.00     0.134 A 
ATOM     69  C   UNL A   1      39.533  26.733  29.167  1.00  0.00     0.134 A 
ATOM     70  F   UNL A   1      41.833  29.195  27.811  1.00  0.00    -0.206 F 
ATOM     71  C   UNL A   1      41.065  27.176  26.895  1.00  0.00     0.040 A 
ATOM     72  C   UNL A   1      39.538  25.791  28.137  1.00  0.00     0.040 A 
ATOM     73  F   UNL A   1      38.774  26.478  30.244  1.00  0.00    -0.206 F 
ATOM     74  C   UNL A   1      40.299  26.016  26.992  1.00  0.00     0.006 A 
ENDBRANCH  53  67
BRANCH  54  75
ATOM     75  C   UNL A   1      39.928  34.415  36.661  1.00  0.00     0.057 A 
ATOM     76  C   UNL A   1      39.128  34.136  37.776  1.00  0.00     0.134 A 
ATOM     77  C   UNL A   1      40.641  35.620  36.666  1.00  0.00     0.134 A 
ATOM     78  F   UNL A   1      38.406  33.007  37.824  1.00  0.00    -0.206 F 
ATOM     79  C   UNL A   1      39.019  35.033  38.840  1.00  0.00     0.040 A 
ATOM     80  C   UNL A   1      40.568  36.510  37.739  1.00  0.00     0.040 A 
ATOM     81  F   UNL A   1      41.433  35.944  35.634  1.00  0.00    -0.206 F 
ATOM     82  C   UNL A   1      39.746  36.221  38.826  1.00  0.00     0.006 A 
ENDBRANCH  54  75
BRANCH  66  83
ATOM     83  C   UNL A   1      43.955  28.907  35.233  1.00  0.00     0.057 A 
ATOM     84  C   UNL A   1      45.288  29.278  35.012  1.00  0.00     0.134 A 
ATOM     85  C   UNL A   1      43.710  27.939  36.215  1.00  0.00     0.134 A 
ATOM     86  F   UNL A   1      45.595  30.190  34.076  1.00  0.00    -0.206 F 
ATOM     87  C   UNL A   1      46.337  28.693  35.724  1.00  0.00     0.040 A 
ATOM     88  C   UNL A   1      44.747  27.372  36.959  1.00  0.00     0.040 A 
ATOM     89  F   UNL A   1      42.457  27.544  36.485  1.00  0.00    -0.206 F 
ATOM     90  C   UNL A   1      46.065  27.744  36.710  1.00  0.00     0.006 A 
ENDBRANCH  66  83
ENDBRANCH  40  41
ENDBRANCH  32  35
ENDBRANCH  30  31
ENDBRANCH  29  30
ENDBRANCH  28  29
ENDBRANCH   1  28
TORSDOF 19
ENDMDL
MODEL 3
REMARK VINA RESULT:     -11.4      1.159      2.062
REMARK SMILES CC(C)C[NH2+][C@@H](CC(=O)Nc1cccc(Cl)c1)C(=O)NCCCCCCNC(=O)c1ccc(-c2c3nc(c(-c4c(F)cccc4F)c4ccc([nH]4)c(-c4c(F)cccc4F)c4nc(c(-c5c(F)cccc5F)c5ccc2[nH]5)C=C4)C=C3)cc1
REMARK SMILES IDX 23 1 22 2 21 3 20 4 18 5 19 6 6 8 5 9 4 12 2 13 1 14 3 15
REMARK SMILES IDX 7 16 8 17 9 18 10 19 11 21 12 22 17 23 13 24 15 25 14 26
REMARK SMILES IDX 16 27 24 28 25 29 26 30 27 31 28 32 29 34 30 35 31 36 83 37
REMARK SMILES IDX 32 38 82 39 33 40 34 41 35 42 76 43 36 44 81 45 75 46 77 47
REMARK SMILES IDX 37 48 80 49 74 50 73 51 38 53 64 54 47 55 63 56 48 57 51 58
REMARK SMILES IDX 62 59 78 60 49 61 50 62 61 64 79 65 52 66 39 67 40 68 45 69
REMARK SMILES IDX 41 70 42 71 44 72 46 73 43 74 65 75 66 76 71 77 67 78 68 79
REMARK SMILES IDX 70 80 72 81 69 82 53 83 54 84 59 85 55 86 56 87 58 88 60 89
REMARK SMILES IDX 57 90
REMARK H PARENT 20 7 5 10 5 11 10 20 27 33 77 52 51 63
REMARK Flexibility Score: inf
ROOT
ATOM      1  C   UNL A   1      32.801  29.726  26.870  1.00  0.00     0.002 C 
ENDROOT
BRANCH   1   2
ATOM      2  C   UNL A   1      32.823  28.229  26.602  1.00  0.00     0.021 C 
BRANCH   2   3
ATOM      3  C   UNL A   1      31.474  27.535  26.730  1.00  0.00     0.116 C 
BRANCH   3   4
ATOM      4  N   UNL A   1      31.497  26.104  26.881  1.00  0.00    -0.351 N 
ATOM      5  C   UNL A   1      31.242  25.131  25.952  1.00  0.00     0.278 C 
ATOM      6  O   UNL A   1      31.444  23.964  26.316  1.00  0.00    -0.268 OA
ATOM      7  H   UNL A   1      31.728  25.778  27.780  1.00  0.00     0.163 HD
BRANCH   5   8
ATOM      8  C   UNL A   1      30.644  25.401  24.524  1.00  0.00     0.281 C 
BRANCH   8   9
ATOM      9  N   UNL A   1      29.303  25.957  24.651  1.00  0.00    -0.335 N 
ATOM     10  H   UNL A   1      28.683  25.177  24.865  1.00  0.00     0.346 HD
ATOM     11  H   UNL A   1      29.419  26.680  25.360  1.00  0.00     0.346 HD
BRANCH   9  12
ATOM     12  C   UNL A   1      28.695  26.683  23.537  1.00  0.00     0.264 C 
BRANCH  12  13
ATOM     13  C   UNL A   1      29.010  28.467  23.308  1.00  0.00     0.038 C 
ATOM     14  C   UNL A   1      30.713  29.468  22.366  1.00  0.00     0.013 C 
ATOM     15  C   UNL A   1      27.310  28.784  23.124  1.00  0.00     0.013 C 
ENDBRANCH  12  13
ENDBRANCH   9  12
ENDBRANCH   8   9
BRANCH   8  16
ATOM     16  C   UNL A   1      31.603  26.011  23.513  1.00  0.00     0.175 C 
BRANCH  16  17
ATOM     17  C   UNL A   1      32.015  25.352  22.209  1.00  0.00     0.230 C 
ATOM     18  O   UNL A   1      31.765  25.950  21.151  1.00  0.00    -0.274 OA
ATOM     19  N   UNL A   1      32.778  24.234  22.083  1.00  0.00    -0.326 N 
ATOM     20  H   UNL A   1      33.148  24.133  21.176  1.00  0.00     0.169 HD
BRANCH  19  21
ATOM     21  C   UNL A   1      33.166  23.188  22.939  1.00  0.00     0.042 A 
ATOM     22  C   UNL A   1      32.156  21.753  23.434  1.00  0.00     0.026 A 
ATOM     23  C   UNL A   1      34.895  23.255  23.426  1.00  0.00     0.046 A 
ATOM     24  C   UNL A   1      32.869  20.423  24.430  1.00  0.00     0.004 A 
ATOM     25  C   UNL A   1      35.606  21.910  24.374  1.00  0.00     0.043 A 
ATOM     26  C   UNL A   1      34.590  20.531  24.930  1.00  0.00     0.020 A 
ATOM     27  Cl  UNL A   1      37.313  21.863  24.611  1.00  0.00    -0.084 Cl
ENDBRANCH  19  21
ENDBRANCH  16  17
ENDBRANCH   8  16
ENDBRANCH   5   8
ENDBRANCH   3   4
ENDBRANCH   2   3
ENDBRANCH   1   2
BRANCH   1  28
ATOM     28  C   UNL A   1      31.738  30.507  26.089  1.00  0.00     0.002 C 
BRANCH  28  29
ATOM     29  C   UNL A   1      31.497  31.949  26.550  1.00  0.00     0.021 C 
BRANCH  29  30
ATOM     30  C   UNL A   1      32.652  32.581  27.321  1.00  0.00     0.116 C 
BRANCH  30  31
ATOM     31  N   UNL A   1      32.425  33.993  27.595  1.00  0.00    -0.352 N 
ATOM     32  C   UNL A   1      33.005  34.818  28.524  1.00  0.00     0.251 C 
ATOM     33  H   UNL A   1      31.748  34.422  27.023  1.00  0.00     0.163 HD
ATOM     34  O   UNL A   1      32.528  35.926  28.748  1.00  0.00    -0.269 OA
BRANCH  32  35
ATOM     35  C   UNL A   1      34.196  34.366  29.270  1.00  0.00     0.039 A 
ATOM     36  C   UNL A   1      34.027  33.794  30.533  1.00  0.00     0.014 A 
ATOM     37  C   UNL A   1      35.477  34.508  28.727  1.00  0.00     0.014 A 
ATOM     38  C   UNL A   1      35.136  33.292  31.218  1.00  0.00     0.010 A 
ATOM     39  C   UNL A   1      36.568  33.939  29.375  1.00  0.00     0.010 A 
ATOM     40  C   UNL A   1      36.408  33.316  30.622  1.00  0.00    -0.014 A 
BRANCH  40  41
ATOM     41  C   UNL A   1      37.572  32.657  31.267  1.00  0.00     0.031 A 
ATOM     42  C   UNL A   1      38.241  31.481  30.615  1.00  0.00     0.074 A 
ATOM     43  C   UNL A   1      37.978  33.078  32.482  1.00  0.00     0.049 A 
ATOM     44  N   UNL A   1      39.213  30.729  31.067  1.00  0.00    -0.248 NA
ATOM     45  C   UNL A   1      37.738  31.082  29.292  1.00  0.00     0.031 C 
ATOM     46  C   UNL A   1      37.387  34.186  33.234  1.00  0.00     0.029 A 
ATOM     47  N   UNL A   1      38.974  32.615  33.304  1.00  0.00    -0.354 N 
ATOM     48  C   UNL A   1      39.432  29.767  30.089  1.00  0.00     0.074 A 
ATOM     49  C   UNL A   1      38.456  29.996  29.046  1.00  0.00     0.031 C 
ATOM     50  C   UNL A   1      38.045  34.332  34.393  1.00  0.00     0.029 A 
ATOM     51  C   UNL A   1      39.067  33.296  34.494  1.00  0.00     0.049 A 
ATOM     52  H   UNL A   1      39.568  31.866  33.063  1.00  0.00     0.167 HD
ATOM     53  C   UNL A   1      40.375  28.795  30.057  1.00  0.00     0.037 A 
ATOM     54  C   UNL A   1      39.868  33.094  35.558  1.00  0.00     0.037 A 
ATOM     55  C   UNL A   1      41.344  28.574  31.099  1.00  0.00     0.049 A 
ATOM     56  C   UNL A   1      40.869  31.973  35.519  1.00  0.00     0.074 A 
ATOM     57  C   UNL A   1      42.370  27.646  31.136  1.00  0.00     0.029 A 
ATOM     58  N   UNL A   1      41.399  29.278  32.293  1.00  0.00    -0.354 N 
ATOM     59  N   UNL A   1      41.114  31.115  34.558  1.00  0.00    -0.248 NA
ATOM     60  C   UNL A   1      41.707  31.790  36.713  1.00  0.00     0.031 C 
ATOM     61  C   UNL A   1      42.999  27.739  32.381  1.00  0.00     0.029 A 
ATOM     62  C   UNL A   1      42.415  28.776  33.091  1.00  0.00     0.049 A 
ATOM     63  H   UNL A   1      40.804  30.022  32.538  1.00  0.00     0.167 HD
ATOM     64  C   UNL A   1      42.151  30.313  35.018  1.00  0.00     0.074 A 
ATOM     65  C   UNL A   1      42.500  30.797  36.337  1.00  0.00     0.031 C 
ATOM     66  C   UNL A   1      42.758  29.268  34.402  1.00  0.00     0.037 A 
BRANCH  53  67
ATOM     67  C   UNL A   1      40.396  27.885  28.861  1.00  0.00     0.057 A 
ATOM     68  C   UNL A   1      39.646  26.701  28.814  1.00  0.00     0.134 A 
ATOM     69  C   UNL A   1      41.143  28.217  27.722  1.00  0.00     0.134 A 
ATOM     70  F   UNL A   1      38.914  26.318  29.871  1.00  0.00    -0.206 F 
ATOM     71  C   UNL A   1      39.662  25.869  27.693  1.00  0.00     0.040 A 
ATOM     72  C   UNL A   1      41.140  27.411  26.583  1.00  0.00     0.040 A 
ATOM     73  F   UNL A   1      41.877  29.340  27.693  1.00  0.00    -0.206 F 
ATOM     74  C   UNL A   1      40.404  26.228  26.570  1.00  0.00     0.006 A 
ENDBRANCH  53  67
BRANCH  54  75
ATOM     75  C   UNL A   1      39.755  33.970  36.753  1.00  0.00     0.057 A 
ATOM     76  C   UNL A   1      40.455  35.181  36.831  1.00  0.00     0.134 A 
ATOM     77  C   UNL A   1      38.961  33.614  37.851  1.00  0.00     0.134 A 
ATOM     78  F   UNL A   1      41.246  35.570  35.822  1.00  0.00    -0.206 F 
ATOM     79  C   UNL A   1      40.389  35.991  37.967  1.00  0.00     0.040 A 
ATOM     80  C   UNL A   1      38.861  34.431  38.978  1.00  0.00     0.040 A 
ATOM     81  F   UNL A   1      38.258  32.473  37.837  1.00  0.00    -0.206 F 
ATOM     82  C   UNL A   1      39.585  35.619  39.042  1.00  0.00     0.006 A 
ENDBRANCH  54  75
BRANCH  66  83
ATOM     83  C   UNL A   1      43.888  28.596  35.129  1.00  0.00     0.057 A 
ATOM     84  C   UNL A   1      43.694  27.442  35.900  1.00  0.00     0.134 A 
ATOM     85  C   UNL A   1      45.197  29.080  35.011  1.00  0.00     0.134 A 
ATOM     86  F   UNL A   1      42.464  26.933  36.066  1.00  0.00    -0.206 F 
ATOM     87  C   UNL A   1      44.758  26.809  36.545  1.00  0.00     0.040 A 
ATOM     88  C   UNL A   1      46.274  28.436  35.622  1.00  0.00     0.040 A 
ATOM     89  F   UNL A   1      45.455  30.175  34.279  1.00  0.00    -0.206 F 
ATOM     90  C   UNL A   1      46.055  27.300  36.397  1.00  0.00     0.006 A 
ENDBRANCH  66  83
ENDBRANCH  40  41
ENDBRANCH  32  35
ENDBRANCH  30  31
ENDBRANCH  29  30
ENDBRANCH  28  29
ENDBRANCH   1  28
TORSDOF 19
ENDMDL
