MODEL 1
REMARK VINA RESULT:     -14.1      0.000      0.000
REMARK SMILES Cc1ccccc1[C@@H]1[NH2+][C@@H](C(=O)NCCCCCCNC(=O)c2ccc(-c3c4nc(c(-c5c(F)cccc5F)c5ccc([nH]5)c(-c5c(F)cccc5F)c5nc(c(-c6c(F)cccc6F)c6ccc3[nH]6)C=C5)C=C4)cc2)CC2=c3ccccc3=N[C@@H]21
REMARK SMILES IDX 17 1 16 2 15 3 14 4 13 5 11 6 12 7 10 9 8 10 9 11 86 12
REMARK SMILES IDX 78 15 85 16 77 17 79 18 84 19 80 20 83 21 81 22 82 23 7 24
REMARK SMILES IDX 1 25 2 26 3 27 4 28 6 29 5 30 18 31 19 32 20 33 21 34 22 36
REMARK SMILES IDX 23 37 24 38 76 39 25 40 75 41 26 42 27 43 28 44 69 45 29 46
REMARK SMILES IDX 74 47 68 48 70 49 30 50 73 51 67 52 66 53 31 55 57 56 40 57
REMARK SMILES IDX 56 58 41 59 44 60 55 61 71 62 42 63 43 64 54 66 72 67 45 68
REMARK SMILES IDX 32 69 33 70 38 71 34 72 35 73 37 74 39 75 36 76 58 77 59 78
REMARK SMILES IDX 64 79 60 80 61 81 63 82 65 83 62 84 46 85 47 86 52 87 48 88
REMARK SMILES IDX 49 89 51 90 53 91 50 92
REMARK H PARENT 13 8 9 13 9 14 20 35 70 54 44 65
REMARK Flexibility Score: inf
ROOT
ATOM      1  C   UNL A   1      31.996  30.179  26.902  1.00  0.00     0.002 C 
ENDROOT
BRANCH   1   2
ATOM      2  C   UNL A   1      32.430  28.709  26.893  1.00  0.00     0.002 C 
BRANCH   2   3
ATOM      3  C   UNL A   1      31.389  27.677  27.356  1.00  0.00     0.021 C 
BRANCH   3   4
ATOM      4  C   UNL A   1      30.787  26.723  26.297  1.00  0.00     0.116 C 
BRANCH   4   5
ATOM      5  N   UNL A   1      30.630  25.279  26.565  1.00  0.00    -0.351 N 
ATOM      6  C   UNL A   1      31.667  24.336  26.785  1.00  0.00     0.278 C 
ATOM      7  O   UNL A   1      31.532  23.402  27.566  1.00  0.00    -0.268 OA
ATOM      8  H   UNL A   1      29.708  24.934  26.593  1.00  0.00     0.163 HD
BRANCH   6   9
ATOM      9  C   UNL A   1      32.792  24.467  25.755  1.00  0.00     0.277 C 
ATOM     10  C   UNL A   1      34.268  22.708  24.679  1.00  0.00     0.243 C 
ATOM     11  N   UNL A   1      33.128  23.067  25.534  1.00  0.00    -0.327 N 
ATOM     12  C   UNL A   1      34.650  23.850  23.640  1.00  0.00     0.196 C 
ATOM     13  H   UNL A   1      33.310  22.661  26.452  1.00  0.00     0.347 HD
ATOM     14  H   UNL A   1      32.326  22.714  25.011  1.00  0.00     0.347 HD
ATOM     15  C   UNL A   1      34.390  25.254  24.251  1.00  0.00    -0.024 C 
ATOM     16  N   UNL A   1      33.813  23.849  22.404  1.00  0.00    -0.270 NA
ATOM     17  C   UNL A   1      34.061  25.311  25.754  1.00  0.00     0.109 C 
ATOM     18  C   UNL A   1      33.719  26.035  23.388  1.00  0.00     0.002 A 
ATOM     19  C   UNL A   1      33.355  25.064  22.329  1.00  0.00     0.066 A 
ATOM     20  C   UNL A   1      32.884  27.188  23.630  1.00  0.00     0.010 A 
ATOM     21  C   UNL A   1      32.328  25.519  21.357  1.00  0.00     0.028 A 
ATOM     22  C   UNL A   1      31.854  27.441  22.807  1.00  0.00     0.001 A 
ATOM     23  C   UNL A   1      31.616  26.627  21.629  1.00  0.00     0.002 A 
BRANCH  10  24
ATOM     24  C   UNL A   1      34.087  21.188  24.368  1.00  0.00     0.015 A 
ATOM     25  C   UNL A   1      36.464  20.556  25.067  1.00  0.00     0.045 C 
ATOM     26  C   UNL A   1      35.051  20.216  24.695  1.00  0.00    -0.042 A 
ATOM     27  C   UNL A   1      34.665  18.855  24.819  1.00  0.00     0.004 A 
ATOM     28  C   UNL A   1      33.349  18.432  24.631  1.00  0.00     0.000 A 
ATOM     29  C   UNL A   1      32.789  20.682  24.068  1.00  0.00     0.010 A 
ATOM     30  C   UNL A   1      32.405  19.354  24.244  1.00  0.00     0.001 A 
ENDBRANCH  10  24
ENDBRANCH   6   9
ENDBRANCH   4   5
ENDBRANCH   3   4
ENDBRANCH   2   3
ENDBRANCH   1   2
BRANCH   1  31
ATOM     31  C   UNL A   1      33.067  31.202  27.279  1.00  0.00     0.021 C 
BRANCH  31  32
ATOM     32  C   UNL A   1      34.482  30.642  27.376  1.00  0.00     0.116 C 
BRANCH  32  33
ATOM     33  N   UNL A   1      35.337  31.431  28.244  1.00  0.00    -0.352 N 
ATOM     34  C   UNL A   1      36.430  31.090  29.020  1.00  0.00     0.251 C 
ATOM     35  H   UNL A   1      35.094  32.385  28.288  1.00  0.00     0.163 HD
ATOM     36  O   UNL A   1      36.853  31.904  29.814  1.00  0.00    -0.269 OA
BRANCH  34  37
ATOM     37  C   UNL A   1      37.198  29.836  28.766  1.00  0.00     0.039 A 
ATOM     38  C   UNL A   1      37.367  28.980  29.868  1.00  0.00     0.014 A 
ATOM     39  C   UNL A   1      37.935  29.612  27.611  1.00  0.00     0.014 A 
ATOM     40  C   UNL A   1      38.452  28.110  29.912  1.00  0.00     0.010 A 
ATOM     41  C   UNL A   1      39.056  28.812  27.675  1.00  0.00     0.010 A 
ATOM     42  C   UNL A   1      39.355  28.133  28.856  1.00  0.00    -0.014 A 
BRANCH  42  43
ATOM     43  C   UNL A   1      40.674  27.528  28.903  1.00  0.00     0.031 A 
ATOM     44  C   UNL A   1      40.838  26.107  28.564  1.00  0.00     0.074 A 
ATOM     45  C   UNL A   1      41.746  28.319  29.128  1.00  0.00     0.049 A 
ATOM     46  N   UNL A   1      41.866  25.397  28.873  1.00  0.00    -0.248 NA
ATOM     47  C   UNL A   1      39.807  25.358  27.860  1.00  0.00     0.031 C 
ATOM     48  C   UNL A   1      43.152  27.989  28.942  1.00  0.00     0.029 A 
ATOM     49  N   UNL A   1      41.761  29.554  29.794  1.00  0.00    -0.354 N 
ATOM     50  C   UNL A   1      41.768  24.200  28.202  1.00  0.00     0.074 A 
ATOM     51  C   UNL A   1      40.438  24.202  27.637  1.00  0.00     0.031 C 
ATOM     52  C   UNL A   1      43.888  28.795  29.725  1.00  0.00     0.029 A 
ATOM     53  C   UNL A   1      42.963  29.562  30.543  1.00  0.00     0.049 A 
ATOM     54  H   UNL A   1      41.082  30.263  29.750  1.00  0.00     0.167 HD
ATOM     55  C   UNL A   1      42.874  23.405  28.112  1.00  0.00     0.037 A 
ATOM     56  C   UNL A   1      42.917  29.541  31.908  1.00  0.00     0.037 A 
ATOM     57  C   UNL A   1      43.975  23.950  28.911  1.00  0.00     0.049 A 
ATOM     58  C   UNL A   1      43.492  28.289  32.537  1.00  0.00     0.074 A 
ATOM     59  C   UNL A   1      45.083  24.733  28.630  1.00  0.00     0.029 A 
ATOM     60  N   UNL A   1      43.839  23.968  30.286  1.00  0.00    -0.354 N 
ATOM     61  N   UNL A   1      43.941  27.265  31.865  1.00  0.00    -0.248 NA
ATOM     62  C   UNL A   1      43.535  28.060  33.983  1.00  0.00     0.031 C 
ATOM     63  C   UNL A   1      45.571  25.268  29.859  1.00  0.00     0.029 A 
ATOM     64  C   UNL A   1      44.768  24.797  30.881  1.00  0.00     0.049 A 
ATOM     65  H   UNL A   1      43.161  23.453  30.780  1.00  0.00     0.167 HD
ATOM     66  C   UNL A   1      44.266  26.257  32.730  1.00  0.00     0.074 A 
ATOM     67  C   UNL A   1      44.008  26.804  34.049  1.00  0.00     0.031 C 
ATOM     68  C   UNL A   1      44.682  25.028  32.314  1.00  0.00     0.037 A 
BRANCH  55  69
ATOM     69  C   UNL A   1      43.039  22.266  27.133  1.00  0.00     0.057 A 
ATOM     70  C   UNL A   1      42.237  21.111  27.240  1.00  0.00     0.134 A 
ATOM     71  C   UNL A   1      43.989  22.207  26.098  1.00  0.00     0.134 A 
ATOM     72  F   UNL A   1      41.215  21.042  28.102  1.00  0.00    -0.206 F 
ATOM     73  C   UNL A   1      42.442  19.961  26.465  1.00  0.00     0.040 A 
ATOM     74  C   UNL A   1      44.242  21.046  25.352  1.00  0.00     0.040 A 
ATOM     75  F   UNL A   1      44.673  23.286  25.704  1.00  0.00    -0.206 F 
ATOM     76  C   UNL A   1      43.474  19.910  25.543  1.00  0.00     0.006 A 
ENDBRANCH  55  69
BRANCH  56  77
ATOM     77  C   UNL A   1      41.771  30.328  32.440  1.00  0.00     0.057 A 
ATOM     78  C   UNL A   1      41.856  31.732  32.402  1.00  0.00     0.134 A 
ATOM     79  C   UNL A   1      40.497  29.769  32.574  1.00  0.00     0.134 A 
ATOM     80  F   UNL A   1      43.051  32.333  32.286  1.00  0.00    -0.206 F 
ATOM     81  C   UNL A   1      40.716  32.539  32.356  1.00  0.00     0.040 A 
ATOM     82  C   UNL A   1      39.350  30.569  32.545  1.00  0.00     0.040 A 
ATOM     83  F   UNL A   1      40.335  28.438  32.608  1.00  0.00    -0.206 F 
ATOM     84  C   UNL A   1      39.456  31.951  32.388  1.00  0.00     0.006 A 
ENDBRANCH  56  77
BRANCH  68  85
ATOM     85  C   UNL A   1      45.052  23.933  33.263  1.00  0.00     0.057 A 
ATOM     86  C   UNL A   1      44.127  22.965  33.671  1.00  0.00     0.134 A 
ATOM     87  C   UNL A   1      46.304  23.908  33.904  1.00  0.00     0.134 A 
ATOM     88  F   UNL A   1      42.897  22.923  33.137  1.00  0.00    -0.206 F 
ATOM     89  C   UNL A   1      44.432  22.021  34.657  1.00  0.00     0.040 A 
ATOM     90  C   UNL A   1      46.604  23.001  34.922  1.00  0.00     0.040 A 
ATOM     91  F   UNL A   1      47.286  24.753  33.555  1.00  0.00    -0.206 F 
ATOM     92  C   UNL A   1      45.665  22.049  35.299  1.00  0.00     0.006 A 
ENDBRANCH  68  85
ENDBRANCH  42  43
ENDBRANCH  34  37
ENDBRANCH  32  33
ENDBRANCH  31  32
ENDBRANCH   1  31
TORSDOF 14
ENDMDL
MODEL 2
REMARK VINA RESULT:     -13.5      3.623      9.344
REMARK SMILES Cc1ccccc1[C@@H]1[NH2+][C@@H](C(=O)NCCCCCCNC(=O)c2ccc(-c3c4nc(c(-c5c(F)cccc5F)c5ccc([nH]5)c(-c5c(F)cccc5F)c5nc(c(-c6c(F)cccc6F)c6ccc3[nH]6)C=C5)C=C4)cc2)CC2=c3ccccc3=N[C@@H]21
REMARK SMILES IDX 17 1 16 2 15 3 14 4 13 5 11 6 12 7 10 9 8 10 9 11 86 12
REMARK SMILES IDX 78 15 85 16 77 17 79 18 84 19 80 20 83 21 81 22 82 23 7 24
REMARK SMILES IDX 1 25 2 26 3 27 4 28 6 29 5 30 18 31 19 32 20 33 21 34 22 36
REMARK SMILES IDX 23 37 24 38 76 39 25 40 75 41 26 42 27 43 28 44 69 45 29 46
REMARK SMILES IDX 74 47 68 48 70 49 30 50 73 51 67 52 66 53 31 55 57 56 40 57
REMARK SMILES IDX 56 58 41 59 44 60 55 61 71 62 42 63 43 64 54 66 72 67 45 68
REMARK SMILES IDX 32 69 33 70 38 71 34 72 35 73 37 74 39 75 36 76 58 77 59 78
REMARK SMILES IDX 64 79 60 80 61 81 63 82 65 83 62 84 46 85 47 86 52 87 48 88
REMARK SMILES IDX 49 89 51 90 53 91 50 92
REMARK H PARENT 13 8 9 13 9 14 20 35 70 54 44 65
REMARK Flexibility Score: inf
ROOT
ATOM      1  C   UNL A   1      36.704  23.259  25.510  1.00  0.00     0.002 C 
ENDROOT
BRANCH   1   2
ATOM      2  C   UNL A   1      36.147  22.316  24.437  1.00  0.00     0.002 C 
BRANCH   2   3
ATOM      3  C   UNL A   1      35.632  22.966  23.143  1.00  0.00     0.021 C 
BRANCH   3   4
ATOM      4  C   UNL A   1      34.109  22.946  22.873  1.00  0.00     0.116 C 
BRANCH   4   5
ATOM      5  N   UNL A   1      33.456  24.006  22.078  1.00  0.00    -0.351 N 
ATOM      6  C   UNL A   1      33.465  25.399  22.346  1.00  0.00     0.278 C 
ATOM      7  O   UNL A   1      33.489  26.228  21.444  1.00  0.00    -0.268 OA
ATOM      8  H   UNL A   1      32.962  23.715  21.278  1.00  0.00     0.163 HD
BRANCH   6   9
ATOM      9  C   UNL A   1      33.155  25.704  23.814  1.00  0.00     0.277 C 
ATOM     10  C   UNL A   1      31.869  27.615  24.876  1.00  0.00     0.243 C 
ATOM     11  N   UNL A   1      32.318  26.888  23.680  1.00  0.00    -0.327 N 
ATOM     12  C   UNL A   1      31.866  26.713  26.186  1.00  0.00     0.196 C 
ATOM     13  H   UNL A   1      32.840  27.554  23.111  1.00  0.00     0.347 HD
ATOM     14  H   UNL A   1      31.449  26.516  23.295  1.00  0.00     0.347 HD
ATOM     15  C   UNL A   1      33.025  25.681  26.142  1.00  0.00    -0.024 C 
ATOM     16  N   UNL A   1      30.649  25.862  26.332  1.00  0.00    -0.270 NA
ATOM     17  C   UNL A   1      34.071  25.852  25.025  1.00  0.00     0.109 C 
ATOM     18  C   UNL A   1      32.586  24.453  26.465  1.00  0.00     0.002 A 
ATOM     19  C   UNL A   1      31.118  24.659  26.492  1.00  0.00     0.066 A 
ATOM     20  C   UNL A   1      33.128  23.153  26.143  1.00  0.00     0.010 A 
ATOM     21  C   UNL A   1      30.290  23.426  26.510  1.00  0.00     0.028 A 
ATOM     22  C   UNL A   1      32.296  22.110  25.995  1.00  0.00     0.001 A 
ATOM     23  C   UNL A   1      30.872  22.244  26.239  1.00  0.00     0.002 A 
BRANCH  10  24
ATOM     24  C   UNL A   1      30.716  28.546  24.383  1.00  0.00     0.015 A 
ATOM     25  C   UNL A   1      31.512  30.573  25.725  1.00  0.00     0.045 C 
ATOM     26  C   UNL A   1      30.666  29.924  24.669  1.00  0.00    -0.042 A 
ATOM     27  C   UNL A   1      29.892  30.786  23.847  1.00  0.00     0.004 A 
ATOM     28  C   UNL A   1      29.169  30.320  22.749  1.00  0.00     0.000 A 
ATOM     29  C   UNL A   1      29.863  28.112  23.328  1.00  0.00     0.010 A 
ATOM     30  C   UNL A   1      29.149  28.969  22.494  1.00  0.00     0.001 A 
ENDBRANCH  10  24
ENDBRANCH   6   9
ENDBRANCH   4   5
ENDBRANCH   3   4
ENDBRANCH   2   3
ENDBRANCH   1   2
BRANCH   1  31
ATOM     31  C   UNL A   1      38.217  23.479  25.503  1.00  0.00     0.021 C 
BRANCH  31  32
ATOM     32  C   UNL A   1      38.992  22.637  26.509  1.00  0.00     0.116 C 
BRANCH  32  33
ATOM     33  N   UNL A   1      40.394  23.006  26.584  1.00  0.00    -0.352 N 
ATOM     34  C   UNL A   1      41.021  24.238  26.646  1.00  0.00     0.251 C 
ATOM     35  H   UNL A   1      41.011  22.240  26.594  1.00  0.00     0.163 HD
ATOM     36  O   UNL A   1      42.225  24.282  26.503  1.00  0.00    -0.269 OA
BRANCH  34  37
ATOM     37  C   UNL A   1      40.281  25.463  27.067  1.00  0.00     0.039 A 
ATOM     38  C   UNL A   1      40.537  26.628  26.322  1.00  0.00     0.014 A 
ATOM     39  C   UNL A   1      39.580  25.560  28.262  1.00  0.00     0.014 A 
ATOM     40  C   UNL A   1      40.353  27.879  26.904  1.00  0.00     0.010 A 
ATOM     41  C   UNL A   1      39.468  26.789  28.876  1.00  0.00     0.010 A 
ATOM     42  C   UNL A   1      39.935  27.932  28.228  1.00  0.00    -0.014 A 
BRANCH  42  43
ATOM     43  C   UNL A   1      40.002  29.126  29.053  1.00  0.00     0.031 A 
ATOM     44  C   UNL A   1      38.940  30.136  28.960  1.00  0.00     0.074 A 
ATOM     45  C   UNL A   1      40.974  29.217  29.987  1.00  0.00     0.049 A 
ATOM     46  N   UNL A   1      39.046  31.348  29.382  1.00  0.00    -0.248 NA
ATOM     47  C   UNL A   1      37.655  29.851  28.338  1.00  0.00     0.031 C 
ATOM     48  C   UNL A   1      41.064  30.166  31.089  1.00  0.00     0.029 A 
ATOM     49  N   UNL A   1      42.218  28.569  29.982  1.00  0.00    -0.354 N 
ATOM     50  C   UNL A   1      37.797  31.922  29.337  1.00  0.00     0.074 A 
ATOM     51  C   UNL A   1      36.980  30.969  28.620  1.00  0.00     0.031 C 
ATOM     52  C   UNL A   1      42.351  30.277  31.454  1.00  0.00     0.029 A 
ATOM     53  C   UNL A   1      43.137  29.514  30.499  1.00  0.00     0.049 A 
ATOM     54  H   UNL A   1      42.410  27.652  29.682  1.00  0.00     0.167 HD
ATOM     55  C   UNL A   1      37.583  33.085  30.018  1.00  0.00     0.037 A 
ATOM     56  C   UNL A   1      44.111  30.030  29.692  1.00  0.00     0.037 A 
ATOM     57  C   UNL A   1      38.834  33.597  30.583  1.00  0.00     0.049 A 
ATOM     58  C   UNL A   1      43.987  31.516  29.427  1.00  0.00     0.074 A 
ATOM     59  C   UNL A   1      39.441  33.521  31.826  1.00  0.00     0.029 A 
ATOM     60  N   UNL A   1      39.814  34.037  29.712  1.00  0.00    -0.354 N 
ATOM     61  N   UNL A   1      43.007  32.262  29.857  1.00  0.00    -0.248 NA
ATOM     62  C   UNL A   1      44.922  32.265  28.584  1.00  0.00     0.031 C 
ATOM     63  C   UNL A   1      40.816  33.866  31.671  1.00  0.00     0.029 A 
ATOM     64  C   UNL A   1      41.036  34.166  30.339  1.00  0.00     0.049 A 
ATOM     65  H   UNL A   1      39.658  34.235  28.760  1.00  0.00     0.167 HD
ATOM     66  C   UNL A   1      43.128  33.520  29.335  1.00  0.00     0.074 A 
ATOM     67  C   UNL A   1      44.350  33.481  28.553  1.00  0.00     0.031 C 
ATOM     68  C   UNL A   1      42.202  34.499  29.538  1.00  0.00     0.037 A 
BRANCH  55  69
ATOM     69  C   UNL A   1      36.222  33.642  30.366  1.00  0.00     0.057 A 
ATOM     70  C   UNL A   1      35.365  34.119  29.353  1.00  0.00     0.134 A 
ATOM     71  C   UNL A   1      35.706  33.789  31.666  1.00  0.00     0.134 A 
ATOM     72  F   UNL A   1      35.655  33.962  28.055  1.00  0.00    -0.206 F 
ATOM     73  C   UNL A   1      34.162  34.786  29.618  1.00  0.00     0.040 A 
ATOM     74  C   UNL A   1      34.531  34.501  31.950  1.00  0.00     0.040 A 
ATOM     75  F   UNL A   1      36.269  33.194  32.721  1.00  0.00    -0.206 F 
ATOM     76  C   UNL A   1      33.758  35.014  30.922  1.00  0.00     0.006 A 
ENDBRANCH  55  69
BRANCH  56  77
ATOM     77  C   UNL A   1      44.633  29.020  28.731  1.00  0.00     0.057 A 
ATOM     78  C   UNL A   1      45.507  28.030  29.216  1.00  0.00     0.134 A 
ATOM     79  C   UNL A   1      43.988  28.762  27.517  1.00  0.00     0.134 A 
ATOM     80  F   UNL A   1      46.166  28.220  30.371  1.00  0.00    -0.206 F 
ATOM     81  C   UNL A   1      45.627  26.784  28.598  1.00  0.00     0.040 A 
ATOM     82  C   UNL A   1      44.114  27.522  26.881  1.00  0.00     0.040 A 
ATOM     83  F   UNL A   1      43.133  29.653  26.995  1.00  0.00    -0.206 F 
ATOM     84  C   UNL A   1      44.896  26.515  27.445  1.00  0.00     0.006 A 
ENDBRANCH  56  77
BRANCH  68  85
ATOM     85  C   UNL A   1      42.345  35.879  28.978  1.00  0.00     0.057 A 
ATOM     86  C   UNL A   1      41.823  36.226  27.727  1.00  0.00     0.134 A 
ATOM     87  C   UNL A   1      43.135  36.852  29.616  1.00  0.00     0.134 A 
ATOM     88  F   UNL A   1      41.078  35.356  27.028  1.00  0.00    -0.206 F 
ATOM     89  C   UNL A   1      42.069  37.474  27.145  1.00  0.00     0.040 A 
ATOM     90  C   UNL A   1      43.425  38.083  29.025  1.00  0.00     0.040 A 
ATOM     91  F   UNL A   1      43.641  36.649  30.842  1.00  0.00    -0.206 F 
ATOM     92  C   UNL A   1      42.887  38.399  27.784  1.00  0.00     0.006 A 
ENDBRANCH  68  85
ENDBRANCH  42  43
ENDBRANCH  34  37
ENDBRANCH  32  33
ENDBRANCH  31  32
ENDBRANCH   1  31
TORSDOF 14
ENDMDL
MODEL 3
REMARK VINA RESULT:     -13.5      1.193      2.300
REMARK SMILES Cc1ccccc1[C@@H]1[NH2+][C@@H](C(=O)NCCCCCCNC(=O)c2ccc(-c3c4nc(c(-c5c(F)cccc5F)c5ccc([nH]5)c(-c5c(F)cccc5F)c5nc(c(-c6c(F)cccc6F)c6ccc3[nH]6)C=C5)C=C4)cc2)CC2=c3ccccc3=N[C@@H]21
REMARK SMILES IDX 17 1 16 2 15 3 14 4 13 5 11 6 12 7 10 9 8 10 9 11 86 12
REMARK SMILES IDX 78 15 85 16 77 17 79 18 84 19 80 20 83 21 81 22 82 23 7 24
REMARK SMILES IDX 1 25 2 26 3 27 4 28 6 29 5 30 18 31 19 32 20 33 21 34 22 36
REMARK SMILES IDX 23 37 24 38 76 39 25 40 75 41 26 42 27 43 28 44 69 45 29 46
REMARK SMILES IDX 74 47 68 48 70 49 30 50 73 51 67 52 66 53 31 55 57 56 40 57
REMARK SMILES IDX 56 58 41 59 44 60 55 61 71 62 42 63 43 64 54 66 72 67 45 68
REMARK SMILES IDX 32 69 33 70 38 71 34 72 35 73 37 74 39 75 36 76 58 77 59 78
REMARK SMILES IDX 64 79 60 80 61 81 63 82 65 83 62 84 46 85 47 86 52 87 48 88
REMARK SMILES IDX 49 89 51 90 53 91 50 92
REMARK H PARENT 13 8 9 13 9 14 20 35 70 54 44 65
REMARK Flexibility Score: inf
ROOT
ATOM      1  C   UNL A   1      34.071  28.714  26.282  1.00  0.00     0.002 C 
ENDROOT
BRANCH   1   2
ATOM      2  C   UNL A   1      33.781  28.548  24.786  1.00  0.00     0.002 C 
BRANCH   2   3
ATOM      3  C   UNL A   1      33.779  27.113  24.236  1.00  0.00     0.021 C 
BRANCH   3   4
ATOM      4  C   UNL A   1      33.284  26.887  22.787  1.00  0.00     0.116 C 
BRANCH   4   5
ATOM      5  N   UNL A   1      33.792  25.768  21.968  1.00  0.00    -0.351 N 
ATOM      6  C   UNL A   1      33.135  24.537  21.708  1.00  0.00     0.278 C 
ATOM      7  O   UNL A   1      33.245  23.964  20.631  1.00  0.00    -0.268 OA
ATOM      8  H   UNL A   1      34.679  25.888  21.559  1.00  0.00     0.163 HD
BRANCH   6   9
ATOM      9  C   UNL A   1      32.554  23.916  22.981  1.00  0.00     0.277 C 
ATOM     10  C   UNL A   1      33.590  22.347  24.683  1.00  0.00     0.243 C 
ATOM     11  N   UNL A   1      33.716  23.207  23.498  1.00  0.00    -0.327 N 
ATOM     12  C   UNL A   1      32.350  22.733  25.601  1.00  0.00     0.196 C 
ATOM     13  H   UNL A   1      34.059  22.614  22.741  1.00  0.00     0.347 HD
ATOM     14  H   UNL A   1      34.324  23.959  23.821  1.00  0.00     0.347 HD
ATOM     15  C   UNL A   1      31.170  23.252  24.736  1.00  0.00    -0.024 C 
ATOM     16  N   UNL A   1      32.619  23.865  26.537  1.00  0.00    -0.270 NA
ATOM     17  C   UNL A   1      31.296  23.086  23.211  1.00  0.00     0.109 C 
ATOM     18  C   UNL A   1      30.666  24.389  25.246  1.00  0.00     0.002 A 
ATOM     19  C   UNL A   1      31.662  24.712  26.295  1.00  0.00     0.066 A 
ATOM     20  C   UNL A   1      29.919  25.447  24.607  1.00  0.00     0.010 A 
ATOM     21  C   UNL A   1      31.589  26.084  26.858  1.00  0.00     0.028 A 
ATOM     22  C   UNL A   1      30.041  26.706  25.059  1.00  0.00     0.001 A 
ATOM     23  C   UNL A   1      30.840  27.009  26.231  1.00  0.00     0.002 A 
BRANCH  10  24
ATOM     24  C   UNL A   1      35.055  22.082  25.157  1.00  0.00     0.015 A 
ATOM     25  C   UNL A   1      34.929  19.554  24.791  1.00  0.00     0.045 C 
ATOM     26  C   UNL A   1      35.681  20.826  25.054  1.00  0.00    -0.042 A 
ATOM     27  C   UNL A   1      37.099  20.743  25.058  1.00  0.00     0.004 A 
ATOM     28  C   UNL A   1      37.912  21.872  25.159  1.00  0.00     0.000 A 
ATOM     29  C   UNL A   1      35.931  23.183  25.381  1.00  0.00     0.010 A 
ATOM     30  C   UNL A   1      37.321  23.101  25.331  1.00  0.00     0.001 A 
ENDBRANCH  10  24
ENDBRANCH   6   9
ENDBRANCH   4   5
ENDBRANCH   3   4
ENDBRANCH   2   3
ENDBRANCH   1   2
BRANCH   1  31
ATOM     31  C   UNL A   1      34.508  30.106  26.738  1.00  0.00     0.021 C 
BRANCH  31  32
ATOM     32  C   UNL A   1      34.177  30.438  28.189  1.00  0.00     0.116 C 
BRANCH  32  33
ATOM     33  N   UNL A   1      35.152  31.327  28.795  1.00  0.00    -0.352 N 
ATOM     34  C   UNL A   1      36.400  31.091  29.344  1.00  0.00     0.251 C 
ATOM     35  H   UNL A   1      34.874  32.272  28.818  1.00  0.00     0.163 HD
ATOM     36  O   UNL A   1      36.936  31.984  29.968  1.00  0.00    -0.269 OA
BRANCH  34  37
ATOM     37  C   UNL A   1      37.162  29.848  29.028  1.00  0.00     0.039 A 
ATOM     38  C   UNL A   1      37.331  28.939  30.087  1.00  0.00     0.014 A 
ATOM     39  C   UNL A   1      37.895  29.677  27.860  1.00  0.00     0.014 A 
ATOM     40  C   UNL A   1      38.414  28.065  30.085  1.00  0.00     0.010 A 
ATOM     41  C   UNL A   1      39.013  28.872  27.882  1.00  0.00     0.010 A 
ATOM     42  C   UNL A   1      39.314  28.135  29.028  1.00  0.00    -0.014 A 
BRANCH  42  43
ATOM     43  C   UNL A   1      40.631  27.525  29.042  1.00  0.00     0.031 A 
ATOM     44  C   UNL A   1      40.781  26.107  28.685  1.00  0.00     0.074 A 
ATOM     45  C   UNL A   1      41.710  28.309  29.252  1.00  0.00     0.049 A 
ATOM     46  N   UNL A   1      41.812  25.389  28.965  1.00  0.00    -0.248 NA
ATOM     47  C   UNL A   1      39.732  25.369  27.995  1.00  0.00     0.031 C 
ATOM     48  C   UNL A   1      43.111  27.975  29.034  1.00  0.00     0.029 A 
ATOM     49  N   UNL A   1      41.745  29.537  29.930  1.00  0.00    -0.354 N 
ATOM     50  C   UNL A   1      41.695  24.199  28.284  1.00  0.00     0.074 A 
ATOM     51  C   UNL A   1      40.353  24.213  27.748  1.00  0.00     0.031 C 
ATOM     52  C   UNL A   1      43.866  28.770  29.810  1.00  0.00     0.029 A 
ATOM     53  C   UNL A   1      42.962  29.533  30.654  1.00  0.00     0.049 A 
ATOM     54  H   UNL A   1      41.068  30.250  29.907  1.00  0.00     0.167 HD
ATOM     55  C   UNL A   1      42.796  23.401  28.164  1.00  0.00     0.037 A 
ATOM     56  C   UNL A   1      42.944  29.498  32.019  1.00  0.00     0.037 A 
ATOM     57  C   UNL A   1      43.915  23.933  28.945  1.00  0.00     0.049 A 
ATOM     58  C   UNL A   1      43.527  28.237  32.624  1.00  0.00     0.074 A 
ATOM     59  C   UNL A   1      45.021  24.714  28.649  1.00  0.00     0.029 A 
ATOM     60  N   UNL A   1      43.808  23.938  30.323  1.00  0.00    -0.354 N 
ATOM     61  N   UNL A   1      43.958  27.218  31.932  1.00  0.00    -0.248 NA
ATOM     62  C   UNL A   1      43.599  27.994  34.066  1.00  0.00     0.031 C 
ATOM     63  C   UNL A   1      45.536  25.235  29.872  1.00  0.00     0.029 A 
ATOM     64  C   UNL A   1      44.752  24.757  30.907  1.00  0.00     0.049 A 
ATOM     65  H   UNL A   1      43.138  23.421  30.826  1.00  0.00     0.167 HD
ATOM     66  C   UNL A   1      44.296  26.201  32.780  1.00  0.00     0.074 A 
ATOM     67  C   UNL A   1      44.068  26.734  34.110  1.00  0.00     0.031 C 
ATOM     68  C   UNL A   1      44.698  24.974  32.343  1.00  0.00     0.037 A 
BRANCH  55  69
ATOM     69  C   UNL A   1      42.935  22.271  27.170  1.00  0.00     0.057 A 
ATOM     70  C   UNL A   1      42.131  21.118  27.282  1.00  0.00     0.134 A 
ATOM     71  C   UNL A   1      43.863  22.219  26.114  1.00  0.00     0.134 A 
ATOM     72  F   UNL A   1      41.127  21.044  28.165  1.00  0.00    -0.206 F 
ATOM     73  C   UNL A   1      42.315  19.976  26.492  1.00  0.00     0.040 A 
ATOM     74  C   UNL A   1      44.095  21.064  25.352  1.00  0.00     0.040 A 
ATOM     75  F   UNL A   1      44.543  23.299  25.717  1.00  0.00    -0.206 F 
ATOM     76  C   UNL A   1      43.326  19.930  25.547  1.00  0.00     0.006 A 
ENDBRANCH  55  69
BRANCH  56  77
ATOM     77  C   UNL A   1      41.813  30.285  32.583  1.00  0.00     0.057 A 
ATOM     78  C   UNL A   1      41.912  31.688  32.575  1.00  0.00     0.134 A 
ATOM     79  C   UNL A   1      40.536  29.735  32.721  1.00  0.00     0.134 A 
ATOM     80  F   UNL A   1      43.111  32.280  32.456  1.00  0.00    -0.206 F 
ATOM     81  C   UNL A   1      40.780  32.507  32.560  1.00  0.00     0.040 A 
ATOM     82  C   UNL A   1      39.396  30.547  32.724  1.00  0.00     0.040 A 
ATOM     83  F   UNL A   1      40.360  28.406  32.728  1.00  0.00    -0.206 F 
ATOM     84  C   UNL A   1      39.514  31.931  32.596  1.00  0.00     0.006 A 
ENDBRANCH  56  77
BRANCH  68  85
ATOM     85  C   UNL A   1      45.083  23.868  33.274  1.00  0.00     0.057 A 
ATOM     86  C   UNL A   1      44.161  22.901  33.693  1.00  0.00     0.134 A 
ATOM     87  C   UNL A   1      46.348  23.829  33.886  1.00  0.00     0.134 A 
ATOM     88  F   UNL A   1      42.919  22.871  33.186  1.00  0.00    -0.206 F 
ATOM     89  C   UNL A   1      44.482  21.946  34.662  1.00  0.00     0.040 A 
ATOM     90  C   UNL A   1      46.666  22.911  34.888  1.00  0.00     0.040 A 
ATOM     91  F   UNL A   1      47.327  24.673  33.523  1.00  0.00    -0.206 F 
ATOM     92  C   UNL A   1      45.730  21.961  35.277  1.00  0.00     0.006 A 
ENDBRANCH  68  85
ENDBRANCH  42  43
ENDBRANCH  34  37
ENDBRANCH  32  33
ENDBRANCH  31  32
ENDBRANCH   1  31
TORSDOF 14
ENDMDL
