MODEL 1
REMARK VINA RESULT:     -10.5      0.000      0.000
REMARK SMILES C[C@@](O)(c1ccc(Cl)cc1Cl)[C@@H](F)C(=O)NCCCCCCNC(=O)c1ccc(-c2c3nc(c(-c4c(F)cccc4F)c4ccc([nH]4)c(-c4c(F)cccc4F)c4nc(c(-c5c(F)cccc5F)c5ccc2[nH]5)C=C4)C=C3)cc1
REMARK SMILES IDX 19 1 18 2 17 3 16 4 14 5 15 6 12 8 13 9 2 10 1 11 3 12 4 14
REMARK SMILES IDX 5 15 10 16 6 17 9 18 11 19 7 20 8 21 20 22 21 23 22 24 23 25
REMARK SMILES IDX 24 26 25 28 26 29 27 30 79 31 28 32 78 33 29 34 30 35 31 36
REMARK SMILES IDX 72 37 32 38 77 39 71 40 73 41 33 42 76 43 70 44 69 45 34 47
REMARK SMILES IDX 60 48 43 49 59 50 44 51 47 52 58 53 74 54 45 55 46 56 57 58
REMARK SMILES IDX 75 59 48 60 35 61 36 62 41 63 37 64 38 65 40 66 42 67 39 68
REMARK SMILES IDX 61 69 62 70 67 71 63 72 64 73 66 74 68 75 65 76 49 77 50 78
REMARK SMILES IDX 55 79 51 80 52 81 54 82 56 83 53 84
REMARK H PARENT 16 7 3 13 23 27 73 46 47 57
REMARK Flexibility Score: inf
ROOT
ATOM      1  C   UNL A   1      35.680  20.345  25.352  1.00  0.00     0.002 C 
ENDROOT
BRANCH   1   2
ATOM      2  C   UNL A   1      34.481  19.475  24.969  1.00  0.00     0.021 C 
BRANCH   2   3
ATOM      3  C   UNL A   1      33.168  20.246  24.829  1.00  0.00     0.116 C 
BRANCH   3   4
ATOM      4  N   UNL A   1      32.760  20.290  23.438  1.00  0.00    -0.353 N 
ATOM      5  C   UNL A   1      32.124  21.277  22.747  1.00  0.00     0.257 C 
ATOM      6  O   UNL A   1      31.620  20.973  21.660  1.00  0.00    -0.272 OA
ATOM      7  H   UNL A   1      32.976  19.486  22.913  1.00  0.00     0.163 HD
BRANCH   5   8
ATOM      8  C   UNL A   1      31.960  22.694  23.296  1.00  0.00     0.291 C 
ATOM      9  F   UNL A   1      30.682  23.170  23.189  1.00  0.00    -0.233 F 
BRANCH   8  10
ATOM     10  C   UNL A   1      32.955  23.700  22.650  1.00  0.00     0.128 C 
ATOM     11  C   UNL A   1      32.319  25.091  22.484  1.00  0.00     0.051 C 
BRANCH  10  12
ATOM     12  O   UNL A   1      33.328  23.339  21.308  1.00  0.00    -0.382 OA
ATOM     13  H   UNL A   1      34.201  23.711  21.104  1.00  0.00     0.212 HD
ENDBRANCH  10  12
BRANCH  10  14
ATOM     14  C   UNL A   1      34.254  23.748  23.483  1.00  0.00     0.005 A 
ATOM     15  C   UNL A   1      35.485  23.352  22.910  1.00  0.00     0.010 A 
ATOM     16  C   UNL A   1      34.289  24.190  24.825  1.00  0.00     0.048 A 
ATOM     17  C   UNL A   1      36.671  23.336  23.649  1.00  0.00     0.021 A 
ATOM     18  C   UNL A   1      35.479  24.171  25.565  1.00  0.00     0.041 A 
ATOM     19  Cl  UNL A   1      32.905  24.816  25.658  1.00  0.00    -0.084 Cl
ATOM     20  C   UNL A   1      36.659  23.733  24.979  1.00  0.00     0.042 A 
ATOM     21  Cl  UNL A   1      38.113  23.694  25.897  1.00  0.00    -0.084 Cl
ENDBRANCH  10  14
ENDBRANCH   8  10
ENDBRANCH   5   8
ENDBRANCH   3   4
ENDBRANCH   2   3
ENDBRANCH   1   2
BRANCH   1  22
ATOM     22  C   UNL A   1      36.966  20.029  24.585  1.00  0.00     0.002 C 
BRANCH  22  23
ATOM     23  C   UNL A   1      37.961  19.134  25.330  1.00  0.00     0.021 C 
BRANCH  23  24
ATOM     24  C   UNL A   1      39.266  19.822  25.723  1.00  0.00     0.116 C 
BRANCH  24  25
ATOM     25  N   UNL A   1      40.355  18.872  25.875  1.00  0.00    -0.352 N 
ATOM     26  C   UNL A   1      41.687  19.113  26.078  1.00  0.00     0.251 C 
ATOM     27  H   UNL A   1      40.099  17.922  25.827  1.00  0.00     0.163 HD
ATOM     28  O   UNL A   1      42.511  18.205  25.953  1.00  0.00    -0.269 OA
BRANCH  26  29
ATOM     29  C   UNL A   1      42.138  20.471  26.435  1.00  0.00     0.039 A 
ATOM     30  C   UNL A   1      42.538  21.344  25.421  1.00  0.00     0.014 A 
ATOM     31  C   UNL A   1      42.173  20.878  27.773  1.00  0.00     0.014 A 
ATOM     32  C   UNL A   1      42.925  22.645  25.744  1.00  0.00     0.010 A 
ATOM     33  C   UNL A   1      42.490  22.196  28.085  1.00  0.00     0.010 A 
ATOM     34  C   UNL A   1      42.877  23.091  27.076  1.00  0.00    -0.014 A 
BRANCH  34  35
ATOM     35  C   UNL A   1      43.242  24.484  27.432  1.00  0.00     0.031 A 
ATOM     36  C   UNL A   1      44.685  24.911  27.418  1.00  0.00     0.074 A 
ATOM     37  C   UNL A   1      42.283  25.347  27.819  1.00  0.00     0.049 A 
ATOM     38  N   UNL A   1      45.210  26.059  27.765  1.00  0.00    -0.248 NA
ATOM     39  C   UNL A   1      45.669  23.909  26.980  1.00  0.00     0.031 C 
ATOM     40  C   UNL A   1      40.855  25.040  27.914  1.00  0.00     0.029 A 
ATOM     41  N   UNL A   1      42.367  26.659  28.215  1.00  0.00    -0.354 N 
ATOM     42  C   UNL A   1      46.581  25.914  27.594  1.00  0.00     0.074 A 
ATOM     43  C   UNL A   1      46.813  24.550  27.169  1.00  0.00     0.031 C 
ATOM     44  C   UNL A   1      40.195  26.136  28.322  1.00  0.00     0.029 A 
ATOM     45  C   UNL A   1      41.155  27.210  28.556  1.00  0.00     0.049 A 
ATOM     46  H   UNL A   1      43.215  27.157  28.252  1.00  0.00     0.167 HD
ATOM     47  C   UNL A   1      47.555  26.841  27.750  1.00  0.00     0.037 A 
ATOM     48  C   UNL A   1      40.855  28.440  29.013  1.00  0.00     0.037 A 
ATOM     49  C   UNL A   1      47.319  28.202  28.152  1.00  0.00     0.049 A 
ATOM     50  C   UNL A   1      41.960  29.445  29.194  1.00  0.00     0.074 A 
ATOM     51  C   UNL A   1      48.237  29.228  28.300  1.00  0.00     0.029 A 
ATOM     52  N   UNL A   1      46.076  28.727  28.468  1.00  0.00    -0.354 N 
ATOM     53  N   UNL A   1      43.245  29.310  28.972  1.00  0.00    -0.248 NA
ATOM     54  C   UNL A   1      41.572  30.776  29.682  1.00  0.00     0.031 C 
ATOM     55  C   UNL A   1      47.553  30.364  28.745  1.00  0.00     0.029 A 
ATOM     56  C   UNL A   1      46.205  30.059  28.826  1.00  0.00     0.049 A 
ATOM     57  H   UNL A   1      45.228  28.228  28.443  1.00  0.00     0.167 HD
ATOM     58  C   UNL A   1      43.813  30.543  29.260  1.00  0.00     0.074 A 
ATOM     59  C   UNL A   1      42.730  31.419  29.659  1.00  0.00     0.031 C 
ATOM     60  C   UNL A   1      45.113  30.919  29.204  1.00  0.00     0.037 A 
BRANCH  47  61
ATOM     61  C   UNL A   1      48.969  26.418  27.472  1.00  0.00     0.057 A 
ATOM     62  C   UNL A   1      49.803  25.927  28.485  1.00  0.00     0.134 A 
ATOM     63  C   UNL A   1      49.485  26.449  26.171  1.00  0.00     0.134 A 
ATOM     64  F   UNL A   1      49.373  25.882  29.756  1.00  0.00    -0.206 F 
ATOM     65  C   UNL A   1      51.104  25.499  28.218  1.00  0.00     0.040 A 
ATOM     66  C   UNL A   1      50.775  25.998  25.885  1.00  0.00     0.040 A 
ATOM     67  F   UNL A   1      48.738  26.902  25.152  1.00  0.00    -0.206 F 
ATOM     68  C   UNL A   1      51.590  25.526  26.913  1.00  0.00     0.006 A 
ENDBRANCH  47  61
BRANCH  48  69
ATOM     69  C   UNL A   1      39.448  28.802  29.328  1.00  0.00     0.057 A 
ATOM     70  C   UNL A   1      38.914  28.586  30.604  1.00  0.00     0.134 A 
ATOM     71  C   UNL A   1      38.596  29.339  28.356  1.00  0.00     0.134 A 
ATOM     72  F   UNL A   1      39.675  28.058  31.574  1.00  0.00    -0.206 F 
ATOM     73  C   UNL A   1      37.577  28.859  30.894  1.00  0.00     0.040 A 
ATOM     74  C   UNL A   1      37.264  29.643  28.639  1.00  0.00     0.040 A 
ATOM     75  F   UNL A   1      39.047  29.578  27.116  1.00  0.00    -0.206 F 
ATOM     76  C   UNL A   1      36.747  29.392  29.910  1.00  0.00     0.006 A 
ENDBRANCH  48  69
BRANCH  60  77
ATOM     77  C   UNL A   1      45.432  32.347  29.536  1.00  0.00     0.057 A 
ATOM     78  C   UNL A   1      45.399  33.359  28.568  1.00  0.00     0.134 A 
ATOM     79  C   UNL A   1      45.739  32.720  30.852  1.00  0.00     0.134 A 
ATOM     80  F   UNL A   1      45.125  33.068  27.288  1.00  0.00    -0.206 F 
ATOM     81  C   UNL A   1      45.685  34.687  28.893  1.00  0.00     0.040 A 
ATOM     82  C   UNL A   1      45.998  34.047  31.193  1.00  0.00     0.040 A 
ATOM     83  F   UNL A   1      45.777  31.800  31.828  1.00  0.00    -0.206 F 
ATOM     84  C   UNL A   1      45.977  35.034  30.210  1.00  0.00     0.006 A 
ENDBRANCH  60  77
ENDBRANCH  34  35
ENDBRANCH  26  29
ENDBRANCH  24  25
ENDBRANCH  23  24
ENDBRANCH  22  23
ENDBRANCH   1  22
TORSDOF 16
ENDMDL
MODEL 2
REMARK VINA RESULT:     -10.5      0.290      6.275
REMARK SMILES C[C@@](O)(c1ccc(Cl)cc1Cl)[C@@H](F)C(=O)NCCCCCCNC(=O)c1ccc(-c2c3nc(c(-c4c(F)cccc4F)c4ccc([nH]4)c(-c4c(F)cccc4F)c4nc(c(-c5c(F)cccc5F)c5ccc2[nH]5)C=C4)C=C3)cc1
REMARK SMILES IDX 19 1 18 2 17 3 16 4 14 5 15 6 12 8 13 9 2 10 1 11 3 12 4 14
REMARK SMILES IDX 5 15 10 16 6 17 9 18 11 19 7 20 8 21 20 22 21 23 22 24 23 25
REMARK SMILES IDX 24 26 25 28 26 29 27 30 79 31 28 32 78 33 29 34 30 35 31 36
REMARK SMILES IDX 72 37 32 38 77 39 71 40 73 41 33 42 76 43 70 44 69 45 34 47
REMARK SMILES IDX 60 48 43 49 59 50 44 51 47 52 58 53 74 54 45 55 46 56 57 58
REMARK SMILES IDX 75 59 48 60 35 61 36 62 41 63 37 64 38 65 40 66 42 67 39 68
REMARK SMILES IDX 61 69 62 70 67 71 63 72 64 73 66 74 68 75 65 76 49 77 50 78
REMARK SMILES IDX 55 79 51 80 52 81 54 82 56 83 53 84
REMARK H PARENT 16 7 3 13 23 27 73 46 47 57
REMARK Flexibility Score: inf
ROOT
ATOM      1  C   UNL A   1      35.657  20.307  25.301  1.00  0.00     0.002 C 
ENDROOT
BRANCH   1   2
ATOM      2  C   UNL A   1      34.424  19.450  25.012  1.00  0.00     0.021 C 
BRANCH   2   3
ATOM      3  C   UNL A   1      33.127  20.247  24.865  1.00  0.00     0.116 C 
BRANCH   3   4
ATOM      4  N   UNL A   1      32.742  20.322  23.468  1.00  0.00    -0.353 N 
ATOM      5  C   UNL A   1      32.152  21.340  22.779  1.00  0.00     0.257 C 
ATOM      6  O   UNL A   1      31.654  21.066  21.682  1.00  0.00    -0.272 OA
ATOM      7  H   UNL A   1      32.935  19.516  22.937  1.00  0.00     0.163 HD
BRANCH   5   8
ATOM      8  C   UNL A   1      32.034  22.756  23.342  1.00  0.00     0.291 C 
ATOM      9  F   UNL A   1      30.776  23.279  23.225  1.00  0.00    -0.233 F 
BRANCH   8  10
ATOM     10  C   UNL A   1      33.073  23.732  22.718  1.00  0.00     0.128 C 
ATOM     11  C   UNL A   1      32.475  25.134  22.516  1.00  0.00     0.051 C 
BRANCH  10  12
ATOM     12  O   UNL A   1      33.482  23.346  21.394  1.00  0.00    -0.382 OA
ATOM     13  H   UNL A   1      34.324  23.778  21.178  1.00  0.00     0.212 HD
ENDBRANCH  10  12
BRANCH  10  14
ATOM     14  C   UNL A   1      34.344  23.759  23.594  1.00  0.00     0.005 A 
ATOM     15  C   UNL A   1      35.588  23.350  23.060  1.00  0.00     0.010 A 
ATOM     16  C   UNL A   1      34.341  24.195  24.939  1.00  0.00     0.048 A 
ATOM     17  C   UNL A   1      36.749  23.316  23.838  1.00  0.00     0.021 A 
ATOM     18  C   UNL A   1      35.505  24.158  25.717  1.00  0.00     0.041 A 
ATOM     19  Cl  UNL A   1      32.938  24.835  25.729  1.00  0.00    -0.084 Cl
ATOM     20  C   UNL A   1      36.699  23.708  25.168  1.00  0.00     0.042 A 
ATOM     21  Cl  UNL A   1      38.121  23.646  26.133  1.00  0.00    -0.084 Cl
ENDBRANCH  10  14
ENDBRANCH   8  10
ENDBRANCH   5   8
ENDBRANCH   3   4
ENDBRANCH   2   3
ENDBRANCH   1   2
BRANCH   1  22
ATOM     22  C   UNL A   1      36.882  19.967  24.450  1.00  0.00     0.002 C 
BRANCH  22  23
ATOM     23  C   UNL A   1      37.888  19.020  25.111  1.00  0.00     0.021 C 
BRANCH  23  24
ATOM     24  C   UNL A   1      39.089  19.712  25.750  1.00  0.00     0.116 C 
BRANCH  24  25
ATOM     25  N   UNL A   1      40.239  18.829  25.837  1.00  0.00    -0.352 N 
ATOM     26  C   UNL A   1      41.562  19.149  25.992  1.00  0.00     0.251 C 
ATOM     27  H   UNL A   1      40.040  17.866  25.779  1.00  0.00     0.163 HD
ATOM     28  O   UNL A   1      42.434  18.297  25.815  1.00  0.00    -0.269 OA
BRANCH  26  29
ATOM     29  C   UNL A   1      41.942  20.525  26.361  1.00  0.00     0.039 A 
ATOM     30  C   UNL A   1      42.070  20.857  27.711  1.00  0.00     0.014 A 
ATOM     31  C   UNL A   1      42.166  21.489  25.371  1.00  0.00     0.014 A 
ATOM     32  C   UNL A   1      42.471  22.144  28.070  1.00  0.00     0.010 A 
ATOM     33  C   UNL A   1      42.634  22.749  25.728  1.00  0.00     0.010 A 
ATOM     34  C   UNL A   1      42.785  23.092  27.080  1.00  0.00    -0.014 A 
BRANCH  34  35
ATOM     35  C   UNL A   1      43.257  24.451  27.443  1.00  0.00     0.031 A 
ATOM     36  C   UNL A   1      42.267  25.506  27.857  1.00  0.00     0.074 A 
ATOM     37  C   UNL A   1      44.566  24.750  27.348  1.00  0.00     0.049 A 
ATOM     38  N   UNL A   1      42.474  26.767  28.141  1.00  0.00    -0.248 NA
ATOM     39  C   UNL A   1      40.855  25.096  27.938  1.00  0.00     0.031 C 
ATOM     40  C   UNL A   1      45.618  23.827  26.918  1.00  0.00     0.029 A 
ATOM     41  N   UNL A   1      45.237  25.922  27.598  1.00  0.00    -0.354 N 
ATOM     42  C   UNL A   1      41.223  27.299  28.427  1.00  0.00     0.074 A 
ATOM     43  C   UNL A   1      40.256  26.242  28.226  1.00  0.00     0.031 C 
ATOM     44  C   UNL A   1      46.802  24.460  26.952  1.00  0.00     0.029 A 
ATOM     45  C   UNL A   1      46.589  25.843  27.367  1.00  0.00     0.049 A 
ATOM     46  H   UNL A   1      44.791  26.741  27.912  1.00  0.00     0.167 HD
ATOM     47  C   UNL A   1      40.911  28.549  28.846  1.00  0.00     0.037 A 
ATOM     48  C   UNL A   1      47.548  26.784  27.470  1.00  0.00     0.037 A 
ATOM     49  C   UNL A   1      41.877  29.593  29.066  1.00  0.00     0.049 A 
ATOM     50  C   UNL A   1      47.170  28.168  27.921  1.00  0.00     0.074 A 
ATOM     51  C   UNL A   1      41.665  30.880  29.528  1.00  0.00     0.029 A 
ATOM     52  N   UNL A   1      43.239  29.467  28.840  1.00  0.00    -0.354 N 
ATOM     53  N   UNL A   1      45.990  28.640  28.244  1.00  0.00    -0.248 NA
ATOM     54  C   UNL A   1      48.259  29.150  28.029  1.00  0.00     0.031 C 
ATOM     55  C   UNL A   1      42.894  31.546  29.544  1.00  0.00     0.029 A 
ATOM     56  C   UNL A   1      43.877  30.659  29.140  1.00  0.00     0.049 A 
ATOM     57  H   UNL A   1      43.686  28.652  28.516  1.00  0.00     0.167 HD
ATOM     58  C   UNL A   1      46.199  29.959  28.624  1.00  0.00     0.074 A 
ATOM     59  C   UNL A   1      47.621  30.208  28.507  1.00  0.00     0.031 C 
ATOM     60  C   UNL A   1      45.296  30.883  29.032  1.00  0.00     0.037 A 
BRANCH  47  61
ATOM     61  C   UNL A   1      39.464  28.854  29.108  1.00  0.00     0.057 A 
ATOM     62  C   UNL A   1      38.894  28.676  30.375  1.00  0.00     0.134 A 
ATOM     63  C   UNL A   1      38.647  29.382  28.102  1.00  0.00     0.134 A 
ATOM     64  F   UNL A   1      39.619  28.163  31.381  1.00  0.00    -0.206 F 
ATOM     65  C   UNL A   1      37.559  28.996  30.627  1.00  0.00     0.040 A 
ATOM     66  C   UNL A   1      37.318  29.731  28.347  1.00  0.00     0.040 A 
ATOM     67  F   UNL A   1      39.131  29.583  26.866  1.00  0.00    -0.206 F 
ATOM     68  C   UNL A   1      36.770  29.533  29.613  1.00  0.00     0.006 A 
ENDBRANCH  47  61
BRANCH  48  69
ATOM     69  C   UNL A   1      48.960  26.454  27.149  1.00  0.00     0.057 A 
ATOM     70  C   UNL A   1      49.444  26.542  25.838  1.00  0.00     0.134 A 
ATOM     71  C   UNL A   1      49.851  26.013  28.135  1.00  0.00     0.134 A 
ATOM     72  F   UNL A   1      48.635  26.940  24.846  1.00  0.00    -0.206 F 
ATOM     73  C   UNL A   1      50.749  26.171  25.512  1.00  0.00     0.040 A 
ATOM     74  C   UNL A   1      51.168  25.667  27.829  1.00  0.00     0.040 A 
ATOM     75  F   UNL A   1      49.454  25.916  29.412  1.00  0.00    -0.206 F 
ATOM     76  C   UNL A   1      51.617  25.734  26.511  1.00  0.00     0.006 A 
ENDBRANCH  48  69
BRANCH  60  77
ATOM     77  C   UNL A   1      45.822  32.233  29.425  1.00  0.00     0.057 A 
ATOM     78  C   UNL A   1      45.917  33.287  28.507  1.00  0.00     0.134 A 
ATOM     79  C   UNL A   1      46.202  32.491  30.749  1.00  0.00     0.134 A 
ATOM     80  F   UNL A   1      45.582  33.102  27.222  1.00  0.00    -0.206 F 
ATOM     81  C   UNL A   1      46.395  34.542  28.887  1.00  0.00     0.040 A 
ATOM     82  C   UNL A   1      46.654  33.749  31.146  1.00  0.00     0.040 A 
ATOM     83  F   UNL A   1      46.125  31.527  31.679  1.00  0.00    -0.206 F 
ATOM     84  C   UNL A   1      46.757  34.777  30.212  1.00  0.00     0.006 A 
ENDBRANCH  60  77
ENDBRANCH  34  35
ENDBRANCH  26  29
ENDBRANCH  24  25
ENDBRANCH  23  24
ENDBRANCH  22  23
ENDBRANCH   1  22
TORSDOF 16
ENDMDL
MODEL 3
REMARK VINA RESULT:     -10.4      5.339      9.387
REMARK SMILES C[C@@](O)(c1ccc(Cl)cc1Cl)[C@@H](F)C(=O)NCCCCCCNC(=O)c1ccc(-c2c3nc(c(-c4c(F)cccc4F)c4ccc([nH]4)c(-c4c(F)cccc4F)c4nc(c(-c5c(F)cccc5F)c5ccc2[nH]5)C=C4)C=C3)cc1
REMARK SMILES IDX 19 1 18 2 17 3 16 4 14 5 15 6 12 8 13 9 2 10 1 11 3 12 4 14
REMARK SMILES IDX 5 15 10 16 6 17 9 18 11 19 7 20 8 21 20 22 21 23 22 24 23 25
REMARK SMILES IDX 24 26 25 28 26 29 27 30 79 31 28 32 78 33 29 34 30 35 31 36
REMARK SMILES IDX 72 37 32 38 77 39 71 40 73 41 33 42 76 43 70 44 69 45 34 47
REMARK SMILES IDX 60 48 43 49 59 50 44 51 47 52 58 53 74 54 45 55 46 56 57 58
REMARK SMILES IDX 75 59 48 60 35 61 36 62 41 63 37 64 38 65 40 66 42 67 39 68
REMARK SMILES IDX 61 69 62 70 67 71 63 72 64 73 66 74 68 75 65 76 49 77 50 78
REMARK SMILES IDX 55 79 51 80 52 81 54 82 56 83 53 84
REMARK H PARENT 16 7 3 13 23 27 73 46 47 57
REMARK Flexibility Score: inf
ROOT
ATOM      1  C   UNL A   1      32.138  29.688  27.203  1.00  0.00     0.002 C 
ENDROOT
BRANCH   1   2
ATOM      2  C   UNL A   1      32.613  28.343  26.650  1.00  0.00     0.021 C 
BRANCH   2   3
ATOM      3  C   UNL A   1      31.649  27.699  25.653  1.00  0.00     0.116 C 
BRANCH   3   4
ATOM      4  N   UNL A   1      30.667  26.895  26.356  1.00  0.00    -0.353 N 
ATOM      5  C   UNL A   1      30.303  25.596  26.161  1.00  0.00     0.257 C 
ATOM      6  O   UNL A   1      29.246  25.220  26.680  1.00  0.00    -0.272 OA
ATOM      7  H   UNL A   1      30.192  27.356  27.084  1.00  0.00     0.163 HD
BRANCH   5   8
ATOM      8  C   UNL A   1      31.109  24.637  25.285  1.00  0.00     0.291 C 
ATOM      9  F   UNL A   1      30.389  24.128  24.240  1.00  0.00    -0.233 F 
BRANCH   8  10
ATOM     10  C   UNL A   1      31.746  23.477  26.103  1.00  0.00     0.128 C 
ATOM     11  C   UNL A   1      31.193  22.110  25.665  1.00  0.00     0.051 C 
BRANCH  10  12
ATOM     12  O   UNL A   1      31.425  23.535  27.505  1.00  0.00    -0.382 OA
ATOM     13  H   UNL A   1      31.207  24.449  27.748  1.00  0.00     0.212 HD
ENDBRANCH  10  12
BRANCH  10  14
ATOM     14  C   UNL A   1      33.283  23.549  25.988  1.00  0.00     0.005 A 
ATOM     15  C   UNL A   1      33.901  24.641  25.335  1.00  0.00     0.010 A 
ATOM     16  C   UNL A   1      34.140  22.562  26.526  1.00  0.00     0.048 A 
ATOM     17  C   UNL A   1      35.287  24.714  25.170  1.00  0.00     0.021 A 
ATOM     18  C   UNL A   1      35.529  22.637  26.357  1.00  0.00     0.041 A 
ATOM     19  Cl  UNL A   1      33.574  21.212  27.454  1.00  0.00    -0.084 Cl
ATOM     20  C   UNL A   1      36.094  23.703  25.671  1.00  0.00     0.042 A 
ATOM     21  Cl  UNL A   1      37.798  23.779  25.450  1.00  0.00    -0.084 Cl
ENDBRANCH  10  14
ENDBRANCH   8  10
ENDBRANCH   5   8
ENDBRANCH   3   4
ENDBRANCH   2   3
ENDBRANCH   1   2
BRANCH   1  22
ATOM     22  C   UNL A   1      31.605  30.658  26.145  1.00  0.00     0.002 C 
BRANCH  22  23
ATOM     23  C   UNL A   1      31.403  32.097  26.629  1.00  0.00     0.021 C 
BRANCH  23  24
ATOM     24  C   UNL A   1      32.662  32.771  27.169  1.00  0.00     0.116 C 
BRANCH  24  25
ATOM     25  N   UNL A   1      32.409  34.142  27.579  1.00  0.00    -0.352 N 
ATOM     26  C   UNL A   1      32.995  34.862  28.586  1.00  0.00     0.251 C 
ATOM     27  H   UNL A   1      31.722  34.620  27.060  1.00  0.00     0.163 HD
ATOM     28  O   UNL A   1      32.505  35.931  28.952  1.00  0.00    -0.269 OA
BRANCH  26  29
ATOM     29  C   UNL A   1      34.211  34.346  29.241  1.00  0.00     0.039 A 
ATOM     30  C   UNL A   1      34.097  33.692  30.469  1.00  0.00     0.014 A 
ATOM     31  C   UNL A   1      35.465  34.517  28.645  1.00  0.00     0.014 A 
ATOM     32  C   UNL A   1      35.235  33.163  31.077  1.00  0.00     0.010 A 
ATOM     33  C   UNL A   1      36.587  33.927  29.217  1.00  0.00     0.010 A 
ATOM     34  C   UNL A   1      36.486  33.251  30.442  1.00  0.00    -0.014 A 
BRANCH  34  35
ATOM     35  C   UNL A   1      37.700  32.654  31.052  1.00  0.00     0.031 A 
ATOM     36  C   UNL A   1      38.348  31.454  30.417  1.00  0.00     0.074 A 
ATOM     37  C   UNL A   1      38.185  33.157  32.203  1.00  0.00     0.049 A 
ATOM     38  N   UNL A   1      39.368  30.747  30.835  1.00  0.00    -0.248 NA
ATOM     39  C   UNL A   1      37.758  30.968  29.159  1.00  0.00     0.031 C 
ATOM     40  C   UNL A   1      37.620  34.290  32.937  1.00  0.00     0.029 A 
ATOM     41  N   UNL A   1      39.261  32.772  32.964  1.00  0.00    -0.354 N 
ATOM     42  C   UNL A   1      39.535  29.735  29.898  1.00  0.00     0.074 A 
ATOM     43  C   UNL A   1      38.478  29.882  28.922  1.00  0.00     0.031 C 
ATOM     44  C   UNL A   1      38.363  34.521  34.032  1.00  0.00     0.029 A 
ATOM     45  C   UNL A   1      39.432  33.529  34.098  1.00  0.00     0.049 A 
ATOM     46  H   UNL A   1      39.852  32.024  32.721  1.00  0.00     0.167 HD
ATOM     47  C   UNL A   1      40.499  28.786  29.842  1.00  0.00     0.037 A 
ATOM     48  C   UNL A   1      40.344  33.428  35.084  1.00  0.00     0.037 A 
ATOM     49  C   UNL A   1      41.562  28.655  30.804  1.00  0.00     0.049 A 
ATOM     50  C   UNL A   1      41.393  32.352  35.005  1.00  0.00     0.074 A 
ATOM     51  C   UNL A   1      42.610  27.751  30.812  1.00  0.00     0.029 A 
ATOM     52  N   UNL A   1      41.713  29.454  31.926  1.00  0.00    -0.354 N 
ATOM     53  N   UNL A   1      41.573  31.439  34.082  1.00  0.00    -0.248 NA
ATOM     54  C   UNL A   1      42.371  32.299  36.101  1.00  0.00     0.031 C 
ATOM     55  C   UNL A   1      43.373  27.977  31.962  1.00  0.00     0.029 A 
ATOM     56  C   UNL A   1      42.829  29.053  32.642  1.00  0.00     0.049 A 
ATOM     57  H   UNL A   1      41.117  30.196  32.177  1.00  0.00     0.167 HD
ATOM     58  C   UNL A   1      42.700  30.726  34.468  1.00  0.00     0.074 A 
ATOM     59  C   UNL A   1      43.171  31.322  35.700  1.00  0.00     0.031 C 
ATOM     60  C   UNL A   1      43.292  29.670  33.859  1.00  0.00     0.037 A 
BRANCH  47  61
ATOM     61  C   UNL A   1      40.458  27.819  28.694  1.00  0.00     0.057 A 
ATOM     62  C   UNL A   1      41.199  28.034  27.525  1.00  0.00     0.134 A 
ATOM     63  C   UNL A   1      39.715  26.635  28.778  1.00  0.00     0.134 A 
ATOM     64  F   UNL A   1      41.923  29.154  27.376  1.00  0.00    -0.206 F 
ATOM     65  C   UNL A   1      41.189  27.116  26.474  1.00  0.00     0.040 A 
ATOM     66  C   UNL A   1      39.718  25.696  27.744  1.00  0.00     0.040 A 
ATOM     67  F   UNL A   1      38.986  26.364  29.871  1.00  0.00    -0.206 F 
ATOM     68  C   UNL A   1      40.453  25.939  26.586  1.00  0.00     0.006 A 
ENDBRANCH  47  61
BRANCH  48  69
ATOM     69  C   UNL A   1      40.317  34.372  36.231  1.00  0.00     0.057 A 
ATOM     70  C   UNL A   1      39.598  34.077  37.396  1.00  0.00     0.134 A 
ATOM     71  C   UNL A   1      40.979  35.604  36.179  1.00  0.00     0.134 A 
ATOM     72  F   UNL A   1      38.927  32.920  37.499  1.00  0.00    -0.206 F 
ATOM     73  C   UNL A   1      39.510  34.983  38.452  1.00  0.00     0.040 A 
ATOM     74  C   UNL A   1      40.924  36.510  37.241  1.00  0.00     0.040 A 
ATOM     75  F   UNL A   1      41.693  35.946  35.097  1.00  0.00    -0.206 F 
ATOM     76  C   UNL A   1      40.177  36.204  38.378  1.00  0.00     0.006 A 
ENDBRANCH  48  69
BRANCH  60  77
ATOM     77  C   UNL A   1      44.538  29.121  34.490  1.00  0.00     0.057 A 
ATOM     78  C   UNL A   1      45.809  29.613  34.170  1.00  0.00     0.134 A 
ATOM     79  C   UNL A   1      44.458  28.112  35.460  1.00  0.00     0.134 A 
ATOM     80  F   UNL A   1      45.955  30.569  33.241  1.00  0.00    -0.206 F 
ATOM     81  C   UNL A   1      46.961  29.103  34.775  1.00  0.00     0.040 A 
ATOM     82  C   UNL A   1      45.599  27.616  36.091  1.00  0.00     0.040 A 
ATOM     83  F   UNL A   1      43.269  27.605  35.819  1.00  0.00    -0.206 F 
ATOM     84  C   UNL A   1      46.855  28.108  35.744  1.00  0.00     0.006 A 
ENDBRANCH  60  77
ENDBRANCH  34  35
ENDBRANCH  26  29
ENDBRANCH  24  25
ENDBRANCH  23  24
ENDBRANCH  22  23
ENDBRANCH   1  22
TORSDOF 16
ENDMDL
