MODEL 1
REMARK VINA RESULT:     -11.5      0.000      0.000
REMARK SMILES O=C(COc1ccc(F)cc1)Nc1sccc1C(=O)NCCCCCCNC(=O)c1ccc(-c2c3nc(c(-c4c(F)cccc4F)c4ccc([nH]4)c(-c4c(F)cccc4F)c4nc(c(-c5c(F)cccc5F)c5ccc2[nH]5)C=C4)C=C3)cc1
REMARK SMILES IDX 22 1 21 2 20 3 18 4 19 5 17 7 13 8 14 9 15 10 16 11 12 12
REMARK SMILES IDX 1 13 2 14 3 16 4 17 5 18 6 19 11 20 7 21 10 22 8 23 9 24
REMARK SMILES IDX 23 25 24 26 25 27 26 28 27 29 28 30 29 32 30 33 31 34 83 35
REMARK SMILES IDX 32 36 82 37 33 38 34 39 35 40 76 41 36 42 81 43 75 44 77 45
REMARK SMILES IDX 37 46 80 47 74 48 73 49 38 51 64 52 47 53 63 54 48 55 51 56
REMARK SMILES IDX 62 57 78 58 49 59 50 60 61 62 79 63 52 64 39 65 40 66 45 67
REMARK SMILES IDX 41 68 42 69 44 70 46 71 43 72 65 73 66 74 71 75 67 76 68 77
REMARK SMILES IDX 70 78 72 79 69 80 53 81 54 82 59 83 55 84 56 85 58 86 60 87
REMARK SMILES IDX 57 88
REMARK H PARENT 20 6 12 15 27 31 77 50 51 61
REMARK Flexibility Score: inf
ROOT
ATOM      1  C   UNL A   1      32.310  28.430  26.819  1.00  0.00     0.021 C 
ENDROOT
BRANCH   1   2
ATOM      2  C   UNL A   1      33.795  28.317  26.500  1.00  0.00     0.116 C 
BRANCH   2   3
ATOM      3  N   UNL A   1      34.191  28.561  25.137  1.00  0.00    -0.352 N 
ATOM      4  C   UNL A   1      33.888  27.870  23.980  1.00  0.00     0.254 C 
ATOM      5  O   UNL A   1      34.283  28.383  22.929  1.00  0.00    -0.269 OA
ATOM      6  H   UNL A   1      34.773  29.345  25.010  1.00  0.00     0.163 HD
BRANCH   4   7
ATOM      7  C   UNL A   1      33.296  26.520  23.961  1.00  0.00     0.074 A 
ATOM      8  C   UNL A   1      31.984  26.078  24.000  1.00  0.00     0.108 A 
ATOM      9  S   UNL A   1      31.836  24.390  24.231  1.00  0.00    -0.126 S 
ATOM     10  C   UNL A   1      33.499  24.151  23.969  1.00  0.00     0.068 A 
ATOM     11  C   UNL A   1      34.159  25.353  23.851  1.00  0.00     0.028 A 
BRANCH   8  12
ATOM     12  N   UNL A   1      30.737  26.645  23.906  1.00  0.00    -0.314 N 
ATOM     13  O   UNL A   1      30.825  27.305  21.684  1.00  0.00    -0.271 OA
ATOM     14  C   UNL A   1      30.286  27.304  22.785  1.00  0.00     0.262 C 
ATOM     15  H   UNL A   1      30.135  26.578  24.683  1.00  0.00     0.170 HD
BRANCH  14  16
ATOM     16  C   UNL A   1      29.059  28.163  23.098  1.00  0.00     0.329 C 
BRANCH  16  17
ATOM     17  O   UNL A   1      29.345  29.404  23.726  1.00  0.00    -0.484 OA
BRANCH  17  18
ATOM     18  C   UNL A   1      28.881  30.419  22.939  1.00  0.00     0.120 A 
ATOM     19  C   UNL A   1      28.388  30.131  21.667  1.00  0.00     0.049 A 
ATOM     20  C   UNL A   1      28.895  31.722  23.434  1.00  0.00     0.049 A 
ATOM     21  C   UNL A   1      27.950  31.170  20.855  1.00  0.00     0.043 A 
ATOM     22  C   UNL A   1      28.446  32.760  22.620  1.00  0.00     0.043 A 
ATOM     23  C   UNL A   1      27.984  32.474  21.337  1.00  0.00     0.123 A 
ATOM     24  F   UNL A   1      27.559  33.473  20.554  1.00  0.00    -0.207 F 
ENDBRANCH  17  18
ENDBRANCH  16  17
ENDBRANCH  14  16
ENDBRANCH   8  12
ENDBRANCH   4   7
ENDBRANCH   2   3
ENDBRANCH   1   2
BRANCH   1  25
ATOM     25  C   UNL A   1      31.800  29.817  27.234  1.00  0.00     0.002 C 
BRANCH  25  26
ATOM     26  C   UNL A   1      31.427  30.816  26.128  1.00  0.00     0.002 C 
BRANCH  26  27
ATOM     27  C   UNL A   1      31.356  32.297  26.501  1.00  0.00     0.021 C 
BRANCH  27  28
ATOM     28  C   UNL A   1      32.575  32.903  27.184  1.00  0.00     0.116 C 
BRANCH  28  29
ATOM     29  N   UNL A   1      32.360  34.263  27.635  1.00  0.00    -0.352 N 
ATOM     30  C   UNL A   1      33.007  34.987  28.609  1.00  0.00     0.251 C 
ATOM     31  H   UNL A   1      31.638  34.745  27.170  1.00  0.00     0.163 HD
ATOM     32  O   UNL A   1      32.578  36.091  28.928  1.00  0.00    -0.269 OA
BRANCH  30  33
ATOM     33  C   UNL A   1      34.200  34.439  29.300  1.00  0.00     0.039 A 
ATOM     34  C   UNL A   1      34.020  33.783  30.523  1.00  0.00     0.014 A 
ATOM     35  C   UNL A   1      35.487  34.593  28.782  1.00  0.00     0.014 A 
ATOM     36  C   UNL A   1      35.119  33.235  31.191  1.00  0.00     0.010 A 
ATOM     37  C   UNL A   1      36.572  33.977  29.407  1.00  0.00     0.010 A 
ATOM     38  C   UNL A   1      36.401  33.297  30.622  1.00  0.00    -0.014 A 
BRANCH  38  39
ATOM     39  C   UNL A   1      37.573  32.669  31.290  1.00  0.00     0.031 A 
ATOM     40  C   UNL A   1      38.252  31.477  30.670  1.00  0.00     0.074 A 
ATOM     41  C   UNL A   1      37.998  33.139  32.478  1.00  0.00     0.049 A 
ATOM     42  N   UNL A   1      39.245  30.759  31.132  1.00  0.00    -0.248 NA
ATOM     43  C   UNL A   1      37.734  31.017  29.372  1.00  0.00     0.031 C 
ATOM     44  C   UNL A   1      37.408  34.266  33.201  1.00  0.00     0.029 A 
ATOM     45  N   UNL A   1      39.025  32.727  33.292  1.00  0.00    -0.354 N 
ATOM     46  C   UNL A   1      39.461  29.763  30.189  1.00  0.00     0.074 A 
ATOM     47  C   UNL A   1      38.461  29.930  29.159  1.00  0.00     0.031 C 
ATOM     48  C   UNL A   1      38.102  34.477  34.331  1.00  0.00     0.029 A 
ATOM     49  C   UNL A   1      39.156  33.474  34.438  1.00  0.00     0.049 A 
ATOM     50  H   UNL A   1      39.613  31.966  33.074  1.00  0.00     0.167 HD
ATOM     51  C   UNL A   1      40.424  28.810  30.169  1.00  0.00     0.037 A 
ATOM     52  C   UNL A   1      40.026  33.365  35.462  1.00  0.00     0.037 A 
ATOM     53  C   UNL A   1      41.435  28.661  31.182  1.00  0.00     0.049 A 
ATOM     54  C   UNL A   1      41.070  32.283  35.430  1.00  0.00     0.074 A 
ATOM     55  C   UNL A   1      42.483  27.758  31.223  1.00  0.00     0.029 A 
ATOM     56  N   UNL A   1      41.527  29.433  32.330  1.00  0.00    -0.354 N 
ATOM     57  N   UNL A   1      41.292  31.378  34.509  1.00  0.00    -0.248 NA
ATOM     58  C   UNL A   1      41.987  32.208  36.578  1.00  0.00     0.031 C 
ATOM     59  C   UNL A   1      43.178  27.948  32.421  1.00  0.00     0.029 A 
ATOM     60  C   UNL A   1      42.599  29.009  33.099  1.00  0.00     0.049 A 
ATOM     61  H   UNL A   1      40.920  30.172  32.565  1.00  0.00     0.167 HD
ATOM     62  C   UNL A   1      42.384  30.642  34.951  1.00  0.00     0.074 A 
ATOM     63  C   UNL A   1      42.788  31.214  36.219  1.00  0.00     0.031 C 
ATOM     64  C   UNL A   1      42.995  29.588  34.357  1.00  0.00     0.037 A 
BRANCH  51  65
ATOM     65  C   UNL A   1      40.443  27.859  29.007  1.00  0.00     0.057 A 
ATOM     66  C   UNL A   1      41.213  28.132  27.869  1.00  0.00     0.134 A 
ATOM     67  C   UNL A   1      39.650  26.703  28.987  1.00  0.00     0.134 A 
ATOM     68  F   UNL A   1      41.990  29.224  27.816  1.00  0.00    -0.206 F 
ATOM     69  C   UNL A   1      41.185  27.296  26.750  1.00  0.00     0.040 A 
ATOM     70  C   UNL A   1      39.635  25.846  27.887  1.00  0.00     0.040 A 
ATOM     71  F   UNL A   1      38.897  26.377  30.048  1.00  0.00    -0.206 F 
ATOM     72  C   UNL A   1      40.397  26.147  26.759  1.00  0.00     0.006 A 
ENDBRANCH  51  65
BRANCH  52  73
ATOM     73  C   UNL A   1      39.961  34.334  36.584  1.00  0.00     0.057 A 
ATOM     74  C   UNL A   1      39.212  34.072  37.740  1.00  0.00     0.134 A 
ATOM     75  C   UNL A   1      40.618  35.567  36.510  1.00  0.00     0.134 A 
ATOM     76  F   UNL A   1      38.550  32.912  37.869  1.00  0.00    -0.206 F 
ATOM     77  C   UNL A   1      39.103  35.009  38.769  1.00  0.00     0.040 A 
ATOM     78  C   UNL A   1      40.538  36.503  37.542  1.00  0.00     0.040 A 
ATOM     79  F   UNL A   1      41.365  35.869  35.438  1.00  0.00    -0.206 F 
ATOM     80  C   UNL A   1      39.771  36.228  38.672  1.00  0.00     0.006 A 
ENDBRANCH  52  73
BRANCH  64  81
ATOM     81  C   UNL A   1      44.183  28.988  35.049  1.00  0.00     0.057 A 
ATOM     82  C   UNL A   1      44.015  27.992  36.021  1.00  0.00     0.134 A 
ATOM     83  C   UNL A   1      45.483  29.457  34.825  1.00  0.00     0.134 A 
ATOM     84  F   UNL A   1      42.794  27.507  36.294  1.00  0.00    -0.206 F 
ATOM     85  C   UNL A   1      45.093  27.500  36.758  1.00  0.00     0.040 A 
ATOM     86  C   UNL A   1      46.573  28.954  35.537  1.00  0.00     0.040 A 
ATOM     87  F   UNL A   1      45.714  30.403  33.901  1.00  0.00    -0.206 F 
ATOM     88  C   UNL A   1      46.378  27.981  36.515  1.00  0.00     0.006 A 
ENDBRANCH  64  81
ENDBRANCH  38  39
ENDBRANCH  30  33
ENDBRANCH  28  29
ENDBRANCH  27  28
ENDBRANCH  26  27
ENDBRANCH  25  26
ENDBRANCH   1  25
TORSDOF 17
ENDMDL
MODEL 2
REMARK VINA RESULT:     -11.4      5.329      7.756
REMARK SMILES O=C(COc1ccc(F)cc1)Nc1sccc1C(=O)NCCCCCCNC(=O)c1ccc(-c2c3nc(c(-c4c(F)cccc4F)c4ccc([nH]4)c(-c4c(F)cccc4F)c4nc(c(-c5c(F)cccc5F)c5ccc2[nH]5)C=C4)C=C3)cc1
REMARK SMILES IDX 22 1 21 2 20 3 18 4 19 5 17 7 13 8 14 9 15 10 16 11 12 12
REMARK SMILES IDX 1 13 2 14 3 16 4 17 5 18 6 19 11 20 7 21 10 22 8 23 9 24
REMARK SMILES IDX 23 25 24 26 25 27 26 28 27 29 28 30 29 32 30 33 31 34 83 35
REMARK SMILES IDX 32 36 82 37 33 38 34 39 35 40 76 41 36 42 81 43 75 44 77 45
REMARK SMILES IDX 37 46 80 47 74 48 73 49 38 51 64 52 47 53 63 54 48 55 51 56
REMARK SMILES IDX 62 57 78 58 49 59 50 60 61 62 79 63 52 64 39 65 40 66 45 67
REMARK SMILES IDX 41 68 42 69 44 70 46 71 43 72 65 73 66 74 71 75 67 76 68 77
REMARK SMILES IDX 70 78 72 79 69 80 53 81 54 82 59 83 55 84 56 85 58 86 60 87
REMARK SMILES IDX 57 88
REMARK H PARENT 20 6 12 15 27 31 77 50 51 61
REMARK Flexibility Score: inf
ROOT
ATOM      1  C   UNL A   1      31.596  27.441  26.210  1.00  0.00     0.021 C 
ENDROOT
BRANCH   1   2
ATOM      2  C   UNL A   1      32.066  25.998  26.345  1.00  0.00     0.116 C 
BRANCH   2   3
ATOM      3  N   UNL A   1      31.069  25.015  26.681  1.00  0.00    -0.352 N 
ATOM      4  C   UNL A   1      31.200  23.672  26.976  1.00  0.00     0.254 C 
ATOM      5  O   UNL A   1      30.169  23.098  27.341  1.00  0.00    -0.269 OA
ATOM      6  H   UNL A   1      30.145  25.355  26.704  1.00  0.00     0.163 HD
BRANCH   4   7
ATOM      7  C   UNL A   1      32.423  22.890  26.716  1.00  0.00     0.074 A 
ATOM      8  C   UNL A   1      33.087  22.561  25.547  1.00  0.00     0.108 A 
ATOM      9  S   UNL A   1      34.319  21.395  25.764  1.00  0.00    -0.126 S 
ATOM     10  C   UNL A   1      34.222  21.524  27.456  1.00  0.00     0.068 A 
ATOM     11  C   UNL A   1      33.175  22.334  27.832  1.00  0.00     0.028 A 
BRANCH   8  12
ATOM     12  N   UNL A   1      33.019  22.925  24.225  1.00  0.00    -0.314 N 
ATOM     13  O   UNL A   1      34.701  24.523  24.220  1.00  0.00    -0.271 OA
ATOM     14  C   UNL A   1      33.763  23.947  23.681  1.00  0.00     0.262 C 
ATOM     15  H   UNL A   1      32.405  22.429  23.636  1.00  0.00     0.170 HD
BRANCH  14  16
ATOM     16  C   UNL A   1      33.200  24.387  22.327  1.00  0.00     0.329 C 
BRANCH  16  17
ATOM     17  O   UNL A   1      33.769  25.577  21.803  1.00  0.00    -0.484 OA
BRANCH  17  18
ATOM     18  C   UNL A   1      32.979  26.637  22.143  1.00  0.00     0.120 A 
ATOM     19  C   UNL A   1      33.569  27.814  22.604  1.00  0.00     0.049 A 
ATOM     20  C   UNL A   1      31.596  26.523  22.005  1.00  0.00     0.049 A 
ATOM     21  C   UNL A   1      32.759  28.878  22.984  1.00  0.00     0.043 A 
ATOM     22  C   UNL A   1      30.789  27.596  22.378  1.00  0.00     0.043 A 
ATOM     23  C   UNL A   1      31.378  28.759  22.868  1.00  0.00     0.123 A 
ATOM     24  F   UNL A   1      30.600  29.786  23.233  1.00  0.00    -0.207 F 
ENDBRANCH  17  18
ENDBRANCH  16  17
ENDBRANCH  14  16
ENDBRANCH   8  12
ENDBRANCH   4   7
ENDBRANCH   2   3
ENDBRANCH   1   2
BRANCH   1  25
ATOM     25  C   UNL A   1      31.779  28.340  27.440  1.00  0.00     0.002 C 
BRANCH  25  26
ATOM     26  C   UNL A   1      32.549  29.659  27.271  1.00  0.00     0.002 C 
BRANCH  26  27
ATOM     27  C   UNL A   1      33.927  29.598  26.611  1.00  0.00     0.021 C 
BRANCH  27  28
ATOM     28  C   UNL A   1      35.107  29.219  27.495  1.00  0.00     0.116 C 
BRANCH  28  29
ATOM     29  N   UNL A   1      35.088  29.879  28.785  1.00  0.00    -0.352 N 
ATOM     30  C   UNL A   1      36.109  30.108  29.678  1.00  0.00     0.251 C 
ATOM     31  H   UNL A   1      34.208  30.217  29.066  1.00  0.00     0.163 HD
ATOM     32  O   UNL A   1      35.853  30.573  30.784  1.00  0.00    -0.269 OA
BRANCH  30  33
ATOM     33  C   UNL A   1      37.513  29.776  29.334  1.00  0.00     0.039 A 
ATOM     34  C   UNL A   1      38.327  29.211  30.322  1.00  0.00     0.014 A 
ATOM     35  C   UNL A   1      38.045  30.043  28.071  1.00  0.00     0.014 A 
ATOM     36  C   UNL A   1      39.648  28.863  30.026  1.00  0.00     0.010 A 
ATOM     37  C   UNL A   1      39.337  29.624  27.753  1.00  0.00     0.010 A 
ATOM     38  C   UNL A   1      40.156  29.035  28.729  1.00  0.00    -0.014 A 
BRANCH  38  39
ATOM     39  C   UNL A   1      41.540  28.617  28.380  1.00  0.00     0.031 A 
ATOM     40  C   UNL A   1      41.837  27.184  28.031  1.00  0.00     0.074 A 
ATOM     41  C   UNL A   1      42.542  29.517  28.423  1.00  0.00     0.049 A 
ATOM     42  N   UNL A   1      42.987  26.620  27.761  1.00  0.00    -0.248 NA
ATOM     43  C   UNL A   1      40.695  26.257  28.004  1.00  0.00     0.031 C 
ATOM     44  C   UNL A   1      42.394  30.929  28.777  1.00  0.00     0.029 A 
ATOM     45  N   UNL A   1      43.885  29.379  28.171  1.00  0.00    -0.354 N 
ATOM     46  C   UNL A   1      42.708  25.277  27.542  1.00  0.00     0.074 A 
ATOM     47  C   UNL A   1      41.291  25.097  27.769  1.00  0.00     0.031 C 
ATOM     48  C   UNL A   1      43.590  31.533  28.686  1.00  0.00     0.029 A 
ATOM     49  C   UNL A   1      44.597  30.545  28.313  1.00  0.00     0.049 A 
ATOM     50  H   UNL A   1      44.299  28.523  27.912  1.00  0.00     0.167 HD
ATOM     51  C   UNL A   1      43.551  24.288  27.160  1.00  0.00     0.037 A 
ATOM     52  C   UNL A   1      45.913  30.794  28.162  1.00  0.00     0.037 A 
ATOM     53  C   UNL A   1      44.956  24.474  26.909  1.00  0.00     0.049 A 
ATOM     54  C   UNL A   1      46.834  29.675  27.763  1.00  0.00     0.074 A 
ATOM     55  C   UNL A   1      45.880  23.543  26.470  1.00  0.00     0.029 A 
ATOM     56  N   UNL A   1      45.639  25.670  27.073  1.00  0.00    -0.354 N 
ATOM     57  N   UNL A   1      46.548  28.420  27.514  1.00  0.00    -0.248 NA
ATOM     58  C   UNL A   1      48.260  30.004  27.620  1.00  0.00     0.031 C 
ATOM     59  C   UNL A   1      47.133  24.162  26.418  1.00  0.00     0.029 A 
ATOM     60  C   UNL A   1      46.978  25.494  26.769  1.00  0.00     0.049 A 
ATOM     61  H   UNL A   1      45.231  26.518  27.364  1.00  0.00     0.167 HD
ATOM     62  C   UNL A   1      47.748  27.816  27.164  1.00  0.00     0.074 A 
ATOM     63  C   UNL A   1      48.766  28.845  27.221  1.00  0.00     0.031 C 
ATOM     64  C   UNL A   1      47.983  26.525  26.825  1.00  0.00     0.037 A 
BRANCH  51  65
ATOM     65  C   UNL A   1      42.977  22.912  26.974  1.00  0.00     0.057 A 
ATOM     66  C   UNL A   1      42.716  22.090  28.077  1.00  0.00     0.134 A 
ATOM     67  C   UNL A   1      42.743  22.377  25.700  1.00  0.00     0.134 A 
ATOM     68  F   UNL A   1      42.924  22.535  29.326  1.00  0.00    -0.206 F 
ATOM     69  C   UNL A   1      42.253  20.782  27.920  1.00  0.00     0.040 A 
ATOM     70  C   UNL A   1      42.254  21.081  25.531  1.00  0.00     0.040 A 
ATOM     71  F   UNL A   1      42.963  23.115  24.601  1.00  0.00    -0.206 F 
ATOM     72  C   UNL A   1      42.016  20.276  26.643  1.00  0.00     0.006 A 
ENDBRANCH  51  65
BRANCH  52  73
ATOM     73  C   UNL A   1      46.425  32.174  28.359  1.00  0.00     0.057 A 
ATOM     74  C   UNL A   1      46.431  33.112  27.317  1.00  0.00     0.134 A 
ATOM     75  C   UNL A   1      46.959  32.575  29.588  1.00  0.00     0.134 A 
ATOM     76  F   UNL A   1      45.942  32.785  26.111  1.00  0.00    -0.206 F 
ATOM     77  C   UNL A   1      46.967  34.390  27.485  1.00  0.00     0.040 A 
ATOM     78  C   UNL A   1      47.476  33.858  29.777  1.00  0.00     0.040 A 
ATOM     79  F   UNL A   1      46.965  31.730  30.629  1.00  0.00    -0.206 F 
ATOM     80  C   UNL A   1      47.489  34.766  28.721  1.00  0.00     0.006 A 
ENDBRANCH  52  73
BRANCH  64  81
ATOM     81  C   UNL A   1      49.387  26.141  26.464  1.00  0.00     0.057 A 
ATOM     82  C   UNL A   1      50.252  25.609  27.430  1.00  0.00     0.134 A 
ATOM     83  C   UNL A   1      49.913  26.382  25.189  1.00  0.00     0.134 A 
ATOM     84  F   UNL A   1      49.815  25.365  28.675  1.00  0.00    -0.206 F 
ATOM     85  C   UNL A   1      51.594  25.351  27.147  1.00  0.00     0.040 A 
ATOM     86  C   UNL A   1      51.248  26.103  24.886  1.00  0.00     0.040 A 
ATOM     87  F   UNL A   1      49.136  26.881  24.216  1.00  0.00    -0.206 F 
ATOM     88  C   UNL A   1      52.095  25.597  25.870  1.00  0.00     0.006 A 
ENDBRANCH  64  81
ENDBRANCH  38  39
ENDBRANCH  30  33
ENDBRANCH  28  29
ENDBRANCH  27  28
ENDBRANCH  26  27
ENDBRANCH  25  26
ENDBRANCH   1  25
TORSDOF 17
ENDMDL
MODEL 3
REMARK VINA RESULT:     -11.3      5.835     11.107
REMARK SMILES O=C(COc1ccc(F)cc1)Nc1sccc1C(=O)NCCCCCCNC(=O)c1ccc(-c2c3nc(c(-c4c(F)cccc4F)c4ccc([nH]4)c(-c4c(F)cccc4F)c4nc(c(-c5c(F)cccc5F)c5ccc2[nH]5)C=C4)C=C3)cc1
REMARK SMILES IDX 22 1 21 2 20 3 18 4 19 5 17 7 13 8 14 9 15 10 16 11 12 12
REMARK SMILES IDX 1 13 2 14 3 16 4 17 5 18 6 19 11 20 7 21 10 22 8 23 9 24
REMARK SMILES IDX 23 25 24 26 25 27 26 28 27 29 28 30 29 32 30 33 31 34 83 35
REMARK SMILES IDX 32 36 82 37 33 38 34 39 35 40 76 41 36 42 81 43 75 44 77 45
REMARK SMILES IDX 37 46 80 47 74 48 73 49 38 51 64 52 47 53 63 54 48 55 51 56
REMARK SMILES IDX 62 57 78 58 49 59 50 60 61 62 79 63 52 64 39 65 40 66 45 67
REMARK SMILES IDX 41 68 42 69 44 70 46 71 43 72 65 73 66 74 71 75 67 76 68 77
REMARK SMILES IDX 70 78 72 79 69 80 53 81 54 82 59 83 55 84 56 85 58 86 60 87
REMARK SMILES IDX 57 88
REMARK H PARENT 20 6 12 15 27 31 77 50 51 61
REMARK Flexibility Score: inf
ROOT
ATOM      1  C   UNL A   1      36.847  22.971  25.359  1.00  0.00     0.021 C 
ENDROOT
BRANCH   1   2
ATOM      2  C   UNL A   1      35.880  24.142  25.231  1.00  0.00     0.116 C 
BRANCH   2   3
ATOM      3  N   UNL A   1      35.279  24.354  23.939  1.00  0.00    -0.352 N 
ATOM      4  C   UNL A   1      34.028  24.831  23.602  1.00  0.00     0.254 C 
ATOM      5  O   UNL A   1      33.828  25.014  22.397  1.00  0.00    -0.269 OA
ATOM      6  H   UNL A   1      35.853  24.121  23.173  1.00  0.00     0.163 HD
BRANCH   4   7
ATOM      7  C   UNL A   1      32.912  24.959  24.558  1.00  0.00     0.074 A 
ATOM      8  C   UNL A   1      31.940  24.067  24.980  1.00  0.00     0.108 A 
ATOM      9  S   UNL A   1      30.701  24.794  25.908  1.00  0.00    -0.126 S 
ATOM     10  C   UNL A   1      31.577  26.244  26.047  1.00  0.00     0.068 A 
ATOM     11  C   UNL A   1      32.719  26.208  25.280  1.00  0.00     0.028 A 
BRANCH   8  12
ATOM     12  N   UNL A   1      31.694  22.724  24.846  1.00  0.00    -0.314 N 
ATOM     13  O   UNL A   1      33.372  21.925  26.234  1.00  0.00    -0.271 OA
ATOM     14  C   UNL A   1      32.487  21.747  25.404  1.00  0.00     0.262 C 
ATOM     15  H   UNL A   1      30.909  22.443  24.321  1.00  0.00     0.170 HD
BRANCH  14  16
ATOM     16  C   UNL A   1      32.221  20.381  24.770  1.00  0.00     0.329 C 
BRANCH  16  17
ATOM     17  O   UNL A   1      33.353  19.773  24.165  1.00  0.00    -0.484 OA
BRANCH  17  18
ATOM     18  C   UNL A   1      33.365  18.444  24.476  1.00  0.00     0.120 A 
ATOM     19  C   UNL A   1      32.630  17.988  25.569  1.00  0.00     0.049 A 
ATOM     20  C   UNL A   1      34.101  17.568  23.679  1.00  0.00     0.049 A 
ATOM     21  C   UNL A   1      32.673  16.640  25.904  1.00  0.00     0.043 A 
ATOM     22  C   UNL A   1      34.133  16.216  24.013  1.00  0.00     0.043 A 
ATOM     23  C   UNL A   1      33.424  15.767  25.125  1.00  0.00     0.123 A 
ATOM     24  F   UNL A   1      33.463  14.468  25.448  1.00  0.00    -0.207 F 
ENDBRANCH  17  18
ENDBRANCH  16  17
ENDBRANCH  14  16
ENDBRANCH   8  12
ENDBRANCH   4   7
ENDBRANCH   2   3
ENDBRANCH   1   2
BRANCH   1  25
ATOM     25  C   UNL A   1      36.630  21.794  24.399  1.00  0.00     0.002 C 
BRANCH  25  26
ATOM     26  C   UNL A   1      36.588  20.374  24.985  1.00  0.00     0.002 C 
BRANCH  26  27
ATOM     27  C   UNL A   1      37.868  19.540  24.921  1.00  0.00     0.021 C 
BRANCH  27  28
ATOM     28  C   UNL A   1      39.059  20.027  25.735  1.00  0.00     0.116 C 
BRANCH  28  29
ATOM     29  N   UNL A   1      40.131  19.055  25.816  1.00  0.00    -0.352 N 
ATOM     30  C   UNL A   1      41.469  19.231  26.079  1.00  0.00     0.251 C 
ATOM     31  H   UNL A   1      39.858  18.122  25.659  1.00  0.00     0.163 HD
ATOM     32  O   UNL A   1      42.238  18.281  25.969  1.00  0.00    -0.269 OA
BRANCH  30  33
ATOM     33  C   UNL A   1      42.002  20.560  26.466  1.00  0.00     0.039 A 
ATOM     34  C   UNL A   1      42.438  21.424  25.456  1.00  0.00     0.014 A 
ATOM     35  C   UNL A   1      42.110  20.950  27.803  1.00  0.00     0.014 A 
ATOM     36  C   UNL A   1      42.924  22.693  25.782  1.00  0.00     0.010 A 
ATOM     37  C   UNL A   1      42.520  22.245  28.122  1.00  0.00     0.010 A 
ATOM     38  C   UNL A   1      42.939  23.129  27.117  1.00  0.00    -0.014 A 
BRANCH  38  39
ATOM     39  C   UNL A   1      43.398  24.497  27.477  1.00  0.00     0.031 A 
ATOM     40  C   UNL A   1      42.404  25.546  27.897  1.00  0.00     0.074 A 
ATOM     41  C   UNL A   1      44.704  24.811  27.383  1.00  0.00     0.049 A 
ATOM     42  N   UNL A   1      42.607  26.806  28.188  1.00  0.00    -0.248 NA
ATOM     43  C   UNL A   1      40.995  25.133  27.977  1.00  0.00     0.031 C 
ATOM     44  C   UNL A   1      45.764  23.896  26.959  1.00  0.00     0.029 A 
ATOM     45  N   UNL A   1      45.365  25.989  27.634  1.00  0.00    -0.354 N 
ATOM     46  C   UNL A   1      41.354  27.334  28.476  1.00  0.00     0.074 A 
ATOM     47  C   UNL A   1      40.391  26.277  28.266  1.00  0.00     0.031 C 
ATOM     48  C   UNL A   1      46.945  24.535  27.012  1.00  0.00     0.029 A 
ATOM     49  C   UNL A   1      46.722  25.915  27.429  1.00  0.00     0.049 A 
ATOM     50  H   UNL A   1      44.909  26.809  27.934  1.00  0.00     0.167 HD
ATOM     51  C   UNL A   1      41.039  28.581  28.902  1.00  0.00     0.037 A 
ATOM     52  C   UNL A   1      47.681  26.853  27.559  1.00  0.00     0.037 A 
ATOM     53  C   UNL A   1      42.001  29.625  29.134  1.00  0.00     0.049 A 
ATOM     54  C   UNL A   1      47.303  28.237  28.009  1.00  0.00     0.074 A 
ATOM     55  C   UNL A   1      41.781  30.904  29.615  1.00  0.00     0.029 A 
ATOM     56  N   UNL A   1      43.364  29.512  28.906  1.00  0.00    -0.354 N 
ATOM     57  N   UNL A   1      46.120  28.708  28.322  1.00  0.00    -0.248 NA
ATOM     58  C   UNL A   1      48.390  29.220  28.126  1.00  0.00     0.031 C 
ATOM     59  C   UNL A   1      43.003  31.582  29.628  1.00  0.00     0.029 A 
ATOM     60  C   UNL A   1      43.994  30.707  29.211  1.00  0.00     0.049 A 
ATOM     61  H   UNL A   1      43.816  28.702  28.576  1.00  0.00     0.167 HD
ATOM     62  C   UNL A   1      46.322  30.031  28.695  1.00  0.00     0.074 A 
ATOM     63  C   UNL A   1      47.743  30.285  28.581  1.00  0.00     0.031 C 
ATOM     64  C   UNL A   1      45.410  30.949  29.097  1.00  0.00     0.037 A 
BRANCH  51  65
ATOM     65  C   UNL A   1      39.590  28.885  29.161  1.00  0.00     0.057 A 
ATOM     66  C   UNL A   1      39.031  28.686  30.429  1.00  0.00     0.134 A 
ATOM     67  C   UNL A   1      38.733  29.314  28.138  1.00  0.00     0.134 A 
ATOM     68  F   UNL A   1      39.791  28.269  31.453  1.00  0.00    -0.206 F 
ATOM     69  C   UNL A   1      37.671  28.893  30.669  1.00  0.00     0.040 A 
ATOM     70  C   UNL A   1      37.378  29.552  28.371  1.00  0.00     0.040 A 
ATOM     71  F   UNL A   1      39.206  29.534  26.902  1.00  0.00    -0.206 F 
ATOM     72  C   UNL A   1      36.841  29.332  29.638  1.00  0.00     0.006 A 
ENDBRANCH  51  65
BRANCH  52  73
ATOM     73  C   UNL A   1      49.097  26.496  27.290  1.00  0.00     0.057 A 
ATOM     74  C   UNL A   1      49.661  26.631  26.015  1.00  0.00     0.134 A 
ATOM     75  C   UNL A   1      49.910  25.971  28.301  1.00  0.00     0.134 A 
ATOM     76  F   UNL A   1      48.930  27.119  25.001  1.00  0.00    -0.206 F 
ATOM     77  C   UNL A   1      50.974  26.239  25.749  1.00  0.00     0.040 A 
ATOM     78  C   UNL A   1      51.233  25.597  28.055  1.00  0.00     0.040 A 
ATOM     79  F   UNL A   1      49.434  25.834  29.547  1.00  0.00    -0.206 F 
ATOM     80  C   UNL A   1      51.764  25.723  26.773  1.00  0.00     0.006 A 
ENDBRANCH  52  73
BRANCH  64  81
ATOM     81  C   UNL A   1      45.908  32.314  29.469  1.00  0.00     0.057 A 
ATOM     82  C   UNL A   1      46.021  33.321  28.500  1.00  0.00     0.134 A 
ATOM     83  C   UNL A   1      46.365  32.607  30.760  1.00  0.00     0.134 A 
ATOM     84  F   UNL A   1      45.613  33.102  27.240  1.00  0.00    -0.206 F 
ATOM     85  C   UNL A   1      46.587  34.561  28.797  1.00  0.00     0.040 A 
ATOM     86  C   UNL A   1      46.909  33.853  31.075  1.00  0.00     0.040 A 
ATOM     87  F   UNL A   1      46.277  31.690  31.736  1.00  0.00    -0.206 F 
ATOM     88  C   UNL A   1      47.033  34.830  30.089  1.00  0.00     0.006 A 
ENDBRANCH  64  81
ENDBRANCH  38  39
ENDBRANCH  30  33
ENDBRANCH  28  29
ENDBRANCH  27  28
ENDBRANCH  26  27
ENDBRANCH  25  26
ENDBRANCH   1  25
TORSDOF 17
ENDMDL
