MODEL 1
REMARK VINA RESULT:     -11.1      0.000      0.000
REMARK SMILES O=C(CC[N@H+]1CCC[C@@H](C(=O)NCCCCCCNC(=O)c2ccc(-c3c4nc(c(-c5c(F)cccc5F)c5ccc([nH]5)c(-c5c(F)cccc5F)c5nc(c(-c6c(F)cccc6F)c6ccc3[nH]6)C=C5)C=C4)cc2)C1)Nc1cccc(F)c1
REMARK SMILES IDX 14 1 13 2 12 3 10 4 11 5 9 7 5 8 6 9 76 10 7 12 8 13 4 14
REMARK SMILES IDX 3 15 2 16 1 17 77 18 78 20 79 21 84 22 80 23 82 24 81 25
REMARK SMILES IDX 83 26 15 27 16 28 17 29 18 30 19 31 20 32 21 34 22 35 23 36
REMARK SMILES IDX 75 37 24 38 74 39 25 40 26 41 27 42 68 43 28 44 73 45 67 46
REMARK SMILES IDX 69 47 29 48 72 49 66 50 65 51 30 53 56 54 39 55 55 56 40 57
REMARK SMILES IDX 43 58 54 59 70 60 41 61 42 62 53 64 71 65 44 66 31 67 32 68
REMARK SMILES IDX 37 69 33 70 34 71 36 72 38 73 35 74 57 75 58 76 63 77 59 78
REMARK SMILES IDX 60 79 62 80 64 81 61 82 45 83 46 84 51 85 47 86 48 87 50 88
REMARK SMILES IDX 52 89 49 90
REMARK H PARENT 12 6 5 11 77 19 19 33 69 52 43 63
REMARK Flexibility Score: inf
ROOT
ATOM      1  C   UNL A   1      33.598  28.557  24.838  1.00  0.00     0.021 C 
ENDROOT
BRANCH   1   2
ATOM      2  C   UNL A   1      33.263  28.962  23.402  1.00  0.00     0.116 C 
BRANCH   2   3
ATOM      3  N   UNL A   1      33.474  27.874  22.472  1.00  0.00    -0.356 N 
ATOM      4  C   UNL A   1      32.742  26.818  22.055  1.00  0.00     0.228 C 
ATOM      5  O   UNL A   1      33.293  26.122  21.189  1.00  0.00    -0.275 OA
ATOM      6  H   UNL A   1      34.358  27.913  22.042  1.00  0.00     0.163 HD
BRANCH   4   7
ATOM      7  C   UNL A   1      31.322  26.445  22.523  1.00  0.00     0.133 C 
ATOM      8  N   UNL A   1      30.411  25.219  24.614  1.00  0.00    -0.334 N 
ATOM      9  C   UNL A   1      29.326  26.171  24.756  1.00  0.00     0.262 C 
ATOM     10  C   UNL A   1      31.526  25.463  23.705  1.00  0.00     0.275 C 
ATOM     11  H   UNL A   1      29.940  24.597  23.957  1.00  0.00     0.348 HD
ATOM     12  C   UNL A   1      29.071  26.992  23.506  1.00  0.00     0.062 C 
ATOM     13  C   UNL A   1      30.352  27.552  22.906  1.00  0.00     0.025 C 
BRANCH   8  14
ATOM     14  C   UNL A   1      30.691  24.407  25.808  1.00  0.00     0.272 C 
BRANCH  14  15
ATOM     15  C   UNL A   1      30.796  22.878  25.674  1.00  0.00     0.161 C 
BRANCH  15  16
ATOM     16  C   UNL A   1      32.173  22.274  25.416  1.00  0.00     0.230 C 
ATOM     17  O   UNL A   1      32.277  21.107  25.046  1.00  0.00    -0.275 OA
ATOM     18  N   UNL A   1      33.224  23.151  25.563  1.00  0.00    -0.326 N 
ATOM     19  H   UNL A   1      33.008  24.018  25.978  1.00  0.00     0.169 HD
BRANCH  18  20
ATOM     20  C   UNL A   1      34.568  22.962  25.193  1.00  0.00     0.044 A 
ATOM     21  C   UNL A   1      35.527  22.954  26.218  1.00  0.00     0.026 A 
ATOM     22  C   UNL A   1      34.987  22.836  23.872  1.00  0.00     0.065 A 
ATOM     23  C   UNL A   1      36.886  22.811  25.929  1.00  0.00     0.005 A 
ATOM     24  C   UNL A   1      36.346  22.714  23.591  1.00  0.00     0.125 A 
ATOM     25  C   UNL A   1      37.298  22.697  24.606  1.00  0.00     0.039 A 
ATOM     26  F   UNL A   1      36.752  22.628  22.317  1.00  0.00    -0.207 F 
ENDBRANCH  18  20
ENDBRANCH  15  16
ENDBRANCH  14  15
ENDBRANCH   8  14
ENDBRANCH   4   7
ENDBRANCH   2   3
ENDBRANCH   1   2
BRANCH   1  27
ATOM     27  C   UNL A   1      32.675  29.174  25.898  1.00  0.00     0.002 C 
BRANCH  27  28
ATOM     28  C   UNL A   1      31.489  29.981  25.354  1.00  0.00     0.002 C 
BRANCH  28  29
ATOM     29  C   UNL A   1      31.194  31.293  26.086  1.00  0.00     0.021 C 
BRANCH  29  30
ATOM     30  C   UNL A   1      32.357  31.833  26.913  1.00  0.00     0.116 C 
BRANCH  30  31
ATOM     31  N   UNL A   1      32.205  33.249  27.202  1.00  0.00    -0.352 N 
ATOM     32  C   UNL A   1      32.940  34.055  28.034  1.00  0.00     0.251 C 
ATOM     33  H   UNL A   1      31.464  33.696  26.731  1.00  0.00     0.163 HD
ATOM     34  O   UNL A   1      32.535  35.176  28.324  1.00  0.00    -0.269 OA
BRANCH  32  35
ATOM     35  C   UNL A   1      34.221  33.571  28.592  1.00  0.00     0.039 A 
ATOM     36  C   UNL A   1      34.199  32.753  29.725  1.00  0.00     0.014 A 
ATOM     37  C   UNL A   1      35.442  33.949  28.024  1.00  0.00     0.014 A 
ATOM     38  C   UNL A   1      35.396  32.274  30.260  1.00  0.00     0.010 A 
ATOM     39  C   UNL A   1      36.630  33.420  28.518  1.00  0.00     0.010 A 
ATOM     40  C   UNL A   1      36.621  32.584  29.645  1.00  0.00    -0.014 A 
BRANCH  40  41
ATOM     41  C   UNL A   1      37.902  32.059  30.177  1.00  0.00     0.031 A 
ATOM     42  C   UNL A   1      38.485  30.788  29.623  1.00  0.00     0.074 A 
ATOM     43  C   UNL A   1      38.510  32.692  31.199  1.00  0.00     0.049 A 
ATOM     44  N   UNL A   1      39.551  30.131  30.004  1.00  0.00    -0.248 NA
ATOM     45  C   UNL A   1      37.758  30.158  28.510  1.00  0.00     0.031 C 
ATOM     46  C   UNL A   1      38.024  33.910  31.849  1.00  0.00     0.029 A 
ATOM     47  N   UNL A   1      39.665  32.392  31.876  1.00  0.00    -0.354 N 
ATOM     48  C   UNL A   1      39.615  29.009  29.189  1.00  0.00     0.074 A 
ATOM     49  C   UNL A   1      38.452  29.045  28.328  1.00  0.00     0.031 C 
ATOM     50  C   UNL A   1      38.885  34.264  32.817  1.00  0.00     0.029 A 
ATOM     51  C   UNL A   1      39.963  33.281  32.879  1.00  0.00     0.049 A 
ATOM     52  H   UNL A   1      40.227  31.613  31.663  1.00  0.00     0.167 HD
ATOM     53  C   UNL A   1      40.568  28.047  29.144  1.00  0.00     0.037 A 
ATOM     54  C   UNL A   1      40.987  33.300  33.753  1.00  0.00     0.037 A 
ATOM     55  C   UNL A   1      41.738  28.027  29.982  1.00  0.00     0.049 A 
ATOM     56  C   UNL A   1      42.029  32.219  33.685  1.00  0.00     0.074 A 
ATOM     57  C   UNL A   1      42.786  27.124  29.980  1.00  0.00     0.029 A 
ATOM     58  N   UNL A   1      42.014  28.959  30.973  1.00  0.00    -0.354 N 
ATOM     59  N   UNL A   1      42.105  31.194  32.871  1.00  0.00    -0.248 NA
ATOM     60  C   UNL A   1      43.132  32.301  34.654  1.00  0.00     0.031 C 
ATOM     61  C   UNL A   1      43.679  27.488  30.994  1.00  0.00     0.029 A 
ATOM     62  C   UNL A   1      43.207  28.643  31.598  1.00  0.00     0.049 A 
ATOM     63  H   UNL A   1      41.444  29.730  31.197  1.00  0.00     0.167 HD
ATOM     64  C   UNL A   1      43.277  30.527  33.208  1.00  0.00     0.074 A 
ATOM     65  C   UNL A   1      43.884  31.271  34.293  1.00  0.00     0.031 C 
ATOM     66  C   UNL A   1      43.803  29.401  32.668  1.00  0.00     0.037 A 
BRANCH  53  67
ATOM     67  C   UNL A   1      40.385  26.940  28.147  1.00  0.00     0.057 A 
ATOM     68  C   UNL A   1      39.574  25.830  28.418  1.00  0.00     0.134 A 
ATOM     69  C   UNL A   1      41.002  26.997  26.890  1.00  0.00     0.134 A 
ATOM     70  F   UNL A   1      38.965  25.709  29.608  1.00  0.00    -0.206 F 
ATOM     71  C   UNL A   1      39.404  24.804  27.488  1.00  0.00     0.040 A 
ATOM     72  C   UNL A   1      40.817  25.990  25.941  1.00  0.00     0.040 A 
ATOM     73  F   UNL A   1      41.786  28.034  26.563  1.00  0.00    -0.206 F 
ATOM     74  C   UNL A   1      40.022  24.886  26.242  1.00  0.00     0.006 A 
ENDBRANCH  53  67
BRANCH  54  75
ATOM     75  C   UNL A   1      41.094  34.392  34.751  1.00  0.00     0.057 A 
ATOM     76  C   UNL A   1      40.499  34.276  36.013  1.00  0.00     0.134 A 
ATOM     77  C   UNL A   1      41.779  35.579  34.468  1.00  0.00     0.134 A 
ATOM     78  F   UNL A   1      39.814  33.170  36.335  1.00  0.00    -0.206 F 
ATOM     79  C   UNL A   1      40.562  35.309  36.949  1.00  0.00     0.040 A 
ATOM     80  C   UNL A   1      41.872  36.611  35.404  1.00  0.00     0.040 A 
ATOM     81  F   UNL A   1      42.379  35.750  33.280  1.00  0.00    -0.206 F 
ATOM     82  C   UNL A   1      41.255  36.480  36.647  1.00  0.00     0.006 A 
ENDBRANCH  54  75
BRANCH  66  83
ATOM     83  C   UNL A   1      45.119  28.930  33.214  1.00  0.00     0.057 A 
ATOM     84  C   UNL A   1      45.196  27.983  34.242  1.00  0.00     0.134 A 
ATOM     85  C   UNL A   1      46.322  29.405  32.677  1.00  0.00     0.134 A 
ATOM     86  F   UNL A   1      44.079  27.500  34.807  1.00  0.00    -0.206 F 
ATOM     87  C   UNL A   1      46.425  27.540  34.733  1.00  0.00     0.040 A 
ATOM     88  C   UNL A   1      47.557  28.952  33.142  1.00  0.00     0.040 A 
ATOM     89  F   UNL A   1      46.316  30.308  31.685  1.00  0.00    -0.206 F 
ATOM     90  C   UNL A   1      47.610  28.021  34.178  1.00  0.00     0.006 A 
ENDBRANCH  66  83
ENDBRANCH  40  41
ENDBRANCH  32  35
ENDBRANCH  30  31
ENDBRANCH  29  30
ENDBRANCH  28  29
ENDBRANCH  27  28
ENDBRANCH   1  27
TORSDOF 17
ENDMDL
MODEL 2
REMARK VINA RESULT:     -11.1      2.004      3.263
REMARK SMILES O=C(CC[N@H+]1CCC[C@@H](C(=O)NCCCCCCNC(=O)c2ccc(-c3c4nc(c(-c5c(F)cccc5F)c5ccc([nH]5)c(-c5c(F)cccc5F)c5nc(c(-c6c(F)cccc6F)c6ccc3[nH]6)C=C5)C=C4)cc2)C1)Nc1cccc(F)c1
REMARK SMILES IDX 14 1 13 2 12 3 10 4 11 5 9 7 5 8 6 9 76 10 7 12 8 13 4 14
REMARK SMILES IDX 3 15 2 16 1 17 77 18 78 20 79 21 84 22 80 23 82 24 81 25
REMARK SMILES IDX 83 26 15 27 16 28 17 29 18 30 19 31 20 32 21 34 22 35 23 36
REMARK SMILES IDX 75 37 24 38 74 39 25 40 26 41 27 42 68 43 28 44 73 45 67 46
REMARK SMILES IDX 69 47 29 48 72 49 66 50 65 51 30 53 56 54 39 55 55 56 40 57
REMARK SMILES IDX 43 58 54 59 70 60 41 61 42 62 53 64 71 65 44 66 31 67 32 68
REMARK SMILES IDX 37 69 33 70 34 71 36 72 38 73 35 74 57 75 58 76 63 77 59 78
REMARK SMILES IDX 60 79 62 80 64 81 61 82 45 83 46 84 51 85 47 86 48 87 50 88
REMARK SMILES IDX 52 89 49 90
REMARK H PARENT 12 6 5 11 77 19 19 33 69 52 43 63
REMARK Flexibility Score: inf
ROOT
ATOM      1  C   UNL A   1      32.771  28.202  26.064  1.00  0.00     0.021 C 
ENDROOT
BRANCH   1   2
ATOM      2  C   UNL A   1      31.452  27.544  25.657  1.00  0.00     0.116 C 
BRANCH   2   3
ATOM      3  N   UNL A   1      31.189  26.345  26.425  1.00  0.00    -0.356 N 
ATOM      4  C   UNL A   1      31.551  25.048  26.325  1.00  0.00     0.228 C 
ATOM      5  O   UNL A   1      31.128  24.326  27.240  1.00  0.00    -0.275 OA
ATOM      6  H   UNL A   1      30.611  26.517  27.203  1.00  0.00     0.163 HD
BRANCH   4   7
ATOM      7  C   UNL A   1      32.438  24.426  25.230  1.00  0.00     0.133 C 
ATOM      8  N   UNL A   1      34.490  22.847  25.296  1.00  0.00    -0.334 N 
ATOM      9  C   UNL A   1      33.981  22.065  24.186  1.00  0.00     0.262 C 
ATOM     10  C   UNL A   1      33.657  23.832  25.980  1.00  0.00     0.275 C 
ATOM     11  H   UNL A   1      34.964  23.555  24.736  1.00  0.00     0.348 HD
ATOM     12  C   UNL A   1      32.898  22.769  23.392  1.00  0.00     0.062 C 
ATOM     13  C   UNL A   1      31.837  23.397  24.284  1.00  0.00     0.025 C 
BRANCH   8  14
ATOM     14  C   UNL A   1      35.539  22.194  26.093  1.00  0.00     0.272 C 
BRANCH  14  15
ATOM     15  C   UNL A   1      36.971  22.755  26.061  1.00  0.00     0.161 C 
BRANCH  15  16
ATOM     16  C   UNL A   1      38.106  21.804  25.693  1.00  0.00     0.230 C 
ATOM     17  O   UNL A   1      38.022  21.100  24.689  1.00  0.00    -0.275 OA
ATOM     18  N   UNL A   1      39.205  21.870  26.520  1.00  0.00    -0.326 N 
ATOM     19  H   UNL A   1      39.089  22.387  27.351  1.00  0.00     0.169 HD
BRANCH  18  20
ATOM     20  C   UNL A   1      40.471  21.291  26.326  1.00  0.00     0.044 A 
ATOM     21  C   UNL A   1      41.536  22.151  26.013  1.00  0.00     0.026 A 
ATOM     22  C   UNL A   1      40.700  19.919  26.379  1.00  0.00     0.065 A 
ATOM     23  C   UNL A   1      42.816  21.648  25.767  1.00  0.00     0.005 A 
ATOM     24  C   UNL A   1      41.975  19.426  26.112  1.00  0.00     0.125 A 
ATOM     25  C   UNL A   1      43.035  20.276  25.811  1.00  0.00     0.039 A 
ATOM     26  F   UNL A   1      42.188  18.103  26.130  1.00  0.00    -0.207 F 
ENDBRANCH  18  20
ENDBRANCH  15  16
ENDBRANCH  14  15
ENDBRANCH   8  14
ENDBRANCH   4   7
ENDBRANCH   2   3
ENDBRANCH   1   2
BRANCH   1  27
ATOM     27  C   UNL A   1      32.846  29.704  25.757  1.00  0.00     0.002 C 
BRANCH  27  28
ATOM     28  C   UNL A   1      31.503  30.386  25.461  1.00  0.00     0.002 C 
BRANCH  28  29
ATOM     29  C   UNL A   1      31.230  31.671  26.249  1.00  0.00     0.021 C 
BRANCH  29  30
ATOM     30  C   UNL A   1      32.432  32.210  27.019  1.00  0.00     0.116 C 
BRANCH  30  31
ATOM     31  N   UNL A   1      32.271  33.614  27.360  1.00  0.00    -0.352 N 
ATOM     32  C   UNL A   1      32.967  34.379  28.262  1.00  0.00     0.251 C 
ATOM     33  H   UNL A   1      31.557  34.085  26.872  1.00  0.00     0.163 HD
ATOM     34  O   UNL A   1      32.552  35.488  28.579  1.00  0.00    -0.269 OA
BRANCH  32  35
ATOM     35  C   UNL A   1      34.215  33.863  28.863  1.00  0.00     0.039 A 
ATOM     36  C   UNL A   1      34.133  33.028  29.980  1.00  0.00     0.014 A 
ATOM     37  C   UNL A   1      35.465  34.228  28.351  1.00  0.00     0.014 A 
ATOM     38  C   UNL A   1      35.300  32.520  30.555  1.00  0.00     0.010 A 
ATOM     39  C   UNL A   1      36.623  33.670  28.883  1.00  0.00     0.010 A 
ATOM     40  C   UNL A   1      36.553  32.817  29.995  1.00  0.00    -0.014 A 
BRANCH  40  41
ATOM     41  C   UNL A   1      37.803  32.260  30.569  1.00  0.00     0.031 A 
ATOM     42  C   UNL A   1      38.449  31.055  29.944  1.00  0.00     0.074 A 
ATOM     43  C   UNL A   1      38.323  32.803  31.687  1.00  0.00     0.049 A 
ATOM     44  N   UNL A   1      39.498  30.379  30.340  1.00  0.00    -0.248 NA
ATOM     45  C   UNL A   1      37.816  30.522  28.728  1.00  0.00     0.031 C 
ATOM     46  C   UNL A   1      37.768  33.949  32.409  1.00  0.00     0.029 A 
ATOM     47  N   UNL A   1      39.432  32.456  32.417  1.00  0.00    -0.354 N 
ATOM     48  C   UNL A   1      39.642  29.337  29.433  1.00  0.00     0.074 A 
ATOM     49  C   UNL A   1      38.543  29.439  28.496  1.00  0.00     0.031 C 
ATOM     50  C   UNL A   1      38.550  34.222  33.466  1.00  0.00     0.029 A 
ATOM     51  C   UNL A   1      39.640  33.251  33.517  1.00  0.00     0.049 A 
ATOM     52  H   UNL A   1      40.023  31.707  32.174  1.00  0.00     0.167 HD
ATOM     53  C   UNL A   1      40.614  28.397  29.369  1.00  0.00     0.037 A 
ATOM     54  C   UNL A   1      40.598  33.201  34.461  1.00  0.00     0.037 A 
ATOM     55  C   UNL A   1      41.721  28.314  30.286  1.00  0.00     0.049 A 
ATOM     56  C   UNL A   1      41.662  32.145  34.371  1.00  0.00     0.074 A 
ATOM     57  C   UNL A   1      42.784  27.428  30.278  1.00  0.00     0.029 A 
ATOM     58  N   UNL A   1      41.906  29.152  31.376  1.00  0.00    -0.354 N 
ATOM     59  N   UNL A   1      41.817  31.201  33.474  1.00  0.00    -0.248 NA
ATOM     60  C   UNL A   1      42.691  32.150  35.422  1.00  0.00     0.031 C 
ATOM     61  C   UNL A   1      43.593  27.707  31.384  1.00  0.00     0.029 A 
ATOM     62  C   UNL A   1      43.057  28.794  32.056  1.00  0.00     0.049 A 
ATOM     63  H   UNL A   1      41.307  29.891  31.628  1.00  0.00     0.167 HD
ATOM     64  C   UNL A   1      42.974  30.520  33.833  1.00  0.00     0.074 A 
ATOM     65  C   UNL A   1      43.487  31.168  35.023  1.00  0.00     0.031 C 
ATOM     66  C   UNL A   1      43.560  29.457  33.232  1.00  0.00     0.037 A 
BRANCH  53  67
ATOM     67  C   UNL A   1      40.525  27.385  28.264  1.00  0.00     0.057 A 
ATOM     68  C   UNL A   1      41.235  27.537  27.066  1.00  0.00     0.134 A 
ATOM     69  C   UNL A   1      39.745  26.231  28.410  1.00  0.00     0.134 A 
ATOM     70  F   UNL A   1      41.990  28.626  26.858  1.00  0.00    -0.206 F 
ATOM     71  C   UNL A   1      41.151  26.593  26.042  1.00  0.00     0.040 A 
ATOM     72  C   UNL A   1      39.675  25.265  27.404  1.00  0.00     0.040 A 
ATOM     73  F   UNL A   1      39.045  26.019  29.534  1.00  0.00    -0.206 F 
ATOM     74  C   UNL A   1      40.374  25.449  26.212  1.00  0.00     0.006 A 
ENDBRANCH  53  67
BRANCH  54  75
ATOM     75  C   UNL A   1      40.611  34.197  35.561  1.00  0.00     0.057 A 
ATOM     76  C   UNL A   1      39.898  33.973  36.745  1.00  0.00     0.134 A 
ATOM     77  C   UNL A   1      41.323  35.397  35.454  1.00  0.00     0.134 A 
ATOM     78  F   UNL A   1      39.183  32.849  36.897  1.00  0.00    -0.206 F 
ATOM     79  C   UNL A   1      39.874  34.915  37.773  1.00  0.00     0.040 A 
ATOM     80  C   UNL A   1      41.328  36.338  36.485  1.00  0.00     0.040 A 
ATOM     81  F   UNL A   1      42.034  35.669  34.349  1.00  0.00    -0.206 F 
ATOM     82  C   UNL A   1      40.595  36.101  37.647  1.00  0.00     0.006 A 
ENDBRANCH  54  75
BRANCH  66  83
ATOM     83  C   UNL A   1      44.841  28.953  33.827  1.00  0.00     0.057 A 
ATOM     84  C   UNL A   1      46.084  29.490  33.469  1.00  0.00     0.134 A 
ATOM     85  C   UNL A   1      44.826  27.944  34.798  1.00  0.00     0.134 A 
ATOM     86  F   UNL A   1      46.167  30.449  32.534  1.00  0.00    -0.206 F 
ATOM     87  C   UNL A   1      47.269  29.024  34.040  1.00  0.00     0.040 A 
ATOM     88  C   UNL A   1      46.001  27.487  35.394  1.00  0.00     0.040 A 
ATOM     89  F   UNL A   1      43.667  27.394  35.191  1.00  0.00    -0.206 F 
ATOM     90  C   UNL A   1      47.229  28.024  35.010  1.00  0.00     0.006 A 
ENDBRANCH  66  83
ENDBRANCH  40  41
ENDBRANCH  32  35
ENDBRANCH  30  31
ENDBRANCH  29  30
ENDBRANCH  28  29
ENDBRANCH  27  28
ENDBRANCH   1  27
TORSDOF 17
ENDMDL
MODEL 3
REMARK VINA RESULT:     -11.0      5.522     10.316
REMARK SMILES O=C(CC[N@H+]1CCC[C@@H](C(=O)NCCCCCCNC(=O)c2ccc(-c3c4nc(c(-c5c(F)cccc5F)c5ccc([nH]5)c(-c5c(F)cccc5F)c5nc(c(-c6c(F)cccc6F)c6ccc3[nH]6)C=C5)C=C4)cc2)C1)Nc1cccc(F)c1
REMARK SMILES IDX 14 1 13 2 12 3 10 4 11 5 9 7 5 8 6 9 76 10 7 12 8 13 4 14
REMARK SMILES IDX 3 15 2 16 1 17 77 18 78 20 79 21 84 22 80 23 82 24 81 25
REMARK SMILES IDX 83 26 15 27 16 28 17 29 18 30 19 31 20 32 21 34 22 35 23 36
REMARK SMILES IDX 75 37 24 38 74 39 25 40 26 41 27 42 68 43 28 44 73 45 67 46
REMARK SMILES IDX 69 47 29 48 72 49 66 50 65 51 30 53 56 54 39 55 55 56 40 57
REMARK SMILES IDX 43 58 54 59 70 60 41 61 42 62 53 64 71 65 44 66 31 67 32 68
REMARK SMILES IDX 37 69 33 70 34 71 36 72 38 73 35 74 57 75 58 76 63 77 59 78
REMARK SMILES IDX 60 79 62 80 64 81 61 82 45 83 46 84 51 85 47 86 48 87 50 88
REMARK SMILES IDX 52 89 49 90
REMARK H PARENT 12 6 5 11 77 19 19 33 69 52 43 63
REMARK Flexibility Score: inf
ROOT
ATOM      1  C   UNL A   1      41.213  21.926  26.126  1.00  0.00     0.021 C 
ENDROOT
BRANCH   1   2
ATOM      2  C   UNL A   1      39.802  21.912  26.714  1.00  0.00     0.116 C 
BRANCH   2   3
ATOM      3  N   UNL A   1      38.950  22.904  26.094  1.00  0.00    -0.356 N 
ATOM      4  C   UNL A   1      37.663  22.936  25.684  1.00  0.00     0.228 C 
ATOM      5  O   UNL A   1      37.300  24.029  25.224  1.00  0.00    -0.275 OA
ATOM      6  H   UNL A   1      39.418  23.755  25.935  1.00  0.00     0.163 HD
BRANCH   4   7
ATOM      7  C   UNL A   1      36.645  21.784  25.769  1.00  0.00     0.133 C 
ATOM      8  N   UNL A   1      34.156  21.565  25.090  1.00  0.00    -0.334 N 
ATOM      9  C   UNL A   1      34.376  20.244  24.535  1.00  0.00     0.262 C 
ATOM     10  C   UNL A   1      35.270  22.430  25.466  1.00  0.00     0.275 C 
ATOM     11  H   UNL A   1      33.993  21.265  26.051  1.00  0.00     0.348 HD
ATOM     12  C   UNL A   1      35.667  19.597  24.999  1.00  0.00     0.062 C 
ATOM     13  C   UNL A   1      36.856  20.543  24.915  1.00  0.00     0.025 C 
BRANCH   8  14
ATOM     14  C   UNL A   1      32.915  22.226  24.659  1.00  0.00     0.272 C 
BRANCH  14  15
ATOM     15  C   UNL A   1      31.768  22.413  25.667  1.00  0.00     0.161 C 
BRANCH  15  16
ATOM     16  C   UNL A   1      31.695  23.729  26.434  1.00  0.00     0.230 C 
ATOM     17  O   UNL A   1      31.366  23.739  27.618  1.00  0.00    -0.275 OA
ATOM     18  N   UNL A   1      32.088  24.838  25.717  1.00  0.00    -0.326 N 
ATOM     19  H   UNL A   1      32.211  24.703  24.749  1.00  0.00     0.169 HD
BRANCH  18  20
ATOM     20  C   UNL A   1      32.334  26.137  26.195  1.00  0.00     0.044 A 
ATOM     21  C   UNL A   1      31.247  26.850  26.723  1.00  0.00     0.026 A 
ATOM     22  C   UNL A   1      33.579  26.754  26.122  1.00  0.00     0.065 A 
ATOM     23  C   UNL A   1      31.403  28.160  27.182  1.00  0.00     0.005 A 
ATOM     24  C   UNL A   1      33.721  28.068  26.563  1.00  0.00     0.125 A 
ATOM     25  C   UNL A   1      32.647  28.775  27.096  1.00  0.00     0.039 A 
ATOM     26  F   UNL A   1      34.912  28.674  26.461  1.00  0.00    -0.207 F 
ENDBRANCH  18  20
ENDBRANCH  15  16
ENDBRANCH  14  15
ENDBRANCH   8  14
ENDBRANCH   4   7
ENDBRANCH   2   3
ENDBRANCH   1   2
BRANCH   1  27
ATOM     27  C   UNL A   1      42.100  20.761  26.587  1.00  0.00     0.002 C 
BRANCH  27  28
ATOM     28  C   UNL A   1      41.653  19.368  26.126  1.00  0.00     0.002 C 
BRANCH  28  29
ATOM     29  C   UNL A   1      42.635  18.230  26.420  1.00  0.00     0.021 C 
BRANCH  29  30
ATOM     30  C   UNL A   1      44.099  18.575  26.166  1.00  0.00     0.116 C 
BRANCH  30  31
ATOM     31  N   UNL A   1      44.441  18.483  24.756  1.00  0.00    -0.352 N 
ATOM     32  C   UNL A   1      44.703  19.483  23.854  1.00  0.00     0.251 C 
ATOM     33  H   UNL A   1      44.491  17.568  24.396  1.00  0.00     0.163 HD
ATOM     34  O   UNL A   1      44.758  19.232  22.655  1.00  0.00    -0.269 OA
BRANCH  32  35
ATOM     35  C   UNL A   1      44.911  20.869  24.324  1.00  0.00     0.039 A 
ATOM     36  C   UNL A   1      44.501  21.928  23.510  1.00  0.00     0.014 A 
ATOM     37  C   UNL A   1      45.541  21.127  25.546  1.00  0.00     0.014 A 
ATOM     38  C   UNL A   1      44.676  23.244  23.942  1.00  0.00     0.010 A 
ATOM     39  C   UNL A   1      45.656  22.436  26.005  1.00  0.00     0.010 A 
ATOM     40  C   UNL A   1      45.233  23.508  25.204  1.00  0.00    -0.014 A 
BRANCH  40  41
ATOM     41  C   UNL A   1      45.398  24.898  25.696  1.00  0.00     0.031 A 
ATOM     42  C   UNL A   1      46.750  25.556  25.661  1.00  0.00     0.074 A 
ATOM     43  C   UNL A   1      44.344  25.547  26.227  1.00  0.00     0.049 A 
ATOM     44  N   UNL A   1      47.111  26.731  26.110  1.00  0.00    -0.248 NA
ATOM     45  C   UNL A   1      47.848  24.777  25.066  1.00  0.00     0.031 C 
ATOM     46  C   UNL A   1      42.991  25.004  26.354  1.00  0.00     0.029 A 
ATOM     47  N   UNL A   1      44.250  26.804  26.770  1.00  0.00    -0.354 N 
ATOM     48  C   UNL A   1      48.474  26.827  25.865  1.00  0.00     0.074 A 
ATOM     49  C   UNL A   1      48.887  25.571  25.276  1.00  0.00     0.031 C 
ATOM     50  C   UNL A   1      42.198  25.929  26.919  1.00  0.00     0.029 A 
ATOM     51  C   UNL A   1      42.991  27.115  27.225  1.00  0.00     0.049 A 
ATOM     52  H   UNL A   1      45.011  27.424  26.828  1.00  0.00     0.167 HD
ATOM     53  C   UNL A   1      49.304  27.874  26.087  1.00  0.00     0.037 A 
ATOM     54  C   UNL A   1      42.531  28.229  27.825  1.00  0.00     0.037 A 
ATOM     55  C   UNL A   1      48.886  29.132  26.649  1.00  0.00     0.049 A 
ATOM     56  C   UNL A   1      43.473  29.375  28.065  1.00  0.00     0.074 A 
ATOM     57  C   UNL A   1      49.639  30.272  26.869  1.00  0.00     0.029 A 
ATOM     58  N   UNL A   1      47.597  29.415  27.078  1.00  0.00    -0.354 N 
ATOM     59  N   UNL A   1      44.748  29.473  27.776  1.00  0.00    -0.248 NA
ATOM     60  C   UNL A   1      42.909  30.571  28.709  1.00  0.00     0.031 C 
ATOM     61  C   UNL A   1      48.815  31.232  27.464  1.00  0.00     0.029 A 
ATOM     62  C   UNL A   1      47.538  30.705  27.576  1.00  0.00     0.049 A 
ATOM     63  H   UNL A   1      46.838  28.789  27.035  1.00  0.00     0.167 HD
ATOM     64  C   UNL A   1      45.132  30.747  28.174  1.00  0.00     0.074 A 
ATOM     65  C   UNL A   1      43.951  31.390  28.713  1.00  0.00     0.031 C 
ATOM     66  C   UNL A   1      46.352  31.333  28.098  1.00  0.00     0.037 A 
BRANCH  53  67
ATOM     67  C   UNL A   1      50.747  27.703  25.714  1.00  0.00     0.057 A 
ATOM     68  C   UNL A   1      51.717  27.351  26.662  1.00  0.00     0.134 A 
ATOM     69  C   UNL A   1      51.169  27.863  24.388  1.00  0.00     0.134 A 
ATOM     70  F   UNL A   1      51.381  27.195  27.951  1.00  0.00    -0.206 F 
ATOM     71  C   UNL A   1      53.058  27.190  26.310  1.00  0.00     0.040 A 
ATOM     72  C   UNL A   1      52.503  27.677  24.019  1.00  0.00     0.040 A 
ATOM     73  F   UNL A   1      50.292  28.193  23.429  1.00  0.00    -0.206 F 
ATOM     74  C   UNL A   1      53.453  27.347  24.984  1.00  0.00     0.006 A 
ENDBRANCH  53  67
BRANCH  54  75
ATOM     75  C   UNL A   1      41.104  28.327  28.218  1.00  0.00     0.057 A 
ATOM     76  C   UNL A   1      40.143  28.816  27.324  1.00  0.00     0.134 A 
ATOM     77  C   UNL A   1      40.666  27.949  29.492  1.00  0.00     0.134 A 
ATOM     78  F   UNL A   1      40.506  29.210  26.095  1.00  0.00    -0.206 F 
ATOM     79  C   UNL A   1      38.803  28.946  27.691  1.00  0.00     0.040 A 
ATOM     80  C   UNL A   1      39.325  28.051  29.865  1.00  0.00     0.040 A 
ATOM     81  F   UNL A   1      41.536  27.465  30.392  1.00  0.00    -0.206 F 
ATOM     82  C   UNL A   1      38.390  28.558  28.964  1.00  0.00     0.006 A 
ENDBRANCH  54  75
BRANCH  66  83
ATOM     83  C   UNL A   1      46.460  32.752  28.573  1.00  0.00     0.057 A 
ATOM     84  C   UNL A   1      46.232  33.837  27.718  1.00  0.00     0.134 A 
ATOM     85  C   UNL A   1      46.761  33.033  29.911  1.00  0.00     0.134 A 
ATOM     86  F   UNL A   1      45.954  33.635  26.421  1.00  0.00    -0.206 F 
ATOM     87  C   UNL A   1      46.322  35.154  28.173  1.00  0.00     0.040 A 
ATOM     88  C   UNL A   1      46.829  34.343  30.384  1.00  0.00     0.040 A 
ATOM     89  F   UNL A   1      46.982  32.037  30.783  1.00  0.00    -0.206 F 
ATOM     90  C   UNL A   1      46.614  35.409  29.512  1.00  0.00     0.006 A 
ENDBRANCH  66  83
ENDBRANCH  40  41
ENDBRANCH  32  35
ENDBRANCH  30  31
ENDBRANCH  29  30
ENDBRANCH  28  29
ENDBRANCH  27  28
ENDBRANCH   1  27
TORSDOF 17
ENDMDL
