MODEL 1
REMARK VINA RESULT:     -12.6      0.000      0.000
REMARK SMILES C[C@@H](C(=O)NCCCCCCNC(=O)c1ccc(-c2c3nc(c(-c4c(F)cccc4F)c4ccc([nH]4)c(-c4c(F)cccc4F)c4nc(c(-c5c(F)cccc5F)c5ccc2[nH]5)C=C4)C=C3)cc1)c1ccc2c(c1)[nH]c1ccc(Cl)cc12
REMARK SMILES IDX 9 1 8 2 7 3 6 4 5 5 3 6 4 7 2 9 1 10 69 11 70 12 74 13 71 14
REMARK SMILES IDX 73 15 72 16 75 17 82 18 76 19 81 21 77 22 79 23 78 24 80 25
REMARK SMILES IDX 10 26 11 27 12 28 13 29 14 31 15 32 16 33 68 34 17 35 67 36
REMARK SMILES IDX 18 37 19 38 20 39 61 40 21 41 66 42 60 43 62 44 22 45 65 46
REMARK SMILES IDX 59 47 58 48 23 50 49 51 32 52 48 53 33 54 36 55 47 56 63 57
REMARK SMILES IDX 34 58 35 59 46 61 64 62 37 63 24 64 25 65 30 66 26 67 27 68
REMARK SMILES IDX 29 69 31 70 28 71 50 72 51 73 56 74 52 75 53 76 55 77 57 78
REMARK SMILES IDX 54 79 38 80 39 81 44 82 40 83 41 84 43 85 45 86 42 87
REMARK H PARENT 5 8 75 20 12 30 62 49 36 60
REMARK Flexibility Score: inf
ROOT
ATOM      1  C   UNL A   1      35.858  21.031  25.332  1.00  0.00     0.002 C 
ENDROOT
BRANCH   1   2
ATOM      2  C   UNL A   1      34.626  20.336  24.741  1.00  0.00     0.002 C 
BRANCH   2   3
ATOM      3  C   UNL A   1      33.423  20.228  25.687  1.00  0.00     0.021 C 
BRANCH   3   4
ATOM      4  C   UNL A   1      32.152  20.897  25.160  1.00  0.00     0.116 C 
BRANCH   4   5
ATOM      5  N   UNL A   1      31.582  21.779  26.161  1.00  0.00    -0.356 N 
ATOM      6  C   UNL A   1      31.863  23.087  26.439  1.00  0.00     0.227 C 
ATOM      7  O   UNL A   1      31.354  23.567  27.453  1.00  0.00    -0.274 OA
ATOM      8  H   UNL A   1      30.886  21.373  26.725  1.00  0.00     0.163 HD
BRANCH   6   9
ATOM      9  C   UNL A   1      32.770  23.882  25.491  1.00  0.00     0.105 C 
ATOM     10  C   UNL A   1      34.113  24.211  26.147  1.00  0.00     0.023 C 
BRANCH   9  11
ATOM     11  C   UNL A   1      32.077  25.121  24.931  1.00  0.00    -0.034 A 
ATOM     12  C   UNL A   1      32.750  26.340  24.765  1.00  0.00     0.005 A 
ATOM     13  C   UNL A   1      30.709  25.041  24.621  1.00  0.00     0.031 A 
ATOM     14  C   UNL A   1      32.100  27.471  24.249  1.00  0.00     0.011 A 
ATOM     15  C   UNL A   1      30.064  26.195  24.161  1.00  0.00     0.047 A 
ATOM     16  C   UNL A   1      30.727  27.400  23.942  1.00  0.00     0.007 A 
ATOM     17  N   UNL A   1      28.738  26.403  23.873  1.00  0.00    -0.355 N 
ATOM     18  C   UNL A   1      29.758  28.336  23.457  1.00  0.00     0.009 A 
ATOM     19  C   UNL A   1      28.513  27.708  23.512  1.00  0.00     0.047 A 
ATOM     20  H   UNL A   1      28.042  25.709  23.918  1.00  0.00     0.167 HD
ATOM     21  C   UNL A   1      29.817  29.674  23.014  1.00  0.00     0.031 A 
ATOM     22  C   UNL A   1      27.311  28.370  23.239  1.00  0.00     0.028 A 
ATOM     23  C   UNL A   1      28.624  30.336  22.702  1.00  0.00     0.041 A 
ATOM     24  C   UNL A   1      27.389  29.706  22.839  1.00  0.00     0.022 A 
ATOM     25  Cl  UNL A   1      28.682  31.966  22.144  1.00  0.00    -0.084 Cl
ENDBRANCH   9  11
ENDBRANCH   6   9
ENDBRANCH   4   5
ENDBRANCH   3   4
ENDBRANCH   2   3
ENDBRANCH   1   2
BRANCH   1  26
ATOM     26  C   UNL A   1      37.197  20.610  24.723  1.00  0.00     0.021 C 
BRANCH  26  27
ATOM     27  C   UNL A   1      38.413  20.870  25.609  1.00  0.00     0.116 C 
BRANCH  27  28
ATOM     28  N   UNL A   1      39.340  19.750  25.615  1.00  0.00    -0.352 N 
ATOM     29  C   UNL A   1      40.677  19.719  25.936  1.00  0.00     0.251 C 
ATOM     30  H   UNL A   1      38.953  18.884  25.351  1.00  0.00     0.163 HD
ATOM     31  O   UNL A   1      41.347  18.722  25.702  1.00  0.00    -0.269 OA
BRANCH  29  32
ATOM     32  C   UNL A   1      41.314  20.910  26.539  1.00  0.00     0.039 A 
ATOM     33  C   UNL A   1      41.883  21.870  25.698  1.00  0.00     0.014 A 
ATOM     34  C   UNL A   1      41.335  21.088  27.925  1.00  0.00     0.014 A 
ATOM     35  C   UNL A   1      42.391  23.052  26.240  1.00  0.00     0.010 A 
ATOM     36  C   UNL A   1      41.782  22.296  28.459  1.00  0.00     0.010 A 
ATOM     37  C   UNL A   1      42.294  23.297  27.620  1.00  0.00    -0.014 A 
BRANCH  37  38
ATOM     38  C   UNL A   1      42.659  24.618  28.197  1.00  0.00     0.031 A 
ATOM     39  C   UNL A   1      41.612  25.674  28.413  1.00  0.00     0.074 A 
ATOM     40  C   UNL A   1      43.957  24.895  28.434  1.00  0.00     0.049 A 
ATOM     41  N   UNL A   1      41.761  26.915  28.801  1.00  0.00    -0.248 NA
ATOM     42  C   UNL A   1      40.217  25.296  28.136  1.00  0.00     0.031 C 
ATOM     43  C   UNL A   1      45.073  23.971  28.219  1.00  0.00     0.029 A 
ATOM     44  N   UNL A   1      44.564  26.042  28.883  1.00  0.00    -0.354 N 
ATOM     45  C   UNL A   1      40.488  27.470  28.797  1.00  0.00     0.074 A 
ATOM     46  C   UNL A   1      39.580  26.442  28.338  1.00  0.00     0.031 C 
ATOM     47  C   UNL A   1      46.223  24.584  28.540  1.00  0.00     0.029 A 
ATOM     48  C   UNL A   1      45.936  25.958  28.934  1.00  0.00     0.049 A 
ATOM     49  H   UNL A   1      44.064  26.850  29.144  1.00  0.00     0.167 HD
ATOM     50  C   UNL A   1      40.114  28.722  29.155  1.00  0.00     0.037 A 
ATOM     51  C   UNL A   1      46.861  26.889  29.235  1.00  0.00     0.037 A 
ATOM     52  C   UNL A   1      41.018  29.730  29.641  1.00  0.00     0.049 A 
ATOM     53  C   UNL A   1      46.413  28.278  29.605  1.00  0.00     0.074 A 
ATOM     54  C   UNL A   1      40.716  30.993  30.123  1.00  0.00     0.029 A 
ATOM     55  N   UNL A   1      42.397  29.602  29.691  1.00  0.00    -0.354 N 
ATOM     56  N   UNL A   1      45.196  28.755  29.699  1.00  0.00    -0.248 NA
ATOM     57  C   UNL A   1      47.466  29.259  29.909  1.00  0.00     0.031 C 
ATOM     58  C   UNL A   1      41.916  31.652  30.401  1.00  0.00     0.029 A 
ATOM     59  C   UNL A   1      42.962  30.781  30.148  1.00  0.00     0.049 A 
ATOM     60  H   UNL A   1      42.899  28.794  29.439  1.00  0.00     0.167 HD
ATOM     61  C   UNL A   1      45.336  30.081  30.089  1.00  0.00     0.074 A 
ATOM     62  C   UNL A   1      46.754  30.326  30.239  1.00  0.00     0.031 C 
ATOM     63  C   UNL A   1      44.375  31.013  30.295  1.00  0.00     0.037 A 
BRANCH  50  64
ATOM     64  C   UNL A   1      38.664  29.089  29.036  1.00  0.00     0.057 A 
ATOM     65  C   UNL A   1      37.789  29.023  30.127  1.00  0.00     0.134 A 
ATOM     66  C   UNL A   1      38.162  29.610  27.834  1.00  0.00     0.134 A 
ATOM     67  F   UNL A   1      38.204  28.529  31.303  1.00  0.00    -0.206 F 
ATOM     68  C   UNL A   1      36.464  29.453  30.026  1.00  0.00     0.040 A 
ATOM     69  C   UNL A   1      36.848  30.066  27.729  1.00  0.00     0.040 A 
ATOM     70  F   UNL A   1      38.950  29.709  26.753  1.00  0.00    -0.206 F 
ATOM     71  C   UNL A   1      35.994  29.988  28.827  1.00  0.00     0.006 A 
ENDBRANCH  50  64
BRANCH  51  72
ATOM     72  C   UNL A   1      48.310  26.560  29.169  1.00  0.00     0.057 A 
ATOM     73  C   UNL A   1      48.972  25.972  30.252  1.00  0.00     0.134 A 
ATOM     74  C   UNL A   1      49.076  26.867  28.037  1.00  0.00     0.134 A 
ATOM     75  F   UNL A   1      48.298  25.672  31.373  1.00  0.00    -0.206 F 
ATOM     76  C   UNL A   1      50.347  25.732  30.228  1.00  0.00     0.040 A 
ATOM     77  C   UNL A   1      50.446  26.604  27.987  1.00  0.00     0.040 A 
ATOM     78  F   UNL A   1      48.504  27.426  26.961  1.00  0.00    -0.206 F 
ATOM     79  C   UNL A   1      51.088  26.046  29.090  1.00  0.00     0.006 A 
ENDBRANCH  51  72
BRANCH  63  80
ATOM     80  C   UNL A   1      44.820  32.382  30.720  1.00  0.00     0.057 A 
ATOM     81  C   UNL A   1      45.048  33.402  29.788  1.00  0.00     0.134 A 
ATOM     82  C   UNL A   1      44.963  32.700  32.077  1.00  0.00     0.134 A 
ATOM     83  F   UNL A   1      44.943  33.159  28.473  1.00  0.00    -0.206 F 
ATOM     84  C   UNL A   1      45.418  34.686  30.190  1.00  0.00     0.040 A 
ATOM     85  C   UNL A   1      45.303  33.988  32.492  1.00  0.00     0.040 A 
ATOM     86  F   UNL A   1      44.751  31.771  33.021  1.00  0.00    -0.206 F 
ATOM     87  C   UNL A   1      45.535  34.985  31.547  1.00  0.00     0.006 A 
ENDBRANCH  63  80
ENDBRANCH  37  38
ENDBRANCH  29  32
ENDBRANCH  27  28
ENDBRANCH  26  27
ENDBRANCH   1  26
TORSDOF 14
ENDMDL
MODEL 2
REMARK VINA RESULT:     -12.1      2.633      4.322
REMARK SMILES C[C@@H](C(=O)NCCCCCCNC(=O)c1ccc(-c2c3nc(c(-c4c(F)cccc4F)c4ccc([nH]4)c(-c4c(F)cccc4F)c4nc(c(-c5c(F)cccc5F)c5ccc2[nH]5)C=C4)C=C3)cc1)c1ccc2c(c1)[nH]c1ccc(Cl)cc12
REMARK SMILES IDX 9 1 8 2 7 3 6 4 5 5 3 6 4 7 2 9 1 10 69 11 70 12 74 13 71 14
REMARK SMILES IDX 73 15 72 16 75 17 82 18 76 19 81 21 77 22 79 23 78 24 80 25
REMARK SMILES IDX 10 26 11 27 12 28 13 29 14 31 15 32 16 33 68 34 17 35 67 36
REMARK SMILES IDX 18 37 19 38 20 39 61 40 21 41 66 42 60 43 62 44 22 45 65 46
REMARK SMILES IDX 59 47 58 48 23 50 49 51 32 52 48 53 33 54 36 55 47 56 63 57
REMARK SMILES IDX 34 58 35 59 46 61 64 62 37 63 24 64 25 65 30 66 26 67 27 68
REMARK SMILES IDX 29 69 31 70 28 71 50 72 51 73 56 74 52 75 53 76 55 77 57 78
REMARK SMILES IDX 54 79 38 80 39 81 44 82 40 83 41 84 43 85 45 86 42 87
REMARK H PARENT 5 8 75 20 12 30 62 49 36 60
REMARK Flexibility Score: inf
ROOT
ATOM      1  C   UNL A   1      35.894  21.440  25.443  1.00  0.00     0.002 C 
ENDROOT
BRANCH   1   2
ATOM      2  C   UNL A   1      36.226  22.932  25.555  1.00  0.00     0.002 C 
BRANCH   2   3
ATOM      3  C   UNL A   1      35.489  23.840  24.562  1.00  0.00     0.021 C 
BRANCH   3   4
ATOM      4  C   UNL A   1      34.715  24.985  25.218  1.00  0.00     0.116 C 
BRANCH   4   5
ATOM      5  N   UNL A   1      33.987  25.750  24.222  1.00  0.00    -0.356 N 
ATOM      6  C   UNL A   1      32.647  25.794  23.958  1.00  0.00     0.227 C 
ATOM      7  O   UNL A   1      32.294  26.401  22.946  1.00  0.00    -0.274 OA
ATOM      8  H   UNL A   1      34.544  26.325  23.650  1.00  0.00     0.163 HD
BRANCH   6   9
ATOM      9  C   UNL A   1      31.667  25.109  24.918  1.00  0.00     0.105 C 
ATOM     10  C   UNL A   1      31.692  25.762  26.302  1.00  0.00     0.023 C 
BRANCH   9  11
ATOM     11  C   UNL A   1      31.881  23.599  24.984  1.00  0.00    -0.034 A 
ATOM     12  C   UNL A   1      32.175  22.940  26.186  1.00  0.00     0.005 A 
ATOM     13  C   UNL A   1      31.828  22.862  23.789  1.00  0.00     0.031 A 
ATOM     14  C   UNL A   1      32.369  21.552  26.231  1.00  0.00     0.011 A 
ATOM     15  C   UNL A   1      32.081  21.487  23.845  1.00  0.00     0.047 A 
ATOM     16  C   UNL A   1      32.324  20.808  25.036  1.00  0.00     0.007 A 
ATOM     17  N   UNL A   1      32.172  20.569  22.828  1.00  0.00    -0.355 N 
ATOM     18  C   UNL A   1      32.514  19.426  24.706  1.00  0.00     0.009 A 
ATOM     19  C   UNL A   1      32.503  19.329  23.315  1.00  0.00     0.047 A 
ATOM     20  H   UNL A   1      32.019  20.773  21.878  1.00  0.00     0.167 HD
ATOM     21  C   UNL A   1      32.737  18.255  25.460  1.00  0.00     0.031 A 
ATOM     22  C   UNL A   1      32.793  18.144  22.629  1.00  0.00     0.028 A 
ATOM     23  C   UNL A   1      32.992  17.056  24.786  1.00  0.00     0.041 A 
ATOM     24  C   UNL A   1      33.049  17.005  23.396  1.00  0.00     0.022 A 
ATOM     25  Cl  UNL A   1      33.249  15.614  25.695  1.00  0.00    -0.084 Cl
ENDBRANCH   9  11
ENDBRANCH   6   9
ENDBRANCH   4   5
ENDBRANCH   3   4
ENDBRANCH   2   3
ENDBRANCH   1   2
BRANCH   1  26
ATOM     26  C   UNL A   1      37.041  20.554  24.951  1.00  0.00     0.021 C 
BRANCH  26  27
ATOM     27  C   UNL A   1      38.418  20.937  25.487  1.00  0.00     0.116 C 
BRANCH  27  28
ATOM     28  N   UNL A   1      39.325  19.800  25.537  1.00  0.00    -0.352 N 
ATOM     29  C   UNL A   1      40.647  19.748  25.908  1.00  0.00     0.251 C 
ATOM     30  H   UNL A   1      38.932  18.939  25.263  1.00  0.00     0.163 HD
ATOM     31  O   UNL A   1      41.308  18.738  25.707  1.00  0.00    -0.269 OA
BRANCH  29  32
ATOM     32  C   UNL A   1      41.282  20.932  26.527  1.00  0.00     0.039 A 
ATOM     33  C   UNL A   1      41.919  21.865  25.704  1.00  0.00     0.014 A 
ATOM     34  C   UNL A   1      41.235  21.132  27.910  1.00  0.00     0.014 A 
ATOM     35  C   UNL A   1      42.427  23.042  26.255  1.00  0.00     0.010 A 
ATOM     36  C   UNL A   1      41.683  22.336  28.449  1.00  0.00     0.010 A 
ATOM     37  C   UNL A   1      42.265  23.311  27.625  1.00  0.00    -0.014 A 
BRANCH  37  38
ATOM     38  C   UNL A   1      42.632  24.632  28.200  1.00  0.00     0.031 A 
ATOM     39  C   UNL A   1      41.587  25.689  28.417  1.00  0.00     0.074 A 
ATOM     40  C   UNL A   1      43.931  24.907  28.436  1.00  0.00     0.049 A 
ATOM     41  N   UNL A   1      41.738  26.930  28.806  1.00  0.00    -0.248 NA
ATOM     42  C   UNL A   1      40.191  25.314  28.142  1.00  0.00     0.031 C 
ATOM     43  C   UNL A   1      45.045  23.981  28.220  1.00  0.00     0.029 A 
ATOM     44  N   UNL A   1      44.540  26.053  28.884  1.00  0.00    -0.354 N 
ATOM     45  C   UNL A   1      40.467  27.487  28.803  1.00  0.00     0.074 A 
ATOM     46  C   UNL A   1      39.556  26.460  28.345  1.00  0.00     0.031 C 
ATOM     47  C   UNL A   1      46.197  24.592  28.538  1.00  0.00     0.029 A 
ATOM     48  C   UNL A   1      45.912  25.967  28.933  1.00  0.00     0.049 A 
ATOM     49  H   UNL A   1      44.042  26.862  29.146  1.00  0.00     0.167 HD
ATOM     50  C   UNL A   1      40.094  28.739  29.161  1.00  0.00     0.037 A 
ATOM     51  C   UNL A   1      46.839  26.897  29.233  1.00  0.00     0.037 A 
ATOM     52  C   UNL A   1      41.001  29.747  29.646  1.00  0.00     0.049 A 
ATOM     53  C   UNL A   1      46.394  28.285  29.603  1.00  0.00     0.074 A 
ATOM     54  C   UNL A   1      40.701  31.009  30.128  1.00  0.00     0.029 A 
ATOM     55  N   UNL A   1      42.380  29.617  29.694  1.00  0.00    -0.354 N 
ATOM     56  N   UNL A   1      45.177  28.764  29.698  1.00  0.00    -0.248 NA
ATOM     57  C   UNL A   1      47.448  29.265  29.906  1.00  0.00     0.031 C 
ATOM     58  C   UNL A   1      41.903  31.667  30.405  1.00  0.00     0.029 A 
ATOM     59  C   UNL A   1      42.948  30.794  30.150  1.00  0.00     0.049 A 
ATOM     60  H   UNL A   1      42.880  28.807  29.442  1.00  0.00     0.167 HD
ATOM     61  C   UNL A   1      45.320  30.090  30.088  1.00  0.00     0.074 A 
ATOM     62  C   UNL A   1      46.738  30.334  30.236  1.00  0.00     0.031 C 
ATOM     63  C   UNL A   1      44.361  31.024  30.296  1.00  0.00     0.037 A 
BRANCH  50  64
ATOM     64  C   UNL A   1      38.645  29.109  29.044  1.00  0.00     0.057 A 
ATOM     65  C   UNL A   1      37.772  29.048  30.137  1.00  0.00     0.134 A 
ATOM     66  C   UNL A   1      38.142  29.627  27.842  1.00  0.00     0.134 A 
ATOM     67  F   UNL A   1      38.189  28.556  31.313  1.00  0.00    -0.206 F 
ATOM     68  C   UNL A   1      36.448  29.480  30.037  1.00  0.00     0.040 A 
ATOM     69  C   UNL A   1      36.828  30.086  27.738  1.00  0.00     0.040 A 
ATOM     70  F   UNL A   1      38.928  29.721  26.759  1.00  0.00    -0.206 F 
ATOM     71  C   UNL A   1      35.977  30.012  28.838  1.00  0.00     0.006 A 
ENDBRANCH  50  64
BRANCH  51  72
ATOM     72  C   UNL A   1      48.287  26.565  29.165  1.00  0.00     0.057 A 
ATOM     73  C   UNL A   1      49.020  26.741  27.986  1.00  0.00     0.134 A 
ATOM     74  C   UNL A   1      48.963  26.021  30.266  1.00  0.00     0.134 A 
ATOM     75  F   UNL A   1      48.425  27.238  26.891  1.00  0.00    -0.206 F 
ATOM     76  C   UNL A   1      50.358  26.358  27.891  1.00  0.00     0.040 A 
ATOM     77  C   UNL A   1      50.310  25.663  30.194  1.00  0.00     0.040 A 
ATOM     78  F   UNL A   1      48.323  25.832  31.429  1.00  0.00    -0.206 F 
ATOM     79  C   UNL A   1      51.009  25.820  29.000  1.00  0.00     0.006 A 
ENDBRANCH  51  72
BRANCH  63  80
ATOM     80  C   UNL A   1      44.809  32.393  30.720  1.00  0.00     0.057 A 
ATOM     81  C   UNL A   1      45.033  33.413  29.787  1.00  0.00     0.134 A 
ATOM     82  C   UNL A   1      44.957  32.709  32.076  1.00  0.00     0.134 A 
ATOM     83  F   UNL A   1      44.923  33.171  28.473  1.00  0.00    -0.206 F 
ATOM     84  C   UNL A   1      45.405  34.697  30.189  1.00  0.00     0.040 A 
ATOM     85  C   UNL A   1      45.300  33.997  32.491  1.00  0.00     0.040 A 
ATOM     86  F   UNL A   1      44.748  31.779  33.020  1.00  0.00    -0.206 F 
ATOM     87  C   UNL A   1      45.529  34.994  31.546  1.00  0.00     0.006 A 
ENDBRANCH  63  80
ENDBRANCH  37  38
ENDBRANCH  29  32
ENDBRANCH  27  28
ENDBRANCH  26  27
ENDBRANCH   1  26
TORSDOF 14
ENDMDL
MODEL 3
REMARK VINA RESULT:     -12.1      2.207      2.932
REMARK SMILES C[C@@H](C(=O)NCCCCCCNC(=O)c1ccc(-c2c3nc(c(-c4c(F)cccc4F)c4ccc([nH]4)c(-c4c(F)cccc4F)c4nc(c(-c5c(F)cccc5F)c5ccc2[nH]5)C=C4)C=C3)cc1)c1ccc2c(c1)[nH]c1ccc(Cl)cc12
REMARK SMILES IDX 9 1 8 2 7 3 6 4 5 5 3 6 4 7 2 9 1 10 69 11 70 12 74 13 71 14
REMARK SMILES IDX 73 15 72 16 75 17 82 18 76 19 81 21 77 22 79 23 78 24 80 25
REMARK SMILES IDX 10 26 11 27 12 28 13 29 14 31 15 32 16 33 68 34 17 35 67 36
REMARK SMILES IDX 18 37 19 38 20 39 61 40 21 41 66 42 60 43 62 44 22 45 65 46
REMARK SMILES IDX 59 47 58 48 23 50 49 51 32 52 48 53 33 54 36 55 47 56 63 57
REMARK SMILES IDX 34 58 35 59 46 61 64 62 37 63 24 64 25 65 30 66 26 67 27 68
REMARK SMILES IDX 29 69 31 70 28 71 50 72 51 73 56 74 52 75 53 76 55 77 57 78
REMARK SMILES IDX 54 79 38 80 39 81 44 82 40 83 41 84 43 85 45 86 42 87
REMARK H PARENT 5 8 75 20 12 30 62 49 36 60
REMARK Flexibility Score: inf
ROOT
ATOM      1  C   UNL A   1      36.719  21.210  24.944  1.00  0.00     0.002 C 
ENDROOT
BRANCH   1   2
ATOM      2  C   UNL A   1      35.260  20.745  24.995  1.00  0.00     0.002 C 
BRANCH   2   3
ATOM      3  C   UNL A   1      34.220  21.826  24.672  1.00  0.00     0.021 C 
BRANCH   3   4
ATOM      4  C   UNL A   1      34.705  23.254  24.926  1.00  0.00     0.116 C 
BRANCH   4   5
ATOM      5  N   UNL A   1      34.676  24.032  23.701  1.00  0.00    -0.356 N 
ATOM      6  C   UNL A   1      33.718  24.883  23.225  1.00  0.00     0.227 C 
ATOM      7  O   UNL A   1      33.858  25.297  22.073  1.00  0.00    -0.274 OA
ATOM      8  H   UNL A   1      35.468  23.932  23.126  1.00  0.00     0.163 HD
BRANCH   6   9
ATOM      9  C   UNL A   1      32.546  25.281  24.131  1.00  0.00     0.105 C 
ATOM     10  C   UNL A   1      31.220  25.269  23.367  1.00  0.00     0.023 C 
BRANCH   9  11
ATOM     11  C   UNL A   1      32.793  26.606  24.847  1.00  0.00    -0.034 A 
ATOM     12  C   UNL A   1      33.804  26.758  25.806  1.00  0.00     0.005 A 
ATOM     13  C   UNL A   1      31.943  27.689  24.564  1.00  0.00     0.031 A 
ATOM     14  C   UNL A   1      34.019  27.983  26.455  1.00  0.00     0.011 A 
ATOM     15  C   UNL A   1      32.136  28.885  25.262  1.00  0.00     0.047 A 
ATOM     16  C   UNL A   1      33.167  29.070  26.181  1.00  0.00     0.007 A 
ATOM     17  N   UNL A   1      31.403  30.046  25.235  1.00  0.00    -0.355 N 
ATOM     18  C   UNL A   1      33.062  30.412  26.672  1.00  0.00     0.009 A 
ATOM     19  C   UNL A   1      31.900  30.961  26.130  1.00  0.00     0.047 A 
ATOM     20  H   UNL A   1      30.627  30.201  24.651  1.00  0.00     0.167 HD
ATOM     21  C   UNL A   1      33.826  31.198  27.561  1.00  0.00     0.031 A 
ATOM     22  C   UNL A   1      31.406  32.218  26.496  1.00  0.00     0.028 A 
ATOM     23  C   UNL A   1      33.361  32.471  27.906  1.00  0.00     0.041 A 
ATOM     24  C   UNL A   1      32.158  32.963  27.407  1.00  0.00     0.022 A 
ATOM     25  Cl  UNL A   1      34.293  33.449  28.978  1.00  0.00    -0.084 Cl
ENDBRANCH   9  11
ENDBRANCH   6   9
ENDBRANCH   4   5
ENDBRANCH   3   4
ENDBRANCH   2   3
ENDBRANCH   1   2
BRANCH   1  26
ATOM     26  C   UNL A   1      37.761  20.090  24.992  1.00  0.00     0.021 C 
BRANCH  26  27
ATOM     27  C   UNL A   1      39.044  20.442  25.742  1.00  0.00     0.116 C 
BRANCH  27  28
ATOM     28  N   UNL A   1      39.979  19.329  25.785  1.00  0.00    -0.352 N 
ATOM     29  C   UNL A   1      41.337  19.332  25.998  1.00  0.00     0.251 C 
ATOM     30  H   UNL A   1      39.580  18.440  25.640  1.00  0.00     0.163 HD
ATOM     31  O   UNL A   1      41.996  18.318  25.812  1.00  0.00    -0.269 OA
BRANCH  29  32
ATOM     32  C   UNL A   1      42.009  20.578  26.426  1.00  0.00     0.039 A 
ATOM     33  C   UNL A   1      42.491  21.455  25.451  1.00  0.00     0.014 A 
ATOM     34  C   UNL A   1      42.149  20.890  27.782  1.00  0.00     0.014 A 
ATOM     35  C   UNL A   1      43.029  22.686  25.831  1.00  0.00     0.010 A 
ATOM     36  C   UNL A   1      42.625  22.144  28.157  1.00  0.00     0.010 A 
ATOM     37  C   UNL A   1      43.050  23.063  27.185  1.00  0.00    -0.014 A 
BRANCH  37  38
ATOM     38  C   UNL A   1      43.447  24.435  27.598  1.00  0.00     0.031 A 
ATOM     39  C   UNL A   1      42.405  25.455  27.963  1.00  0.00     0.074 A 
ATOM     40  C   UNL A   1      44.748  24.785  27.547  1.00  0.00     0.049 A 
ATOM     41  N   UNL A   1      42.558  26.725  28.242  1.00  0.00    -0.248 NA
ATOM     42  C   UNL A   1      41.008  24.997  28.000  1.00  0.00     0.031 C 
ATOM     43  C   UNL A   1      45.849  23.899  27.161  1.00  0.00     0.029 A 
ATOM     44  N   UNL A   1      45.366  25.986  27.797  1.00  0.00    -0.354 N 
ATOM     45  C   UNL A   1      41.281  27.220  28.467  1.00  0.00     0.074 A 
ATOM     46  C   UNL A   1      40.359  26.123  28.264  1.00  0.00     0.031 C 
ATOM     47  C   UNL A   1      47.003  24.583  27.204  1.00  0.00     0.029 A 
ATOM     48  C   UNL A   1      46.722  25.967  27.570  1.00  0.00     0.049 A 
ATOM     49  H   UNL A   1      44.883  26.786  28.108  1.00  0.00     0.167 HD
ATOM     50  C   UNL A   1      40.915  28.475  28.822  1.00  0.00     0.037 A 
ATOM     51  C   UNL A   1      47.634  26.957  27.621  1.00  0.00     0.037 A 
ATOM     52  C   UNL A   1      41.839  29.554  29.054  1.00  0.00     0.049 A 
ATOM     53  C   UNL A   1      47.190  28.345  27.995  1.00  0.00     0.074 A 
ATOM     54  C   UNL A   1      41.568  30.831  29.516  1.00  0.00     0.029 A 
ATOM     55  N   UNL A   1      43.205  29.492  28.827  1.00  0.00    -0.354 N 
ATOM     56  N   UNL A   1      45.991  28.773  28.309  1.00  0.00    -0.248 NA
ATOM     57  C   UNL A   1      48.224  29.391  28.020  1.00  0.00     0.031 C 
ATOM     58  C   UNL A   1      42.760  31.561  29.503  1.00  0.00     0.029 A 
ATOM     59  C   UNL A   1      43.782  30.723  29.091  1.00  0.00     0.049 A 
ATOM     60  H   UNL A   1      43.691  28.691  28.525  1.00  0.00     0.167 HD
ATOM     61  C   UNL A   1      46.131  30.127  28.586  1.00  0.00     0.074 A 
ATOM     62  C   UNL A   1      47.533  30.445  28.428  1.00  0.00     0.031 C 
ATOM     63  C   UNL A   1      45.179  31.027  28.932  1.00  0.00     0.037 A 
BRANCH  50  64
ATOM     64  C   UNL A   1      39.452  28.768  28.982  1.00  0.00     0.057 A 
ATOM     65  C   UNL A   1      38.792  28.607  30.206  1.00  0.00     0.134 A 
ATOM     66  C   UNL A   1      38.719  29.313  27.919  1.00  0.00     0.134 A 
ATOM     67  F   UNL A   1      39.434  28.085  31.262  1.00  0.00    -0.206 F 
ATOM     68  C   UNL A   1      37.453  28.969  30.366  1.00  0.00     0.040 A 
ATOM     69  C   UNL A   1      37.388  29.702  28.073  1.00  0.00     0.040 A 
ATOM     70  F   UNL A   1      39.294  29.502  26.722  1.00  0.00    -0.206 F 
ATOM     71  C   UNL A   1      36.751  29.529  29.300  1.00  0.00     0.006 A 
ENDBRANCH  50  64
BRANCH  51  72
ATOM     72  C   UNL A   1      49.056  26.689  27.278  1.00  0.00     0.057 A 
ATOM     73  C   UNL A   1      49.498  26.696  25.951  1.00  0.00     0.134 A 
ATOM     74  C   UNL A   1      49.997  26.375  28.267  1.00  0.00     0.134 A 
ATOM     75  F   UNL A   1      48.641  26.969  24.956  1.00  0.00    -0.206 F 
ATOM     76  C   UNL A   1      50.812  26.368  25.614  1.00  0.00     0.040 A 
ATOM     77  C   UNL A   1      51.323  26.076  27.948  1.00  0.00     0.040 A 
ATOM     78  F   UNL A   1      49.643  26.357  29.561  1.00  0.00    -0.206 F 
ATOM     79  C   UNL A   1      51.731  26.060  26.616  1.00  0.00     0.006 A 
ENDBRANCH  51  72
BRANCH  63  80
ATOM     80  C   UNL A   1      45.621  32.440  29.178  1.00  0.00     0.057 A 
ATOM     81  C   UNL A   1      45.552  33.416  28.175  1.00  0.00     0.134 A 
ATOM     82  C   UNL A   1      46.062  32.843  30.445  1.00  0.00     0.134 A 
ATOM     83  F   UNL A   1      45.153  33.092  26.937  1.00  0.00    -0.206 F 
ATOM     84  C   UNL A   1      45.921  34.739  28.421  1.00  0.00     0.040 A 
ATOM     85  C   UNL A   1      46.406  34.169  30.710  1.00  0.00     0.040 A 
ATOM     86  F   UNL A   1      46.143  31.959  31.451  1.00  0.00    -0.206 F 
ATOM     87  C   UNL A   1      46.339  35.121  29.695  1.00  0.00     0.006 A 
ENDBRANCH  63  80
ENDBRANCH  37  38
ENDBRANCH  29  32
ENDBRANCH  27  28
ENDBRANCH  26  27
ENDBRANCH   1  26
TORSDOF 14
ENDMDL
