MODEL 1
REMARK VINA RESULT:     -10.1      0.000      0.000
REMARK SMILES Cc1nc([C@H](C)[NH2+]CC(=O)NCCCCCCNC(=O)c2ccc(-c3c4nc(c(-c5c(F)cccc5F)c5ccc([nH]5)c(-c5c(F)cccc5F)c5nc(c(-c6c(F)cccc6F)c6ccc3[nH]6)C=C5)C=C4)cc2)cs1
REMARK SMILES IDX 14 1 13 2 12 3 11 4 9 5 10 6 8 8 7 9 5 12 6 13 4 14 1 15
REMARK SMILES IDX 2 16 3 17 76 18 75 19 15 20 16 21 17 22 18 23 19 24 20 26
REMARK SMILES IDX 21 27 22 28 74 29 23 30 73 31 24 32 25 33 26 34 67 35 27 36
REMARK SMILES IDX 72 37 66 38 68 39 28 40 71 41 65 42 64 43 29 45 55 46 38 47
REMARK SMILES IDX 54 48 39 49 42 50 53 51 69 52 40 53 41 54 52 56 70 57 43 58
REMARK SMILES IDX 30 59 31 60 36 61 32 62 33 63 35 64 37 65 34 66 56 67 57 68
REMARK SMILES IDX 62 69 58 70 59 71 61 72 63 73 60 74 44 75 45 76 50 77 46 78
REMARK SMILES IDX 47 79 49 80 51 81 48 82
REMARK H PARENT 11 7 7 10 7 11 18 25 68 44 42 55
REMARK Flexibility Score: inf
ROOT
ATOM      1  C   UNL A   1      31.173  27.951  25.001  1.00  0.00     0.002 C 
ENDROOT
BRANCH   1   2
ATOM      2  C   UNL A   1      31.377  26.589  25.675  1.00  0.00     0.021 C 
BRANCH   2   3
ATOM      3  C   UNL A   1      30.448  25.448  25.227  1.00  0.00     0.116 C 
BRANCH   3   4
ATOM      4  N   UNL A   1      29.881  24.620  26.280  1.00  0.00    -0.351 N 
ATOM      5  C   UNL A   1      30.195  23.365  26.720  1.00  0.00     0.275 C 
ATOM      6  O   UNL A   1      29.706  22.995  27.792  1.00  0.00    -0.269 OA
ATOM      7  H   UNL A   1      29.134  25.041  26.765  1.00  0.00     0.163 HD
BRANCH   5   8
ATOM      8  C   UNL A   1      31.028  22.395  25.873  1.00  0.00     0.362 C 
BRANCH   8   9
ATOM      9  N   UNL A   1      32.383  22.188  26.446  1.00  0.00    -0.331 N 
ATOM     10  H   UNL A   1      32.924  23.045  26.335  1.00  0.00     0.347 HD
ATOM     11  H   UNL A   1      32.282  21.947  27.432  1.00  0.00     0.347 HD
BRANCH   9  12
ATOM     12  C   UNL A   1      33.088  21.088  25.772  1.00  0.00     0.230 C 
ATOM     13  C   UNL A   1      32.382  20.697  24.475  1.00  0.00     0.082 C 
BRANCH  12  14
ATOM     14  C   UNL A   1      34.580  21.316  25.618  1.00  0.00     0.108 A 
ATOM     15  C   UNL A   1      37.266  23.783  26.003  1.00  0.00     0.079 C 
ATOM     16  C   UNL A   1      36.395  22.612  25.720  1.00  0.00     0.090 A 
ATOM     17  N   UNL A   1      35.108  22.554  25.988  1.00  0.00    -0.240 NA
ATOM     18  S   UNL A   1      37.054  21.224  24.961  1.00  0.00    -0.127 S 
ATOM     19  C   UNL A   1      35.519  20.475  25.042  1.00  0.00     0.096 A 
ENDBRANCH  12  14
ENDBRANCH   9  12
ENDBRANCH   8   9
ENDBRANCH   5   8
ENDBRANCH   3   4
ENDBRANCH   2   3
ENDBRANCH   1   2
BRANCH   1  20
ATOM     20  C   UNL A   1      32.116  29.056  25.479  1.00  0.00     0.002 C 
BRANCH  20  21
ATOM     21  C   UNL A   1      33.539  28.603  25.816  1.00  0.00     0.021 C 
BRANCH  21  22
ATOM     22  C   UNL A   1      33.908  28.680  27.295  1.00  0.00     0.116 C 
BRANCH  22  23
ATOM     23  N   UNL A   1      33.863  30.042  27.802  1.00  0.00    -0.352 N 
ATOM     24  C   UNL A   1      34.836  30.728  28.496  1.00  0.00     0.251 C 
ATOM     25  H   UNL A   1      33.031  30.539  27.626  1.00  0.00     0.163 HD
ATOM     26  O   UNL A   1      34.597  31.800  29.029  1.00  0.00    -0.269 OA
BRANCH  24  27
ATOM     27  C   UNL A   1      36.183  30.126  28.605  1.00  0.00     0.039 A 
ATOM     28  C   UNL A   1      37.055  30.203  27.519  1.00  0.00     0.014 A 
ATOM     29  C   UNL A   1      36.589  29.536  29.805  1.00  0.00     0.014 A 
ATOM     30  C   UNL A   1      38.367  29.746  27.660  1.00  0.00     0.010 A 
ATOM     31  C   UNL A   1      37.915  29.145  29.964  1.00  0.00     0.010 A 
ATOM     32  C   UNL A   1      38.818  29.246  28.893  1.00  0.00    -0.014 A 
BRANCH  32  33
ATOM     33  C   UNL A   1      40.227  28.820  29.084  1.00  0.00     0.031 A 
ATOM     34  C   UNL A   1      41.225  29.770  29.686  1.00  0.00     0.074 A 
ATOM     35  C   UNL A   1      40.626  27.605  28.656  1.00  0.00     0.049 A 
ATOM     36  N   UNL A   1      42.511  29.614  29.873  1.00  0.00    -0.248 NA
ATOM     37  C   UNL A   1      40.713  31.083  30.110  1.00  0.00     0.031 C 
ATOM     38  C   UNL A   1      39.769  26.612  28.006  1.00  0.00     0.029 A 
ATOM     39  N   UNL A   1      41.860  27.005  28.693  1.00  0.00    -0.354 N 
ATOM     40  C   UNL A   1      42.960  30.807  30.424  1.00  0.00     0.074 A 
ATOM     41  C   UNL A   1      41.824  31.700  30.483  1.00  0.00     0.031 C 
ATOM     42  C   UNL A   1      40.498  25.520  27.724  1.00  0.00     0.029 A 
ATOM     43  C   UNL A   1      41.878  25.746  28.142  1.00  0.00     0.049 A 
ATOM     44  H   UNL A   1      42.657  27.434  29.078  1.00  0.00     0.167 HD
ATOM     45  C   UNL A   1      44.200  31.123  30.867  1.00  0.00     0.037 A 
ATOM     46  C   UNL A   1      42.894  24.876  27.985  1.00  0.00     0.037 A 
ATOM     47  C   UNL A   1      45.325  30.226  30.826  1.00  0.00     0.049 A 
ATOM     48  C   UNL A   1      44.263  25.250  28.483  1.00  0.00     0.074 A 
ATOM     49  C   UNL A   1      46.611  30.434  31.292  1.00  0.00     0.029 A 
ATOM     50  N   UNL A   1      45.296  28.950  30.284  1.00  0.00    -0.354 N 
ATOM     51  N   UNL A   1      44.658  26.357  29.064  1.00  0.00    -0.248 NA
ATOM     52  C   UNL A   1      45.328  24.250  28.313  1.00  0.00     0.031 C 
ATOM     53  C   UNL A   1      47.370  29.296  30.999  1.00  0.00     0.029 A 
ATOM     54  C   UNL A   1      46.546  28.362  30.392  1.00  0.00     0.049 A 
ATOM     55  H   UNL A   1      44.505  28.524  29.883  1.00  0.00     0.167 HD
ATOM     56  C   UNL A   1      46.005  26.176  29.353  1.00  0.00     0.074 A 
ATOM     57  C   UNL A   1      46.356  24.847  28.897  1.00  0.00     0.031 C 
ATOM     58  C   UNL A   1      46.874  27.034  29.942  1.00  0.00     0.037 A 
BRANCH  45  59
ATOM     59  C   UNL A   1      44.397  32.493  31.447  1.00  0.00     0.057 A 
ATOM     60  C   UNL A   1      44.262  32.736  32.822  1.00  0.00     0.134 A 
ATOM     61  C   UNL A   1      44.746  33.576  30.631  1.00  0.00     0.134 A 
ATOM     62  F   UNL A   1      43.916  31.745  33.657  1.00  0.00    -0.206 F 
ATOM     63  C   UNL A   1      44.439  34.013  33.358  1.00  0.00     0.040 A 
ATOM     64  C   UNL A   1      44.953  34.852  31.161  1.00  0.00     0.040 A 
ATOM     65  F   UNL A   1      44.897  33.413  29.309  1.00  0.00    -0.206 F 
ATOM     66  C   UNL A   1      44.792  35.074  32.527  1.00  0.00     0.006 A 
ENDBRANCH  45  59
BRANCH  46  67
ATOM     67  C   UNL A   1      42.655  23.554  27.350  1.00  0.00     0.057 A 
ATOM     68  C   UNL A   1      42.278  22.442  28.113  1.00  0.00     0.134 A 
ATOM     69  C   UNL A   1      42.814  23.366  25.972  1.00  0.00     0.134 A 
ATOM     70  F   UNL A   1      42.128  22.555  29.440  1.00  0.00    -0.206 F 
ATOM     71  C   UNL A   1      42.091  21.186  27.533  1.00  0.00     0.040 A 
ATOM     72  C   UNL A   1      42.605  22.121  25.375  1.00  0.00     0.040 A 
ATOM     73  F   UNL A   1      43.166  24.392  25.184  1.00  0.00    -0.206 F 
ATOM     74  C   UNL A   1      42.250  21.025  26.158  1.00  0.00     0.006 A 
ENDBRANCH  46  67
BRANCH  58  75
ATOM     75  C   UNL A   1      48.277  26.548  30.160  1.00  0.00     0.057 A 
ATOM     76  C   UNL A   1      49.295  26.779  29.226  1.00  0.00     0.134 A 
ATOM     77  C   UNL A   1      48.621  25.877  31.341  1.00  0.00     0.134 A 
ATOM     78  F   UNL A   1      49.027  27.405  28.071  1.00  0.00    -0.206 F 
ATOM     79  C   UNL A   1      50.601  26.340  29.449  1.00  0.00     0.040 A 
ATOM     80  C   UNL A   1      49.929  25.457  31.587  1.00  0.00     0.040 A 
ATOM     81  F   UNL A   1      47.695  25.632  32.280  1.00  0.00    -0.206 F 
ATOM     82  C   UNL A   1      50.922  25.683  30.636  1.00  0.00     0.006 A 
ENDBRANCH  58  75
ENDBRANCH  32  33
ENDBRANCH  24  27
ENDBRANCH  22  23
ENDBRANCH  21  22
ENDBRANCH  20  21
ENDBRANCH   1  20
TORSDOF 16
ENDMDL
MODEL 2
REMARK VINA RESULT:     -10.0      3.945      5.803
REMARK SMILES Cc1nc([C@H](C)[NH2+]CC(=O)NCCCCCCNC(=O)c2ccc(-c3c4nc(c(-c5c(F)cccc5F)c5ccc([nH]5)c(-c5c(F)cccc5F)c5nc(c(-c6c(F)cccc6F)c6ccc3[nH]6)C=C5)C=C4)cc2)cs1
REMARK SMILES IDX 14 1 13 2 12 3 11 4 9 5 10 6 8 8 7 9 5 12 6 13 4 14 1 15
REMARK SMILES IDX 2 16 3 17 76 18 75 19 15 20 16 21 17 22 18 23 19 24 20 26
REMARK SMILES IDX 21 27 22 28 74 29 23 30 73 31 24 32 25 33 26 34 67 35 27 36
REMARK SMILES IDX 72 37 66 38 68 39 28 40 71 41 65 42 64 43 29 45 55 46 38 47
REMARK SMILES IDX 54 48 39 49 42 50 53 51 69 52 40 53 41 54 52 56 70 57 43 58
REMARK SMILES IDX 30 59 31 60 36 61 32 62 33 63 35 64 37 65 34 66 56 67 57 68
REMARK SMILES IDX 62 69 58 70 59 71 61 72 63 73 60 74 44 75 45 76 50 77 46 78
REMARK SMILES IDX 47 79 49 80 51 81 48 82
REMARK H PARENT 11 7 7 10 7 11 18 25 68 44 42 55
REMARK Flexibility Score: inf
ROOT
ATOM      1  C   UNL A   1      33.156  29.631  26.454  1.00  0.00     0.002 C 
ENDROOT
BRANCH   1   2
ATOM      2  C   UNL A   1      33.901  29.454  25.127  1.00  0.00     0.021 C 
BRANCH   2   3
ATOM      3  C   UNL A   1      33.084  28.918  23.939  1.00  0.00     0.116 C 
BRANCH   3   4
ATOM      4  N   UNL A   1      33.657  27.798  23.207  1.00  0.00    -0.351 N 
ATOM      5  C   UNL A   1      33.104  26.903  22.336  1.00  0.00     0.275 C 
ATOM      6  O   UNL A   1      33.874  26.199  21.674  1.00  0.00    -0.269 OA
ATOM      7  H   UNL A   1      34.618  27.662  23.369  1.00  0.00     0.163 HD
BRANCH   5   8
ATOM      8  C   UNL A   1      31.589  26.682  22.253  1.00  0.00     0.362 C 
BRANCH   8   9
ATOM      9  N   UNL A   1      30.877  27.909  21.814  1.00  0.00    -0.331 N 
ATOM     10  H   UNL A   1      31.511  28.705  21.887  1.00  0.00     0.347 HD
ATOM     11  H   UNL A   1      30.571  27.775  20.850  1.00  0.00     0.347 HD
BRANCH   9  12
ATOM     12  C   UNL A   1      29.691  28.167  22.643  1.00  0.00     0.230 C 
ATOM     13  C   UNL A   1      29.912  27.696  24.079  1.00  0.00     0.082 C 
BRANCH  12  14
ATOM     14  C   UNL A   1      29.160  29.585  22.533  1.00  0.00     0.108 A 
ATOM     15  C   UNL A   1      27.925  32.124  20.193  1.00  0.00     0.079 C 
ATOM     16  C   UNL A   1      28.410  31.320  21.346  1.00  0.00     0.090 A 
ATOM     17  N   UNL A   1      28.770  30.055  21.279  1.00  0.00    -0.240 NA
ATOM     18  S   UNL A   1      28.562  32.049  22.889  1.00  0.00    -0.127 S 
ATOM     19  C   UNL A   1      29.101  30.555  23.520  1.00  0.00     0.096 A 
ENDBRANCH  12  14
ENDBRANCH   9  12
ENDBRANCH   8   9
ENDBRANCH   5   8
ENDBRANCH   3   4
ENDBRANCH   2   3
ENDBRANCH   1   2
BRANCH   1  20
ATOM     20  C   UNL A   1      31.729  30.166  26.327  1.00  0.00     0.002 C 
BRANCH  20  21
ATOM     21  C   UNL A   1      31.560  31.661  26.610  1.00  0.00     0.021 C 
BRANCH  21  22
ATOM     22  C   UNL A   1      32.790  32.350  27.197  1.00  0.00     0.116 C 
BRANCH  22  23
ATOM     23  N   UNL A   1      32.508  33.715  27.611  1.00  0.00    -0.352 N 
ATOM     24  C   UNL A   1      33.175  34.479  28.544  1.00  0.00     0.251 C 
ATOM     25  H   UNL A   1      31.744  34.149  27.168  1.00  0.00     0.163 HD
ATOM     26  O   UNL A   1      32.719  35.542  28.934  1.00  0.00    -0.269 OA
BRANCH  24  27
ATOM     27  C   UNL A   1      34.455  33.975  29.085  1.00  0.00     0.039 A 
ATOM     28  C   UNL A   1      34.450  33.212  30.253  1.00  0.00     0.014 A 
ATOM     29  C   UNL A   1      35.648  34.220  28.398  1.00  0.00     0.014 A 
ATOM     30  C   UNL A   1      35.640  32.632  30.698  1.00  0.00     0.010 A 
ATOM     31  C   UNL A   1      36.818  33.585  28.806  1.00  0.00     0.010 A 
ATOM     32  C   UNL A   1      36.826  32.785  29.959  1.00  0.00    -0.014 A 
BRANCH  32  33
ATOM     33  C   UNL A   1      38.086  32.119  30.377  1.00  0.00     0.031 A 
ATOM     34  C   UNL A   1      38.984  32.776  31.389  1.00  0.00     0.074 A 
ATOM     35  C   UNL A   1      38.456  30.958  29.800  1.00  0.00     0.049 A 
ATOM     36  N   UNL A   1      40.153  32.393  31.832  1.00  0.00    -0.248 NA
ATOM     37  C   UNL A   1      38.516  34.051  31.957  1.00  0.00     0.031 C 
ATOM     38  C   UNL A   1      37.702  30.246  28.767  1.00  0.00     0.029 A 
ATOM     39  N   UNL A   1      39.570  30.179  29.993  1.00  0.00    -0.354 N 
ATOM     40  C   UNL A   1      40.563  33.379  32.720  1.00  0.00     0.074 A 
ATOM     41  C   UNL A   1      39.548  34.409  32.705  1.00  0.00     0.031 C 
ATOM     42  C   UNL A   1      38.363  29.127  28.433  1.00  0.00     0.029 A 
ATOM     43  C   UNL A   1      39.602  29.056  29.201  1.00  0.00     0.049 A 
ATOM     44  H   UNL A   1      40.278  30.402  30.639  1.00  0.00     0.167 HD
ATOM     45  C   UNL A   1      41.670  33.413  33.499  1.00  0.00     0.037 A 
ATOM     46  C   UNL A   1      40.529  28.085  29.101  1.00  0.00     0.037 A 
ATOM     47  C   UNL A   1      42.669  32.377  33.528  1.00  0.00     0.049 A 
ATOM     48  C   UNL A   1      41.752  28.145  29.975  1.00  0.00     0.074 A 
ATOM     49  C   UNL A   1      43.803  32.295  34.316  1.00  0.00     0.029 A 
ATOM     50  N   UNL A   1      42.652  31.244  32.730  1.00  0.00    -0.354 N 
ATOM     51  N   UNL A   1      42.093  29.051  30.859  1.00  0.00    -0.248 NA
ATOM     52  C   UNL A   1      42.716  27.042  29.844  1.00  0.00     0.031 C 
ATOM     53  C   UNL A   1      44.493  31.128  33.968  1.00  0.00     0.029 A 
ATOM     54  C   UNL A   1      43.764  30.461  32.996  1.00  0.00     0.049 A 
ATOM     55  H   UNL A   1      41.953  31.026  32.071  1.00  0.00     0.167 HD
ATOM     56  C   UNL A   1      43.292  28.615  31.408  1.00  0.00     0.074 A 
ATOM     57  C   UNL A   1      43.612  27.356  30.769  1.00  0.00     0.031 C 
ATOM     58  C   UNL A   1      44.061  29.205  32.357  1.00  0.00     0.037 A 
BRANCH  45  59
ATOM     59  C   UNL A   1      41.848  34.605  34.393  1.00  0.00     0.057 A 
ATOM     60  C   UNL A   1      41.348  34.623  35.704  1.00  0.00     0.134 A 
ATOM     61  C   UNL A   1      42.544  35.738  33.953  1.00  0.00     0.134 A 
ATOM     62  F   UNL A   1      40.661  33.575  36.183  1.00  0.00    -0.206 F 
ATOM     63  C   UNL A   1      41.508  35.735  36.531  1.00  0.00     0.040 A 
ATOM     64  C   UNL A   1      42.735  36.845  34.782  1.00  0.00     0.040 A 
ATOM     65  F   UNL A   1      43.053  35.785  32.713  1.00  0.00    -0.206 F 
ATOM     66  C   UNL A   1      42.210  36.848  36.073  1.00  0.00     0.006 A 
ENDBRANCH  45  59
BRANCH  46  67
ATOM     67  C   UNL A   1      40.330  26.956  28.155  1.00  0.00     0.057 A 
ATOM     68  C   UNL A   1      40.884  26.985  26.869  1.00  0.00     0.134 A 
ATOM     69  C   UNL A   1      39.571  25.834  28.504  1.00  0.00     0.134 A 
ATOM     70  F   UNL A   1      41.606  28.042  26.469  1.00  0.00    -0.206 F 
ATOM     71  C   UNL A   1      40.670  25.950  25.957  1.00  0.00     0.040 A 
ATOM     72  C   UNL A   1      39.371  24.779  27.611  1.00  0.00     0.040 A 
ATOM     73  F   UNL A   1      39.020  25.741  29.724  1.00  0.00    -0.206 F 
ATOM     74  C   UNL A   1      39.915  24.840  26.330  1.00  0.00     0.006 A 
ENDBRANCH  46  67
BRANCH  58  75
ATOM     75  C   UNL A   1      45.300  28.478  32.786  1.00  0.00     0.057 A 
ATOM     76  C   UNL A   1      45.283  27.524  33.812  1.00  0.00     0.134 A 
ATOM     77  C   UNL A   1      46.520  28.706  32.134  1.00  0.00     0.134 A 
ATOM     78  F   UNL A   1      44.150  27.269  34.483  1.00  0.00    -0.206 F 
ATOM     79  C   UNL A   1      46.438  26.838  34.188  1.00  0.00     0.040 A 
ATOM     80  C   UNL A   1      47.676  28.007  32.484  1.00  0.00     0.040 A 
ATOM     81  F   UNL A   1      46.604  29.600  31.138  1.00  0.00    -0.206 F 
ATOM     82  C   UNL A   1      47.638  27.074  33.519  1.00  0.00     0.006 A 
ENDBRANCH  58  75
ENDBRANCH  32  33
ENDBRANCH  24  27
ENDBRANCH  22  23
ENDBRANCH  21  22
ENDBRANCH  20  21
ENDBRANCH   1  20
TORSDOF 16
ENDMDL
MODEL 3
REMARK VINA RESULT:     -10.0      4.843      7.222
REMARK SMILES Cc1nc([C@H](C)[NH2+]CC(=O)NCCCCCCNC(=O)c2ccc(-c3c4nc(c(-c5c(F)cccc5F)c5ccc([nH]5)c(-c5c(F)cccc5F)c5nc(c(-c6c(F)cccc6F)c6ccc3[nH]6)C=C5)C=C4)cc2)cs1
REMARK SMILES IDX 14 1 13 2 12 3 11 4 9 5 10 6 8 8 7 9 5 12 6 13 4 14 1 15
REMARK SMILES IDX 2 16 3 17 76 18 75 19 15 20 16 21 17 22 18 23 19 24 20 26
REMARK SMILES IDX 21 27 22 28 74 29 23 30 73 31 24 32 25 33 26 34 67 35 27 36
REMARK SMILES IDX 72 37 66 38 68 39 28 40 71 41 65 42 64 43 29 45 55 46 38 47
REMARK SMILES IDX 54 48 39 49 42 50 53 51 69 52 40 53 41 54 52 56 70 57 43 58
REMARK SMILES IDX 30 59 31 60 36 61 32 62 33 63 35 64 37 65 34 66 56 67 57 68
REMARK SMILES IDX 62 69 58 70 59 71 61 72 63 73 60 74 44 75 45 76 50 77 46 78
REMARK SMILES IDX 47 79 49 80 51 81 48 82
REMARK H PARENT 11 7 7 10 7 11 18 25 68 44 42 55
REMARK Flexibility Score: inf
ROOT
ATOM      1  C   UNL A   1      35.390  33.899  28.761  1.00  0.00     0.002 C 
ENDROOT
BRANCH   1   2
ATOM      2  C   UNL A   1      34.803  32.558  29.216  1.00  0.00     0.021 C 
BRANCH   2   3
ATOM      3  C   UNL A   1      34.822  31.411  28.192  1.00  0.00     0.116 C 
BRANCH   3   4
ATOM      4  N   UNL A   1      33.537  30.818  27.854  1.00  0.00    -0.351 N 
ATOM      5  C   UNL A   1      33.209  29.625  27.275  1.00  0.00     0.275 C 
ATOM      6  O   UNL A   1      32.027  29.270  27.323  1.00  0.00    -0.269 OA
ATOM      7  H   UNL A   1      32.762  31.379  28.087  1.00  0.00     0.163 HD
BRANCH   5   8
ATOM      8  C   UNL A   1      34.233  28.798  26.488  1.00  0.00     0.362 C 
BRANCH   8   9
ATOM      9  N   UNL A   1      34.043  28.937  25.021  1.00  0.00    -0.331 N 
ATOM     10  H   UNL A   1      33.423  29.727  24.841  1.00  0.00     0.347 HD
ATOM     11  H   UNL A   1      34.956  29.087  24.592  1.00  0.00     0.347 HD
BRANCH   9  12
ATOM     12  C   UNL A   1      33.452  27.725  24.439  1.00  0.00     0.230 C 
ATOM     13  C   UNL A   1      33.646  26.522  25.361  1.00  0.00     0.082 C 
BRANCH  12  14
ATOM     14  C   UNL A   1      32.025  27.907  23.955  1.00  0.00     0.108 A 
ATOM     15  C   UNL A   1      29.354  30.364  23.432  1.00  0.00     0.079 C 
ATOM     16  C   UNL A   1      30.222  29.164  23.569  1.00  0.00     0.090 A 
ATOM     17  N   UNL A   1      31.485  29.193  23.939  1.00  0.00    -0.240 NA
ATOM     18  S   UNL A   1      29.576  27.607  23.267  1.00  0.00    -0.127 S 
ATOM     19  C   UNL A   1      31.108  26.928  23.609  1.00  0.00     0.096 A 
ENDBRANCH  12  14
ENDBRANCH   9  12
ENDBRANCH   8   9
ENDBRANCH   5   8
ENDBRANCH   3   4
ENDBRANCH   2   3
ENDBRANCH   1   2
BRANCH   1  20
ATOM     20  C   UNL A   1      34.387  34.858  28.118  1.00  0.00     0.002 C 
BRANCH  20  21
ATOM     21  C   UNL A   1      33.175  35.216  28.982  1.00  0.00     0.021 C 
BRANCH  21  22
ATOM     22  C   UNL A   1      33.317  36.502  29.793  1.00  0.00     0.116 C 
BRANCH  22  23
ATOM     23  N   UNL A   1      32.485  36.493  30.986  1.00  0.00    -0.352 N 
ATOM     24  C   UNL A   1      32.626  35.723  32.119  1.00  0.00     0.251 C 
ATOM     25  H   UNL A   1      31.724  37.117  30.983  1.00  0.00     0.163 HD
ATOM     26  O   UNL A   1      31.749  35.677  32.967  1.00  0.00    -0.269 OA
BRANCH  24  27
ATOM     27  C   UNL A   1      33.862  34.928  32.284  1.00  0.00     0.039 A 
ATOM     28  C   UNL A   1      35.101  35.557  32.165  1.00  0.00     0.014 A 
ATOM     29  C   UNL A   1      33.781  33.570  32.608  1.00  0.00     0.014 A 
ATOM     30  C   UNL A   1      36.265  34.838  32.440  1.00  0.00     0.010 A 
ATOM     31  C   UNL A   1      34.937  32.875  32.948  1.00  0.00     0.010 A 
ATOM     32  C   UNL A   1      36.191  33.501  32.868  1.00  0.00    -0.014 A 
BRANCH  32  33
ATOM     33  C   UNL A   1      37.412  32.739  33.233  1.00  0.00     0.031 A 
ATOM     34  C   UNL A   1      38.138  33.050  34.514  1.00  0.00     0.074 A 
ATOM     35  C   UNL A   1      37.907  31.816  32.385  1.00  0.00     0.049 A 
ATOM     36  N   UNL A   1      39.254  32.548  34.977  1.00  0.00    -0.248 NA
ATOM     37  C   UNL A   1      37.542  34.084  35.375  1.00  0.00     0.031 C 
ATOM     38  C   UNL A   1      37.330  31.461  31.087  1.00  0.00     0.029 A 
ATOM     39  N   UNL A   1      39.019  31.016  32.482  1.00  0.00    -0.354 N 
ATOM     40  C   UNL A   1      39.497  33.209  36.173  1.00  0.00     0.074 A 
ATOM     41  C   UNL A   1      38.449  34.192  36.334  1.00  0.00     0.031 C 
ATOM     42  C   UNL A   1      38.078  30.501  30.521  1.00  0.00     0.029 A 
ATOM     43  C   UNL A   1      39.205  30.196  31.395  1.00  0.00     0.049 A 
ATOM     44  H   UNL A   1      39.624  31.027  33.258  1.00  0.00     0.167 HD
ATOM     45  C   UNL A   1      40.488  32.999  37.073  1.00  0.00     0.037 A 
ATOM     46  C   UNL A   1      40.180  29.304  31.132  1.00  0.00     0.037 A 
ATOM     47  C   UNL A   1      41.520  32.007  36.921  1.00  0.00     0.049 A 
ATOM     48  C   UNL A   1      41.272  29.091  32.145  1.00  0.00     0.074 A 
ATOM     49  C   UNL A   1      42.541  31.683  37.796  1.00  0.00     0.029 A 
ATOM     50  N   UNL A   1      41.659  31.178  35.818  1.00  0.00    -0.354 N 
ATOM     51  N   UNL A   1      41.451  29.676  33.303  1.00  0.00    -0.248 NA
ATOM     52  C   UNL A   1      42.292  28.084  31.817  1.00  0.00     0.031 C 
ATOM     53  C   UNL A   1      43.321  30.684  37.205  1.00  0.00     0.029 A 
ATOM     54  C   UNL A   1      42.759  30.352  35.983  1.00  0.00     0.049 A 
ATOM     55  H   UNL A   1      41.064  31.176  35.033  1.00  0.00     0.167 HD
ATOM     56  C   UNL A   1      42.585  29.092  33.854  1.00  0.00     0.074 A 
ATOM     57  C   UNL A   1      43.042  28.094  32.910  1.00  0.00     0.031 C 
ATOM     58  C   UNL A   1      43.193  29.357  35.037  1.00  0.00     0.037 A 
BRANCH  45  59
ATOM     59  C   UNL A   1      40.493  33.853  38.306  1.00  0.00     0.057 A 
ATOM     60  C   UNL A   1      41.264  35.022  38.389  1.00  0.00     0.134 A 
ATOM     61  C   UNL A   1      39.703  33.522  39.414  1.00  0.00     0.134 A 
ATOM     62  F   UNL A   1      42.053  35.390  37.368  1.00  0.00    -0.206 F 
ATOM     63  C   UNL A   1      41.272  35.812  39.540  1.00  0.00     0.040 A 
ATOM     64  C   UNL A   1      39.681  34.320  40.560  1.00  0.00     0.040 A 
ATOM     65  F   UNL A   1      38.937  32.421  39.400  1.00  0.00    -0.206 F 
ATOM     66  C   UNL A   1      40.473  35.465  40.628  1.00  0.00     0.006 A 
ENDBRANCH  45  59
BRANCH  46  67
ATOM     67  C   UNL A   1      40.159  28.527  29.866  1.00  0.00     0.057 A 
ATOM     68  C   UNL A   1      39.423  27.341  29.758  1.00  0.00     0.134 A 
ATOM     69  C   UNL A   1      40.886  28.939  28.743  1.00  0.00     0.134 A 
ATOM     70  F   UNL A   1      38.722  26.884  30.806  1.00  0.00    -0.206 F 
ATOM     71  C   UNL A   1      39.429  26.580  28.587  1.00  0.00     0.040 A 
ATOM     72  C   UNL A   1      40.879  28.201  27.557  1.00  0.00     0.040 A 
ATOM     73  F   UNL A   1      41.605  30.070  28.779  1.00  0.00    -0.206 F 
ATOM     74  C   UNL A   1      40.156  27.013  27.481  1.00  0.00     0.006 A 
ENDBRANCH  46  67
BRANCH  58  75
ATOM     75  C   UNL A   1      44.396  28.533  35.390  1.00  0.00     0.057 A 
ATOM     76  C   UNL A   1      45.694  28.931  35.047  1.00  0.00     0.134 A 
ATOM     77  C   UNL A   1      44.254  27.346  36.121  1.00  0.00     0.134 A 
ATOM     78  F   UNL A   1      45.896  30.051  34.337  1.00  0.00    -0.206 F 
ATOM     79  C   UNL A   1      46.807  28.166  35.400  1.00  0.00     0.040 A 
ATOM     80  C   UNL A   1      45.361  26.587  36.502  1.00  0.00     0.040 A 
ATOM     81  F   UNL A   1      43.039  26.913  36.489  1.00  0.00    -0.206 F 
ATOM     82  C   UNL A   1      46.642  26.993  36.135  1.00  0.00     0.006 A 
ENDBRANCH  58  75
ENDBRANCH  32  33
ENDBRANCH  24  27
ENDBRANCH  22  23
ENDBRANCH  21  22
ENDBRANCH  20  21
ENDBRANCH   1  20
TORSDOF 16
ENDMDL
