MODEL 1
REMARK VINA RESULT:     -11.9      0.000      0.000
REMARK SMILES C=Cc1cc(Cl)cc2c1O[C@H](C(F)(F)F)C(C(=O)NCCCCCCNC(=O)c1ccc(-c3c4nc(c(-c5c(F)cccc5F)c5ccc([nH]5)c(-c5c(F)cccc5F)c5nc(c(-c6c(F)cccc6F)c6ccc3[nH]6)C=C5)C=C4)cc1)=C2
REMARK SMILES IDX 23 1 22 2 21 3 20 4 19 5 17 6 18 7 16 9 3 10 4 11 9 12 5 13
REMARK SMILES IDX 8 14 10 15 6 16 7 17 83 18 11 19 2 20 1 21 12 22 13 23 14 24
REMARK SMILES IDX 15 25 24 26 25 27 26 28 27 29 28 31 29 32 30 33 82 34 31 35
REMARK SMILES IDX 81 36 32 37 33 38 34 39 75 40 35 41 80 42 74 43 76 44 36 45
REMARK SMILES IDX 79 46 73 47 72 48 37 50 63 51 46 52 62 53 47 54 50 55 61 56
REMARK SMILES IDX 77 57 48 58 49 59 60 61 78 62 51 63 38 64 39 65 44 66 40 67
REMARK SMILES IDX 41 68 43 69 45 70 42 71 64 72 65 73 70 74 66 75 67 76 69 77
REMARK SMILES IDX 71 78 68 79 52 80 53 81 58 82 54 83 55 84 57 85 59 86 56 87
REMARK H PARENT 19 8 26 30 76 49 50 60
REMARK Flexibility Score: inf
ROOT
ATOM      1  C   UNL A   1      35.756  20.866  25.388  1.00  0.00     0.002 C 
ENDROOT
BRANCH   1   2
ATOM      2  C   UNL A   1      34.651  21.523  24.549  1.00  0.00     0.002 C 
BRANCH   2   3
ATOM      3  C   UNL A   1      33.227  21.029  24.824  1.00  0.00     0.021 C 
BRANCH   3   4
ATOM      4  C   UNL A   1      32.142  22.070  24.563  1.00  0.00     0.116 C 
BRANCH   4   5
ATOM      5  N   UNL A   1      31.347  22.337  25.748  1.00  0.00    -0.352 N 
ATOM      6  C   UNL A   1      30.861  23.420  26.399  1.00  0.00     0.251 C 
ATOM      7  O   UNL A   1      30.172  23.166  27.393  1.00  0.00    -0.270 OA
ATOM      8  H   UNL A   1      31.090  21.502  26.202  1.00  0.00     0.163 HD
BRANCH   6   9
ATOM      9  C   UNL A   1      31.097  24.845  26.014  1.00  0.00     0.067 C 
ATOM     10  C   UNL A   1      31.445  28.925  24.992  1.00  0.00     0.018 A 
ATOM     11  C   UNL A   1      30.629  29.443  23.979  1.00  0.00     0.032 A 
ATOM     12  C   UNL A   1      31.312  27.570  25.343  1.00  0.00     0.135 A 
ATOM     13  C   UNL A   1      29.686  28.627  23.356  1.00  0.00     0.042 A 
ATOM     14  C   UNL A   1      30.358  26.755  24.725  1.00  0.00     0.019 A 
ATOM     15  O   UNL A   1      32.105  27.105  26.356  1.00  0.00    -0.475 OA
ATOM     16  Cl  UNL A   1      28.681  29.279  22.119  1.00  0.00    -0.084 Cl
ATOM     17  C   UNL A   1      29.541  27.290  23.726  1.00  0.00     0.032 A 
ATOM     18  C   UNL A   1      30.197  25.374  25.165  1.00  0.00     0.025 C 
ATOM     19  C   UNL A   1      32.261  25.669  26.483  1.00  0.00     0.314 C 
BRANCH  10  20
ATOM     20  C   UNL A   1      32.464  29.763  25.643  1.00  0.00     0.004 C 
ATOM     21  C   UNL A   1      32.258  30.433  26.783  1.00  0.00     0.009 C 
ENDBRANCH  10  20
BRANCH  19  22
ATOM     22  C   UNL A   1      33.590  25.253  25.828  1.00  0.00     0.429 C 
ATOM     23  F   UNL A   1      34.481  26.275  25.872  1.00  0.00    -0.167 F 
ATOM     24  F   UNL A   1      34.178  24.210  26.460  1.00  0.00    -0.167 F 
ATOM     25  F   UNL A   1      33.441  24.898  24.532  1.00  0.00    -0.167 F 
ENDBRANCH  19  22
ENDBRANCH   6   9
ENDBRANCH   4   5
ENDBRANCH   3   4
ENDBRANCH   2   3
ENDBRANCH   1   2
BRANCH   1  26
ATOM     26  C   UNL A   1      37.115  20.717  24.700  1.00  0.00     0.021 C 
BRANCH  26  27
ATOM     27  C   UNL A   1      38.322  20.978  25.592  1.00  0.00     0.116 C 
BRANCH  27  28
ATOM     28  N   UNL A   1      39.262  19.870  25.606  1.00  0.00    -0.352 N 
ATOM     29  C   UNL A   1      40.588  19.860  25.966  1.00  0.00     0.251 C 
ATOM     30  H   UNL A   1      38.896  19.003  25.316  1.00  0.00     0.163 HD
ATOM     31  O   UNL A   1      41.275  18.862  25.776  1.00  0.00    -0.269 OA
BRANCH  29  32
ATOM     32  C   UNL A   1      41.196  21.073  26.552  1.00  0.00     0.039 A 
ATOM     33  C   UNL A   1      41.123  21.313  27.927  1.00  0.00     0.014 A 
ATOM     34  C   UNL A   1      41.823  21.996  25.710  1.00  0.00     0.014 A 
ATOM     35  C   UNL A   1      41.532  22.542  28.433  1.00  0.00     0.010 A 
ATOM     36  C   UNL A   1      42.305  23.199  26.234  1.00  0.00     0.010 A 
ATOM     37  C   UNL A   1      42.118  23.502  27.592  1.00  0.00    -0.014 A 
BRANCH  37  38
ATOM     38  C   UNL A   1      42.506  24.824  28.151  1.00  0.00     0.031 A 
ATOM     39  C   UNL A   1      41.476  25.904  28.346  1.00  0.00     0.074 A 
ATOM     40  C   UNL A   1      43.779  25.029  28.539  1.00  0.00     0.049 A 
ATOM     41  N   UNL A   1      41.629  27.117  28.818  1.00  0.00    -0.248 NA
ATOM     42  C   UNL A   1      40.092  25.584  27.961  1.00  0.00     0.031 C 
ATOM     43  C   UNL A   1      44.868  24.059  28.414  1.00  0.00     0.029 A 
ATOM     44  N   UNL A   1      44.369  26.115  29.134  1.00  0.00    -0.354 N 
ATOM     45  C   UNL A   1      40.369  27.702  28.783  1.00  0.00     0.074 A 
ATOM     46  C   UNL A   1      39.468  26.727  28.206  1.00  0.00     0.031 C 
ATOM     47  C   UNL A   1      45.983  24.577  28.949  1.00  0.00     0.029 A 
ATOM     48  C   UNL A   1      45.704  25.935  29.403  1.00  0.00     0.049 A 
ATOM     49  H   UNL A   1      43.882  26.944  29.349  1.00  0.00     0.167 HD
ATOM     50  C   UNL A   1      39.992  28.933  29.207  1.00  0.00     0.037 A 
ATOM     51  C   UNL A   1      46.607  26.777  29.937  1.00  0.00     0.037 A 
ATOM     52  C   UNL A   1      40.886  29.904  29.784  1.00  0.00     0.049 A 
ATOM     53  C   UNL A   1      46.172  28.156  30.347  1.00  0.00     0.074 A 
ATOM     54  C   UNL A   1      40.603  31.185  30.226  1.00  0.00     0.029 A 
ATOM     55  N   UNL A   1      42.239  29.696  30.004  1.00  0.00    -0.354 N 
ATOM     56  N   UNL A   1      44.978  28.695  30.299  1.00  0.00    -0.248 NA
ATOM     57  C   UNL A   1      47.213  29.043  30.883  1.00  0.00     0.031 C 
ATOM     58  C   UNL A   1      41.791  31.763  30.689  1.00  0.00     0.029 A 
ATOM     59  C   UNL A   1      42.806  30.827  30.568  1.00  0.00     0.049 A 
ATOM     60  H   UNL A   1      42.726  28.868  29.790  1.00  0.00     0.167 HD
ATOM     61  C   UNL A   1      45.123  29.979  30.806  1.00  0.00     0.074 A 
ATOM     62  C   UNL A   1      46.514  30.127  31.183  1.00  0.00     0.031 C 
ATOM     63  C   UNL A   1      44.191  30.954  30.938  1.00  0.00     0.037 A 
BRANCH  50  64
ATOM     64  C   UNL A   1      38.544  29.300  29.062  1.00  0.00     0.057 A 
ATOM     65  C   UNL A   1      38.029  29.721  27.830  1.00  0.00     0.134 A 
ATOM     66  C   UNL A   1      37.667  29.271  30.153  1.00  0.00     0.134 A 
ATOM     67  F   UNL A   1      38.816  29.778  26.745  1.00  0.00    -0.206 F 
ATOM     68  C   UNL A   1      36.694  30.104  27.690  1.00  0.00     0.040 A 
ATOM     69  C   UNL A   1      36.324  29.629  30.022  1.00  0.00     0.040 A 
ATOM     70  F   UNL A   1      38.094  28.862  31.358  1.00  0.00    -0.206 F 
ATOM     71  C   UNL A   1      35.836  30.054  28.787  1.00  0.00     0.006 A 
ENDBRANCH  50  64
BRANCH  51  72
ATOM     72  C   UNL A   1      48.021  26.356  30.088  1.00  0.00     0.057 A 
ATOM     73  C   UNL A   1      48.478  25.761  31.270  1.00  0.00     0.134 A 
ATOM     74  C   UNL A   1      48.941  26.508  29.044  1.00  0.00     0.134 A 
ATOM     75  F   UNL A   1      47.647  25.591  32.309  1.00  0.00    -0.206 F 
ATOM     76  C   UNL A   1      49.799  25.334  31.411  1.00  0.00     0.040 A 
ATOM     77  C   UNL A   1      50.258  26.061  29.161  1.00  0.00     0.040 A 
ATOM     78  F   UNL A   1      48.557  27.053  27.880  1.00  0.00    -0.206 F 
ATOM     79  C   UNL A   1      50.690  25.474  30.350  1.00  0.00     0.006 A 
ENDBRANCH  51  72
BRANCH  63  80
ATOM     80  C   UNL A   1      44.651  32.250  31.536  1.00  0.00     0.057 A 
ATOM     81  C   UNL A   1      45.118  33.287  30.720  1.00  0.00     0.134 A 
ATOM     82  C   UNL A   1      44.632  32.470  32.919  1.00  0.00     0.134 A 
ATOM     83  F   UNL A   1      45.166  33.137  29.387  1.00  0.00    -0.206 F 
ATOM     84  C   UNL A   1      45.547  34.500  31.258  1.00  0.00     0.040 A 
ATOM     85  C   UNL A   1      45.035  33.688  33.468  1.00  0.00     0.040 A 
ATOM     86  F   UNL A   1      44.179  31.521  33.752  1.00  0.00    -0.206 F 
ATOM     87  C   UNL A   1      45.499  34.706  32.636  1.00  0.00     0.006 A 
ENDBRANCH  63  80
ENDBRANCH  37  38
ENDBRANCH  29  32
ENDBRANCH  27  28
ENDBRANCH  26  27
ENDBRANCH   1  26
TORSDOF 15
ENDMDL
MODEL 2
REMARK VINA RESULT:     -11.7      2.331      6.908
REMARK SMILES C=Cc1cc(Cl)cc2c1O[C@H](C(F)(F)F)C(C(=O)NCCCCCCNC(=O)c1ccc(-c3c4nc(c(-c5c(F)cccc5F)c5ccc([nH]5)c(-c5c(F)cccc5F)c5nc(c(-c6c(F)cccc6F)c6ccc3[nH]6)C=C5)C=C4)cc1)=C2
REMARK SMILES IDX 23 1 22 2 21 3 20 4 19 5 17 6 18 7 16 9 3 10 4 11 9 12 5 13
REMARK SMILES IDX 8 14 10 15 6 16 7 17 83 18 11 19 2 20 1 21 12 22 13 23 14 24
REMARK SMILES IDX 15 25 24 26 25 27 26 28 27 29 28 31 29 32 30 33 82 34 31 35
REMARK SMILES IDX 81 36 32 37 33 38 34 39 75 40 35 41 80 42 74 43 76 44 36 45
REMARK SMILES IDX 79 46 73 47 72 48 37 50 63 51 46 52 62 53 47 54 50 55 61 56
REMARK SMILES IDX 77 57 48 58 49 59 60 61 78 62 51 63 38 64 39 65 44 66 40 67
REMARK SMILES IDX 41 68 43 69 45 70 42 71 64 72 65 73 70 74 66 75 67 76 69 77
REMARK SMILES IDX 71 78 68 79 52 80 53 81 58 82 54 83 55 84 57 85 59 86 56 87
REMARK H PARENT 19 8 26 30 76 49 50 60
REMARK Flexibility Score: inf
ROOT
ATOM      1  C   UNL A   1      35.622  21.715  24.690  1.00  0.00     0.002 C 
ENDROOT
BRANCH   1   2
ATOM      2  C   UNL A   1      34.236  21.534  24.055  1.00  0.00     0.002 C 
BRANCH   2   3
ATOM      3  C   UNL A   1      33.095  21.222  25.029  1.00  0.00     0.021 C 
BRANCH   3   4
ATOM      4  C   UNL A   1      31.781  21.927  24.701  1.00  0.00     0.116 C 
BRANCH   4   5
ATOM      5  N   UNL A   1      31.031  22.263  25.899  1.00  0.00    -0.352 N 
ATOM      6  C   UNL A   1      30.623  23.385  26.536  1.00  0.00     0.251 C 
ATOM      7  O   UNL A   1      29.944  23.191  27.551  1.00  0.00    -0.270 OA
ATOM      8  H   UNL A   1      30.738  21.453  26.376  1.00  0.00     0.163 HD
BRANCH   6   9
ATOM      9  C   UNL A   1      30.929  24.786  26.114  1.00  0.00     0.067 C 
ATOM     10  C   UNL A   1      31.481  28.816  24.988  1.00  0.00     0.018 A 
ATOM     11  C   UNL A   1      30.691  29.348  23.962  1.00  0.00     0.032 A 
ATOM     12  C   UNL A   1      31.280  27.478  25.374  1.00  0.00     0.135 A 
ATOM     13  C   UNL A   1      29.707  28.564  23.361  1.00  0.00     0.042 A 
ATOM     14  C   UNL A   1      30.285  26.697  24.777  1.00  0.00     0.019 A 
ATOM     15  O   UNL A   1      32.050  27.000  26.399  1.00  0.00    -0.475 OA
ATOM     16  Cl  UNL A   1      28.735  29.234  22.107  1.00  0.00    -0.084 Cl
ATOM     17  C   UNL A   1      29.496  27.246  23.764  1.00  0.00     0.032 A 
ATOM     18  C   UNL A   1      30.056  25.338  25.252  1.00  0.00     0.025 C 
ATOM     19  C   UNL A   1      32.133  25.562  26.562  1.00  0.00     0.314 C 
BRANCH  10  20
ATOM     20  C   UNL A   1      32.541  29.618  25.618  1.00  0.00     0.004 C 
ATOM     21  C   UNL A   1      32.373  30.319  26.746  1.00  0.00     0.009 C 
ENDBRANCH  10  20
BRANCH  19  22
ATOM     22  C   UNL A   1      33.439  25.063  25.919  1.00  0.00     0.429 C 
ATOM     23  F   UNL A   1      33.917  23.984  26.590  1.00  0.00    -0.167 F 
ATOM     24  F   UNL A   1      33.271  24.667  24.636  1.00  0.00    -0.167 F 
ATOM     25  F   UNL A   1      34.411  26.004  25.920  1.00  0.00    -0.167 F 
ENDBRANCH  19  22
ENDBRANCH   6   9
ENDBRANCH   4   5
ENDBRANCH   3   4
ENDBRANCH   2   3
ENDBRANCH   1   2
BRANCH   1  26
ATOM     26  C   UNL A   1      36.329  23.036  24.379  1.00  0.00     0.021 C 
BRANCH  26  27
ATOM     27  C   UNL A   1      37.238  23.557  25.486  1.00  0.00     0.116 C 
BRANCH  27  28
ATOM     28  N   UNL A   1      38.463  22.786  25.616  1.00  0.00    -0.352 N 
ATOM     29  C   UNL A   1      39.656  23.143  26.198  1.00  0.00     0.251 C 
ATOM     30  H   UNL A   1      38.434  21.879  25.234  1.00  0.00     0.163 HD
ATOM     31  O   UNL A   1      40.641  22.420  26.088  1.00  0.00    -0.269 OA
BRANCH  29  32
ATOM     32  C   UNL A   1      39.760  24.425  26.926  1.00  0.00     0.039 A 
ATOM     33  C   UNL A   1      40.440  25.510  26.366  1.00  0.00     0.014 A 
ATOM     34  C   UNL A   1      39.191  24.534  28.198  1.00  0.00     0.014 A 
ATOM     35  C   UNL A   1      40.688  26.639  27.137  1.00  0.00     0.010 A 
ATOM     36  C   UNL A   1      39.375  25.701  28.944  1.00  0.00     0.010 A 
ATOM     37  C   UNL A   1      40.167  26.744  28.438  1.00  0.00    -0.014 A 
BRANCH  37  38
ATOM     38  C   UNL A   1      40.484  27.943  29.257  1.00  0.00     0.031 A 
ATOM     39  C   UNL A   1      41.835  28.092  29.906  1.00  0.00     0.074 A 
ATOM     40  C   UNL A   1      39.572  28.928  29.367  1.00  0.00     0.049 A 
ATOM     41  N   UNL A   1      42.290  29.067  30.655  1.00  0.00    -0.248 NA
ATOM     42  C   UNL A   1      42.803  27.006  29.686  1.00  0.00     0.031 C 
ATOM     43  C   UNL A   1      38.232  28.910  28.777  1.00  0.00     0.029 A 
ATOM     44  N   UNL A   1      39.640  30.144  29.998  1.00  0.00    -0.354 N 
ATOM     45  C   UNL A   1      43.588  28.710  30.997  1.00  0.00     0.074 A 
ATOM     46  C   UNL A   1      43.838  27.412  30.409  1.00  0.00     0.031 C 
ATOM     47  C   UNL A   1      37.619  30.073  29.042  1.00  0.00     0.029 A 
ATOM     48  C   UNL A   1      38.498  30.895  29.866  1.00  0.00     0.049 A 
ATOM     49  H   UNL A   1      40.433  30.451  30.496  1.00  0.00     0.167 HD
ATOM     50  C   UNL A   1      44.497  29.408  31.722  1.00  0.00     0.037 A 
ATOM     51  C   UNL A   1      38.185  32.103  30.370  1.00  0.00     0.037 A 
ATOM     52  C   UNL A   1      44.252  30.700  32.307  1.00  0.00     0.049 A 
ATOM     53  C   UNL A   1      39.192  32.828  31.216  1.00  0.00     0.074 A 
ATOM     54  C   UNL A   1      45.103  31.478  33.074  1.00  0.00     0.029 A 
ATOM     55  N   UNL A   1      43.067  31.410  32.182  1.00  0.00    -0.354 N 
ATOM     56  N   UNL A   1      40.413  32.472  31.537  1.00  0.00    -0.248 NA
ATOM     57  C   UNL A   1      38.775  34.122  31.774  1.00  0.00     0.031 C 
ATOM     58  C   UNL A   1      44.422  32.647  33.437  1.00  0.00     0.029 A 
ATOM     59  C   UNL A   1      43.161  32.612  32.864  1.00  0.00     0.049 A 
ATOM     60  H   UNL A   1      42.276  31.104  31.683  1.00  0.00     0.167 HD
ATOM     61  C   UNL A   1      40.911  33.501  32.324  1.00  0.00     0.074 A 
ATOM     62  C   UNL A   1      39.873  34.507  32.407  1.00  0.00     0.031 C 
ATOM     63  C   UNL A   1      42.118  33.601  32.933  1.00  0.00     0.037 A 
BRANCH  50  64
ATOM     64  C   UNL A   1      45.845  28.781  31.924  1.00  0.00     0.057 A 
ATOM     65  C   UNL A   1      46.870  28.960  30.987  1.00  0.00     0.134 A 
ATOM     66  C   UNL A   1      46.118  27.968  33.032  1.00  0.00     0.134 A 
ATOM     67  F   UNL A   1      46.674  29.722  29.901  1.00  0.00    -0.206 F 
ATOM     68  C   UNL A   1      48.116  28.350  31.142  1.00  0.00     0.040 A 
ATOM     69  C   UNL A   1      47.367  27.370  33.211  1.00  0.00     0.040 A 
ATOM     70  F   UNL A   1      45.184  27.768  33.974  1.00  0.00    -0.206 F 
ATOM     71  C   UNL A   1      48.369  27.557  32.259  1.00  0.00     0.006 A 
ENDBRANCH  50  64
BRANCH  51  72
ATOM     72  C   UNL A   1      36.848  32.693  30.116  1.00  0.00     0.057 A 
ATOM     73  C   UNL A   1      35.766  32.429  30.964  1.00  0.00     0.134 A 
ATOM     74  C   UNL A   1      36.628  33.561  29.040  1.00  0.00     0.134 A 
ATOM     75  F   UNL A   1      35.911  31.602  32.010  1.00  0.00    -0.206 F 
ATOM     76  C   UNL A   1      34.512  33.003  30.750  1.00  0.00     0.040 A 
ATOM     77  C   UNL A   1      35.387  34.164  28.831  1.00  0.00     0.040 A 
ATOM     78  F   UNL A   1      37.632  33.868  28.204  1.00  0.00    -0.206 F 
ATOM     79  C   UNL A   1      34.324  33.882  29.686  1.00  0.00     0.006 A 
ENDBRANCH  51  72
BRANCH  63  80
ATOM     80  C   UNL A   1      42.375  34.852  33.719  1.00  0.00     0.057 A 
ATOM     81  C   UNL A   1      42.035  34.927  35.074  1.00  0.00     0.134 A 
ATOM     82  C   UNL A   1      42.960  35.981  33.132  1.00  0.00     0.134 A 
ATOM     83  F   UNL A   1      41.468  33.880  35.694  1.00  0.00    -0.206 F 
ATOM     84  C   UNL A   1      42.270  36.081  35.821  1.00  0.00     0.040 A 
ATOM     85  C   UNL A   1      43.222  37.133  33.874  1.00  0.00     0.040 A 
ATOM     86  F   UNL A   1      43.325  35.965  31.841  1.00  0.00    -0.206 F 
ATOM     87  C   UNL A   1      42.873  37.187  35.223  1.00  0.00     0.006 A 
ENDBRANCH  63  80
ENDBRANCH  37  38
ENDBRANCH  29  32
ENDBRANCH  27  28
ENDBRANCH  26  27
ENDBRANCH   1  26
TORSDOF 15
ENDMDL
MODEL 3
REMARK VINA RESULT:     -11.7      3.300      8.370
REMARK SMILES C=Cc1cc(Cl)cc2c1O[C@H](C(F)(F)F)C(C(=O)NCCCCCCNC(=O)c1ccc(-c3c4nc(c(-c5c(F)cccc5F)c5ccc([nH]5)c(-c5c(F)cccc5F)c5nc(c(-c6c(F)cccc6F)c6ccc3[nH]6)C=C5)C=C4)cc1)=C2
REMARK SMILES IDX 23 1 22 2 21 3 20 4 19 5 17 6 18 7 16 9 3 10 4 11 9 12 5 13
REMARK SMILES IDX 8 14 10 15 6 16 7 17 83 18 11 19 2 20 1 21 12 22 13 23 14 24
REMARK SMILES IDX 15 25 24 26 25 27 26 28 27 29 28 31 29 32 30 33 82 34 31 35
REMARK SMILES IDX 81 36 32 37 33 38 34 39 75 40 35 41 80 42 74 43 76 44 36 45
REMARK SMILES IDX 79 46 73 47 72 48 37 50 63 51 46 52 62 53 47 54 50 55 61 56
REMARK SMILES IDX 77 57 48 58 49 59 60 61 78 62 51 63 38 64 39 65 44 66 40 67
REMARK SMILES IDX 41 68 43 69 45 70 42 71 64 72 65 73 70 74 66 75 67 76 69 77
REMARK SMILES IDX 71 78 68 79 52 80 53 81 58 82 54 83 55 84 57 85 59 86 56 87
REMARK H PARENT 19 8 26 30 76 49 50 60
REMARK Flexibility Score: inf
ROOT
ATOM      1  C   UNL A   1      31.820  29.351  25.864  1.00  0.00     0.002 C 
ENDROOT
BRANCH   1   2
ATOM      2  C   UNL A   1      31.808  28.947  24.383  1.00  0.00     0.002 C 
BRANCH   2   3
ATOM      3  C   UNL A   1      30.582  28.152  23.921  1.00  0.00     0.021 C 
BRANCH   3   4
ATOM      4  C   UNL A   1      30.871  26.690  23.595  1.00  0.00     0.116 C 
BRANCH   4   5
ATOM      5  N   UNL A   1      31.722  26.550  22.427  1.00  0.00    -0.352 N 
ATOM      6  C   UNL A   1      32.722  25.736  22.015  1.00  0.00     0.251 C 
ATOM      7  O   UNL A   1      33.151  25.971  20.880  1.00  0.00    -0.270 OA
ATOM      8  H   UNL A   1      31.514  27.233  21.749  1.00  0.00     0.163 HD
BRANCH   6   9
ATOM      9  C   UNL A   1      33.321  24.622  22.811  1.00  0.00     0.067 C 
ATOM     10  C   UNL A   1      35.000  21.291  24.785  1.00  0.00     0.018 A 
ATOM     11  C   UNL A   1      34.284  20.088  24.816  1.00  0.00     0.032 A 
ATOM     12  C   UNL A   1      34.446  22.392  24.109  1.00  0.00     0.135 A 
ATOM     13  C   UNL A   1      33.057  19.989  24.160  1.00  0.00     0.042 A 
ATOM     14  C   UNL A   1      33.221  22.288  23.442  1.00  0.00     0.019 A 
ATOM     15  O   UNL A   1      35.186  23.543  24.074  1.00  0.00    -0.475 OA
ATOM     16  Cl  UNL A   1      32.191  18.501  24.198  1.00  0.00    -0.084 Cl
ATOM     17  C   UNL A   1      32.524  21.078  23.471  1.00  0.00     0.032 A 
ATOM     18  C   UNL A   1      32.711  23.429  22.691  1.00  0.00     0.025 C 
ATOM     19  C   UNL A   1      34.501  24.772  23.725  1.00  0.00     0.314 C 
BRANCH  10  20
ATOM     20  C   UNL A   1      36.283  21.423  25.491  1.00  0.00     0.004 C 
ATOM     21  C   UNL A   1      37.459  21.046  24.975  1.00  0.00     0.009 C 
ENDBRANCH  10  20
BRANCH  19  22
ATOM     22  C   UNL A   1      34.163  25.537  25.017  1.00  0.00     0.429 C 
ATOM     23  F   UNL A   1      32.926  25.198  25.460  1.00  0.00    -0.167 F 
ATOM     24  F   UNL A   1      35.017  25.257  26.028  1.00  0.00    -0.167 F 
ATOM     25  F   UNL A   1      34.179  26.878  24.845  1.00  0.00    -0.167 F 
ENDBRANCH  19  22
ENDBRANCH   6   9
ENDBRANCH   4   5
ENDBRANCH   3   4
ENDBRANCH   2   3
ENDBRANCH   1   2
BRANCH   1  26
ATOM     26  C   UNL A   1      31.570  30.833  26.152  1.00  0.00     0.021 C 
BRANCH  26  27
ATOM     27  C   UNL A   1      32.661  31.525  26.961  1.00  0.00     0.116 C 
BRANCH  27  28
ATOM     28  N   UNL A   1      32.319  32.893  27.311  1.00  0.00    -0.352 N 
ATOM     29  C   UNL A   1      32.996  33.779  28.115  1.00  0.00     0.251 C 
ATOM     30  H   UNL A   1      31.484  33.233  26.917  1.00  0.00     0.163 HD
ATOM     31  O   UNL A   1      32.486  34.851  28.424  1.00  0.00    -0.269 OA
BRANCH  29  32
ATOM     32  C   UNL A   1      34.331  33.419  28.638  1.00  0.00     0.039 A 
ATOM     33  C   UNL A   1      35.487  33.739  27.921  1.00  0.00     0.014 A 
ATOM     34  C   UNL A   1      34.425  32.728  29.849  1.00  0.00     0.014 A 
ATOM     35  C   UNL A   1      36.714  33.231  28.331  1.00  0.00     0.010 A 
ATOM     36  C   UNL A   1      35.670  32.285  30.301  1.00  0.00     0.010 A 
ATOM     37  C   UNL A   1      36.819  32.490  29.520  1.00  0.00    -0.014 A 
BRANCH  37  38
ATOM     38  C   UNL A   1      38.135  31.922  29.913  1.00  0.00     0.031 A 
ATOM     39  C   UNL A   1      39.010  32.635  30.909  1.00  0.00     0.074 A 
ATOM     40  C   UNL A   1      38.514  30.728  29.417  1.00  0.00     0.049 A 
ATOM     41  N   UNL A   1      40.188  32.292  31.371  1.00  0.00    -0.248 NA
ATOM     42  C   UNL A   1      38.500  33.901  31.459  1.00  0.00     0.031 C 
ATOM     43  C   UNL A   1      37.750  29.932  28.455  1.00  0.00     0.029 A 
ATOM     44  N   UNL A   1      39.628  29.969  29.667  1.00  0.00    -0.354 N 
ATOM     45  C   UNL A   1      40.558  33.295  32.257  1.00  0.00     0.074 A 
ATOM     46  C   UNL A   1      39.500  34.283  32.241  1.00  0.00     0.031 C 
ATOM     47  C   UNL A   1      38.399  28.781  28.224  1.00  0.00     0.029 A 
ATOM     48  C   UNL A   1      39.649  28.783  28.975  1.00  0.00     0.049 A 
ATOM     49  H   UNL A   1      40.344  30.247  30.283  1.00  0.00     0.167 HD
ATOM     50  C   UNL A   1      41.670  33.380  33.028  1.00  0.00     0.037 A 
ATOM     51  C   UNL A   1      40.580  27.812  28.936  1.00  0.00     0.037 A 
ATOM     52  C   UNL A   1      42.723  32.398  33.048  1.00  0.00     0.049 A 
ATOM     53  C   UNL A   1      41.829  27.960  29.759  1.00  0.00     0.074 A 
ATOM     54  C   UNL A   1      43.898  32.404  33.780  1.00  0.00     0.029 A 
ATOM     55  N   UNL A   1      42.723  31.228  32.303  1.00  0.00    -0.354 N 
ATOM     56  N   UNL A   1      42.166  28.920  30.585  1.00  0.00    -0.248 NA
ATOM     57  C   UNL A   1      42.827  26.889  29.639  1.00  0.00     0.031 C 
ATOM     58  C   UNL A   1      44.622  31.251  33.458  1.00  0.00     0.029 A 
ATOM     59  C   UNL A   1      43.880  30.509  32.552  1.00  0.00     0.049 A 
ATOM     60  H   UNL A   1      42.007  30.950  31.688  1.00  0.00     0.167 HD
ATOM     61  C   UNL A   1      43.409  28.564  31.090  1.00  0.00     0.074 A 
ATOM     62  C   UNL A   1      43.752  27.286  30.500  1.00  0.00     0.031 C 
ATOM     63  C   UNL A   1      44.202  29.239  31.957  1.00  0.00     0.037 A 
BRANCH  50  64
ATOM     64  C   UNL A   1      41.804  34.582  33.916  1.00  0.00     0.057 A 
ATOM     65  C   UNL A   1      42.431  35.748  33.460  1.00  0.00     0.134 A 
ATOM     66  C   UNL A   1      41.342  34.573  35.238  1.00  0.00     0.134 A 
ATOM     67  F   UNL A   1      42.901  35.823  32.206  1.00  0.00    -0.206 F 
ATOM     68  C   UNL A   1      42.599  36.859  34.288  1.00  0.00     0.040 A 
ATOM     69  C   UNL A   1      41.483  35.685  36.071  1.00  0.00     0.040 A 
ATOM     70  F   UNL A   1      40.718  33.492  35.732  1.00  0.00    -0.206 F 
ATOM     71  C   UNL A   1      42.120  36.831  35.597  1.00  0.00     0.006 A 
ENDBRANCH  50  64
BRANCH  51  72
ATOM     72  C   UNL A   1      40.387  26.628  28.064  1.00  0.00     0.057 A 
ATOM     73  C   UNL A   1      41.036  26.523  26.829  1.00  0.00     0.134 A 
ATOM     74  C   UNL A   1      39.574  25.558  28.459  1.00  0.00     0.134 A 
ATOM     75  F   UNL A   1      41.825  27.516  26.391  1.00  0.00    -0.206 F 
ATOM     76  C   UNL A   1      40.884  25.399  26.015  1.00  0.00     0.040 A 
ATOM     77  C   UNL A   1      39.435  24.417  27.669  1.00  0.00     0.040 A 
ATOM     78  F   UNL A   1      38.942  25.592  29.642  1.00  0.00    -0.206 F 
ATOM     79  C   UNL A   1      40.089  24.337  26.441  1.00  0.00     0.006 A 
ENDBRANCH  51  72
BRANCH  63  80
ATOM     80  C   UNL A   1      45.502  28.589  32.329  1.00  0.00     0.057 A 
ATOM     81  C   UNL A   1      46.665  28.848  31.595  1.00  0.00     0.134 A 
ATOM     82  C   UNL A   1      45.599  27.706  33.412  1.00  0.00     0.134 A 
ATOM     83  F   UNL A   1      46.637  29.681  30.543  1.00  0.00    -0.206 F 
ATOM     84  C   UNL A   1      47.883  28.255  31.928  1.00  0.00     0.040 A 
ATOM     85  C   UNL A   1      46.816  27.125  33.770  1.00  0.00     0.040 A 
ATOM     86  F   UNL A   1      44.523  27.432  34.164  1.00  0.00    -0.206 F 
ATOM     87  C   UNL A   1      47.963  27.396  33.024  1.00  0.00     0.006 A 
ENDBRANCH  63  80
ENDBRANCH  37  38
ENDBRANCH  29  32
ENDBRANCH  27  28
ENDBRANCH  26  27
ENDBRANCH   1  26
TORSDOF 15
ENDMDL
