MODEL 1
REMARK VINA RESULT:     -12.3      0.000      0.000
REMARK SMILES Cc1ccccc1C[C@H](C[C@@H]1Cc2ccccc21)C(=O)NCCCCCCNC(=O)c1ccc(-c2c3nc(c(-c4c(F)cccc4F)c4ccc([nH]4)c(-c4c(F)cccc4F)c4nc(c(-c5c(F)cccc5F)c5ccc2[nH]5)C=C4)C=C3)cc1
REMARK SMILES IDX 24 1 23 2 22 3 21 4 19 5 20 6 9 8 8 9 7 10 1 11 2 12 3 13
REMARK SMILES IDX 4 14 6 15 5 16 10 17 11 18 12 19 18 20 13 21 17 22 14 23
REMARK SMILES IDX 16 24 15 25 25 26 26 27 27 28 28 29 29 30 30 32 31 33 32 34
REMARK SMILES IDX 84 35 33 36 83 37 34 38 35 39 36 40 77 41 37 42 82 43 76 44
REMARK SMILES IDX 78 45 38 46 81 47 75 48 74 49 39 51 65 52 48 53 64 54 49 55
REMARK SMILES IDX 52 56 63 57 79 58 50 59 51 60 62 62 80 63 53 64 40 65 41 66
REMARK SMILES IDX 46 67 42 68 43 69 45 70 47 71 44 72 66 73 67 74 72 75 68 76
REMARK SMILES IDX 69 77 71 78 73 79 70 80 54 81 55 82 60 83 56 84 57 85 59 86
REMARK SMILES IDX 61 87 58 88
REMARK H PARENT 21 7 28 31 78 50 52 61
REMARK Flexibility Score: inf
ROOT
ATOM      1  C   UNL A   1      32.109  30.117  25.765  1.00  0.00     0.002 C 
ENDROOT
BRANCH   1   2
ATOM      2  C   UNL A   1      32.384  28.614  25.879  1.00  0.00     0.021 C 
BRANCH   2   3
ATOM      3  C   UNL A   1      31.677  27.701  24.883  1.00  0.00     0.116 C 
BRANCH   3   4
ATOM      4  N   UNL A   1      30.626  26.884  25.444  1.00  0.00    -0.356 N 
ATOM      5  C   UNL A   1      30.665  25.631  25.977  1.00  0.00     0.223 C 
ATOM      6  O   UNL A   1      29.649  25.266  26.582  1.00  0.00    -0.275 OA
ATOM      7  H   UNL A   1      29.735  27.302  25.441  1.00  0.00     0.163 HD
BRANCH   5   8
ATOM      8  C   UNL A   1      31.867  24.674  25.868  1.00  0.00     0.083 C 
BRANCH   8   9
ATOM      9  C   UNL A   1      31.646  23.158  26.144  1.00  0.00     0.049 C 
BRANCH   9  10
ATOM     10  C   UNL A   1      32.426  22.002  25.538  1.00  0.00    -0.044 A 
ATOM     11  C   UNL A   1      33.887  21.884  27.653  1.00  0.00     0.044 C 
ATOM     12  C   UNL A   1      33.482  21.406  26.280  1.00  0.00    -0.048 A 
ATOM     13  C   UNL A   1      34.235  20.358  25.720  1.00  0.00     0.004 A 
ATOM     14  C   UNL A   1      33.933  19.852  24.462  1.00  0.00     0.000 A 
ATOM     15  C   UNL A   1      32.123  21.440  24.293  1.00  0.00     0.004 A 
ATOM     16  C   UNL A   1      32.868  20.385  23.754  1.00  0.00     0.000 A 
ENDBRANCH   9  10
ENDBRANCH   8   9
BRANCH   8  17
ATOM     17  C   UNL A   1      33.268  25.258  26.184  1.00  0.00     0.022 C 
BRANCH  17  18
ATOM     18  C   UNL A   1      34.247  25.400  25.010  1.00  0.00     0.025 C 
ATOM     19  C   UNL A   1      33.964  24.844  23.560  1.00  0.00     0.044 C 
ATOM     20  C   UNL A   1      35.363  24.375  25.052  1.00  0.00    -0.041 A 
ATOM     21  C   UNL A   1      35.062  23.857  23.816  1.00  0.00    -0.044 A 
ATOM     22  C   UNL A   1      36.388  23.873  25.821  1.00  0.00     0.004 A 
ATOM     23  C   UNL A   1      35.753  22.797  23.277  1.00  0.00     0.004 A 
ATOM     24  C   UNL A   1      37.114  22.798  25.298  1.00  0.00     0.000 A 
ATOM     25  C   UNL A   1      36.795  22.260  24.037  1.00  0.00     0.000 A 
ENDBRANCH  17  18
ENDBRANCH   8  17
ENDBRANCH   5   8
ENDBRANCH   3   4
ENDBRANCH   2   3
ENDBRANCH   1   2
BRANCH   1  26
ATOM     26  C   UNL A   1      32.219  30.977  27.033  1.00  0.00     0.002 C 
BRANCH  26  27
ATOM     27  C   UNL A   1      33.515  31.755  27.267  1.00  0.00     0.021 C 
BRANCH  27  28
ATOM     28  C   UNL A   1      34.666  30.963  27.866  1.00  0.00     0.116 C 
BRANCH  28  29
ATOM     29  N   UNL A   1      35.513  31.699  28.790  1.00  0.00    -0.352 N 
ATOM     30  C   UNL A   1      36.653  31.280  29.461  1.00  0.00     0.251 C 
ATOM     31  H   UNL A   1      35.238  32.629  28.964  1.00  0.00     0.163 HD
ATOM     32  O   UNL A   1      37.203  32.029  30.249  1.00  0.00    -0.269 OA
BRANCH  30  33
ATOM     33  C   UNL A   1      37.287  29.978  29.108  1.00  0.00     0.039 A 
ATOM     34  C   UNL A   1      37.409  29.023  30.126  1.00  0.00     0.014 A 
ATOM     35  C   UNL A   1      37.937  29.781  27.894  1.00  0.00     0.014 A 
ATOM     36  C   UNL A   1      38.393  28.042  30.029  1.00  0.00     0.010 A 
ATOM     37  C   UNL A   1      38.983  28.882  27.837  1.00  0.00     0.010 A 
ATOM     38  C   UNL A   1      39.257  28.066  28.936  1.00  0.00    -0.014 A 
BRANCH  38  39
ATOM     39  C   UNL A   1      40.549  27.394  28.930  1.00  0.00     0.031 A 
ATOM     40  C   UNL A   1      40.660  25.963  28.592  1.00  0.00     0.074 A 
ATOM     41  C   UNL A   1      41.665  28.126  29.141  1.00  0.00     0.049 A 
ATOM     42  N   UNL A   1      41.614  25.195  28.999  1.00  0.00    -0.248 NA
ATOM     43  C   UNL A   1      39.670  25.273  27.777  1.00  0.00     0.031 C 
ATOM     44  C   UNL A   1      43.048  27.726  28.899  1.00  0.00     0.029 A 
ATOM     45  N   UNL A   1      41.768  29.350  29.814  1.00  0.00    -0.354 N 
ATOM     46  C   UNL A   1      41.534  24.018  28.288  1.00  0.00     0.074 A 
ATOM     47  C   UNL A   1      40.266  24.090  27.597  1.00  0.00     0.031 C 
ATOM     48  C   UNL A   1      43.859  28.512  29.625  1.00  0.00     0.029 A 
ATOM     49  C   UNL A   1      43.016  29.340  30.469  1.00  0.00     0.049 A 
ATOM     50  H   UNL A   1      41.100  30.074  29.826  1.00  0.00     0.167 HD
ATOM     51  C   UNL A   1      42.615  23.186  28.242  1.00  0.00     0.037 A 
ATOM     52  C   UNL A   1      43.100  29.404  31.830  1.00  0.00     0.037 A 
ATOM     53  C   UNL A   1      43.721  23.711  29.042  1.00  0.00     0.049 A 
ATOM     54  C   UNL A   1      43.774  28.209  32.459  1.00  0.00     0.074 A 
ATOM     55  C   UNL A   1      44.849  24.439  28.696  1.00  0.00     0.029 A 
ATOM     56  N   UNL A   1      43.611  23.791  30.425  1.00  0.00    -0.354 N 
ATOM     57  N   UNL A   1      43.925  27.061  31.859  1.00  0.00    -0.248 NA
ATOM     58  C   UNL A   1      44.297  28.198  33.823  1.00  0.00     0.031 C 
ATOM     59  C   UNL A   1      45.395  24.995  29.875  1.00  0.00     0.029 A 
ATOM     60  C   UNL A   1      44.608  24.598  30.942  1.00  0.00     0.049 A 
ATOM     61  H   UNL A   1      42.921  23.338  30.962  1.00  0.00     0.167 HD
ATOM     62  C   UNL A   1      44.497  26.164  32.723  1.00  0.00     0.074 A 
ATOM     63  C   UNL A   1      44.738  26.932  33.930  1.00  0.00     0.031 C 
ATOM     64  C   UNL A   1      44.703  24.861  32.370  1.00  0.00     0.037 A 
BRANCH  51  65
ATOM     65  C   UNL A   1      42.783  22.088  27.210  1.00  0.00     0.057 A 
ATOM     66  C   UNL A   1      42.024  20.901  27.279  1.00  0.00     0.134 A 
ATOM     67  C   UNL A   1      43.714  22.111  26.159  1.00  0.00     0.134 A 
ATOM     68  F   UNL A   1      40.998  20.766  28.129  1.00  0.00    -0.206 F 
ATOM     69  C   UNL A   1      42.277  19.782  26.475  1.00  0.00     0.040 A 
ATOM     70  C   UNL A   1      44.015  20.982  25.380  1.00  0.00     0.040 A 
ATOM     71  F   UNL A   1      44.336  23.241  25.800  1.00  0.00    -0.206 F 
ATOM     72  C   UNL A   1      43.308  19.802  25.552  1.00  0.00     0.006 A 
ENDBRANCH  51  65
BRANCH  52  73
ATOM     73  C   UNL A   1      41.992  30.172  32.453  1.00  0.00     0.057 A 
ATOM     74  C   UNL A   1      42.071  31.575  32.475  1.00  0.00     0.134 A 
ATOM     75  C   UNL A   1      40.733  29.600  32.663  1.00  0.00     0.134 A 
ATOM     76  F   UNL A   1      43.251  32.185  32.278  1.00  0.00    -0.206 F 
ATOM     77  C   UNL A   1      40.933  32.377  32.585  1.00  0.00     0.040 A 
ATOM     78  C   UNL A   1      39.586  30.395  32.785  1.00  0.00     0.040 A 
ATOM     79  F   UNL A   1      40.573  28.270  32.633  1.00  0.00    -0.206 F 
ATOM     80  C   UNL A   1      39.680  31.784  32.705  1.00  0.00     0.006 A 
ENDBRANCH  52  73
BRANCH  64  81
ATOM     81  C   UNL A   1      45.102  23.740  33.298  1.00  0.00     0.057 A 
ATOM     82  C   UNL A   1      46.388  23.575  33.831  1.00  0.00     0.134 A 
ATOM     83  C   UNL A   1      44.126  22.854  33.809  1.00  0.00     0.134 A 
ATOM     84  F   UNL A   1      47.388  24.412  33.527  1.00  0.00    -0.206 F 
ATOM     85  C   UNL A   1      46.696  22.568  34.758  1.00  0.00     0.040 A 
ATOM     86  C   UNL A   1      44.409  21.880  34.772  1.00  0.00     0.040 A 
ATOM     87  F   UNL A   1      42.846  22.909  33.413  1.00  0.00    -0.206 F 
ATOM     88  C   UNL A   1      45.703  21.724  35.240  1.00  0.00     0.006 A 
ENDBRANCH  64  81
ENDBRANCH  38  39
ENDBRANCH  30  33
ENDBRANCH  28  29
ENDBRANCH  27  28
ENDBRANCH  26  27
ENDBRANCH   1  26
TORSDOF 17
ENDMDL
MODEL 2
REMARK VINA RESULT:     -12.1      3.519      8.966
REMARK SMILES Cc1ccccc1C[C@H](C[C@@H]1Cc2ccccc21)C(=O)NCCCCCCNC(=O)c1ccc(-c2c3nc(c(-c4c(F)cccc4F)c4ccc([nH]4)c(-c4c(F)cccc4F)c4nc(c(-c5c(F)cccc5F)c5ccc2[nH]5)C=C4)C=C3)cc1
REMARK SMILES IDX 24 1 23 2 22 3 21 4 19 5 20 6 9 8 8 9 7 10 1 11 2 12 3 13
REMARK SMILES IDX 4 14 6 15 5 16 10 17 11 18 12 19 18 20 13 21 17 22 14 23
REMARK SMILES IDX 16 24 15 25 25 26 26 27 27 28 28 29 29 30 30 32 31 33 32 34
REMARK SMILES IDX 84 35 33 36 83 37 34 38 35 39 36 40 77 41 37 42 82 43 76 44
REMARK SMILES IDX 78 45 38 46 81 47 75 48 74 49 39 51 65 52 48 53 64 54 49 55
REMARK SMILES IDX 52 56 63 57 79 58 50 59 51 60 62 62 80 63 53 64 40 65 41 66
REMARK SMILES IDX 46 67 42 68 43 69 45 70 47 71 44 72 66 73 67 74 72 75 68 76
REMARK SMILES IDX 69 77 71 78 73 79 70 80 54 81 55 82 60 83 56 84 57 85 59 86
REMARK SMILES IDX 61 87 58 88
REMARK H PARENT 21 7 28 31 78 50 52 61
REMARK Flexibility Score: inf
ROOT
ATOM      1  C   UNL A   1      35.575  21.775  25.007  1.00  0.00     0.002 C 
ENDROOT
BRANCH   1   2
ATOM      2  C   UNL A   1      34.190  21.647  25.650  1.00  0.00     0.021 C 
BRANCH   2   3
ATOM      3  C   UNL A   1      32.991  22.058  24.804  1.00  0.00     0.116 C 
BRANCH   3   4
ATOM      4  N   UNL A   1      33.277  22.275  23.405  1.00  0.00    -0.356 N 
ATOM      5  C   UNL A   1      33.496  23.428  22.712  1.00  0.00     0.223 C 
ATOM      6  O   UNL A   1      33.934  23.296  21.563  1.00  0.00    -0.275 OA
ATOM      7  H   UNL A   1      33.321  21.455  22.862  1.00  0.00     0.163 HD
BRANCH   5   8
ATOM      8  C   UNL A   1      33.232  24.841  23.265  1.00  0.00     0.083 C 
BRANCH   8   9
ATOM      9  C   UNL A   1      32.503  25.877  22.360  1.00  0.00     0.049 C 
BRANCH   9  10
ATOM     10  C   UNL A   1      31.655  27.050  22.824  1.00  0.00    -0.044 A 
ATOM     11  C   UNL A   1      33.709  28.593  22.665  1.00  0.00     0.044 C 
ATOM     12  C   UNL A   1      32.250  28.335  22.951  1.00  0.00    -0.048 A 
ATOM     13  C   UNL A   1      31.487  29.424  23.412  1.00  0.00     0.004 A 
ATOM     14  C   UNL A   1      30.136  29.281  23.699  1.00  0.00     0.000 A 
ATOM     15  C   UNL A   1      30.283  26.952  23.082  1.00  0.00     0.004 A 
ATOM     16  C   UNL A   1      29.531  28.046  23.522  1.00  0.00     0.000 A 
ENDBRANCH   9  10
ENDBRANCH   8   9
BRANCH   8  17
ATOM     17  C   UNL A   1      34.236  25.392  24.311  1.00  0.00     0.022 C 
BRANCH  17  18
ATOM     18  C   UNL A   1      33.728  25.550  25.751  1.00  0.00     0.025 C 
ATOM     19  C   UNL A   1      32.220  25.357  26.176  1.00  0.00     0.044 C 
ATOM     20  C   UNL A   1      33.525  27.001  26.142  1.00  0.00    -0.041 A 
ATOM     21  C   UNL A   1      32.195  26.831  26.444  1.00  0.00    -0.044 A 
ATOM     22  C   UNL A   1      34.143  28.226  26.245  1.00  0.00     0.004 A 
ATOM     23  C   UNL A   1      31.397  27.874  26.852  1.00  0.00     0.004 A 
ATOM     24  C   UNL A   1      33.360  29.306  26.663  1.00  0.00     0.000 A 
ATOM     25  C   UNL A   1      31.995  29.132  26.960  1.00  0.00     0.000 A 
ENDBRANCH  17  18
ENDBRANCH   8  17
ENDBRANCH   5   8
ENDBRANCH   3   4
ENDBRANCH   2   3
ENDBRANCH   1   2
BRANCH   1  26
ATOM     26  C   UNL A   1      36.511  20.557  25.041  1.00  0.00     0.002 C 
BRANCH  26  27
ATOM     27  C   UNL A   1      38.019  20.804  24.990  1.00  0.00     0.021 C 
BRANCH  27  28
ATOM     28  C   UNL A   1      38.519  22.020  25.753  1.00  0.00     0.116 C 
BRANCH  28  29
ATOM     29  N   UNL A   1      39.930  22.000  26.101  1.00  0.00    -0.352 N 
ATOM     30  C   UNL A   1      40.750  23.043  26.508  1.00  0.00     0.251 C 
ATOM     31  H   UNL A   1      40.367  21.120  26.039  1.00  0.00     0.163 HD
ATOM     32  O   UNL A   1      41.936  22.842  26.701  1.00  0.00    -0.269 OA
BRANCH  30  33
ATOM     33  C   UNL A   1      40.155  24.366  26.850  1.00  0.00     0.039 A 
ATOM     34  C   UNL A   1      40.652  25.491  26.179  1.00  0.00     0.014 A 
ATOM     35  C   UNL A   1      39.307  24.532  27.940  1.00  0.00     0.014 A 
ATOM     36  C   UNL A   1      40.533  26.748  26.767  1.00  0.00     0.010 A 
ATOM     37  C   UNL A   1      39.277  25.753  28.582  1.00  0.00     0.010 A 
ATOM     38  C   UNL A   1      39.956  26.843  28.032  1.00  0.00    -0.014 A 
BRANCH  38  39
ATOM     39  C   UNL A   1      40.154  27.986  28.912  1.00  0.00     0.031 A 
ATOM     40  C   UNL A   1      39.157  29.069  28.988  1.00  0.00     0.074 A 
ATOM     41  C   UNL A   1      41.222  27.993  29.739  1.00  0.00     0.049 A 
ATOM     42  N   UNL A   1      39.430  30.281  29.335  1.00  0.00    -0.248 NA
ATOM     43  C   UNL A   1      37.756  28.867  28.644  1.00  0.00     0.031 C 
ATOM     44  C   UNL A   1      41.455  28.874  30.880  1.00  0.00     0.029 A 
ATOM     45  N   UNL A   1      42.428  27.298  29.582  1.00  0.00    -0.354 N 
ATOM     46  C   UNL A   1      38.235  30.935  29.541  1.00  0.00     0.074 A 
ATOM     47  C   UNL A   1      37.228  30.035  29.026  1.00  0.00     0.031 C 
ATOM     48  C   UNL A   1      42.769  28.883  31.159  1.00  0.00     0.029 A 
ATOM     49  C   UNL A   1      43.437  28.127  30.113  1.00  0.00     0.049 A 
ATOM     50  H   UNL A   1      42.547  26.407  29.181  1.00  0.00     0.167 HD
ATOM     51  C   UNL A   1      38.219  32.095  30.260  1.00  0.00     0.037 A 
ATOM     52  C   UNL A   1      44.444  28.608  29.328  1.00  0.00     0.037 A 
ATOM     53  C   UNL A   1      39.568  32.478  30.676  1.00  0.00     0.049 A 
ATOM     54  C   UNL A   1      44.498  30.115  29.255  1.00  0.00     0.074 A 
ATOM     55  C   UNL A   1      40.258  32.293  31.864  1.00  0.00     0.029 A 
ATOM     56  N   UNL A   1      40.511  32.864  29.730  1.00  0.00    -0.354 N 
ATOM     57  N   UNL A   1      43.501  30.893  29.570  1.00  0.00    -0.248 NA
ATOM     58  C   UNL A   1      45.663  30.863  28.788  1.00  0.00     0.031 C 
ATOM     59  C   UNL A   1      41.630  32.527  31.620  1.00  0.00     0.029 A 
ATOM     60  C   UNL A   1      41.777  32.866  30.285  1.00  0.00     0.049 A 
ATOM     61  H   UNL A   1      40.307  33.101  28.797  1.00  0.00     0.167 HD
ATOM     62  C   UNL A   1      43.840  32.197  29.319  1.00  0.00     0.074 A 
ATOM     63  C   UNL A   1      45.213  32.128  28.858  1.00  0.00     0.031 C 
ATOM     64  C   UNL A   1      42.948  33.217  29.496  1.00  0.00     0.037 A 
BRANCH  51  65
ATOM     65  C   UNL A   1      36.962  32.685  30.870  1.00  0.00     0.057 A 
ATOM     66  C   UNL A   1      36.517  32.287  32.147  1.00  0.00     0.134 A 
ATOM     67  C   UNL A   1      36.115  33.603  30.229  1.00  0.00     0.134 A 
ATOM     68  F   UNL A   1      37.268  31.527  32.955  1.00  0.00    -0.206 F 
ATOM     69  C   UNL A   1      35.268  32.649  32.670  1.00  0.00     0.040 A 
ATOM     70  C   UNL A   1      34.840  33.934  30.715  1.00  0.00     0.040 A 
ATOM     71  F   UNL A   1      36.504  34.266  29.133  1.00  0.00    -0.206 F 
ATOM     72  C   UNL A   1      34.403  33.439  31.933  1.00  0.00     0.006 A 
ENDBRANCH  51  65
BRANCH  52  73
ATOM     73  C   UNL A   1      44.806  27.697  28.211  1.00  0.00     0.057 A 
ATOM     74  C   UNL A   1      44.286  27.959  26.932  1.00  0.00     0.134 A 
ATOM     75  C   UNL A   1      45.914  26.848  28.288  1.00  0.00     0.134 A 
ATOM     76  F   UNL A   1      43.224  28.769  26.790  1.00  0.00    -0.206 F 
ATOM     77  C   UNL A   1      44.909  27.492  25.772  1.00  0.00     0.040 A 
ATOM     78  C   UNL A   1      46.540  26.365  27.133  1.00  0.00     0.040 A 
ATOM     79  F   UNL A   1      46.480  26.570  29.471  1.00  0.00    -0.206 F 
ATOM     80  C   UNL A   1      46.062  26.720  25.872  1.00  0.00     0.006 A 
ENDBRANCH  52  73
BRANCH  64  81
ATOM     81  C   UNL A   1      43.125  34.643  29.038  1.00  0.00     0.057 A 
ATOM     82  C   UNL A   1      43.184  35.748  29.898  1.00  0.00     0.134 A 
ATOM     83  C   UNL A   1      43.395  34.928  27.679  1.00  0.00     0.134 A 
ATOM     84  F   UNL A   1      43.062  35.614  31.225  1.00  0.00    -0.206 F 
ATOM     85  C   UNL A   1      43.434  37.049  29.437  1.00  0.00     0.040 A 
ATOM     86  C   UNL A   1      43.698  36.213  27.216  1.00  0.00     0.040 A 
ATOM     87  F   UNL A   1      43.400  33.968  26.744  1.00  0.00    -0.206 F 
ATOM     88  C   UNL A   1      43.703  37.283  28.094  1.00  0.00     0.006 A 
ENDBRANCH  64  81
ENDBRANCH  38  39
ENDBRANCH  30  33
ENDBRANCH  28  29
ENDBRANCH  27  28
ENDBRANCH  26  27
ENDBRANCH   1  26
TORSDOF 17
ENDMDL
MODEL 3
REMARK VINA RESULT:     -12.1      2.161      3.621
REMARK SMILES Cc1ccccc1C[C@H](C[C@@H]1Cc2ccccc21)C(=O)NCCCCCCNC(=O)c1ccc(-c2c3nc(c(-c4c(F)cccc4F)c4ccc([nH]4)c(-c4c(F)cccc4F)c4nc(c(-c5c(F)cccc5F)c5ccc2[nH]5)C=C4)C=C3)cc1
REMARK SMILES IDX 24 1 23 2 22 3 21 4 19 5 20 6 9 8 8 9 7 10 1 11 2 12 3 13
REMARK SMILES IDX 4 14 6 15 5 16 10 17 11 18 12 19 18 20 13 21 17 22 14 23
REMARK SMILES IDX 16 24 15 25 25 26 26 27 27 28 28 29 29 30 30 32 31 33 32 34
REMARK SMILES IDX 84 35 33 36 83 37 34 38 35 39 36 40 77 41 37 42 82 43 76 44
REMARK SMILES IDX 78 45 38 46 81 47 75 48 74 49 39 51 65 52 48 53 64 54 49 55
REMARK SMILES IDX 52 56 63 57 79 58 50 59 51 60 62 62 80 63 53 64 40 65 41 66
REMARK SMILES IDX 46 67 42 68 43 69 45 70 47 71 44 72 66 73 67 74 72 75 68 76
REMARK SMILES IDX 69 77 71 78 73 79 70 80 54 81 55 82 60 83 56 84 57 85 59 86
REMARK SMILES IDX 61 87 58 88
REMARK H PARENT 21 7 28 31 78 50 52 61
REMARK Flexibility Score: inf
ROOT
ATOM      1  C   UNL A   1      31.688  29.324  25.715  1.00  0.00     0.002 C 
ENDROOT
BRANCH   1   2
ATOM      2  C   UNL A   1      32.049  28.763  24.336  1.00  0.00     0.021 C 
BRANCH   2   3
ATOM      3  C   UNL A   1      31.344  27.483  23.900  1.00  0.00     0.116 C 
BRANCH   3   4
ATOM      4  N   UNL A   1      30.438  26.923  24.877  1.00  0.00    -0.356 N 
ATOM      5  C   UNL A   1      30.605  25.893  25.753  1.00  0.00     0.223 C 
ATOM      6  O   UNL A   1      29.734  25.775  26.624  1.00  0.00    -0.275 OA
ATOM      7  H   UNL A   1      29.556  27.357  24.916  1.00  0.00     0.163 HD
BRANCH   5   8
ATOM      8  C   UNL A   1      31.781  24.899  25.717  1.00  0.00     0.083 C 
BRANCH   8   9
ATOM      9  C   UNL A   1      31.507  23.402  26.048  1.00  0.00     0.049 C 
BRANCH   9  10
ATOM     10  C   UNL A   1      32.271  22.201  25.515  1.00  0.00    -0.044 A 
ATOM     11  C   UNL A   1      33.620  22.091  27.704  1.00  0.00     0.044 C 
ATOM     12  C   UNL A   1      33.265  21.589  26.326  1.00  0.00    -0.048 A 
ATOM     13  C   UNL A   1      34.005  20.497  25.834  1.00  0.00     0.004 A 
ATOM     14  C   UNL A   1      33.746  19.965  24.577  1.00  0.00     0.000 A 
ATOM     15  C   UNL A   1      32.009  21.614  24.272  1.00  0.00     0.004 A 
ATOM     16  C   UNL A   1      32.738  20.517  23.801  1.00  0.00     0.000 A 
ENDBRANCH   9  10
ENDBRANCH   8   9
BRANCH   8  17
ATOM     17  C   UNL A   1      33.190  25.455  26.048  1.00  0.00     0.022 C 
BRANCH  17  18
ATOM     18  C   UNL A   1      34.201  25.526  24.896  1.00  0.00     0.025 C 
ATOM     19  C   UNL A   1      33.932  24.941  23.454  1.00  0.00     0.044 C 
ATOM     20  C   UNL A   1      35.275  24.460  24.994  1.00  0.00    -0.041 A 
ATOM     21  C   UNL A   1      34.983  23.919  23.765  1.00  0.00    -0.044 A 
ATOM     22  C   UNL A   1      36.260  23.940  25.802  1.00  0.00     0.004 A 
ATOM     23  C   UNL A   1      35.644  22.819  23.273  1.00  0.00     0.004 A 
ATOM     24  C   UNL A   1      36.955  22.824  25.327  1.00  0.00     0.000 A 
ATOM     25  C   UNL A   1      36.646  22.264  24.073  1.00  0.00     0.000 A 
ENDBRANCH  17  18
ENDBRANCH   8  17
ENDBRANCH   5   8
ENDBRANCH   3   4
ENDBRANCH   2   3
ENDBRANCH   1   2
BRANCH   1  26
ATOM     26  C   UNL A   1      32.611  29.000  26.900  1.00  0.00     0.002 C 
BRANCH  26  27
ATOM     27  C   UNL A   1      34.119  29.166  26.705  1.00  0.00     0.021 C 
BRANCH  27  28
ATOM     28  C   UNL A   1      34.790  30.211  27.582  1.00  0.00     0.116 C 
BRANCH  28  29
ATOM     29  N   UNL A   1      34.048  31.450  27.753  1.00  0.00    -0.352 N 
ATOM     30  C   UNL A   1      34.309  32.522  28.595  1.00  0.00     0.251 C 
ATOM     31  H   UNL A   1      33.245  31.540  27.190  1.00  0.00     0.163 HD
ATOM     32  O   UNL A   1      33.532  33.458  28.642  1.00  0.00    -0.269 OA
BRANCH  30  33
ATOM     33  C   UNL A   1      35.606  32.595  29.324  1.00  0.00     0.039 A 
ATOM     34  C   UNL A   1      36.649  33.309  28.717  1.00  0.00     0.014 A 
ATOM     35  C   UNL A   1      35.867  31.812  30.443  1.00  0.00     0.014 A 
ATOM     36  C   UNL A   1      37.967  33.013  29.052  1.00  0.00     0.010 A 
ATOM     37  C   UNL A   1      37.169  31.435  30.705  1.00  0.00     0.010 A 
ATOM     38  C   UNL A   1      38.213  31.981  29.955  1.00  0.00    -0.014 A 
BRANCH  38  39
ATOM     39  C   UNL A   1      39.499  31.305  30.059  1.00  0.00     0.031 A 
ATOM     40  C   UNL A   1      39.745  30.028  29.366  1.00  0.00     0.074 A 
ATOM     41  C   UNL A   1      40.504  31.917  30.723  1.00  0.00     0.049 A 
ATOM     42  N   UNL A   1      40.611  29.151  29.749  1.00  0.00    -0.248 NA
ATOM     43  C   UNL A   1      38.999  29.625  28.182  1.00  0.00     0.031 C 
ATOM     44  C   UNL A   1      41.922  31.567  30.705  1.00  0.00     0.029 A 
ATOM     45  N   UNL A   1      40.399  32.896  31.719  1.00  0.00    -0.354 N 
ATOM     46  C   UNL A   1      40.745  28.228  28.736  1.00  0.00     0.074 A 
ATOM     47  C   UNL A   1      39.668  28.526  27.818  1.00  0.00     0.031 C 
ATOM     48  C   UNL A   1      42.510  32.092  31.792  1.00  0.00     0.029 A 
ATOM     49  C   UNL A   1      41.461  32.667  32.616  1.00  0.00     0.049 A 
ATOM     50  H   UNL A   1      39.717  33.603  31.780  1.00  0.00     0.167 HD
ATOM     51  C   UNL A   1      41.841  27.415  28.709  1.00  0.00     0.037 A 
ATOM     52  C   UNL A   1      41.228  32.339  33.920  1.00  0.00     0.037 A 
ATOM     53  C   UNL A   1      42.711  27.662  29.858  1.00  0.00     0.049 A 
ATOM     54  C   UNL A   1      41.789  30.996  34.323  1.00  0.00     0.074 A 
ATOM     55  C   UNL A   1      43.857  28.428  30.005  1.00  0.00     0.029 A 
ATOM     56  N   UNL A   1      42.283  27.347  31.143  1.00  0.00    -0.354 N 
ATOM     57  N   UNL A   1      42.121  30.063  33.476  1.00  0.00    -0.248 NA
ATOM     58  C   UNL A   1      41.984  30.583  35.711  1.00  0.00     0.031 C 
ATOM     59  C   UNL A   1      44.093  28.611  31.386  1.00  0.00     0.029 A 
ATOM     60  C   UNL A   1      43.099  27.946  32.084  1.00  0.00     0.049 A 
ATOM     61  H   UNL A   1      41.507  26.778  31.353  1.00  0.00     0.167 HD
ATOM     62  C   UNL A   1      42.516  28.943  34.159  1.00  0.00     0.074 A 
ATOM     63  C   UNL A   1      42.440  29.329  35.555  1.00  0.00     0.031 C 
ATOM     64  C   UNL A   1      42.852  27.789  33.509  1.00  0.00     0.037 A 
BRANCH  51  65
ATOM     65  C   UNL A   1      42.289  26.652  27.477  1.00  0.00     0.057 A 
ATOM     66  C   UNL A   1      42.241  25.244  27.435  1.00  0.00     0.134 A 
ATOM     67  C   UNL A   1      42.830  27.241  26.322  1.00  0.00     0.134 A 
ATOM     68  F   UNL A   1      41.630  24.527  28.388  1.00  0.00    -0.206 F 
ATOM     69  C   UNL A   1      42.821  24.487  26.408  1.00  0.00     0.040 A 
ATOM     70  C   UNL A   1      43.460  26.499  25.310  1.00  0.00     0.040 A 
ATOM     71  F   UNL A   1      42.724  28.555  26.091  1.00  0.00    -0.206 F 
ATOM     72  C   UNL A   1      43.476  25.114  25.362  1.00  0.00     0.006 A 
ENDBRANCH  51  65
BRANCH  52  73
ATOM     73  C   UNL A   1      39.974  32.925  34.460  1.00  0.00     0.057 A 
ATOM     74  C   UNL A   1      38.812  32.136  34.471  1.00  0.00     0.134 A 
ATOM     75  C   UNL A   1      39.990  34.052  35.288  1.00  0.00     0.134 A 
ATOM     76  F   UNL A   1      38.734  31.040  33.700  1.00  0.00    -0.206 F 
ATOM     77  C   UNL A   1      37.756  32.390  35.351  1.00  0.00     0.040 A 
ATOM     78  C   UNL A   1      38.934  34.321  36.166  1.00  0.00     0.040 A 
ATOM     79  F   UNL A   1      41.073  34.839  35.349  1.00  0.00    -0.206 F 
ATOM     80  C   UNL A   1      37.833  33.467  36.228  1.00  0.00     0.006 A 
ENDBRANCH  52  73
BRANCH  64  81
ATOM     81  C   UNL A   1      43.073  26.441  34.148  1.00  0.00     0.057 A 
ATOM     82  C   UNL A   1      42.084  25.719  34.832  1.00  0.00     0.134 A 
ATOM     83  C   UNL A   1      44.292  25.749  33.956  1.00  0.00     0.134 A 
ATOM     84  F   UNL A   1      40.845  26.200  34.990  1.00  0.00    -0.206 F 
ATOM     85  C   UNL A   1      42.308  24.430  35.339  1.00  0.00     0.040 A 
ATOM     86  C   UNL A   1      44.508  24.444  34.411  1.00  0.00     0.040 A 
ATOM     87  F   UNL A   1      45.320  26.302  33.297  1.00  0.00    -0.206 F 
ATOM     88  C   UNL A   1      43.518  23.784  35.120  1.00  0.00     0.006 A 
ENDBRANCH  64  81
ENDBRANCH  38  39
ENDBRANCH  30  33
ENDBRANCH  28  29
ENDBRANCH  27  28
ENDBRANCH  26  27
ENDBRANCH   1  26
TORSDOF 17
ENDMDL
