MODEL 1
REMARK VINA RESULT:     -10.3      0.000      0.000
REMARK SMILES Cc1csc(C[NH2+]C[C@H]2CCC[C@H]2C(=O)NCCCCCCNC(=O)c2ccc(-c3c4nc(c(-c5c(F)cccc5F)c5ccc([nH]5)c(-c5c(F)cccc5F)c5nc(c(-c6c(F)cccc6F)c6ccc3[nH]6)C=C5)C=C4)cc2)n1
REMARK SMILES IDX 18 1 17 2 16 3 14 4 15 5 13 7 9 8 10 9 11 10 12 11 8 12 7 13
REMARK SMILES IDX 6 16 5 17 1 18 2 19 3 20 80 21 4 22 19 23 20 24 21 25 22 26
REMARK SMILES IDX 23 27 24 28 25 30 26 31 27 32 79 33 28 34 78 35 29 36 30 37
REMARK SMILES IDX 31 38 72 39 32 40 77 41 71 42 73 43 33 44 76 45 70 46 69 47
REMARK SMILES IDX 34 49 60 50 43 51 59 52 44 53 47 54 58 55 74 56 45 57 46 58
REMARK SMILES IDX 57 60 75 61 48 62 35 63 36 64 41 65 37 66 38 67 40 68 42 69
REMARK SMILES IDX 39 70 61 71 62 72 67 73 63 74 64 75 66 76 68 77 65 78 49 79
REMARK SMILES IDX 50 80 55 81 51 82 52 83 54 84 56 85 53 86
REMARK H PARENT 16 6 7 14 7 15 23 29 73 48 47 59
REMARK Flexibility Score: inf
ROOT
ATOM      1  C   UNL A   1      34.532  32.265  29.154  1.00  0.00     0.021 C 
ENDROOT
BRANCH   1   2
ATOM      2  C   UNL A   1      34.645  31.285  27.981  1.00  0.00     0.116 C 
BRANCH   2   3
ATOM      3  N   UNL A   1      33.369  31.163  27.301  1.00  0.00    -0.356 N 
ATOM      4  C   UNL A   1      32.869  30.281  26.403  1.00  0.00     0.223 C 
ATOM      5  O   UNL A   1      31.779  30.582  25.902  1.00  0.00    -0.275 OA
ATOM      6  H   UNL A   1      32.731  31.871  27.546  1.00  0.00     0.163 HD
BRANCH   4   7
ATOM      7  C   UNL A   1      33.540  28.976  25.981  1.00  0.00     0.087 C 
ATOM      8  C   UNL A   1      33.078  27.637  26.608  1.00  0.00     0.057 C 
ATOM      9  C   UNL A   1      33.767  26.628  25.676  1.00  0.00     0.010 C 
ATOM     10  C   UNL A   1      33.576  27.218  24.285  1.00  0.00     0.001 C 
ATOM     11  C   UNL A   1      33.716  28.727  24.475  1.00  0.00     0.014 C 
BRANCH   8  12
ATOM     12  C   UNL A   1      31.557  27.469  26.686  1.00  0.00     0.265 C 
BRANCH  12  13
ATOM     13  N   UNL A   1      31.024  26.133  26.867  1.00  0.00    -0.340 N 
ATOM     14  H   UNL A   1      31.809  25.500  27.017  1.00  0.00     0.346 HD
ATOM     15  H   UNL A   1      30.385  26.195  27.659  1.00  0.00     0.346 HD
BRANCH  13  16
ATOM     16  C   UNL A   1      30.233  25.611  25.755  1.00  0.00     0.329 C 
BRANCH  16  17
ATOM     17  C   UNL A   1      30.780  24.262  25.359  1.00  0.00     0.147 A 
ATOM     18  C   UNL A   1      32.504  22.248  22.925  1.00  0.00     0.067 C 
ATOM     19  C   UNL A   1      31.837  22.717  24.164  1.00  0.00     0.049 A 
ATOM     20  C   UNL A   1      31.738  22.040  25.364  1.00  0.00     0.090 A 
ATOM     21  N   UNL A   1      31.259  23.974  24.163  1.00  0.00    -0.241 NA
ATOM     22  S   UNL A   1      30.927  23.005  26.525  1.00  0.00    -0.121 S 
ENDBRANCH  16  17
ENDBRANCH  13  16
ENDBRANCH  12  13
ENDBRANCH   8  12
ENDBRANCH   4   7
ENDBRANCH   2   3
ENDBRANCH   1   2
BRANCH   1  23
ATOM     23  C   UNL A   1      35.260  33.593  28.935  1.00  0.00     0.002 C 
BRANCH  23  24
ATOM     24  C   UNL A   1      34.501  34.605  28.073  1.00  0.00     0.002 C 
BRANCH  24  25
ATOM     25  C   UNL A   1      33.233  35.182  28.708  1.00  0.00     0.021 C 
BRANCH  25  26
ATOM     26  C   UNL A   1      33.466  36.375  29.631  1.00  0.00     0.116 C 
BRANCH  26  27
ATOM     27  N   UNL A   1      32.515  36.401  30.732  1.00  0.00    -0.352 N 
ATOM     28  C   UNL A   1      32.531  35.701  31.912  1.00  0.00     0.251 C 
ATOM     29  H   UNL A   1      31.751  37.011  30.613  1.00  0.00     0.163 HD
ATOM     30  O   UNL A   1      31.538  35.673  32.629  1.00  0.00    -0.269 OA
BRANCH  28  31
ATOM     31  C   UNL A   1      33.751  34.972  32.314  1.00  0.00     0.039 A 
ATOM     32  C   UNL A   1      33.629  33.675  32.819  1.00  0.00     0.014 A 
ATOM     33  C   UNL A   1      35.009  35.575  32.214  1.00  0.00     0.014 A 
ATOM     34  C   UNL A   1      34.776  32.964  33.181  1.00  0.00     0.010 A 
ATOM     35  C   UNL A   1      36.153  34.841  32.509  1.00  0.00     0.010 A 
ATOM     36  C   UNL A   1      36.047  33.534  33.005  1.00  0.00    -0.014 A 
BRANCH  36  37
ATOM     37  C   UNL A   1      37.279  32.786  33.358  1.00  0.00     0.031 A 
ATOM     38  C   UNL A   1      37.999  33.086  34.642  1.00  0.00     0.074 A 
ATOM     39  C   UNL A   1      37.781  31.882  32.496  1.00  0.00     0.049 A 
ATOM     40  N   UNL A   1      39.122  32.592  35.098  1.00  0.00    -0.248 NA
ATOM     41  C   UNL A   1      37.389  34.098  35.520  1.00  0.00     0.031 C 
ATOM     42  C   UNL A   1      37.198  31.530  31.201  1.00  0.00     0.029 A 
ATOM     43  N   UNL A   1      38.905  31.098  32.578  1.00  0.00    -0.354 N 
ATOM     44  C   UNL A   1      39.358  33.240  36.304  1.00  0.00     0.074 A 
ATOM     45  C   UNL A   1      38.293  34.203  36.481  1.00  0.00     0.031 C 
ATOM     46  C   UNL A   1      37.953  30.583  30.622  1.00  0.00     0.029 A 
ATOM     47  C   UNL A   1      39.090  30.287  31.486  1.00  0.00     0.049 A 
ATOM     48  H   UNL A   1      39.518  31.114  33.348  1.00  0.00     0.167 HD
ATOM     49  C   UNL A   1      40.359  33.036  37.194  1.00  0.00     0.037 A 
ATOM     50  C   UNL A   1      40.072  29.407  31.211  1.00  0.00     0.037 A 
ATOM     51  C   UNL A   1      41.405  32.063  37.023  1.00  0.00     0.049 A 
ATOM     52  C   UNL A   1      41.178  29.205  32.210  1.00  0.00     0.074 A 
ATOM     53  C   UNL A   1      42.436  31.743  37.888  1.00  0.00     0.029 A 
ATOM     54  N   UNL A   1      41.553  31.253  35.907  1.00  0.00    -0.354 N 
ATOM     55  N   UNL A   1      41.358  29.782  33.372  1.00  0.00    -0.248 NA
ATOM     56  C   UNL A   1      42.213  28.222  31.859  1.00  0.00     0.031 C 
ATOM     57  C   UNL A   1      43.231  30.767  37.278  1.00  0.00     0.029 A 
ATOM     58  C   UNL A   1      42.669  30.446  36.054  1.00  0.00     0.049 A 
ATOM     59  H   UNL A   1      40.953  31.251  35.126  1.00  0.00     0.167 HD
ATOM     60  C   UNL A   1      42.507  29.213  33.906  1.00  0.00     0.074 A 
ATOM     61  C   UNL A   1      42.976  28.239  32.943  1.00  0.00     0.031 C 
ATOM     62  C   UNL A   1      43.117  29.474  35.088  1.00  0.00     0.037 A 
BRANCH  49  63
ATOM     63  C   UNL A   1      40.361  33.886  38.432  1.00  0.00     0.057 A 
ATOM     64  C   UNL A   1      41.081  35.086  38.503  1.00  0.00     0.134 A 
ATOM     65  C   UNL A   1      39.624  33.508  39.561  1.00  0.00     0.134 A 
ATOM     66  F   UNL A   1      41.817  35.500  37.462  1.00  0.00    -0.206 F 
ATOM     67  C   UNL A   1      41.096  35.861  39.665  1.00  0.00     0.040 A 
ATOM     68  C   UNL A   1      39.608  34.290  40.718  1.00  0.00     0.040 A 
ATOM     69  F   UNL A   1      38.905  32.374  39.560  1.00  0.00    -0.206 F 
ATOM     70  C   UNL A   1      40.353  35.465  40.775  1.00  0.00     0.006 A 
ENDBRANCH  49  63
BRANCH  50  71
ATOM     71  C   UNL A   1      40.033  28.623  29.951  1.00  0.00     0.057 A 
ATOM     72  C   UNL A   1      39.313  27.426  29.872  1.00  0.00     0.134 A 
ATOM     73  C   UNL A   1      40.707  29.049  28.801  1.00  0.00     0.134 A 
ATOM     74  F   UNL A   1      38.662  26.958  30.948  1.00  0.00    -0.206 F 
ATOM     75  C   UNL A   1      39.276  26.671  28.699  1.00  0.00     0.040 A 
ATOM     76  C   UNL A   1      40.659  28.316  27.614  1.00  0.00     0.040 A 
ATOM     77  F   UNL A   1      41.409  30.192  28.810  1.00  0.00    -0.206 F 
ATOM     78  C   UNL A   1      39.948  27.119  27.563  1.00  0.00     0.006 A 
ENDBRANCH  50  71
BRANCH  62  79
ATOM     79  C   UNL A   1      44.334  28.663  35.424  1.00  0.00     0.057 A 
ATOM     80  C   UNL A   1      44.249  27.452  36.121  1.00  0.00     0.134 A 
ATOM     81  C   UNL A   1      45.605  29.086  35.012  1.00  0.00     0.134 A 
ATOM     82  F   UNL A   1      43.064  26.999  36.556  1.00  0.00    -0.206 F 
ATOM     83  C   UNL A   1      45.388  26.698  36.414  1.00  0.00     0.040 A 
ATOM     84  C   UNL A   1      46.747  28.329  35.275  1.00  0.00     0.040 A 
ATOM     85  F   UNL A   1      45.754  30.233  34.333  1.00  0.00    -0.206 F 
ATOM     86  C   UNL A   1      46.641  27.134  35.983  1.00  0.00     0.006 A 
ENDBRANCH  62  79
ENDBRANCH  36  37
ENDBRANCH  28  31
ENDBRANCH  26  27
ENDBRANCH  25  26
ENDBRANCH  24  25
ENDBRANCH  23  24
ENDBRANCH   1  23
TORSDOF 17
ENDMDL
MODEL 2
REMARK VINA RESULT:     -10.3      4.707      8.918
REMARK SMILES Cc1csc(C[NH2+]C[C@H]2CCC[C@H]2C(=O)NCCCCCCNC(=O)c2ccc(-c3c4nc(c(-c5c(F)cccc5F)c5ccc([nH]5)c(-c5c(F)cccc5F)c5nc(c(-c6c(F)cccc6F)c6ccc3[nH]6)C=C5)C=C4)cc2)n1
REMARK SMILES IDX 18 1 17 2 16 3 14 4 15 5 13 7 9 8 10 9 11 10 12 11 8 12 7 13
REMARK SMILES IDX 6 16 5 17 1 18 2 19 3 20 80 21 4 22 19 23 20 24 21 25 22 26
REMARK SMILES IDX 23 27 24 28 25 30 26 31 27 32 79 33 28 34 78 35 29 36 30 37
REMARK SMILES IDX 31 38 72 39 32 40 77 41 71 42 73 43 33 44 76 45 70 46 69 47
REMARK SMILES IDX 34 49 60 50 43 51 59 52 44 53 47 54 58 55 74 56 45 57 46 58
REMARK SMILES IDX 57 60 75 61 48 62 35 63 36 64 41 65 37 66 38 67 40 68 42 69
REMARK SMILES IDX 39 70 61 71 62 72 67 73 63 74 64 75 66 76 68 77 65 78 49 79
REMARK SMILES IDX 50 80 55 81 51 82 52 83 54 84 56 85 53 86
REMARK H PARENT 16 6 7 14 7 15 23 29 73 48 47 59
REMARK Flexibility Score: inf
ROOT
ATOM      1  C   UNL A   1      37.900  32.129  31.819  1.00  0.00     0.021 C 
ENDROOT
BRANCH   1   2
ATOM      2  C   UNL A   1      37.202  31.794  33.141  1.00  0.00     0.116 C 
BRANCH   2   3
ATOM      3  N   UNL A   1      37.099  30.355  33.306  1.00  0.00    -0.356 N 
ATOM      4  C   UNL A   1      37.974  29.332  33.156  1.00  0.00     0.223 C 
ATOM      5  O   UNL A   1      37.490  28.196  33.222  1.00  0.00    -0.275 OA
ATOM      6  H   UNL A   1      36.203  30.062  33.587  1.00  0.00     0.163 HD
BRANCH   4   7
ATOM      7  C   UNL A   1      39.475  29.483  32.920  1.00  0.00     0.087 C 
ATOM      8  C   UNL A   1      40.353  30.186  33.985  1.00  0.00     0.057 C 
ATOM      9  C   UNL A   1      41.759  29.814  33.492  1.00  0.00     0.010 C 
ATOM     10  C   UNL A   1      41.634  28.353  33.082  1.00  0.00     0.001 C 
ATOM     11  C   UNL A   1      40.245  28.237  32.458  1.00  0.00     0.014 C 
BRANCH   8  12
ATOM     12  C   UNL A   1      40.067  29.750  35.426  1.00  0.00     0.265 C 
BRANCH  12  13
ATOM     13  N   UNL A   1      38.975  30.391  36.131  1.00  0.00    -0.340 N 
ATOM     14  H   UNL A   1      38.126  30.259  35.581  1.00  0.00     0.346 HD
ATOM     15  H   UNL A   1      38.944  29.953  37.051  1.00  0.00     0.346 HD
BRANCH  13  16
ATOM     16  C   UNL A   1      39.132  31.822  36.376  1.00  0.00     0.329 C 
BRANCH  16  17
ATOM     17  C   UNL A   1      38.317  32.202  37.588  1.00  0.00     0.147 A 
ATOM     18  C   UNL A   1      35.830  31.281  40.021  1.00  0.00     0.067 C 
ATOM     19  C   UNL A   1      36.892  32.006  39.279  1.00  0.00     0.049 A 
ATOM     20  C   UNL A   1      37.537  33.163  39.667  1.00  0.00     0.090 A 
ATOM     21  N   UNL A   1      37.324  31.481  38.074  1.00  0.00    -0.241 NA
ATOM     22  S   UNL A   1      38.728  33.594  38.513  1.00  0.00    -0.121 S 
ENDBRANCH  16  17
ENDBRANCH  13  16
ENDBRANCH  12  13
ENDBRANCH   8  12
ENDBRANCH   4   7
ENDBRANCH   2   3
ENDBRANCH   1   2
BRANCH   1  23
ATOM     23  C   UNL A   1      36.983  32.755  30.766  1.00  0.00     0.002 C 
BRANCH  23  24
ATOM     24  C   UNL A   1      35.542  32.989  31.228  1.00  0.00     0.002 C 
BRANCH  24  25
ATOM     25  C   UNL A   1      34.536  33.268  30.108  1.00  0.00     0.021 C 
BRANCH  25  26
ATOM     26  C   UNL A   1      34.939  32.729  28.737  1.00  0.00     0.116 C 
BRANCH  26  27
ATOM     27  N   UNL A   1      34.187  31.537  28.381  1.00  0.00    -0.352 N 
ATOM     28  C   UNL A   1      34.644  30.288  28.044  1.00  0.00     0.251 C 
ATOM     29  H   UNL A   1      33.208  31.642  28.383  1.00  0.00     0.163 HD
ATOM     30  O   UNL A   1      33.884  29.462  27.553  1.00  0.00    -0.269 OA
BRANCH  28  31
ATOM     31  C   UNL A   1      36.063  29.943  28.268  1.00  0.00     0.039 A 
ATOM     32  C   UNL A   1      36.444  29.409  29.502  1.00  0.00     0.014 A 
ATOM     33  C   UNL A   1      37.017  30.167  27.271  1.00  0.00     0.014 A 
ATOM     34  C   UNL A   1      37.777  29.056  29.719  1.00  0.00     0.010 A 
ATOM     35  C   UNL A   1      38.330  29.751  27.465  1.00  0.00     0.010 A 
ATOM     36  C   UNL A   1      38.725  29.202  28.693  1.00  0.00    -0.014 A 
BRANCH  36  37
ATOM     37  C   UNL A   1      40.141  28.808  28.894  1.00  0.00     0.031 A 
ATOM     38  C   UNL A   1      41.121  29.792  29.468  1.00  0.00     0.074 A 
ATOM     39  C   UNL A   1      40.556  27.588  28.505  1.00  0.00     0.049 A 
ATOM     40  N   UNL A   1      42.410  29.662  29.659  1.00  0.00    -0.248 NA
ATOM     41  C   UNL A   1      40.586  31.107  29.854  1.00  0.00     0.031 C 
ATOM     42  C   UNL A   1      39.712  26.558  27.898  1.00  0.00     0.029 A 
ATOM     43  N   UNL A   1      41.800  27.010  28.555  1.00  0.00    -0.354 N 
ATOM     44  C   UNL A   1      42.839  30.880  30.173  1.00  0.00     0.074 A 
ATOM     45  C   UNL A   1      41.686  31.753  30.210  1.00  0.00     0.031 C 
ATOM     46  C   UNL A   1      40.455  25.467  27.656  1.00  0.00     0.029 A 
ATOM     47  C   UNL A   1      41.833  25.731  28.056  1.00  0.00     0.049 A 
ATOM     48  H   UNL A   1      42.594  27.468  28.916  1.00  0.00     0.167 HD
ATOM     49  C   UNL A   1      44.077  31.232  30.596  1.00  0.00     0.037 A 
ATOM     50  C   UNL A   1      42.861  24.871  27.932  1.00  0.00     0.037 A 
ATOM     51  C   UNL A   1      45.217  30.354  30.576  1.00  0.00     0.049 A 
ATOM     52  C   UNL A   1      44.228  25.287  28.400  1.00  0.00     0.074 A 
ATOM     53  C   UNL A   1      46.501  30.596  31.029  1.00  0.00     0.029 A 
ATOM     54  N   UNL A   1      45.207  29.061  30.073  1.00  0.00    -0.354 N 
ATOM     55  N   UNL A   1      44.609  26.420  28.937  1.00  0.00    -0.248 NA
ATOM     56  C   UNL A   1      45.307  24.300  28.249  1.00  0.00     0.031 C 
ATOM     57  C   UNL A   1      47.279  29.465  30.763  1.00  0.00     0.029 A 
ATOM     58  C   UNL A   1      46.468  28.501  30.188  1.00  0.00     0.049 A 
ATOM     59  H   UNL A   1      44.420  28.609  29.692  1.00  0.00     0.167 HD
ATOM     60  C   UNL A   1      45.961  26.274  29.217  1.00  0.00     0.074 A 
ATOM     61  C   UNL A   1      46.331  24.938  28.798  1.00  0.00     0.031 C 
ATOM     62  C   UNL A   1      46.818  27.165  29.773  1.00  0.00     0.037 A 
BRANCH  49  63
ATOM     63  C   UNL A   1      44.252  32.629  31.119  1.00  0.00     0.057 A 
ATOM     64  C   UNL A   1      44.410  33.725  30.259  1.00  0.00     0.134 A 
ATOM     65  C   UNL A   1      44.251  32.884  32.496  1.00  0.00     0.134 A 
ATOM     66  F   UNL A   1      44.434  33.548  28.930  1.00  0.00    -0.206 F 
ATOM     67  C   UNL A   1      44.595  35.018  30.751  1.00  0.00     0.040 A 
ATOM     68  C   UNL A   1      44.405  34.178  32.998  1.00  0.00     0.040 A 
ATOM     69  F   UNL A   1      44.097  31.883  33.376  1.00  0.00    -0.206 F 
ATOM     70  C   UNL A   1      44.587  35.248  32.126  1.00  0.00     0.006 A 
ENDBRANCH  49  63
BRANCH  50  71
ATOM     71  C   UNL A   1      42.629  23.515  27.373  1.00  0.00     0.057 A 
ATOM     72  C   UNL A   1      42.318  22.437  28.208  1.00  0.00     0.134 A 
ATOM     73  C   UNL A   1      42.710  23.265  25.998  1.00  0.00     0.134 A 
ATOM     74  F   UNL A   1      42.246  22.612  29.537  1.00  0.00    -0.206 F 
ATOM     75  C   UNL A   1      42.110  21.154  27.700  1.00  0.00     0.040 A 
ATOM     76  C   UNL A   1      42.480  21.992  25.474  1.00  0.00     0.040 A 
ATOM     77  F   UNL A   1      42.997  24.258  25.143  1.00  0.00    -0.206 F 
ATOM     78  C   UNL A   1      42.186  20.931  26.327  1.00  0.00     0.006 A 
ENDBRANCH  50  71
BRANCH  62  79
ATOM     79  C   UNL A   1      48.230  26.710  29.999  1.00  0.00     0.057 A 
ATOM     80  C   UNL A   1      48.601  25.984  31.137  1.00  0.00     0.134 A 
ATOM     81  C   UNL A   1      49.221  26.971  29.044  1.00  0.00     0.134 A 
ATOM     82  F   UNL A   1      47.702  25.714  32.095  1.00  0.00    -0.206 F 
ATOM     83  C   UNL A   1      49.916  25.551  31.328  1.00  0.00     0.040 A 
ATOM     84  C   UNL A   1      50.531  26.521  29.210  1.00  0.00     0.040 A 
ATOM     85  F   UNL A   1      48.928  27.654  27.927  1.00  0.00    -0.206 F 
ATOM     86  C   UNL A   1      50.883  25.814  30.358  1.00  0.00     0.006 A 
ENDBRANCH  62  79
ENDBRANCH  36  37
ENDBRANCH  28  31
ENDBRANCH  26  27
ENDBRANCH  25  26
ENDBRANCH  24  25
ENDBRANCH  23  24
ENDBRANCH   1  23
TORSDOF 17
ENDMDL
MODEL 3
REMARK VINA RESULT:     -10.2      6.310     10.748
REMARK SMILES Cc1csc(C[NH2+]C[C@H]2CCC[C@H]2C(=O)NCCCCCCNC(=O)c2ccc(-c3c4nc(c(-c5c(F)cccc5F)c5ccc([nH]5)c(-c5c(F)cccc5F)c5nc(c(-c6c(F)cccc6F)c6ccc3[nH]6)C=C5)C=C4)cc2)n1
REMARK SMILES IDX 18 1 17 2 16 3 14 4 15 5 13 7 9 8 10 9 11 10 12 11 8 12 7 13
REMARK SMILES IDX 6 16 5 17 1 18 2 19 3 20 80 21 4 22 19 23 20 24 21 25 22 26
REMARK SMILES IDX 23 27 24 28 25 30 26 31 27 32 79 33 28 34 78 35 29 36 30 37
REMARK SMILES IDX 31 38 72 39 32 40 77 41 71 42 73 43 33 44 76 45 70 46 69 47
REMARK SMILES IDX 34 49 60 50 43 51 59 52 44 53 47 54 58 55 74 56 45 57 46 58
REMARK SMILES IDX 57 60 75 61 48 62 35 63 36 64 41 65 37 66 38 67 40 68 42 69
REMARK SMILES IDX 39 70 61 71 62 72 67 73 63 74 64 75 66 76 68 77 65 78 49 79
REMARK SMILES IDX 50 80 55 81 51 82 52 83 54 84 56 85 53 86
REMARK H PARENT 16 6 7 14 7 15 23 29 73 48 47 59
REMARK Flexibility Score: inf
ROOT
ATOM      1  C   UNL A   1      36.578  22.658  23.667  1.00  0.00     0.021 C 
ENDROOT
BRANCH   1   2
ATOM      2  C   UNL A   1      35.358  23.570  23.836  1.00  0.00     0.116 C 
BRANCH   2   3
ATOM      3  N   UNL A   1      34.309  23.188  22.908  1.00  0.00    -0.356 N 
ATOM      4  C   UNL A   1      32.958  23.148  22.989  1.00  0.00     0.223 C 
ATOM      5  O   UNL A   1      32.377  22.602  22.043  1.00  0.00    -0.275 OA
ATOM      6  H   UNL A   1      34.654  22.897  22.034  1.00  0.00     0.163 HD
BRANCH   4   7
ATOM      7  C   UNL A   1      32.126  23.719  24.136  1.00  0.00     0.087 C 
ATOM      8  C   UNL A   1      31.555  22.768  25.218  1.00  0.00     0.057 C 
ATOM      9  C   UNL A   1      31.107  23.778  26.284  1.00  0.00     0.010 C 
ATOM     10  C   UNL A   1      32.235  24.800  26.323  1.00  0.00     0.001 C 
ATOM     11  C   UNL A   1      32.685  24.946  24.871  1.00  0.00     0.014 C 
BRANCH   8  12
ATOM     12  C   UNL A   1      32.554  21.726  25.732  1.00  0.00     0.265 C 
BRANCH  12  13
ATOM     13  N   UNL A   1      32.216  20.323  25.587  1.00  0.00    -0.340 N 
ATOM     14  H   UNL A   1      32.560  19.832  26.412  1.00  0.00     0.346 HD
ATOM     15  H   UNL A   1      31.203  20.292  25.479  1.00  0.00     0.346 HD
BRANCH  13  16
ATOM     16  C   UNL A   1      32.764  19.659  24.408  1.00  0.00     0.329 C 
BRANCH  16  17
ATOM     17  C   UNL A   1      33.110  18.234  24.768  1.00  0.00     0.147 A 
ATOM     18  C   UNL A   1      32.020  15.030  25.991  1.00  0.00     0.067 C 
ATOM     19  C   UNL A   1      32.834  16.128  25.413  1.00  0.00     0.049 A 
ATOM     20  C   UNL A   1      34.100  16.029  24.869  1.00  0.00     0.090 A 
ATOM     21  N   UNL A   1      32.290  17.399  25.378  1.00  0.00    -0.241 NA
ATOM     22  S   UNL A   1      34.613  17.553  24.277  1.00  0.00    -0.121 S 
ENDBRANCH  16  17
ENDBRANCH  13  16
ENDBRANCH  12  13
ENDBRANCH   8  12
ENDBRANCH   4   7
ENDBRANCH   2   3
ENDBRANCH   1   2
BRANCH   1  23
ATOM     23  C   UNL A   1      37.005  21.938  24.948  1.00  0.00     0.002 C 
BRANCH  23  24
ATOM     24  C   UNL A   1      36.734  20.431  24.957  1.00  0.00     0.002 C 
BRANCH  24  25
ATOM     25  C   UNL A   1      37.981  19.544  24.945  1.00  0.00     0.021 C 
BRANCH  25  26
ATOM     26  C   UNL A   1      39.165  20.095  25.736  1.00  0.00     0.116 C 
BRANCH  26  27
ATOM     27  N   UNL A   1      40.223  19.108  25.885  1.00  0.00    -0.352 N 
ATOM     28  C   UNL A   1      41.563  19.297  26.110  1.00  0.00     0.251 C 
ATOM     29  H   UNL A   1      39.935  18.169  25.816  1.00  0.00     0.163 HD
ATOM     30  O   UNL A   1      42.349  18.366  25.985  1.00  0.00    -0.269 OA
BRANCH  28  31
ATOM     31  C   UNL A   1      42.059  20.634  26.497  1.00  0.00     0.039 A 
ATOM     32  C   UNL A   1      42.474  21.518  25.499  1.00  0.00     0.014 A 
ATOM     33  C   UNL A   1      42.136  21.003  27.844  1.00  0.00     0.014 A 
ATOM     34  C   UNL A   1      42.923  22.793  25.848  1.00  0.00     0.010 A 
ATOM     35  C   UNL A   1      42.518  22.297  28.185  1.00  0.00     0.010 A 
ATOM     36  C   UNL A   1      42.925  23.200  27.192  1.00  0.00    -0.014 A 
BRANCH  36  37
ATOM     37  C   UNL A   1      43.372  24.560  27.583  1.00  0.00     0.031 A 
ATOM     38  C   UNL A   1      42.361  25.601  27.974  1.00  0.00     0.074 A 
ATOM     39  C   UNL A   1      44.680  24.873  27.528  1.00  0.00     0.049 A 
ATOM     40  N   UNL A   1      42.545  26.859  28.283  1.00  0.00    -0.248 NA
ATOM     41  C   UNL A   1      40.952  25.177  27.995  1.00  0.00     0.031 C 
ATOM     42  C   UNL A   1      45.754  23.964  27.126  1.00  0.00     0.029 A 
ATOM     43  N   UNL A   1      45.328  26.051  27.805  1.00  0.00    -0.354 N 
ATOM     44  C   UNL A   1      41.278  27.378  28.520  1.00  0.00     0.074 A 
ATOM     45  C   UNL A   1      40.331  26.315  28.264  1.00  0.00     0.031 C 
ATOM     46  C   UNL A   1      46.929  24.609  27.207  1.00  0.00     0.029 A 
ATOM     47  C   UNL A   1      46.689  25.984  27.630  1.00  0.00     0.049 A 
ATOM     48  H   UNL A   1      44.862  26.866  28.102  1.00  0.00     0.167 HD
ATOM     49  C   UNL A   1      40.936  28.621  28.935  1.00  0.00     0.037 A 
ATOM     50  C   UNL A   1      47.634  26.929  27.789  1.00  0.00     0.037 A 
ATOM     51  C   UNL A   1      41.883  29.671  29.208  1.00  0.00     0.049 A 
ATOM     52  C   UNL A   1      47.230  28.305  28.242  1.00  0.00     0.074 A 
ATOM     53  C   UNL A   1      41.643  30.948  29.681  1.00  0.00     0.029 A 
ATOM     54  N   UNL A   1      43.254  29.560  29.029  1.00  0.00    -0.354 N 
ATOM     55  N   UNL A   1      46.035  28.767  28.518  1.00  0.00    -0.248 NA
ATOM     56  C   UNL A   1      48.308  29.290  28.409  1.00  0.00     0.031 C 
ATOM     57  C   UNL A   1      42.865  31.625  29.750  1.00  0.00     0.029 A 
ATOM     58  C   UNL A   1      43.871  30.754  29.366  1.00  0.00     0.049 A 
ATOM     59  H   UNL A   1      43.719  28.753  28.712  1.00  0.00     0.167 HD
ATOM     60  C   UNL A   1      46.218  30.083  28.922  1.00  0.00     0.074 A 
ATOM     61  C   UNL A   1      47.642  30.342  28.862  1.00  0.00     0.031 C 
ATOM     62  C   UNL A   1      45.291  30.993  29.309  1.00  0.00     0.037 A 
BRANCH  49  63
ATOM     63  C   UNL A   1      39.473  28.905  29.120  1.00  0.00     0.057 A 
ATOM     64  C   UNL A   1      38.837  28.737  30.357  1.00  0.00     0.134 A 
ATOM     65  C   UNL A   1      38.693  29.365  28.051  1.00  0.00     0.134 A 
ATOM     66  F   UNL A   1      39.524  28.287  31.418  1.00  0.00    -0.206 F 
ATOM     67  C   UNL A   1      37.472  28.981  30.517  1.00  0.00     0.040 A 
ATOM     68  C   UNL A   1      37.333  29.641  28.207  1.00  0.00     0.040 A 
ATOM     69  F   UNL A   1      39.238  29.556  26.840  1.00  0.00    -0.206 F 
ATOM     70  C   UNL A   1      36.717  29.440  29.439  1.00  0.00     0.006 A 
ENDBRANCH  49  63
BRANCH  50  71
ATOM     71  C   UNL A   1      49.062  26.596  27.556  1.00  0.00     0.057 A 
ATOM     72  C   UNL A   1      49.846  26.042  28.573  1.00  0.00     0.134 A 
ATOM     73  C   UNL A   1      49.674  26.818  26.316  1.00  0.00     0.134 A 
ATOM     74  F   UNL A   1      49.319  25.823  29.788  1.00  0.00    -0.206 F 
ATOM     75  C   UNL A   1      51.192  25.734  28.374  1.00  0.00     0.040 A 
ATOM     76  C   UNL A   1      51.013  26.492  26.096  1.00  0.00     0.040 A 
ATOM     77  F   UNL A   1      48.974  27.340  25.298  1.00  0.00    -0.206 F 
ATOM     78  C   UNL A   1      51.778  25.955  27.129  1.00  0.00     0.006 A 
ENDBRANCH  50  71
BRANCH  62  79
ATOM     79  C   UNL A   1      45.792  32.341  29.738  1.00  0.00     0.057 A 
ATOM     80  C   UNL A   1      45.896  33.412  28.842  1.00  0.00     0.134 A 
ATOM     81  C   UNL A   1      46.138  32.577  31.075  1.00  0.00     0.134 A 
ATOM     82  F   UNL A   1      45.594  33.246  27.546  1.00  0.00    -0.206 F 
ATOM     83  C   UNL A   1      46.349  34.666  29.256  1.00  0.00     0.040 A 
ATOM     84  C   UNL A   1      46.565  33.833  31.506  1.00  0.00     0.040 A 
ATOM     85  F   UNL A   1      46.052  31.596  31.985  1.00  0.00    -0.206 F 
ATOM     86  C   UNL A   1      46.677  34.881  30.594  1.00  0.00     0.006 A 
ENDBRANCH  62  79
ENDBRANCH  36  37
ENDBRANCH  28  31
ENDBRANCH  26  27
ENDBRANCH  25  26
ENDBRANCH  24  25
ENDBRANCH  23  24
ENDBRANCH   1  23
TORSDOF 17
ENDMDL
