MODEL 1
REMARK VINA RESULT:     -10.9      0.000      0.000
REMARK SMILES COc1ccc([C@H]2C[NH2+]C[C@@H]2C(=O)NCCCCCCNC(=O)c2ccc(-c3c4nc(c(-c5c(F)cccc5F)c5ccc([nH]5)c(-c5c(F)cccc5F)c5nc(c(-c6c(F)cccc6F)c6ccc3[nH]6)C=C5)C=C4)cc2)cc1
REMARK SMILES IDX 17 1 16 2 15 3 14 4 12 5 13 6 11 8 7 9 8 10 9 11 10 12 6 15
REMARK SMILES IDX 3 16 4 17 79 18 5 19 78 20 2 21 1 22 18 23 19 24 20 25 21 26
REMARK SMILES IDX 22 27 23 29 24 30 25 31 77 32 26 33 76 34 27 35 28 36 29 37
REMARK SMILES IDX 70 38 30 39 75 40 69 41 71 42 31 43 74 44 68 45 67 46 32 48
REMARK SMILES IDX 58 49 41 50 57 51 42 52 45 53 56 54 72 55 43 56 44 57 55 59
REMARK SMILES IDX 73 60 46 61 33 62 34 63 39 64 35 65 36 66 38 67 40 68 37 69
REMARK SMILES IDX 59 70 60 71 65 72 61 73 62 74 64 75 66 76 63 77 47 78 48 79
REMARK SMILES IDX 53 80 49 81 50 82 52 83 54 84 51 85
REMARK H PARENT 14 7 9 13 9 14 21 28 71 47 45 58
REMARK Flexibility Score: inf
ROOT
ATOM      1  C   UNL A   1      38.241  22.340  25.780  1.00  0.00     0.002 C 
ENDROOT
BRANCH   1   2
ATOM      2  C   UNL A   1      37.479  23.675  25.787  1.00  0.00     0.021 C 
BRANCH   2   3
ATOM      3  C   UNL A   1      36.280  23.741  24.836  1.00  0.00     0.116 C 
BRANCH   3   4
ATOM      4  N   UNL A   1      35.229  24.577  25.384  1.00  0.00    -0.356 N 
ATOM      5  C   UNL A   1      33.966  24.282  25.791  1.00  0.00     0.229 C 
ATOM      6  O   UNL A   1      33.284  25.225  26.191  1.00  0.00    -0.275 OA
ATOM      7  H   UNL A   1      35.473  25.526  25.475  1.00  0.00     0.163 HD
BRANCH   5   8
ATOM      8  C   UNL A   1      33.478  22.836  25.780  1.00  0.00     0.146 C 
ATOM      9  C   UNL A   1      33.019  22.373  24.386  1.00  0.00     0.092 C 
ATOM     10  C   UNL A   1      31.572  22.890  24.394  1.00  0.00     0.269 C 
ATOM     11  N   UNL A   1      31.059  22.545  25.728  1.00  0.00    -0.345 N 
ATOM     12  C   UNL A   1      32.212  22.687  26.641  1.00  0.00     0.274 C 
ATOM     13  H   UNL A   1      30.712  21.585  25.740  1.00  0.00     0.346 HD
ATOM     14  H   UNL A   1      30.282  23.145  26.003  1.00  0.00     0.346 HD
BRANCH   9  15
ATOM     15  C   UNL A   1      33.045  20.860  24.121  1.00  0.00    -0.038 A 
ATOM     16  C   UNL A   1      33.342  18.105  23.534  1.00  0.00     0.118 A 
ATOM     17  C   UNL A   1      34.147  18.711  24.494  1.00  0.00     0.047 A 
ATOM     18  C   UNL A   1      32.344  18.851  22.918  1.00  0.00     0.047 A 
ATOM     19  C   UNL A   1      34.001  20.071  24.786  1.00  0.00     0.008 A 
ATOM     20  C   UNL A   1      32.197  20.213  23.208  1.00  0.00     0.008 A 
BRANCH  16  21
ATOM     21  O   UNL A   1      33.586  16.780  23.295  1.00  0.00    -0.497 OA
ATOM     22  C   UNL A   1      33.554  15.949  24.453  1.00  0.00     0.278 C 
ENDBRANCH  16  21
ENDBRANCH   9  15
ENDBRANCH   5   8
ENDBRANCH   3   4
ENDBRANCH   2   3
ENDBRANCH   1   2
BRANCH   1  23
ATOM     23  C   UNL A   1      37.592  21.210  24.977  1.00  0.00     0.002 C 
BRANCH  23  24
ATOM     24  C   UNL A   1      38.414  19.925  24.873  1.00  0.00     0.021 C 
BRANCH  24  25
ATOM     25  C   UNL A   1      39.193  19.549  26.130  1.00  0.00     0.116 C 
BRANCH  25  26
ATOM     26  N   UNL A   1      40.481  18.941  25.838  1.00  0.00    -0.352 N 
ATOM     27  C   UNL A   1      41.737  19.491  25.896  1.00  0.00     0.251 C 
ATOM     28  H   UNL A   1      40.447  17.997  25.558  1.00  0.00     0.163 HD
ATOM     29  O   UNL A   1      42.705  18.855  25.484  1.00  0.00    -0.269 OA
BRANCH  27  30
ATOM     30  C   UNL A   1      41.932  20.858  26.427  1.00  0.00     0.039 A 
ATOM     31  C   UNL A   1      41.853  21.060  27.810  1.00  0.00     0.014 A 
ATOM     32  C   UNL A   1      42.171  21.942  25.579  1.00  0.00     0.014 A 
ATOM     33  C   UNL A   1      42.067  22.333  28.342  1.00  0.00     0.010 A 
ATOM     34  C   UNL A   1      42.452  23.199  26.114  1.00  0.00     0.010 A 
ATOM     35  C   UNL A   1      42.397  23.407  27.501  1.00  0.00    -0.014 A 
BRANCH  35  36
ATOM     36  C   UNL A   1      42.675  24.758  28.054  1.00  0.00     0.031 A 
ATOM     37  C   UNL A   1      44.071  25.135  28.467  1.00  0.00     0.074 A 
ATOM     38  C   UNL A   1      41.663  25.628  28.231  1.00  0.00     0.049 A 
ATOM     39  N   UNL A   1      44.501  26.247  29.006  1.00  0.00    -0.248 NA
ATOM     40  C   UNL A   1      45.116  24.119  28.271  1.00  0.00     0.031 C 
ATOM     41  C   UNL A   1      40.259  25.370  27.910  1.00  0.00     0.029 A 
ATOM     42  N   UNL A   1      41.662  26.907  28.728  1.00  0.00    -0.354 N 
ATOM     43  C   UNL A   1      45.860  26.061  29.226  1.00  0.00     0.074 A 
ATOM     44  C   UNL A   1      46.172  24.709  28.811  1.00  0.00     0.031 C 
ATOM     45  C   UNL A   1      39.537  26.467  28.191  1.00  0.00     0.029 A 
ATOM     46  C   UNL A   1      40.419  27.492  28.740  1.00  0.00     0.049 A 
ATOM     47  H   UNL A   1      42.475  27.363  29.046  1.00  0.00     0.167 HD
ATOM     48  C   UNL A   1      46.772  26.941  29.704  1.00  0.00     0.037 A 
ATOM     49  C   UNL A   1      40.035  28.718  29.145  1.00  0.00     0.037 A 
ATOM     50  C   UNL A   1      46.468  28.292  30.094  1.00  0.00     0.049 A 
ATOM     51  C   UNL A   1      41.063  29.676  29.677  1.00  0.00     0.074 A 
ATOM     52  C   UNL A   1      47.332  29.277  30.540  1.00  0.00     0.029 A 
ATOM     53  N   UNL A   1      45.199  28.850  30.083  1.00  0.00    -0.354 N 
ATOM     54  N   UNL A   1      42.354  29.506  29.821  1.00  0.00    -0.248 NA
ATOM     55  C   UNL A   1      40.580  30.998  30.097  1.00  0.00     0.031 C 
ATOM     56  C   UNL A   1      46.579  30.420  30.834  1.00  0.00     0.029 A 
ATOM     57  C   UNL A   1      45.253  30.159  30.530  1.00  0.00     0.049 A 
ATOM     58  H   UNL A   1      44.379  28.383  29.799  1.00  0.00     0.167 HD
ATOM     59  C   UNL A   1      42.843  30.706  30.320  1.00  0.00     0.074 A 
ATOM     60  C   UNL A   1      41.710  31.599  30.444  1.00  0.00     0.031 C 
ATOM     61  C   UNL A   1      44.117  31.039  30.642  1.00  0.00     0.037 A 
BRANCH  48  62
ATOM     62  C   UNL A   1      48.190  26.463  29.826  1.00  0.00     0.057 A 
ATOM     63  C   UNL A   1      49.125  26.660  28.801  1.00  0.00     0.134 A 
ATOM     64  C   UNL A   1      48.631  25.811  30.985  1.00  0.00     0.134 A 
ATOM     65  F   UNL A   1      48.763  27.266  27.659  1.00  0.00    -0.206 F 
ATOM     66  C   UNL A   1      50.438  26.199  28.910  1.00  0.00     0.040 A 
ATOM     67  C   UNL A   1      49.948  25.370  31.116  1.00  0.00     0.040 A 
ATOM     68  F   UNL A   1      47.789  25.595  32.007  1.00  0.00    -0.206 F 
ATOM     69  C   UNL A   1      50.854  25.556  30.074  1.00  0.00     0.006 A 
ENDBRANCH  48  62
BRANCH  49  70
ATOM     70  C   UNL A   1      38.614  29.125  29.021  1.00  0.00     0.057 A 
ATOM     71  C   UNL A   1      37.754  29.070  30.124  1.00  0.00     0.134 A 
ATOM     72  C   UNL A   1      38.081  29.579  27.809  1.00  0.00     0.134 A 
ATOM     73  F   UNL A   1      38.203  28.626  31.308  1.00  0.00    -0.206 F 
ATOM     74  C   UNL A   1      36.412  29.439  30.025  1.00  0.00     0.040 A 
ATOM     75  C   UNL A   1      36.747  29.972  27.701  1.00  0.00     0.040 A 
ATOM     76  F   UNL A   1      38.857  29.661  26.718  1.00  0.00    -0.206 F 
ATOM     77  C   UNL A   1      35.906  29.897  28.809  1.00  0.00     0.006 A 
ENDBRANCH  49  70
BRANCH  61  78
ATOM     78  C   UNL A   1      44.358  32.437  31.127  1.00  0.00     0.057 A 
ATOM     79  C   UNL A   1      44.338  32.760  32.490  1.00  0.00     0.134 A 
ATOM     80  C   UNL A   1      44.650  33.465  30.221  1.00  0.00     0.134 A 
ATOM     81  F   UNL A   1      44.051  31.825  33.407  1.00  0.00    -0.206 F 
ATOM     82  C   UNL A   1      44.582  34.062  32.932  1.00  0.00     0.040 A 
ATOM     83  C   UNL A   1      44.918  34.764  30.654  1.00  0.00     0.040 A 
ATOM     84  F   UNL A   1      44.691  33.219  28.902  1.00  0.00    -0.206 F 
ATOM     85  C   UNL A   1      44.879  35.066  32.013  1.00  0.00     0.006 A 
ENDBRANCH  61  78
ENDBRANCH  35  36
ENDBRANCH  27  30
ENDBRANCH  25  26
ENDBRANCH  24  25
ENDBRANCH  23  24
ENDBRANCH   1  23
TORSDOF 15
ENDMDL
MODEL 2
REMARK VINA RESULT:     -10.7      4.904      9.886
REMARK SMILES COc1ccc([C@H]2C[NH2+]C[C@@H]2C(=O)NCCCCCCNC(=O)c2ccc(-c3c4nc(c(-c5c(F)cccc5F)c5ccc([nH]5)c(-c5c(F)cccc5F)c5nc(c(-c6c(F)cccc6F)c6ccc3[nH]6)C=C5)C=C4)cc2)cc1
REMARK SMILES IDX 17 1 16 2 15 3 14 4 12 5 13 6 11 8 7 9 8 10 9 11 10 12 6 15
REMARK SMILES IDX 3 16 4 17 79 18 5 19 78 20 2 21 1 22 18 23 19 24 20 25 21 26
REMARK SMILES IDX 22 27 23 29 24 30 25 31 77 32 26 33 76 34 27 35 28 36 29 37
REMARK SMILES IDX 70 38 30 39 75 40 69 41 71 42 31 43 74 44 68 45 67 46 32 48
REMARK SMILES IDX 58 49 41 50 57 51 42 52 45 53 56 54 72 55 43 56 44 57 55 59
REMARK SMILES IDX 73 60 46 61 33 62 34 63 39 64 35 65 36 66 38 67 40 68 37 69
REMARK SMILES IDX 59 70 60 71 65 72 61 73 62 74 64 75 66 76 63 77 47 78 48 79
REMARK SMILES IDX 53 80 49 81 50 82 52 83 54 84 51 85
REMARK H PARENT 14 7 9 13 9 14 21 28 71 47 45 58
REMARK Flexibility Score: inf
ROOT
ATOM      1  C   UNL A   1      33.513  30.357  26.925  1.00  0.00     0.002 C 
ENDROOT
BRANCH   1   2
ATOM      2  C   UNL A   1      33.986  28.911  27.144  1.00  0.00     0.021 C 
BRANCH   2   3
ATOM      3  C   UNL A   1      32.903  27.841  26.973  1.00  0.00     0.116 C 
BRANCH   3   4
ATOM      4  N   UNL A   1      33.367  26.765  26.120  1.00  0.00    -0.356 N 
ATOM      5  C   UNL A   1      33.178  26.522  24.796  1.00  0.00     0.229 C 
ATOM      6  O   UNL A   1      33.682  25.491  24.350  1.00  0.00    -0.275 OA
ATOM      7  H   UNL A   1      33.916  26.091  26.581  1.00  0.00     0.163 HD
BRANCH   5   8
ATOM      8  C   UNL A   1      32.414  27.525  23.936  1.00  0.00     0.146 C 
ATOM      9  C   UNL A   1      30.899  27.258  23.914  1.00  0.00     0.092 C 
ATOM     10  C   UNL A   1      30.827  26.205  22.798  1.00  0.00     0.269 C 
ATOM     11  N   UNL A   1      31.718  26.715  21.745  1.00  0.00    -0.345 N 
ATOM     12  C   UNL A   1      32.822  27.391  22.459  1.00  0.00     0.274 C 
ATOM     13  H   UNL A   1      31.223  27.377  21.147  1.00  0.00     0.346 HD
ATOM     14  H   UNL A   1      32.060  25.968  21.142  1.00  0.00     0.346 HD
BRANCH   9  15
ATOM     15  C   UNL A   1      29.995  28.455  23.580  1.00  0.00    -0.038 A 
ATOM     16  C   UNL A   1      28.318  30.710  23.230  1.00  0.00     0.118 A 
ATOM     17  C   UNL A   1      29.606  30.863  23.733  1.00  0.00     0.047 A 
ATOM     18  C   UNL A   1      27.889  29.448  22.835  1.00  0.00     0.047 A 
ATOM     19  C   UNL A   1      30.437  29.750  23.906  1.00  0.00     0.008 A 
ATOM     20  C   UNL A   1      28.719  28.333  23.009  1.00  0.00     0.008 A 
BRANCH  16  21
ATOM     21  O   UNL A   1      27.572  31.853  23.132  1.00  0.00    -0.497 OA
ATOM     22  C   UNL A   1      28.312  33.021  22.788  1.00  0.00     0.278 C 
ENDBRANCH  16  21
ENDBRANCH   9  15
ENDBRANCH   5   8
ENDBRANCH   3   4
ENDBRANCH   2   3
ENDBRANCH   1   2
BRANCH   1  23
ATOM     23  C   UNL A   1      31.996  30.563  26.912  1.00  0.00     0.002 C 
BRANCH  23  24
ATOM     24  C   UNL A   1      31.533  32.020  26.956  1.00  0.00     0.021 C 
BRANCH  24  25
ATOM     25  C   UNL A   1      32.636  33.057  26.767  1.00  0.00     0.116 C 
BRANCH  25  26
ATOM     26  N   UNL A   1      32.441  34.246  27.581  1.00  0.00    -0.352 N 
ATOM     27  C   UNL A   1      33.103  34.642  28.716  1.00  0.00     0.251 C 
ATOM     28  H   UNL A   1      31.731  34.855  27.274  1.00  0.00     0.163 HD
ATOM     29  O   UNL A   1      32.708  35.622  29.347  1.00  0.00    -0.269 OA
BRANCH  27  30
ATOM     30  C   UNL A   1      34.275  33.882  29.205  1.00  0.00     0.039 A 
ATOM     31  C   UNL A   1      35.556  34.324  28.856  1.00  0.00     0.014 A 
ATOM     32  C   UNL A   1      34.123  32.730  29.982  1.00  0.00     0.014 A 
ATOM     33  C   UNL A   1      36.680  33.646  29.332  1.00  0.00     0.010 A 
ATOM     34  C   UNL A   1      35.245  32.094  30.511  1.00  0.00     0.010 A 
ATOM     35  C   UNL A   1      36.534  32.542  30.186  1.00  0.00    -0.014 A 
BRANCH  35  36
ATOM     36  C   UNL A   1      37.720  31.839  30.740  1.00  0.00     0.031 A 
ATOM     37  C   UNL A   1      38.244  32.194  32.103  1.00  0.00     0.074 A 
ATOM     38  C   UNL A   1      38.355  30.914  29.995  1.00  0.00     0.049 A 
ATOM     39  N   UNL A   1      39.288  31.721  32.737  1.00  0.00    -0.248 NA
ATOM     40  C   UNL A   1      37.515  33.235  32.843  1.00  0.00     0.031 C 
ATOM     41  C   UNL A   1      37.973  30.508  28.642  1.00  0.00     0.029 A 
ATOM     42  N   UNL A   1      39.461  30.149  30.272  1.00  0.00    -0.354 N 
ATOM     43  C   UNL A   1      39.347  32.414  33.939  1.00  0.00     0.074 A 
ATOM     44  C   UNL A   1      38.266  33.377  33.923  1.00  0.00     0.031 C 
ATOM     45  C   UNL A   1      38.812  29.549  28.219  1.00  0.00     0.029 A 
ATOM     46  C   UNL A   1      39.808  29.294  29.255  1.00  0.00     0.049 A 
ATOM     47  H   UNL A   1      39.958  30.208  31.120  1.00  0.00     0.167 HD
ATOM     48  C   UNL A   1      40.206  32.248  34.973  1.00  0.00     0.037 A 
ATOM     49  C   UNL A   1      40.814  28.403  29.168  1.00  0.00     0.037 A 
ATOM     50  C   UNL A   1      41.265  31.275  35.001  1.00  0.00     0.049 A 
ATOM     51  C   UNL A   1      41.757  28.240  30.327  1.00  0.00     0.074 A 
ATOM     52  C   UNL A   1      42.153  30.993  36.025  1.00  0.00     0.029 A 
ATOM     53  N   UNL A   1      41.578  30.421  33.954  1.00  0.00    -0.354 N 
ATOM     54  N   UNL A   1      41.763  28.860  31.481  1.00  0.00    -0.248 NA
ATOM     55  C   UNL A   1      42.830  27.248  30.171  1.00  0.00     0.031 C 
ATOM     56  C   UNL A   1      43.028  29.994  35.583  1.00  0.00     0.029 A 
ATOM     57  C   UNL A   1      42.657  29.625  34.300  1.00  0.00     0.049 A 
ATOM     58  H   UNL A   1      41.104  30.387  33.092  1.00  0.00     0.167 HD
ATOM     59  C   UNL A   1      42.818  28.315  32.201  1.00  0.00     0.074 A 
ATOM     60  C   UNL A   1      43.424  27.306  31.355  1.00  0.00     0.031 C 
ATOM     61  C   UNL A   1      43.245  28.620  33.451  1.00  0.00     0.037 A 
BRANCH  48  62
ATOM     62  C   UNL A   1      40.025  33.143  36.166  1.00  0.00     0.057 A 
ATOM     63  C   UNL A   1      40.731  34.346  36.299  1.00  0.00     0.134 A 
ATOM     64  C   UNL A   1      39.125  32.806  37.186  1.00  0.00     0.134 A 
ATOM     65  F   UNL A   1      41.618  34.720  35.364  1.00  0.00    -0.206 F 
ATOM     66  C   UNL A   1      40.573  35.166  37.417  1.00  0.00     0.040 A 
ATOM     67  C   UNL A   1      38.939  33.632  38.295  1.00  0.00     0.040 A 
ATOM     68  F   UNL A   1      38.413  31.671  37.118  1.00  0.00    -0.206 F 
ATOM     69  C   UNL A   1      39.670  34.812  38.418  1.00  0.00     0.006 A 
ENDBRANCH  48  62
BRANCH  49  70
ATOM     70  C   UNL A   1      40.955  27.564  27.954  1.00  0.00     0.057 A 
ATOM     71  C   UNL A   1      41.724  27.997  26.868  1.00  0.00     0.134 A 
ATOM     72  C   UNL A   1      40.333  26.315  27.847  1.00  0.00     0.134 A 
ATOM     73  F   UNL A   1      42.329  29.194  26.905  1.00  0.00    -0.206 F 
ATOM     74  C   UNL A   1      41.860  27.227  25.713  1.00  0.00     0.040 A 
ATOM     75  C   UNL A   1      40.478  25.523  26.707  1.00  0.00     0.040 A 
ATOM     76  F   UNL A   1      39.589  25.840  28.857  1.00  0.00    -0.206 F 
ATOM     77  C   UNL A   1      41.239  25.981  25.633  1.00  0.00     0.006 A 
ENDBRANCH  49  70
BRANCH  61  78
ATOM     78  C   UNL A   1      44.399  27.832  33.993  1.00  0.00     0.057 A 
ATOM     79  C   UNL A   1      44.218  26.599  34.632  1.00  0.00     0.134 A 
ATOM     80  C   UNL A   1      45.712  28.296  33.839  1.00  0.00     0.134 A 
ATOM     81  F   UNL A   1      42.985  26.106  34.823  1.00  0.00    -0.206 F 
ATOM     82  C   UNL A   1      45.302  25.865  35.118  1.00  0.00     0.040 A 
ATOM     83  C   UNL A   1      46.804  27.560  34.300  1.00  0.00     0.040 A 
ATOM     84  F   UNL A   1      45.954  29.466  33.229  1.00  0.00    -0.206 F 
ATOM     85  C   UNL A   1      46.600  26.342  34.946  1.00  0.00     0.006 A 
ENDBRANCH  61  78
ENDBRANCH  35  36
ENDBRANCH  27  30
ENDBRANCH  25  26
ENDBRANCH  24  25
ENDBRANCH  23  24
ENDBRANCH   1  23
TORSDOF 15
ENDMDL
MODEL 3
REMARK VINA RESULT:     -10.7      1.597      6.333
REMARK SMILES COc1ccc([C@H]2C[NH2+]C[C@@H]2C(=O)NCCCCCCNC(=O)c2ccc(-c3c4nc(c(-c5c(F)cccc5F)c5ccc([nH]5)c(-c5c(F)cccc5F)c5nc(c(-c6c(F)cccc6F)c6ccc3[nH]6)C=C5)C=C4)cc2)cc1
REMARK SMILES IDX 17 1 16 2 15 3 14 4 12 5 13 6 11 8 7 9 8 10 9 11 10 12 6 15
REMARK SMILES IDX 3 16 4 17 79 18 5 19 78 20 2 21 1 22 18 23 19 24 20 25 21 26
REMARK SMILES IDX 22 27 23 29 24 30 25 31 77 32 26 33 76 34 27 35 28 36 29 37
REMARK SMILES IDX 70 38 30 39 75 40 69 41 71 42 31 43 74 44 68 45 67 46 32 48
REMARK SMILES IDX 58 49 41 50 57 51 42 52 45 53 56 54 72 55 43 56 44 57 55 59
REMARK SMILES IDX 73 60 46 61 33 62 34 63 39 64 35 65 36 66 38 67 40 68 37 69
REMARK SMILES IDX 59 70 60 71 65 72 61 73 62 74 64 75 66 76 63 77 47 78 48 79
REMARK SMILES IDX 53 80 49 81 50 82 52 83 54 84 51 85
REMARK H PARENT 14 7 9 13 9 14 21 28 71 47 45 58
REMARK Flexibility Score: inf
ROOT
ATOM      1  C   UNL A   1      36.888  21.856  23.901  1.00  0.00     0.002 C 
ENDROOT
BRANCH   1   2
ATOM      2  C   UNL A   1      36.555  23.265  24.420  1.00  0.00     0.021 C 
BRANCH   2   3
ATOM      3  C   UNL A   1      36.035  23.319  25.860  1.00  0.00     0.116 C 
BRANCH   3   4
ATOM      4  N   UNL A   1      35.001  24.326  26.001  1.00  0.00    -0.356 N 
ATOM      5  C   UNL A   1      33.645  24.227  26.015  1.00  0.00     0.229 C 
ATOM      6  O   UNL A   1      33.020  25.281  26.124  1.00  0.00    -0.275 OA
ATOM      7  H   UNL A   1      35.342  25.243  26.104  1.00  0.00     0.163 HD
BRANCH   5   8
ATOM      8  C   UNL A   1      32.979  22.855  25.945  1.00  0.00     0.146 C 
ATOM      9  C   UNL A   1      32.871  22.319  24.507  1.00  0.00     0.092 C 
ATOM     10  C   UNL A   1      31.570  23.004  24.061  1.00  0.00     0.269 C 
ATOM     11  N   UNL A   1      30.657  22.853  25.204  1.00  0.00    -0.345 N 
ATOM     12  C   UNL A   1      31.513  22.944  26.405  1.00  0.00     0.274 C 
ATOM     13  H   UNL A   1      30.187  21.948  25.169  1.00  0.00     0.346 HD
ATOM     14  H   UNL A   1      29.929  23.567  25.205  1.00  0.00     0.346 HD
BRANCH   9  15
ATOM     15  C   UNL A   1      32.754  20.795  24.350  1.00  0.00    -0.038 A 
ATOM     16  C   UNL A   1      32.807  17.975  24.087  1.00  0.00     0.118 A 
ATOM     17  C   UNL A   1      33.177  18.577  25.286  1.00  0.00     0.047 A 
ATOM     18  C   UNL A   1      32.344  18.769  23.044  1.00  0.00     0.047 A 
ATOM     19  C   UNL A   1      33.150  19.970  25.418  1.00  0.00     0.008 A 
ATOM     20  C   UNL A   1      32.319  20.164  23.174  1.00  0.00     0.008 A 
BRANCH  16  21
ATOM     21  O   UNL A   1      32.901  16.611  24.046  1.00  0.00    -0.497 OA
ATOM     22  C   UNL A   1      32.905  15.974  25.322  1.00  0.00     0.278 C 
ENDBRANCH  16  21
ENDBRANCH   9  15
ENDBRANCH   5   8
ENDBRANCH   3   4
ENDBRANCH   2   3
ENDBRANCH   1   2
BRANCH   1  23
ATOM     23  C   UNL A   1      36.598  20.707  24.871  1.00  0.00     0.002 C 
BRANCH  23  24
ATOM     24  C   UNL A   1      37.709  19.665  25.001  1.00  0.00     0.021 C 
BRANCH  24  25
ATOM     25  C   UNL A   1      38.952  20.132  25.753  1.00  0.00     0.116 C 
BRANCH  25  26
ATOM     26  N   UNL A   1      39.983  19.110  25.834  1.00  0.00    -0.352 N 
ATOM     27  C   UNL A   1      41.328  19.247  26.068  1.00  0.00     0.251 C 
ATOM     28  H   UNL A   1      39.671  18.186  25.701  1.00  0.00     0.163 HD
ATOM     29  O   UNL A   1      42.071  18.271  25.970  1.00  0.00    -0.269 OA
BRANCH  27  30
ATOM     30  C   UNL A   1      41.899  20.568  26.412  1.00  0.00     0.039 A 
ATOM     31  C   UNL A   1      42.248  21.440  25.374  1.00  0.00     0.014 A 
ATOM     32  C   UNL A   1      42.111  20.947  27.740  1.00  0.00     0.014 A 
ATOM     33  C   UNL A   1      42.756  22.707  25.669  1.00  0.00     0.010 A 
ATOM     34  C   UNL A   1      42.553  22.236  28.035  1.00  0.00     0.010 A 
ATOM     35  C   UNL A   1      42.886  23.126  27.003  1.00  0.00    -0.014 A 
BRANCH  35  36
ATOM     36  C   UNL A   1      43.380  24.487  27.334  1.00  0.00     0.031 A 
ATOM     37  C   UNL A   1      42.419  25.554  27.781  1.00  0.00     0.074 A 
ATOM     38  C   UNL A   1      44.686  24.778  27.187  1.00  0.00     0.049 A 
ATOM     39  N   UNL A   1      42.653  26.808  28.074  1.00  0.00    -0.248 NA
ATOM     40  C   UNL A   1      41.003  25.167  27.888  1.00  0.00     0.031 C 
ATOM     41  C   UNL A   1      45.713  23.846  26.722  1.00  0.00     0.029 A 
ATOM     42  N   UNL A   1      45.372  25.946  27.410  1.00  0.00    -0.354 N 
ATOM     43  C   UNL A   1      41.418  27.361  28.386  1.00  0.00     0.074 A 
ATOM     44  C   UNL A   1      40.430  26.321  28.195  1.00  0.00     0.031 C 
ATOM     45  C   UNL A   1      46.903  24.468  26.723  1.00  0.00     0.029 A 
ATOM     46  C   UNL A   1      46.719  25.849  27.158  1.00  0.00     0.049 A 
ATOM     47  H   UNL A   1      44.940  26.773  27.722  1.00  0.00     0.167 HD
ATOM     48  C   UNL A   1      41.133  28.613  28.818  1.00  0.00     0.037 A 
ATOM     49  C   UNL A   1      47.695  26.771  27.266  1.00  0.00     0.037 A 
ATOM     50  C   UNL A   1      42.117  29.641  29.032  1.00  0.00     0.049 A 
ATOM     51  C   UNL A   1      47.355  28.155  27.743  1.00  0.00     0.074 A 
ATOM     52  C   UNL A   1      41.934  30.924  29.519  1.00  0.00     0.029 A 
ATOM     53  N   UNL A   1      43.472  29.502  28.773  1.00  0.00    -0.354 N 
ATOM     54  N   UNL A   1      46.191  28.646  28.092  1.00  0.00    -0.248 NA
ATOM     55  C   UNL A   1      48.465  29.111  27.844  1.00  0.00     0.031 C 
ATOM     56  C   UNL A   1      43.174  31.573  29.519  1.00  0.00     0.029 A 
ATOM     57  C   UNL A   1      44.134  30.681  29.072  1.00  0.00     0.049 A 
ATOM     58  H   UNL A   1      43.900  28.686  28.426  1.00  0.00     0.167 HD
ATOM     59  C   UNL A   1      46.432  29.956  28.484  1.00  0.00     0.074 A 
ATOM     60  C   UNL A   1      47.855  30.181  28.336  1.00  0.00     0.031 C 
ATOM     61  C   UNL A   1      45.553  30.888  28.928  1.00  0.00     0.037 A 
BRANCH  48  62
ATOM     62  C   UNL A   1      39.692  28.934  29.092  1.00  0.00     0.057 A 
ATOM     63  C   UNL A   1      38.834  29.393  28.083  1.00  0.00     0.134 A 
ATOM     64  C   UNL A   1      39.151  28.768  30.373  1.00  0.00     0.134 A 
ATOM     65  F   UNL A   1      39.293  29.586  26.837  1.00  0.00    -0.206 F 
ATOM     66  C   UNL A   1      37.500  29.706  28.346  1.00  0.00     0.040 A 
ATOM     67  C   UNL A   1      37.812  29.052  30.641  1.00  0.00     0.040 A 
ATOM     68  F   UNL A   1      39.916  28.326  31.383  1.00  0.00    -0.206 F 
ATOM     69  C   UNL A   1      36.983  29.531  29.628  1.00  0.00     0.006 A 
ENDBRANCH  48  62
BRANCH  49  70
ATOM     70  C   UNL A   1      49.098  26.401  26.959  1.00  0.00     0.057 A 
ATOM     71  C   UNL A   1      49.950  25.921  27.961  1.00  0.00     0.134 A 
ATOM     72  C   UNL A   1      49.621  26.511  25.665  1.00  0.00     0.134 A 
ATOM     73  F   UNL A   1      49.510  25.811  29.223  1.00  0.00    -0.206 F 
ATOM     74  C   UNL A   1      51.275  25.578  27.692  1.00  0.00     0.040 A 
ATOM     75  C   UNL A   1      50.937  26.151  25.378  1.00  0.00     0.040 A 
ATOM     76  F   UNL A   1      48.852  26.957  24.660  1.00  0.00    -0.206 F 
ATOM     77  C   UNL A   1      51.771  25.688  26.394  1.00  0.00     0.006 A 
ENDBRANCH  49  70
BRANCH  61  78
ATOM     78  C   UNL A   1      46.110  32.224  29.319  1.00  0.00     0.057 A 
ATOM     79  C   UNL A   1      46.572  32.482  30.615  1.00  0.00     0.134 A 
ATOM     80  C   UNL A   1      46.219  33.253  28.375  1.00  0.00     0.134 A 
ATOM     81  F   UNL A   1      46.483  31.542  31.568  1.00  0.00    -0.206 F 
ATOM     82  C   UNL A   1      47.105  33.724  30.964  1.00  0.00     0.040 A 
ATOM     83  C   UNL A   1      46.772  34.491  28.706  1.00  0.00     0.040 A 
ATOM     84  F   UNL A   1      45.801  33.068  27.113  1.00  0.00    -0.206 F 
ATOM     85  C   UNL A   1      47.212  34.730  30.006  1.00  0.00     0.006 A 
ENDBRANCH  61  78
ENDBRANCH  35  36
ENDBRANCH  27  30
ENDBRANCH  25  26
ENDBRANCH  24  25
ENDBRANCH  23  24
ENDBRANCH   1  23
TORSDOF 15
ENDMDL
