MODEL 1
REMARK VINA RESULT:     -11.2      0.000      0.000
REMARK SMILES Cc1cc(C[N@@H+]2C[C@H](C)[C@H](C(=O)NCCCCCCNC(=O)c3ccc(-c4c5nc(c(-c6c(F)cccc6F)c6ccc([nH]6)c(-c6c(F)cccc6F)c6nc(c(-c7c(F)cccc7F)c7ccc4[nH]7)C=C6)C=C5)cc3)C2)ccc1Br
REMARK SMILES IDX 16 1 15 2 14 3 13 4 11 5 12 6 10 8 6 9 7 10 77 11 8 13 9 14
REMARK SMILES IDX 5 15 4 16 1 17 2 18 3 19 80 20 79 21 81 22 78 23 17 24 18 25
REMARK SMILES IDX 19 26 20 27 21 28 22 30 23 31 24 32 76 33 25 34 75 35 26 36
REMARK SMILES IDX 27 37 28 38 69 39 29 40 74 41 68 42 70 43 30 44 73 45 67 46
REMARK SMILES IDX 66 47 31 49 57 50 40 51 56 52 41 53 44 54 55 55 71 56 42 57
REMARK SMILES IDX 43 58 54 60 72 61 45 62 32 63 33 64 38 65 34 66 35 67 37 68
REMARK SMILES IDX 39 69 36 70 58 71 59 72 64 73 60 74 61 75 63 76 65 77 62 78
REMARK SMILES IDX 46 79 47 80 52 81 48 82 49 83 51 84 53 85 50 86
REMARK H PARENT 13 7 6 12 20 29 70 48 44 59
REMARK Flexibility Score: inf
ROOT
ATOM      1  C   UNL A   1      36.242  21.469  24.670  1.00  0.00     0.002 C 
ENDROOT
BRANCH   1   2
ATOM      2  C   UNL A   1      35.917  22.335  25.892  1.00  0.00     0.021 C 
BRANCH   2   3
ATOM      3  C   UNL A   1      34.442  22.699  26.062  1.00  0.00     0.116 C 
BRANCH   3   4
ATOM      4  N   UNL A   1      33.573  21.555  25.869  1.00  0.00    -0.356 N 
ATOM      5  C   UNL A   1      32.581  21.297  24.981  1.00  0.00     0.229 C 
ATOM      6  O   UNL A   1      31.990  20.219  25.124  1.00  0.00    -0.275 OA
ATOM      7  H   UNL A   1      33.735  20.822  26.507  1.00  0.00     0.163 HD
BRANCH   5   8
ATOM      8  C   UNL A   1      32.141  22.241  23.868  1.00  0.00     0.142 C 
ATOM      9  N   UNL A   1      32.563  24.205  22.610  1.00  0.00    -0.330 N 
ATOM     10  C   UNL A   1      31.180  24.277  23.057  1.00  0.00     0.266 C 
ATOM     11  C   UNL A   1      33.223  23.013  23.125  1.00  0.00     0.276 C 
ATOM     12  H   UNL A   1      32.508  24.075  21.600  1.00  0.00     0.348 HD
ATOM     13  C   UNL A   1      31.016  23.237  24.168  1.00  0.00     0.059 C 
ATOM     14  C   UNL A   1      30.996  23.882  25.546  1.00  0.00     0.015 C 
BRANCH   9  15
ATOM     15  C   UNL A   1      33.333  25.435  22.518  1.00  0.00     0.299 C 
BRANCH  15  16
ATOM     16  C   UNL A   1      33.148  26.445  23.634  1.00  0.00     0.007 A 
ATOM     17  C   UNL A   1      30.974  29.498  24.296  1.00  0.00     0.045 C 
ATOM     18  C   UNL A   1      32.018  28.440  24.529  1.00  0.00    -0.036 A 
ATOM     19  C   UNL A   1      32.235  27.506  23.496  1.00  0.00     0.014 A 
ATOM     20  C   UNL A   1      32.741  28.294  25.720  1.00  0.00     0.020 A 
ATOM     21  C   UNL A   1      33.653  27.246  25.868  1.00  0.00     0.016 A 
ATOM     22  Br  UNL A   1      32.541  29.461  27.202  1.00  0.00    -0.051 Br
ATOM     23  C   UNL A   1      33.842  26.322  24.842  1.00  0.00     0.011 A 
ENDBRANCH  15  16
ENDBRANCH   9  15
ENDBRANCH   5   8
ENDBRANCH   3   4
ENDBRANCH   2   3
ENDBRANCH   1   2
BRANCH   1  24
ATOM     24  C   UNL A   1      36.466  19.977  24.944  1.00  0.00     0.002 C 
BRANCH  24  25
ATOM     25  C   UNL A   1      37.896  19.468  24.750  1.00  0.00     0.021 C 
BRANCH  25  26
ATOM     26  C   UNL A   1      38.905  19.898  25.812  1.00  0.00     0.116 C 
BRANCH  26  27
ATOM     27  N   UNL A   1      40.138  19.135  25.753  1.00  0.00    -0.352 N 
ATOM     28  C   UNL A   1      41.430  19.525  26.013  1.00  0.00     0.251 C 
ATOM     29  H   UNL A   1      40.033  18.193  25.485  1.00  0.00     0.163 HD
ATOM     30  O   UNL A   1      42.356  18.765  25.743  1.00  0.00    -0.269 OA
BRANCH  28  31
ATOM     31  C   UNL A   1      41.729  20.858  26.594  1.00  0.00     0.039 A 
ATOM     32  C   UNL A   1      42.118  21.887  25.730  1.00  0.00     0.014 A 
ATOM     33  C   UNL A   1      41.692  21.092  27.971  1.00  0.00     0.014 A 
ATOM     34  C   UNL A   1      42.423  23.154  26.238  1.00  0.00     0.010 A 
ATOM     35  C   UNL A   1      41.936  22.374  28.472  1.00  0.00     0.010 A 
ATOM     36  C   UNL A   1      42.313  23.417  27.614  1.00  0.00    -0.014 A 
BRANCH  36  37
ATOM     37  C   UNL A   1      42.608  24.771  28.156  1.00  0.00     0.031 A 
ATOM     38  C   UNL A   1      44.011  25.150  28.551  1.00  0.00     0.074 A 
ATOM     39  C   UNL A   1      41.609  25.660  28.322  1.00  0.00     0.049 A 
ATOM     40  N   UNL A   1      44.455  26.279  29.047  1.00  0.00    -0.248 NA
ATOM     41  C   UNL A   1      45.047  24.121  28.385  1.00  0.00     0.031 C 
ATOM     42  C   UNL A   1      40.197  25.412  28.025  1.00  0.00     0.029 A 
ATOM     43  N   UNL A   1      41.629  26.954  28.786  1.00  0.00    -0.354 N 
ATOM     44  C   UNL A   1      45.813  26.090  29.264  1.00  0.00     0.074 A 
ATOM     45  C   UNL A   1      46.114  24.725  28.889  1.00  0.00     0.031 C 
ATOM     46  C   UNL A   1      39.491  26.524  28.289  1.00  0.00     0.029 A 
ATOM     47  C   UNL A   1      40.393  27.553  28.800  1.00  0.00     0.049 A 
ATOM     48  H   UNL A   1      42.451  27.408  29.081  1.00  0.00     0.167 HD
ATOM     49  C   UNL A   1      46.734  26.978  29.711  1.00  0.00     0.037 A 
ATOM     50  C   UNL A   1      40.025  28.792  29.178  1.00  0.00     0.037 A 
ATOM     51  C   UNL A   1      46.450  28.346  30.058  1.00  0.00     0.049 A 
ATOM     52  C   UNL A   1      41.067  29.762  29.664  1.00  0.00     0.074 A 
ATOM     53  C   UNL A   1      47.332  29.335  30.461  1.00  0.00     0.029 A 
ATOM     54  N   UNL A   1      45.187  28.918  30.045  1.00  0.00    -0.354 N 
ATOM     55  N   UNL A   1      42.359  29.589  29.795  1.00  0.00    -0.248 NA
ATOM     56  C   UNL A   1      40.599  31.102  30.044  1.00  0.00     0.031 C 
ATOM     57  C   UNL A   1      46.597  30.496  30.726  1.00  0.00     0.029 A 
ATOM     58  C   UNL A   1      45.265  30.241  30.450  1.00  0.00     0.049 A 
ATOM     59  H   UNL A   1      44.359  28.453  29.785  1.00  0.00     0.167 HD
ATOM     60  C   UNL A   1      42.862  30.803  30.248  1.00  0.00     0.074 A 
ATOM     61  C   UNL A   1      41.736  31.708  30.355  1.00  0.00     0.031 C 
ATOM     62  C   UNL A   1      44.140  31.135  30.548  1.00  0.00     0.037 A 
BRANCH  49  63
ATOM     63  C   UNL A   1      48.150  26.496  29.846  1.00  0.00     0.057 A 
ATOM     64  C   UNL A   1      48.603  25.859  31.009  1.00  0.00     0.134 A 
ATOM     65  C   UNL A   1      49.058  26.636  28.789  1.00  0.00     0.134 A 
ATOM     66  F   UNL A   1      47.786  25.703  32.061  1.00  0.00    -0.206 F 
ATOM     67  C   UNL A   1      49.916  25.399  31.124  1.00  0.00     0.040 A 
ATOM     68  C   UNL A   1      50.367  26.158  28.883  1.00  0.00     0.040 A 
ATOM     69  F   UNL A   1      48.686  27.229  27.644  1.00  0.00    -0.206 F 
ATOM     70  C   UNL A   1      50.801  25.544  30.057  1.00  0.00     0.006 A 
ENDBRANCH  49  63
BRANCH  50  71
ATOM     71  C   UNL A   1      38.601  29.203  29.087  1.00  0.00     0.057 A 
ATOM     72  C   UNL A   1      38.055  29.650  27.878  1.00  0.00     0.134 A 
ATOM     73  C   UNL A   1      37.760  29.170  30.204  1.00  0.00     0.134 A 
ATOM     74  F   UNL A   1      38.821  29.722  26.779  1.00  0.00    -0.206 F 
ATOM     75  C   UNL A   1      36.727  30.065  27.785  1.00  0.00     0.040 A 
ATOM     76  C   UNL A   1      36.422  29.562  30.121  1.00  0.00     0.040 A 
ATOM     77  F   UNL A   1      38.222  28.748  31.390  1.00  0.00    -0.206 F 
ATOM     78  C   UNL A   1      35.905  30.018  28.910  1.00  0.00     0.006 A 
ENDBRANCH  50  71
BRANCH  62  79
ATOM     79  C   UNL A   1      44.397  32.545  30.991  1.00  0.00     0.057 A 
ATOM     80  C   UNL A   1      44.386  32.907  32.344  1.00  0.00     0.134 A 
ATOM     81  C   UNL A   1      44.692  33.545  30.056  1.00  0.00     0.134 A 
ATOM     82  F   UNL A   1      44.097  31.999  33.288  1.00  0.00    -0.206 F 
ATOM     83  C   UNL A   1      44.636  34.219  32.750  1.00  0.00     0.040 A 
ATOM     84  C   UNL A   1      44.967  34.855  30.451  1.00  0.00     0.040 A 
ATOM     85  F   UNL A   1      44.726  33.263  28.745  1.00  0.00    -0.206 F 
ATOM     86  C   UNL A   1      44.933  35.196  31.801  1.00  0.00     0.006 A 
ENDBRANCH  62  79
ENDBRANCH  36  37
ENDBRANCH  28  31
ENDBRANCH  26  27
ENDBRANCH  25  26
ENDBRANCH  24  25
ENDBRANCH   1  24
TORSDOF 15
ENDMDL
MODEL 2
REMARK VINA RESULT:     -11.1      4.393      9.181
REMARK SMILES Cc1cc(C[N@@H+]2C[C@H](C)[C@H](C(=O)NCCCCCCNC(=O)c3ccc(-c4c5nc(c(-c6c(F)cccc6F)c6ccc([nH]6)c(-c6c(F)cccc6F)c6nc(c(-c7c(F)cccc7F)c7ccc4[nH]7)C=C6)C=C5)cc3)C2)ccc1Br
REMARK SMILES IDX 16 1 15 2 14 3 13 4 11 5 12 6 10 8 6 9 7 10 77 11 8 13 9 14
REMARK SMILES IDX 5 15 4 16 1 17 2 18 3 19 80 20 79 21 81 22 78 23 17 24 18 25
REMARK SMILES IDX 19 26 20 27 21 28 22 30 23 31 24 32 76 33 25 34 75 35 26 36
REMARK SMILES IDX 27 37 28 38 69 39 29 40 74 41 68 42 70 43 30 44 73 45 67 46
REMARK SMILES IDX 66 47 31 49 57 50 40 51 56 52 41 53 44 54 55 55 71 56 42 57
REMARK SMILES IDX 43 58 54 60 72 61 45 62 32 63 33 64 38 65 34 66 35 67 37 68
REMARK SMILES IDX 39 69 36 70 58 71 59 72 64 73 60 74 61 75 63 76 65 77 62 78
REMARK SMILES IDX 46 79 47 80 52 81 48 82 49 83 51 84 53 85 50 86
REMARK H PARENT 13 7 6 12 20 29 70 48 44 59
REMARK Flexibility Score: inf
ROOT
ATOM      1  C   UNL A   1      32.831  30.126  26.726  1.00  0.00     0.002 C 
ENDROOT
BRANCH   1   2
ATOM      2  C   UNL A   1      32.730  28.654  27.139  1.00  0.00     0.021 C 
BRANCH   2   3
ATOM      3  C   UNL A   1      31.323  28.060  27.103  1.00  0.00     0.116 C 
BRANCH   3   4
ATOM      4  N   UNL A   1      31.339  26.613  27.192  1.00  0.00    -0.356 N 
ATOM      5  C   UNL A   1      31.614  25.642  26.287  1.00  0.00     0.229 C 
ATOM      6  O   UNL A   1      31.484  24.477  26.683  1.00  0.00    -0.275 OA
ATOM      7  H   UNL A   1      31.105  26.269  28.085  1.00  0.00     0.163 HD
BRANCH   5   8
ATOM      8  C   UNL A   1      32.031  25.891  24.842  1.00  0.00     0.142 C 
ATOM      9  N   UNL A   1      32.581  24.990  22.720  1.00  0.00    -0.330 N 
ATOM     10  C   UNL A   1      33.631  25.936  23.063  1.00  0.00     0.266 C 
ATOM     11  C   UNL A   1      31.604  24.871  23.795  1.00  0.00     0.276 C 
ATOM     12  H   UNL A   1      32.082  25.418  21.941  1.00  0.00     0.348 HD
ATOM     13  C   UNL A   1      33.499  26.224  24.561  1.00  0.00     0.059 C 
ATOM     14  C   UNL A   1      34.556  25.488  25.371  1.00  0.00     0.015 C 
BRANCH   9  15
ATOM     15  C   UNL A   1      32.934  23.791  21.975  1.00  0.00     0.299 C 
BRANCH  15  16
ATOM     16  C   UNL A   1      32.972  22.488  22.749  1.00  0.00     0.007 A 
ATOM     17  C   UNL A   1      34.819  21.096  25.771  1.00  0.00     0.045 C 
ATOM     18  C   UNL A   1      33.884  21.138  24.595  1.00  0.00    -0.036 A 
ATOM     19  C   UNL A   1      33.850  22.326  23.835  1.00  0.00     0.014 A 
ATOM     20  C   UNL A   1      33.012  20.100  24.242  1.00  0.00     0.020 A 
ATOM     21  C   UNL A   1      32.136  20.248  23.163  1.00  0.00     0.016 A 
ATOM     22  Br  UNL A   1      32.930  18.454  25.181  1.00  0.00    -0.051 Br
ATOM     23  C   UNL A   1      32.106  21.437  22.435  1.00  0.00     0.011 A 
ENDBRANCH  15  16
ENDBRANCH   9  15
ENDBRANCH   5   8
ENDBRANCH   3   4
ENDBRANCH   2   3
ENDBRANCH   1   2
BRANCH   1  24
ATOM     24  C   UNL A   1      31.511  30.814  26.359  1.00  0.00     0.002 C 
BRANCH  24  25
ATOM     25  C   UNL A   1      31.406  32.298  26.719  1.00  0.00     0.021 C 
BRANCH  25  26
ATOM     26  C   UNL A   1      32.726  33.008  27.005  1.00  0.00     0.116 C 
BRANCH  26  27
ATOM     27  N   UNL A   1      32.553  34.214  27.793  1.00  0.00    -0.352 N 
ATOM     28  C   UNL A   1      33.203  34.624  28.932  1.00  0.00     0.251 C 
ATOM     29  H   UNL A   1      31.864  34.834  27.460  1.00  0.00     0.163 HD
ATOM     30  O   UNL A   1      32.791  35.607  29.542  1.00  0.00    -0.269 OA
BRANCH  28  31
ATOM     31  C   UNL A   1      34.381  33.887  29.453  1.00  0.00     0.039 A 
ATOM     32  C   UNL A   1      35.655  34.290  29.036  1.00  0.00     0.014 A 
ATOM     33  C   UNL A   1      34.252  32.776  30.291  1.00  0.00     0.014 A 
ATOM     34  C   UNL A   1      36.791  33.614  29.491  1.00  0.00     0.010 A 
ATOM     35  C   UNL A   1      35.390  32.140  30.795  1.00  0.00     0.010 A 
ATOM     36  C   UNL A   1      36.672  32.545  30.394  1.00  0.00    -0.014 A 
BRANCH  36  37
ATOM     37  C   UNL A   1      37.879  31.841  30.905  1.00  0.00     0.031 A 
ATOM     38  C   UNL A   1      38.462  32.194  32.248  1.00  0.00     0.074 A 
ATOM     39  C   UNL A   1      38.477  30.899  30.149  1.00  0.00     0.049 A 
ATOM     40  N   UNL A   1      39.512  31.693  32.852  1.00  0.00    -0.248 NA
ATOM     41  C   UNL A   1      37.788  33.260  33.004  1.00  0.00     0.031 C 
ATOM     42  C   UNL A   1      38.048  30.490  28.811  1.00  0.00     0.029 A 
ATOM     43  N   UNL A   1      39.578  30.115  30.400  1.00  0.00    -0.354 N 
ATOM     44  C   UNL A   1      39.631  32.392  34.047  1.00  0.00     0.074 A 
ATOM     45  C   UNL A   1      38.575  33.381  34.063  1.00  0.00     0.031 C 
ATOM     46  C   UNL A   1      38.860  29.515  28.369  1.00  0.00     0.029 A 
ATOM     47  C   UNL A   1      39.881  29.249  29.378  1.00  0.00     0.049 A 
ATOM     48  H   UNL A   1      40.099  30.169  31.232  1.00  0.00     0.167 HD
ATOM     49  C   UNL A   1      40.522  32.211  35.051  1.00  0.00     0.037 A 
ATOM     50  C   UNL A   1      40.868  28.339  29.265  1.00  0.00     0.037 A 
ATOM     51  C   UNL A   1      41.557  31.210  35.056  1.00  0.00     0.049 A 
ATOM     52  C   UNL A   1      41.840  28.153  30.397  1.00  0.00     0.074 A 
ATOM     53  C   UNL A   1      42.466  30.914  36.058  1.00  0.00     0.029 A 
ATOM     54  N   UNL A   1      41.822  30.343  34.008  1.00  0.00    -0.354 N 
ATOM     55  N   UNL A   1      41.895  28.772  31.550  1.00  0.00    -0.248 NA
ATOM     56  C   UNL A   1      42.882  27.131  30.215  1.00  0.00     0.031 C 
ATOM     57  C   UNL A   1      43.304  29.891  35.602  1.00  0.00     0.029 A 
ATOM     58  C   UNL A   1      42.891  29.524  34.332  1.00  0.00     0.049 A 
ATOM     59  H   UNL A   1      41.323  30.313  33.159  1.00  0.00     0.167 HD
ATOM     60  C   UNL A   1      42.958  28.201  32.240  1.00  0.00     0.074 A 
ATOM     61  C   UNL A   1      43.511  27.175  31.380  1.00  0.00     0.031 C 
ATOM     62  C   UNL A   1      43.431  28.502  33.472  1.00  0.00     0.037 A 
BRANCH  49  63
ATOM     63  C   UNL A   1      40.413  33.118  36.242  1.00  0.00     0.057 A 
ATOM     64  C   UNL A   1      41.193  34.276  36.360  1.00  0.00     0.134 A 
ATOM     65  C   UNL A   1      39.492  32.852  37.264  1.00  0.00     0.134 A 
ATOM     66  F   UNL A   1      42.101  34.583  35.421  1.00  0.00    -0.206 F 
ATOM     67  C   UNL A   1      41.078  35.125  37.463  1.00  0.00     0.040 A 
ATOM     68  C   UNL A   1      39.351  33.707  38.359  1.00  0.00     0.040 A 
ATOM     69  F   UNL A   1      38.708  31.765  37.209  1.00  0.00    -0.206 F 
ATOM     70  C   UNL A   1      40.151  34.843  38.464  1.00  0.00     0.006 A 
ENDBRANCH  49  63
BRANCH  50  71
ATOM     71  C   UNL A   1      40.974  27.509  28.039  1.00  0.00     0.057 A 
ATOM     72  C   UNL A   1      40.350  26.258  27.959  1.00  0.00     0.134 A 
ATOM     73  C   UNL A   1      41.708  27.937  26.928  1.00  0.00     0.134 A 
ATOM     74  F   UNL A   1      39.651  25.786  29.002  1.00  0.00    -0.206 F 
ATOM     75  C   UNL A   1      40.465  25.455  26.824  1.00  0.00     0.040 A 
ATOM     76  C   UNL A   1      41.814  27.155  25.777  1.00  0.00     0.040 A 
ATOM     77  F   UNL A   1      42.325  29.128  26.942  1.00  0.00    -0.206 F 
ATOM     78  C   UNL A   1      41.197  25.906  25.727  1.00  0.00     0.006 A 
ENDBRANCH  50  71
BRANCH  62  79
ATOM     79  C   UNL A   1      44.586  27.691  33.981  1.00  0.00     0.057 A 
ATOM     80  C   UNL A   1      44.397  26.472  34.646  1.00  0.00     0.134 A 
ATOM     81  C   UNL A   1      45.904  28.118  33.776  1.00  0.00     0.134 A 
ATOM     82  F   UNL A   1      43.159  26.014  34.886  1.00  0.00    -0.206 F 
ATOM     83  C   UNL A   1      45.477  25.719  35.108  1.00  0.00     0.040 A 
ATOM     84  C   UNL A   1      46.993  27.362  34.213  1.00  0.00     0.040 A 
ATOM     85  F   UNL A   1      46.155  29.273  33.140  1.00  0.00    -0.206 F 
ATOM     86  C   UNL A   1      46.780  26.161  34.886  1.00  0.00     0.006 A 
ENDBRANCH  62  79
ENDBRANCH  36  37
ENDBRANCH  28  31
ENDBRANCH  26  27
ENDBRANCH  25  26
ENDBRANCH  24  25
ENDBRANCH   1  24
TORSDOF 15
ENDMDL
MODEL 3
REMARK VINA RESULT:     -11.1      5.337     10.184
REMARK SMILES Cc1cc(C[N@@H+]2C[C@H](C)[C@H](C(=O)NCCCCCCNC(=O)c3ccc(-c4c5nc(c(-c6c(F)cccc6F)c6ccc([nH]6)c(-c6c(F)cccc6F)c6nc(c(-c7c(F)cccc7F)c7ccc4[nH]7)C=C6)C=C5)cc3)C2)ccc1Br
REMARK SMILES IDX 16 1 15 2 14 3 13 4 11 5 12 6 10 8 6 9 7 10 77 11 8 13 9 14
REMARK SMILES IDX 5 15 4 16 1 17 2 18 3 19 80 20 79 21 81 22 78 23 17 24 18 25
REMARK SMILES IDX 19 26 20 27 21 28 22 30 23 31 24 32 76 33 25 34 75 35 26 36
REMARK SMILES IDX 27 37 28 38 69 39 29 40 74 41 68 42 70 43 30 44 73 45 67 46
REMARK SMILES IDX 66 47 31 49 57 50 40 51 56 52 41 53 44 54 55 55 71 56 42 57
REMARK SMILES IDX 43 58 54 60 72 61 45 62 32 63 33 64 38 65 34 66 35 67 37 68
REMARK SMILES IDX 39 69 36 70 58 71 59 72 64 73 60 74 61 75 63 76 65 77 62 78
REMARK SMILES IDX 46 79 47 80 52 81 48 82 49 83 51 84 53 85 50 86
REMARK H PARENT 13 7 6 12 20 29 70 48 44 59
REMARK Flexibility Score: inf
ROOT
ATOM      1  C   UNL A   1      34.911  32.915  28.017  1.00  0.00     0.002 C 
ENDROOT
BRANCH   1   2
ATOM      2  C   UNL A   1      34.071  31.707  28.445  1.00  0.00     0.021 C 
BRANCH   2   3
ATOM      3  C   UNL A   1      34.009  30.562  27.434  1.00  0.00     0.116 C 
BRANCH   3   4
ATOM      4  N   UNL A   1      32.985  29.593  27.770  1.00  0.00    -0.356 N 
ATOM      5  C   UNL A   1      32.261  28.726  27.018  1.00  0.00     0.229 C 
ATOM      6  O   UNL A   1      31.413  28.058  27.624  1.00  0.00    -0.275 OA
ATOM      7  H   UNL A   1      32.774  29.555  28.732  1.00  0.00     0.163 HD
BRANCH   5   8
ATOM      8  C   UNL A   1      32.403  28.553  25.511  1.00  0.00     0.142 C 
ATOM      9  N   UNL A   1      31.685  27.461  23.533  1.00  0.00    -0.330 N 
ATOM     10  C   UNL A   1      33.137  27.376  23.561  1.00  0.00     0.266 C 
ATOM     11  C   UNL A   1      31.172  28.115  24.729  1.00  0.00     0.276 C 
ATOM     12  H   UNL A   1      31.472  28.092  22.761  1.00  0.00     0.348 HD
ATOM     13  C   UNL A   1      33.577  27.720  24.986  1.00  0.00     0.059 C 
ATOM     14  C   UNL A   1      33.964  26.476  25.772  1.00  0.00     0.015 C 
BRANCH   9  15
ATOM     15  C   UNL A   1      30.929  26.350  22.976  1.00  0.00     0.299 C 
BRANCH  15  16
ATOM     16  C   UNL A   1      31.285  24.962  23.473  1.00  0.00     0.007 A 
ATOM     17  C   UNL A   1      30.459  22.785  26.483  1.00  0.00     0.045 C 
ATOM     18  C   UNL A   1      31.083  23.199  25.179  1.00  0.00    -0.036 A 
ATOM     19  C   UNL A   1      30.797  24.496  24.707  1.00  0.00     0.014 A 
ATOM     20  C   UNL A   1      31.880  22.364  24.385  1.00  0.00     0.020 A 
ATOM     21  C   UNL A   1      32.373  22.816  23.158  1.00  0.00     0.016 A 
ATOM     22  Br  UNL A   1      32.332  20.590  24.879  1.00  0.00    -0.051 Br
ATOM     23  C   UNL A   1      32.065  24.096  22.700  1.00  0.00     0.011 A 
ENDBRANCH  15  16
ENDBRANCH   9  15
ENDBRANCH   5   8
ENDBRANCH   3   4
ENDBRANCH   2   3
ENDBRANCH   1   2
BRANCH   1  24
ATOM     24  C   UNL A   1      34.760  34.177  28.873  1.00  0.00     0.002 C 
BRANCH  24  25
ATOM     25  C   UNL A   1      33.362  34.800  28.908  1.00  0.00     0.021 C 
BRANCH  25  26
ATOM     26  C   UNL A   1      33.275  36.205  29.496  1.00  0.00     0.116 C 
BRANCH  26  27
ATOM     27  N   UNL A   1      32.446  36.263  30.686  1.00  0.00    -0.352 N 
ATOM     28  C   UNL A   1      32.625  35.673  31.914  1.00  0.00     0.251 C 
ATOM     29  H   UNL A   1      31.630  36.808  30.600  1.00  0.00     0.163 HD
ATOM     30  O   UNL A   1      31.718  35.712  32.741  1.00  0.00    -0.269 OA
BRANCH  28  31
ATOM     31  C   UNL A   1      33.888  34.970  32.253  1.00  0.00     0.039 A 
ATOM     32  C   UNL A   1      33.825  33.610  32.576  1.00  0.00     0.014 A 
ATOM     33  C   UNL A   1      35.114  35.636  32.318  1.00  0.00     0.014 A 
ATOM     34  C   UNL A   1      34.988  32.913  32.916  1.00  0.00     0.010 A 
ATOM     35  C   UNL A   1      36.285  34.926  32.597  1.00  0.00     0.010 A 
ATOM     36  C   UNL A   1      36.236  33.559  32.908  1.00  0.00    -0.014 A 
BRANCH  36  37
ATOM     37  C   UNL A   1      37.481  32.815  33.240  1.00  0.00     0.031 A 
ATOM     38  C   UNL A   1      38.224  33.096  34.519  1.00  0.00     0.074 A 
ATOM     39  C   UNL A   1      37.967  31.900  32.377  1.00  0.00     0.049 A 
ATOM     40  N   UNL A   1      39.327  32.552  34.971  1.00  0.00    -0.248 NA
ATOM     41  C   UNL A   1      37.665  34.135  35.396  1.00  0.00     0.031 C 
ATOM     42  C   UNL A   1      37.375  31.561  31.082  1.00  0.00     0.029 A 
ATOM     43  N   UNL A   1      39.073  31.090  32.461  1.00  0.00    -0.354 N 
ATOM     44  C   UNL A   1      39.600  33.193  36.173  1.00  0.00     0.074 A 
ATOM     45  C   UNL A   1      38.574  34.195  36.359  1.00  0.00     0.031 C 
ATOM     46  C   UNL A   1      38.110  30.595  30.505  1.00  0.00     0.029 A 
ATOM     47  C   UNL A   1      39.237  30.267  31.373  1.00  0.00     0.049 A 
ATOM     48  H   UNL A   1      39.690  31.097  33.227  1.00  0.00     0.167 HD
ATOM     49  C   UNL A   1      40.600  32.953  37.057  1.00  0.00     0.037 A 
ATOM     50  C   UNL A   1      40.185  29.350  31.104  1.00  0.00     0.037 A 
ATOM     51  C   UNL A   1      41.608  31.938  36.895  1.00  0.00     0.049 A 
ATOM     52  C   UNL A   1      41.280  29.096  32.103  1.00  0.00     0.074 A 
ATOM     53  C   UNL A   1      42.622  31.582  37.767  1.00  0.00     0.029 A 
ATOM     54  N   UNL A   1      41.729  31.116  35.785  1.00  0.00    -0.354 N 
ATOM     55  N   UNL A   1      41.482  29.661  33.268  1.00  0.00    -0.248 NA
ATOM     56  C   UNL A   1      42.272  28.070  31.753  1.00  0.00     0.031 C 
ATOM     57  C   UNL A   1      43.380  30.569  37.170  1.00  0.00     0.029 A 
ATOM     58  C   UNL A   1      42.813  30.267  35.943  1.00  0.00     0.049 A 
ATOM     59  H   UNL A   1      41.134  31.133  35.000  1.00  0.00     0.167 HD
ATOM     60  C   UNL A   1      42.607  29.042  33.801  1.00  0.00     0.074 A 
ATOM     61  C   UNL A   1      43.034  28.050  32.837  1.00  0.00     0.031 C 
ATOM     62  C   UNL A   1      43.227  29.278  34.981  1.00  0.00     0.037 A 
BRANCH  49  63
ATOM     63  C   UNL A   1      40.649  33.805  38.292  1.00  0.00     0.057 A 
ATOM     64  C   UNL A   1      39.918  33.478  39.441  1.00  0.00     0.134 A 
ATOM     65  C   UNL A   1      41.465  34.942  38.345  1.00  0.00     0.134 A 
ATOM     66  F   UNL A   1      39.110  32.407  39.451  1.00  0.00    -0.206 F 
ATOM     67  C   UNL A   1      39.978  34.265  40.593  1.00  0.00     0.040 A 
ATOM     68  C   UNL A   1      41.552  35.723  39.500  1.00  0.00     0.040 A 
ATOM     69  F   UNL A   1      42.197  35.307  37.282  1.00  0.00    -0.206 F 
ATOM     70  C   UNL A   1      40.801  35.389  40.625  1.00  0.00     0.006 A 
ENDBRANCH  49  63
BRANCH  50  71
ATOM     71  C   UNL A   1      40.130  28.576  29.838  1.00  0.00     0.057 A 
ATOM     72  C   UNL A   1      39.386  27.394  29.748  1.00  0.00     0.134 A 
ATOM     73  C   UNL A   1      40.826  28.990  28.698  1.00  0.00     0.134 A 
ATOM     74  F   UNL A   1      38.715  26.936  30.815  1.00  0.00    -0.206 F 
ATOM     75  C   UNL A   1      39.348  26.642  28.573  1.00  0.00     0.040 A 
ATOM     76  C   UNL A   1      40.780  28.260  27.509  1.00  0.00     0.040 A 
ATOM     77  F   UNL A   1      41.553  30.117  28.720  1.00  0.00    -0.206 F 
ATOM     78  C   UNL A   1      40.044  27.078  27.448  1.00  0.00     0.006 A 
ENDBRANCH  50  71
BRANCH  62  79
ATOM     79  C   UNL A   1      44.418  28.428  35.313  1.00  0.00     0.057 A 
ATOM     80  C   UNL A   1      45.720  28.815  34.972  1.00  0.00     0.134 A 
ATOM     81  C   UNL A   1      44.263  27.223  36.011  1.00  0.00     0.134 A 
ATOM     82  F   UNL A   1      45.935  29.951  34.291  1.00  0.00    -0.206 F 
ATOM     83  C   UNL A   1      46.824  28.023  35.293  1.00  0.00     0.040 A 
ATOM     84  C   UNL A   1      45.361  26.435  36.357  1.00  0.00     0.040 A 
ATOM     85  F   UNL A   1      43.043  26.798  36.374  1.00  0.00    -0.206 F 
ATOM     86  C   UNL A   1      46.645  26.831  35.993  1.00  0.00     0.006 A 
ENDBRANCH  62  79
ENDBRANCH  36  37
ENDBRANCH  28  31
ENDBRANCH  26  27
ENDBRANCH  25  26
ENDBRANCH  24  25
ENDBRANCH   1  24
TORSDOF 15
ENDMDL
