MODEL 1
REMARK VINA RESULT:     -11.6      0.000      0.000
REMARK SMILES Cc1ccc(Cl)c(Nc2ccccc2C(=O)NCC(=O)NCCCCCCNC(=O)c2ccc(-c3c4nc(c(-c5c(F)cccc5F)c5ccc([nH]5)c(-c5c(F)cccc5F)c5nc(c(-c6c(F)cccc6F)c6ccc3[nH]6)C=C5)C=C4)cc2)c1Cl
REMARK SMILES IDX 23 1 22 2 21 3 19 4 20 5 18 7 17 8 15 9 16 10 14 12 9 13
REMARK SMILES IDX 10 14 11 15 13 16 12 17 8 18 7 20 1 21 2 22 3 23 85 24 4 25
REMARK SMILES IDX 86 26 5 27 6 28 24 29 25 30 26 31 27 32 28 33 29 34 30 36
REMARK SMILES IDX 31 37 32 38 84 39 33 40 83 41 34 42 35 43 36 44 77 45 37 46
REMARK SMILES IDX 82 47 76 48 78 49 38 50 81 51 75 52 74 53 39 55 65 56 48 57
REMARK SMILES IDX 64 58 49 59 52 60 63 61 79 62 50 63 51 64 62 66 80 67 53 68
REMARK SMILES IDX 40 69 41 70 46 71 42 72 43 73 45 74 47 75 44 76 66 77 67 78
REMARK SMILES IDX 72 79 68 80 69 81 71 82 73 83 70 84 54 85 55 86 60 87 56 88
REMARK SMILES IDX 57 89 59 90 61 91 58 92
REMARK H PARENT 21 6 17 11 8 19 28 35 78 54 52 65
REMARK Flexibility Score: inf
ROOT
ATOM      1  C   UNL A   1      32.305  23.265  25.324  1.00  0.00     0.021 C 
ENDROOT
BRANCH   1   2
ATOM      2  C   UNL A   1      30.926  23.418  25.953  1.00  0.00     0.116 C 
BRANCH   2   3
ATOM      3  N   UNL A   1      30.877  24.660  26.680  1.00  0.00    -0.355 N 
ATOM      4  C   UNL A   1      30.420  25.852  26.209  1.00  0.00     0.239 C 
ATOM      5  O   UNL A   1      30.669  26.869  26.860  1.00  0.00    -0.273 OA
ATOM      6  H   UNL A   1      31.206  24.645  27.608  1.00  0.00     0.163 HD
BRANCH   4   7
ATOM      7  C   UNL A   1      29.383  25.865  25.090  1.00  0.00     0.216 C 
BRANCH   7   8
ATOM      8  N   UNL A   1      29.638  26.096  23.685  1.00  0.00    -0.343 N 
ATOM      9  C   UNL A   1      30.008  27.234  23.001  1.00  0.00     0.253 C 
ATOM     10  O   UNL A   1      30.700  27.022  21.996  1.00  0.00    -0.269 OA
ATOM     11  H   UNL A   1      29.529  25.299  23.117  1.00  0.00     0.164 HD
BRANCH   9  12
ATOM     12  C   UNL A   1      29.470  28.633  23.204  1.00  0.00     0.063 A 
ATOM     13  C   UNL A   1      30.057  29.810  23.726  1.00  0.00     0.051 A 
ATOM     14  C   UNL A   1      29.228  30.955  23.890  1.00  0.00     0.027 A 
ATOM     15  C   UNL A   1      27.894  30.988  23.488  1.00  0.00     0.002 A 
ATOM     16  C   UNL A   1      28.109  28.707  22.792  1.00  0.00     0.016 A 
ATOM     17  C   UNL A   1      27.337  29.864  22.914  1.00  0.00     0.001 A 
BRANCH  13  18
ATOM     18  N   UNL A   1      31.417  30.081  23.990  1.00  0.00    -0.352 N 
ATOM     19  H   UNL A   1      31.807  30.739  23.370  1.00  0.00     0.167 HD
BRANCH  18  20
ATOM     20  C   UNL A   1      32.343  29.609  24.955  1.00  0.00     0.077 A 
ATOM     21  C   UNL A   1      34.360  26.466  25.786  1.00  0.00     0.046 C 
ATOM     22  C   UNL A   1      33.674  27.797  25.918  1.00  0.00    -0.030 A 
ATOM     23  C   UNL A   1      33.537  28.377  27.188  1.00  0.00     0.006 A 
ATOM     24  C   UNL A   1      33.116  28.443  24.797  1.00  0.00     0.069 A 
ATOM     25  C   UNL A   1      32.897  29.602  27.343  1.00  0.00     0.023 A 
ATOM     26  Cl  UNL A   1      33.479  27.832  23.210  1.00  0.00    -0.082 Cl
ATOM     27  C   UNL A   1      32.319  30.217  26.236  1.00  0.00     0.066 A 
ATOM     28  Cl  UNL A   1      31.425  31.683  26.501  1.00  0.00    -0.082 Cl
ENDBRANCH  18  20
ENDBRANCH  13  18
ENDBRANCH   9  12
ENDBRANCH   7   8
ENDBRANCH   4   7
ENDBRANCH   2   3
ENDBRANCH   1   2
BRANCH   1  29
ATOM     29  C   UNL A   1      33.173  22.265  26.099  1.00  0.00     0.002 C 
BRANCH  29  30
ATOM     30  C   UNL A   1      34.503  22.853  26.583  1.00  0.00     0.002 C 
BRANCH  30  31
ATOM     31  C   UNL A   1      35.522  23.077  25.465  1.00  0.00     0.021 C 
BRANCH  31  32
ATOM     32  C   UNL A   1      36.852  23.632  25.960  1.00  0.00     0.116 C 
BRANCH  32  33
ATOM     33  N   UNL A   1      37.837  22.576  26.124  1.00  0.00    -0.352 N 
ATOM     34  C   UNL A   1      39.172  22.687  26.411  1.00  0.00     0.251 C 
ATOM     35  H   UNL A   1      37.501  21.657  26.015  1.00  0.00     0.163 HD
ATOM     36  O   UNL A   1      39.924  21.731  26.283  1.00  0.00    -0.269 OA
BRANCH  34  37
ATOM     37  C   UNL A   1      39.692  23.990  26.865  1.00  0.00     0.039 A 
ATOM     38  C   UNL A   1      40.140  24.908  25.916  1.00  0.00     0.014 A 
ATOM     39  C   UNL A   1      39.715  24.301  28.228  1.00  0.00     0.014 A 
ATOM     40  C   UNL A   1      40.576  26.165  26.334  1.00  0.00     0.010 A 
ATOM     41  C   UNL A   1      40.075  25.579  28.635  1.00  0.00     0.010 A 
ATOM     42  C   UNL A   1      40.521  26.517  27.693  1.00  0.00    -0.014 A 
BRANCH  42  43
ATOM     43  C   UNL A   1      40.936  27.863  28.150  1.00  0.00     0.031 A 
ATOM     44  C   UNL A   1      42.389  28.238  28.162  1.00  0.00     0.074 A 
ATOM     45  C   UNL A   1      40.008  28.721  28.614  1.00  0.00     0.049 A 
ATOM     46  N   UNL A   1      42.955  29.344  28.573  1.00  0.00    -0.248 NA
ATOM     47  C   UNL A   1      43.338  27.223  27.677  1.00  0.00     0.031 C 
ATOM     48  C   UNL A   1      38.572  28.447  28.702  1.00  0.00     0.029 A 
ATOM     49  N   UNL A   1      40.137  29.993  29.107  1.00  0.00    -0.354 N 
ATOM     50  C   UNL A   1      44.320  29.153  28.408  1.00  0.00     0.074 A 
ATOM     51  C   UNL A   1      44.502  27.804  27.919  1.00  0.00     0.031 C 
ATOM     52  C   UNL A   1      37.951  29.528  29.197  1.00  0.00     0.029 A 
ATOM     53  C   UNL A   1      38.945  30.554  29.494  1.00  0.00     0.049 A 
ATOM     54  H   UNL A   1      41.000  30.461  29.176  1.00  0.00     0.167 HD
ATOM     55  C   UNL A   1      45.329  30.032  28.620  1.00  0.00     0.037 A 
ATOM     56  C   UNL A   1      38.685  31.760  30.035  1.00  0.00     0.037 A 
ATOM     57  C   UNL A   1      45.137  31.376  29.093  1.00  0.00     0.049 A 
ATOM     58  C   UNL A   1      39.819  32.718  30.266  1.00  0.00     0.074 A 
ATOM     59  C   UNL A   1      46.083  32.367  29.284  1.00  0.00     0.029 A 
ATOM     60  N   UNL A   1      43.912  31.917  29.460  1.00  0.00    -0.354 N 
ATOM     61  N   UNL A   1      41.099  32.555  30.033  1.00  0.00    -0.248 NA
ATOM     62  C   UNL A   1      39.471  34.031  30.824  1.00  0.00     0.031 C 
ATOM     63  C   UNL A   1      45.439  33.491  29.813  1.00  0.00     0.029 A 
ATOM     64  C   UNL A   1      44.083  33.219  29.901  1.00  0.00     0.049 A 
ATOM     65  H   UNL A   1      43.050  31.444  29.413  1.00  0.00     0.167 HD
ATOM     66  C   UNL A   1      41.707  33.748  30.396  1.00  0.00     0.074 A 
ATOM     67  C   UNL A   1      40.653  34.632  30.849  1.00  0.00     0.031 C 
ATOM     68  C   UNL A   1      43.021  34.084  30.354  1.00  0.00     0.037 A 
BRANCH  55  69
ATOM     69  C   UNL A   1      46.725  29.553  28.345  1.00  0.00     0.057 A 
ATOM     70  C   UNL A   1      47.295  29.626  27.065  1.00  0.00     0.134 A 
ATOM     71  C   UNL A   1      47.512  29.013  29.370  1.00  0.00     0.134 A 
ATOM     72  F   UNL A   1      46.591  30.119  26.034  1.00  0.00    -0.206 F 
ATOM     73  C   UNL A   1      48.580  29.144  26.809  1.00  0.00     0.040 A 
ATOM     74  C   UNL A   1      48.811  28.558  29.131  1.00  0.00     0.040 A 
ATOM     75  F   UNL A   1      47.034  28.919  30.619  1.00  0.00    -0.206 F 
ATOM     76  C   UNL A   1      49.344  28.613  27.845  1.00  0.00     0.006 A 
ENDBRANCH  55  69
BRANCH  56  77
ATOM     77  C   UNL A   1      37.286  32.129  30.366  1.00  0.00     0.057 A 
ATOM     78  C   UNL A   1      36.466  32.762  29.426  1.00  0.00     0.134 A 
ATOM     79  C   UNL A   1      36.729  31.834  31.615  1.00  0.00     0.134 A 
ATOM     80  F   UNL A   1      36.948  33.083  28.216  1.00  0.00    -0.206 F 
ATOM     81  C   UNL A   1      35.144  33.100  29.719  1.00  0.00     0.040 A 
ATOM     82  C   UNL A   1      35.401  32.144  31.915  1.00  0.00     0.040 A 
ATOM     83  F   UNL A   1      37.461  31.216  32.555  1.00  0.00    -0.206 F 
ATOM     84  C   UNL A   1      34.606  32.784  30.965  1.00  0.00     0.006 A 
ENDBRANCH  56  77
BRANCH  68  85
ATOM     85  C   UNL A   1      43.387  35.473  30.788  1.00  0.00     0.057 A 
ATOM     86  C   UNL A   1      43.669  35.782  32.125  1.00  0.00     0.134 A 
ATOM     87  C   UNL A   1      43.499  36.507  29.848  1.00  0.00     0.134 A 
ATOM     88  F   UNL A   1      43.568  34.841  33.075  1.00  0.00    -0.206 F 
ATOM     89  C   UNL A   1      44.027  37.073  32.515  1.00  0.00     0.040 A 
ATOM     90  C   UNL A   1      43.884  37.794  30.222  1.00  0.00     0.040 A 
ATOM     91  F   UNL A   1      43.251  36.277  28.549  1.00  0.00    -0.206 F 
ATOM     92  C   UNL A   1      44.143  38.081  31.560  1.00  0.00     0.006 A 
ENDBRANCH  68  85
ENDBRANCH  42  43
ENDBRANCH  34  37
ENDBRANCH  32  33
ENDBRANCH  31  32
ENDBRANCH  30  31
ENDBRANCH  29  30
ENDBRANCH   1  29
TORSDOF 17
ENDMDL
MODEL 2
REMARK VINA RESULT:     -11.6      3.911      8.541
REMARK SMILES Cc1ccc(Cl)c(Nc2ccccc2C(=O)NCC(=O)NCCCCCCNC(=O)c2ccc(-c3c4nc(c(-c5c(F)cccc5F)c5ccc([nH]5)c(-c5c(F)cccc5F)c5nc(c(-c6c(F)cccc6F)c6ccc3[nH]6)C=C5)C=C4)cc2)c1Cl
REMARK SMILES IDX 23 1 22 2 21 3 19 4 20 5 18 7 17 8 15 9 16 10 14 12 9 13
REMARK SMILES IDX 10 14 11 15 13 16 12 17 8 18 7 20 1 21 2 22 3 23 85 24 4 25
REMARK SMILES IDX 86 26 5 27 6 28 24 29 25 30 26 31 27 32 28 33 29 34 30 36
REMARK SMILES IDX 31 37 32 38 84 39 33 40 83 41 34 42 35 43 36 44 77 45 37 46
REMARK SMILES IDX 82 47 76 48 78 49 38 50 81 51 75 52 74 53 39 55 65 56 48 57
REMARK SMILES IDX 64 58 49 59 52 60 63 61 79 62 50 63 51 64 62 66 80 67 53 68
REMARK SMILES IDX 40 69 41 70 46 71 42 72 43 73 45 74 47 75 44 76 66 77 67 78
REMARK SMILES IDX 72 79 68 80 69 81 71 82 73 83 70 84 54 85 55 86 60 87 56 88
REMARK SMILES IDX 57 89 59 90 61 91 58 92
REMARK H PARENT 21 6 17 11 8 19 28 35 78 54 52 65
REMARK Flexibility Score: inf
ROOT
ATOM      1  C   UNL A   1      34.458  29.157  27.086  1.00  0.00     0.021 C 
ENDROOT
BRANCH   1   2
ATOM      2  C   UNL A   1      33.784  28.642  25.821  1.00  0.00     0.116 C 
BRANCH   2   3
ATOM      3  N   UNL A   1      34.077  27.240  25.670  1.00  0.00    -0.355 N 
ATOM      4  C   UNL A   1      33.315  26.204  26.114  1.00  0.00     0.239 C 
ATOM      5  O   UNL A   1      33.815  25.077  26.128  1.00  0.00    -0.273 OA
ATOM      6  H   UNL A   1      34.911  27.009  25.200  1.00  0.00     0.163 HD
BRANCH   4   7
ATOM      7  C   UNL A   1      31.812  26.403  26.286  1.00  0.00     0.216 C 
BRANCH   7   8
ATOM      8  N   UNL A   1      30.840  25.378  26.597  1.00  0.00    -0.343 N 
ATOM      9  C   UNL A   1      30.863  24.013  26.407  1.00  0.00     0.253 C 
ATOM     10  O   UNL A   1      30.227  23.370  27.253  1.00  0.00    -0.269 OA
ATOM     11  H   UNL A   1      30.016  25.714  27.019  1.00  0.00     0.164 HD
BRANCH   9  12
ATOM     12  C   UNL A   1      31.356  23.272  25.184  1.00  0.00     0.063 A 
ATOM     13  C   UNL A   1      31.060  23.409  23.807  1.00  0.00     0.051 A 
ATOM     14  C   UNL A   1      31.620  22.461  22.905  1.00  0.00     0.027 A 
ATOM     15  C   UNL A   1      32.503  21.461  23.308  1.00  0.00     0.002 A 
ATOM     16  C   UNL A   1      32.272  22.248  25.558  1.00  0.00     0.016 A 
ATOM     17  C   UNL A   1      32.849  21.368  24.641  1.00  0.00     0.001 A 
BRANCH  13  18
ATOM     18  N   UNL A   1      30.385  24.457  23.144  1.00  0.00    -0.352 N 
ATOM     19  H   UNL A   1      29.515  24.183  22.774  1.00  0.00     0.167 HD
BRANCH  18  20
ATOM     20  C   UNL A   1      30.691  25.820  22.897  1.00  0.00     0.077 A 
ATOM     21  C   UNL A   1      33.703  28.052  22.130  1.00  0.00     0.046 C 
ATOM     22  C   UNL A   1      32.329  27.601  22.543  1.00  0.00    -0.030 A 
ATOM     23  C   UNL A   1      31.464  28.515  23.164  1.00  0.00     0.006 A 
ATOM     24  C   UNL A   1      31.918  26.266  22.368  1.00  0.00     0.069 A 
ATOM     25  C   UNL A   1      30.191  28.124  23.567  1.00  0.00     0.023 A 
ATOM     26  Cl  UNL A   1      32.903  25.203  21.406  1.00  0.00    -0.082 Cl
ATOM     27  C   UNL A   1      29.805  26.794  23.422  1.00  0.00     0.066 A 
ATOM     28  Cl  UNL A   1      28.254  26.329  24.052  1.00  0.00    -0.082 Cl
ENDBRANCH  18  20
ENDBRANCH  13  18
ENDBRANCH   9  12
ENDBRANCH   7   8
ENDBRANCH   4   7
ENDBRANCH   2   3
ENDBRANCH   1   2
BRANCH   1  29
ATOM     29  C   UNL A   1      33.746  30.398  27.640  1.00  0.00     0.002 C 
BRANCH  29  30
ATOM     30  C   UNL A   1      32.301  30.546  27.153  1.00  0.00     0.002 C 
BRANCH  30  31
ATOM     31  C   UNL A   1      31.840  31.998  27.018  1.00  0.00     0.021 C 
BRANCH  31  32
ATOM     32  C   UNL A   1      32.991  32.993  26.939  1.00  0.00     0.116 C 
BRANCH  32  33
ATOM     33  N   UNL A   1      32.662  34.237  27.616  1.00  0.00    -0.352 N 
ATOM     34  C   UNL A   1      33.113  34.699  28.824  1.00  0.00     0.251 C 
ATOM     35  H   UNL A   1      32.031  34.826  27.143  1.00  0.00     0.163 HD
ATOM     36  O   UNL A   1      32.570  35.646  29.376  1.00  0.00    -0.269 OA
BRANCH  34  37
ATOM     37  C   UNL A   1      34.261  34.024  29.456  1.00  0.00     0.039 A 
ATOM     38  C   UNL A   1      34.023  33.011  30.385  1.00  0.00     0.014 A 
ATOM     39  C   UNL A   1      35.567  34.386  29.111  1.00  0.00     0.014 A 
ATOM     40  C   UNL A   1      35.104  32.327  30.940  1.00  0.00     0.010 A 
ATOM     41  C   UNL A   1      36.637  33.653  29.606  1.00  0.00     0.010 A 
ATOM     42  C   UNL A   1      36.415  32.626  30.534  1.00  0.00    -0.014 A 
BRANCH  42  43
ATOM     43  C   UNL A   1      37.572  31.878  31.079  1.00  0.00     0.031 A 
ATOM     44  C   UNL A   1      38.088  32.190  32.454  1.00  0.00     0.074 A 
ATOM     45  C   UNL A   1      38.194  30.966  30.309  1.00  0.00     0.049 A 
ATOM     46  N   UNL A   1      39.117  31.685  33.086  1.00  0.00    -0.248 NA
ATOM     47  C   UNL A   1      37.372  33.231  33.209  1.00  0.00     0.031 C 
ATOM     48  C   UNL A   1      37.817  30.620  28.937  1.00  0.00     0.029 A 
ATOM     49  N   UNL A   1      39.282  30.173  30.568  1.00  0.00    -0.354 N 
ATOM     50  C   UNL A   1      39.177  32.352  34.302  1.00  0.00     0.074 A 
ATOM     51  C   UNL A   1      38.122  33.342  34.294  1.00  0.00     0.031 C 
ATOM     52  C   UNL A   1      38.646  29.666  28.485  1.00  0.00     0.029 A 
ATOM     53  C   UNL A   1      39.632  29.363  29.516  1.00  0.00     0.049 A 
ATOM     54  H   UNL A   1      39.765  30.182  31.426  1.00  0.00     0.167 HD
ATOM     55  C   UNL A   1      40.020  32.142  35.340  1.00  0.00     0.037 A 
ATOM     56  C   UNL A   1      40.640  28.479  29.397  1.00  0.00     0.037 A 
ATOM     57  C   UNL A   1      41.058  31.146  35.345  1.00  0.00     0.049 A 
ATOM     58  C   UNL A   1      41.566  28.263  30.560  1.00  0.00     0.074 A 
ATOM     59  C   UNL A   1      41.927  30.809  36.367  1.00  0.00     0.029 A 
ATOM     60  N   UNL A   1      41.374  30.331  34.266  1.00  0.00    -0.354 N 
ATOM     61  N   UNL A   1      41.566  28.846  31.735  1.00  0.00    -0.248 NA
ATOM     62  C   UNL A   1      42.625  27.261  30.385  1.00  0.00     0.031 C 
ATOM     63  C   UNL A   1      42.801  29.825  35.892  1.00  0.00     0.029 A 
ATOM     64  C   UNL A   1      42.442  29.510  34.591  1.00  0.00     0.049 A 
ATOM     65  H   UNL A   1      40.907  30.335  33.400  1.00  0.00     0.167 HD
ATOM     66  C   UNL A   1      42.609  28.268  32.447  1.00  0.00     0.074 A 
ATOM     67  C   UNL A   1      43.208  27.278  31.576  1.00  0.00     0.031 C 
ATOM     68  C   UNL A   1      43.029  28.532  33.709  1.00  0.00     0.037 A 
BRANCH  55  69
ATOM     69  C   UNL A   1      39.849  33.015  36.550  1.00  0.00     0.057 A 
ATOM     70  C   UNL A   1      38.928  32.708  37.563  1.00  0.00     0.134 A 
ATOM     71  C   UNL A   1      40.615  34.177  36.708  1.00  0.00     0.134 A 
ATOM     72  F   UNL A   1      38.152  31.617  37.467  1.00  0.00    -0.206 F 
ATOM     73  C   UNL A   1      38.748  33.544  38.666  1.00  0.00     0.040 A 
ATOM     74  C   UNL A   1      40.466  35.004  37.825  1.00  0.00     0.040 A 
ATOM     75  F   UNL A   1      41.520  34.529  35.783  1.00  0.00    -0.206 F 
ATOM     76  C   UNL A   1      39.523  34.693  38.801  1.00  0.00     0.006 A 
ENDBRANCH  55  69
BRANCH  56  77
ATOM     77  C   UNL A   1      40.801  27.716  28.135  1.00  0.00     0.057 A 
ATOM     78  C   UNL A   1      41.578  28.216  27.084  1.00  0.00     0.134 A 
ATOM     79  C   UNL A   1      40.206  26.461  27.958  1.00  0.00     0.134 A 
ATOM     80  F   UNL A   1      42.161  29.419  27.189  1.00  0.00    -0.206 F 
ATOM     81  C   UNL A   1      41.749  27.501  25.898  1.00  0.00     0.040 A 
ATOM     82  C   UNL A   1      40.388  25.724  26.787  1.00  0.00     0.040 A 
ATOM     83  F   UNL A   1      39.459  25.922  28.934  1.00  0.00    -0.206 F 
ATOM     84  C   UNL A   1      41.159  26.247  25.750  1.00  0.00     0.006 A 
ENDBRANCH  56  77
BRANCH  68  85
ATOM     85  C   UNL A   1      44.179  27.719  34.232  1.00  0.00     0.057 A 
ATOM     86  C   UNL A   1      45.502  28.169  34.148  1.00  0.00     0.134 A 
ATOM     87  C   UNL A   1      43.952  26.489  34.864  1.00  0.00     0.134 A 
ATOM     88  F   UNL A   1      45.788  29.332  33.543  1.00  0.00    -0.206 F 
ATOM     89  C   UNL A   1      46.562  27.415  34.654  1.00  0.00     0.040 A 
ATOM     90  C   UNL A   1      45.000  25.740  35.399  1.00  0.00     0.040 A 
ATOM     91  F   UNL A   1      42.706  26.005  34.985  1.00  0.00    -0.206 F 
ATOM     92  C   UNL A   1      46.310  26.200  35.288  1.00  0.00     0.006 A 
ENDBRANCH  68  85
ENDBRANCH  42  43
ENDBRANCH  34  37
ENDBRANCH  32  33
ENDBRANCH  31  32
ENDBRANCH  30  31
ENDBRANCH  29  30
ENDBRANCH   1  29
TORSDOF 17
ENDMDL
MODEL 3
REMARK VINA RESULT:     -11.6      4.629      9.203
REMARK SMILES Cc1ccc(Cl)c(Nc2ccccc2C(=O)NCC(=O)NCCCCCCNC(=O)c2ccc(-c3c4nc(c(-c5c(F)cccc5F)c5ccc([nH]5)c(-c5c(F)cccc5F)c5nc(c(-c6c(F)cccc6F)c6ccc3[nH]6)C=C5)C=C4)cc2)c1Cl
REMARK SMILES IDX 23 1 22 2 21 3 19 4 20 5 18 7 17 8 15 9 16 10 14 12 9 13
REMARK SMILES IDX 10 14 11 15 13 16 12 17 8 18 7 20 1 21 2 22 3 23 85 24 4 25
REMARK SMILES IDX 86 26 5 27 6 28 24 29 25 30 26 31 27 32 28 33 29 34 30 36
REMARK SMILES IDX 31 37 32 38 84 39 33 40 83 41 34 42 35 43 36 44 77 45 37 46
REMARK SMILES IDX 82 47 76 48 78 49 38 50 81 51 75 52 74 53 39 55 65 56 48 57
REMARK SMILES IDX 64 58 49 59 52 60 63 61 79 62 50 63 51 64 62 66 80 67 53 68
REMARK SMILES IDX 40 69 41 70 46 71 42 72 43 73 45 74 47 75 44 76 66 77 67 78
REMARK SMILES IDX 72 79 68 80 69 81 71 82 73 83 70 84 54 85 55 86 60 87 56 88
REMARK SMILES IDX 57 89 59 90 61 91 58 92
REMARK H PARENT 21 6 17 11 8 19 28 35 78 54 52 65
REMARK Flexibility Score: inf
ROOT
ATOM      1  C   UNL A   1      34.846  31.722  28.174  1.00  0.00     0.021 C 
ENDROOT
BRANCH   1   2
ATOM      2  C   UNL A   1      33.515  31.220  27.628  1.00  0.00     0.116 C 
BRANCH   2   3
ATOM      3  N   UNL A   1      33.759  30.424  26.453  1.00  0.00    -0.355 N 
ATOM      4  C   UNL A   1      33.632  29.073  26.352  1.00  0.00     0.239 C 
ATOM      5  O   UNL A   1      34.110  28.514  25.363  1.00  0.00    -0.273 OA
ATOM      6  H   UNL A   1      34.047  30.905  25.643  1.00  0.00     0.163 HD
BRANCH   4   7
ATOM      7  C   UNL A   1      32.666  28.343  27.280  1.00  0.00     0.216 C 
BRANCH   7   8
ATOM      8  N   UNL A   1      31.580  27.475  26.879  1.00  0.00    -0.343 N 
ATOM      9  C   UNL A   1      31.578  26.195  26.367  1.00  0.00     0.253 C 
ATOM     10  O   UNL A   1      30.582  25.526  26.672  1.00  0.00    -0.269 OA
ATOM     11  H   UNL A   1      30.684  27.868  26.991  1.00  0.00     0.164 HD
BRANCH   9  12
ATOM     12  C   UNL A   1      32.508  25.635  25.314  1.00  0.00     0.063 A 
ATOM     13  C   UNL A   1      32.404  25.543  23.906  1.00  0.00     0.051 A 
ATOM     14  C   UNL A   1      33.425  24.843  23.204  1.00  0.00     0.027 A 
ATOM     15  C   UNL A   1      34.552  24.317  23.831  1.00  0.00     0.002 A 
ATOM     16  C   UNL A   1      33.680  25.098  25.920  1.00  0.00     0.016 A 
ATOM     17  C   UNL A   1      34.692  24.466  25.196  1.00  0.00     0.001 A 
BRANCH  13  18
ATOM     18  N   UNL A   1      31.487  26.179  23.041  1.00  0.00    -0.352 N 
ATOM     19  H   UNL A   1      31.284  25.649  22.236  1.00  0.00     0.167 HD
BRANCH  18  20
ATOM     20  C   UNL A   1      30.796  27.417  23.082  1.00  0.00     0.077 A 
ATOM     21  C   UNL A   1      27.221  28.778  23.056  1.00  0.00     0.046 C 
ATOM     22  C   UNL A   1      28.718  28.698  22.945  1.00  0.00    -0.030 A 
ATOM     23  C   UNL A   1      29.424  29.777  22.391  1.00  0.00     0.006 A 
ATOM     24  C   UNL A   1      29.416  27.539  23.333  1.00  0.00     0.069 A 
ATOM     25  C   UNL A   1      30.808  29.729  22.265  1.00  0.00     0.023 A 
ATOM     26  Cl  UNL A   1      28.567  26.303  24.214  1.00  0.00    -0.082 Cl
ATOM     27  C   UNL A   1      31.488  28.566  22.619  1.00  0.00     0.066 A 
ATOM     28  Cl  UNL A   1      33.199  28.509  22.329  1.00  0.00    -0.082 Cl
ENDBRANCH  18  20
ENDBRANCH  13  18
ENDBRANCH   9  12
ENDBRANCH   7   8
ENDBRANCH   4   7
ENDBRANCH   2   3
ENDBRANCH   1   2
BRANCH   1  29
ATOM     29  C   UNL A   1      34.664  32.967  29.051  1.00  0.00     0.002 C 
BRANCH  29  30
ATOM     30  C   UNL A   1      34.183  34.199  28.277  1.00  0.00     0.002 C 
BRANCH  30  31
ATOM     31  C   UNL A   1      32.956  34.873  28.890  1.00  0.00     0.021 C 
BRANCH  31  32
ATOM     32  C   UNL A   1      33.273  36.189  29.588  1.00  0.00     0.116 C 
BRANCH  32  33
ATOM     33  N   UNL A   1      32.484  36.350  30.798  1.00  0.00    -0.352 N 
ATOM     34  C   UNL A   1      32.624  35.712  32.003  1.00  0.00     0.251 C 
ATOM     35  H   UNL A   1      31.751  37.004  30.746  1.00  0.00     0.163 HD
ATOM     36  O   UNL A   1      31.745  35.772  32.851  1.00  0.00    -0.269 OA
BRANCH  34  37
ATOM     37  C   UNL A   1      33.854  34.938  32.255  1.00  0.00     0.039 A 
ATOM     38  C   UNL A   1      35.089  35.575  32.139  1.00  0.00     0.014 A 
ATOM     39  C   UNL A   1      33.774  33.591  32.622  1.00  0.00     0.014 A 
ATOM     40  C   UNL A   1      36.253  34.865  32.435  1.00  0.00     0.010 A 
ATOM     41  C   UNL A   1      34.926  32.911  32.991  1.00  0.00     0.010 A 
ATOM     42  C   UNL A   1      36.176  33.538  32.888  1.00  0.00    -0.014 A 
BRANCH  42  43
ATOM     43  C   UNL A   1      37.398  32.784  33.252  1.00  0.00     0.031 A 
ATOM     44  C   UNL A   1      38.119  33.093  34.532  1.00  0.00     0.074 A 
ATOM     45  C   UNL A   1      37.891  31.868  32.397  1.00  0.00     0.049 A 
ATOM     46  N   UNL A   1      39.229  32.582  35.001  1.00  0.00    -0.248 NA
ATOM     47  C   UNL A   1      37.532  34.138  35.385  1.00  0.00     0.031 C 
ATOM     48  C   UNL A   1      37.308  31.523  31.099  1.00  0.00     0.029 A 
ATOM     49  N   UNL A   1      39.001  31.069  32.489  1.00  0.00    -0.354 N 
ATOM     50  C   UNL A   1      39.477  33.250  36.192  1.00  0.00     0.074 A 
ATOM     51  C   UNL A   1      38.439  34.245  36.343  1.00  0.00     0.031 C 
ATOM     52  C   UNL A   1      38.054  30.565  30.527  1.00  0.00     0.029 A 
ATOM     53  C   UNL A   1      39.183  30.257  31.397  1.00  0.00     0.049 A 
ATOM     54  H   UNL A   1      39.609  31.076  33.263  1.00  0.00     0.167 HD
ATOM     55  C   UNL A   1      40.467  33.035  37.091  1.00  0.00     0.037 A 
ATOM     56  C   UNL A   1      40.157  29.366  31.127  1.00  0.00     0.037 A 
ATOM     57  C   UNL A   1      41.488  32.034  36.939  1.00  0.00     0.049 A 
ATOM     58  C   UNL A   1      41.247  29.146  32.136  1.00  0.00     0.074 A 
ATOM     59  C   UNL A   1      42.501  31.693  37.817  1.00  0.00     0.029 A 
ATOM     60  N   UNL A   1      41.632  31.216  35.826  1.00  0.00    -0.354 N 
ATOM     61  N   UNL A   1      41.429  29.729  33.296  1.00  0.00    -0.248 NA
ATOM     62  C   UNL A   1      42.262  28.138  31.804  1.00  0.00     0.031 C 
ATOM     63  C   UNL A   1      43.287  30.703  37.216  1.00  0.00     0.029 A 
ATOM     64  C   UNL A   1      42.732  30.389  35.985  1.00  0.00     0.049 A 
ATOM     65  H   UNL A   1      41.039  31.223  35.040  1.00  0.00     0.167 HD
ATOM     66  C   UNL A   1      42.565  29.146  33.842  1.00  0.00     0.074 A 
ATOM     67  C   UNL A   1      43.019  28.152  32.892  1.00  0.00     0.031 C 
ATOM     68  C   UNL A   1      43.173  29.408  35.025  1.00  0.00     0.037 A 
BRANCH  55  69
ATOM     69  C   UNL A   1      40.487  33.910  38.311  1.00  0.00     0.057 A 
ATOM     70  C   UNL A   1      41.264  35.076  38.376  1.00  0.00     0.134 A 
ATOM     71  C   UNL A   1      39.718  33.587  39.437  1.00  0.00     0.134 A 
ATOM     72  F   UNL A   1      42.035  35.437  37.339  1.00  0.00    -0.206 F 
ATOM     73  C   UNL A   1      41.306  35.864  39.528  1.00  0.00     0.040 A 
ATOM     74  C   UNL A   1      39.727  34.386  40.582  1.00  0.00     0.040 A 
ATOM     75  F   UNL A   1      38.946  32.490  39.443  1.00  0.00    -0.206 F 
ATOM     76  C   UNL A   1      40.532  35.522  40.633  1.00  0.00     0.006 A 
ENDBRANCH  55  69
BRANCH  56  77
ATOM     77  C   UNL A   1      40.119  28.602  29.856  1.00  0.00     0.057 A 
ATOM     78  C   UNL A   1      39.361  27.432  29.740  1.00  0.00     0.134 A 
ATOM     79  C   UNL A   1      40.815  29.036  28.722  1.00  0.00     0.134 A 
ATOM     80  F   UNL A   1      38.683  26.959  30.796  1.00  0.00    -0.206 F 
ATOM     81  C   UNL A   1      39.305  26.714  28.544  1.00  0.00     0.040 A 
ATOM     82  C   UNL A   1      40.750  28.341  27.513  1.00  0.00     0.040 A 
ATOM     83  F   UNL A   1      41.551  30.158  28.766  1.00  0.00    -0.206 F 
ATOM     84  C   UNL A   1      39.996  27.172  27.424  1.00  0.00     0.006 A 
ENDBRANCH  56  77
BRANCH  68  85
ATOM     85  C   UNL A   1      44.384  28.589  35.369  1.00  0.00     0.057 A 
ATOM     86  C   UNL A   1      44.290  27.398  36.100  1.00  0.00     0.134 A 
ATOM     87  C   UNL A   1      45.656  28.977  34.924  1.00  0.00     0.134 A 
ATOM     88  F   UNL A   1      43.104  26.978  36.565  1.00  0.00    -0.206 F 
ATOM     89  C   UNL A   1      45.420  26.634  36.398  1.00  0.00     0.040 A 
ATOM     90  C   UNL A   1      46.788  28.208  35.192  1.00  0.00     0.040 A 
ATOM     91  F   UNL A   1      45.814  30.103  34.211  1.00  0.00    -0.206 F 
ATOM     92  C   UNL A   1      46.672  27.036  35.936  1.00  0.00     0.006 A 
ENDBRANCH  68  85
ENDBRANCH  42  43
ENDBRANCH  34  37
ENDBRANCH  32  33
ENDBRANCH  31  32
ENDBRANCH  30  31
ENDBRANCH  29  30
ENDBRANCH   1  29
TORSDOF 17
ENDMDL
