MODEL 1
REMARK VINA RESULT:     -11.6      0.000      0.000
REMARK SMILES Cc1ccc([C@H]2CC(c3cccs3)=NN2C(=O)CCC(=O)NCCCCCCNC(=O)c2ccc(-c3c4nc(c(-c5c(F)cccc5F)c5ccc([nH]5)c(-c5c(F)cccc5F)c5nc(c(-c6c(F)cccc6F)c6ccc3[nH]6)C=C5)C=C4)cc2)o1
REMARK SMILES IDX 24 1 23 2 22 3 20 4 21 5 19 7 18 8 16 9 17 10 15 11 6 12
REMARK SMILES IDX 7 13 8 14 14 15 5 16 1 17 2 18 3 19 86 20 4 21 9 22 10 23
REMARK SMILES IDX 13 24 11 25 12 26 25 27 26 28 27 29 28 30 29 31 30 32 31 34
REMARK SMILES IDX 32 35 33 36 85 37 34 38 84 39 35 40 36 41 37 42 78 43 38 44
REMARK SMILES IDX 83 45 77 46 79 47 39 48 82 49 76 50 75 51 40 53 66 54 49 55
REMARK SMILES IDX 65 56 50 57 53 58 64 59 80 60 51 61 52 62 63 64 81 65 54 66
REMARK SMILES IDX 41 67 42 68 47 69 43 70 44 71 46 72 48 73 45 74 67 75 68 76
REMARK SMILES IDX 73 77 69 78 70 79 72 80 74 81 71 82 55 83 56 84 61 85 57 86
REMARK SMILES IDX 58 87 60 88 62 89 59 90
REMARK H PARENT 22 6 29 33 79 52 53 63
REMARK Flexibility Score: inf
ROOT
ATOM      1  C   UNL A   1      34.829  21.726  24.848  1.00  0.00     0.021 C 
ENDROOT
BRANCH   1   2
ATOM      2  C   UNL A   1      33.608  21.434  25.719  1.00  0.00     0.116 C 
BRANCH   2   3
ATOM      3  N   UNL A   1      33.021  22.533  26.462  1.00  0.00    -0.356 N 
ATOM      4  C   UNL A   1      31.841  23.181  26.284  1.00  0.00     0.220 C 
ATOM      5  O   UNL A   1      31.346  23.767  27.248  1.00  0.00    -0.275 OA
ATOM      6  H   UNL A   1      33.565  22.861  27.215  1.00  0.00     0.163 HD
BRANCH   4   7
ATOM      7  C   UNL A   1      31.188  23.232  24.924  1.00  0.00     0.110 C 
BRANCH   7   8
ATOM      8  C   UNL A   1      30.434  24.555  24.751  1.00  0.00     0.112 C 
BRANCH   8   9
ATOM      9  C   UNL A   1      31.144  25.389  23.709  1.00  0.00     0.243 C 
ATOM     10  O   UNL A   1      31.699  24.829  22.761  1.00  0.00    -0.273 OA
BRANCH   9  11
ATOM     11  N   UNL A   1      31.245  26.746  23.963  1.00  0.00    -0.222 N 
ATOM     12  C   UNL A   1      31.220  27.814  22.963  1.00  0.00     0.183 C 
ATOM     13  C   UNL A   1      32.209  28.841  23.515  1.00  0.00     0.095 C 
ATOM     14  C   UNL A   1      32.352  28.325  24.912  1.00  0.00     0.081 C 
ATOM     15  N   UNL A   1      31.858  27.149  25.119  1.00  0.00    -0.173 NA
BRANCH  12  16
ATOM     16  C   UNL A   1      29.846  28.370  22.820  1.00  0.00     0.129 A 
ATOM     17  C   UNL A   1      28.037  30.865  21.022  1.00  0.00     0.087 C 
ATOM     18  C   UNL A   1      28.403  29.764  21.932  1.00  0.00     0.101 A 
ATOM     19  C   UNL A   1      27.679  28.928  22.752  1.00  0.00     0.045 A 
ATOM     20  O   UNL A   1      29.725  29.446  21.989  1.00  0.00    -0.464 OA
ATOM     21  C   UNL A   1      28.609  28.033  23.331  1.00  0.00     0.048 A 
ENDBRANCH  12  16
BRANCH  14  22
ATOM     22  C   UNL A   1      33.066  29.007  25.950  1.00  0.00     0.050 A 
ATOM     23  C   UNL A   1      34.306  28.717  26.481  1.00  0.00     0.022 A 
ATOM     24  S   UNL A   1      32.438  30.477  26.554  1.00  0.00    -0.142 S 
ATOM     25  C   UNL A   1      34.756  29.736  27.372  1.00  0.00     0.012 A 
ATOM     26  C   UNL A   1      33.847  30.764  27.480  1.00  0.00     0.065 A 
ENDBRANCH  14  22
ENDBRANCH   9  11
ENDBRANCH   8   9
ENDBRANCH   7   8
ENDBRANCH   4   7
ENDBRANCH   2   3
ENDBRANCH   1   2
BRANCH   1  27
ATOM     27  C   UNL A   1      36.117  20.917  25.037  1.00  0.00     0.002 C 
BRANCH  27  28
ATOM     28  C   UNL A   1      37.455  21.658  25.046  1.00  0.00     0.002 C 
BRANCH  28  29
ATOM     29  C   UNL A   1      37.351  23.179  25.067  1.00  0.00     0.021 C 
BRANCH  29  30
ATOM     30  C   UNL A   1      38.152  23.828  26.187  1.00  0.00     0.116 C 
BRANCH  30  31
ATOM     31  N   UNL A   1      39.591  23.583  26.122  1.00  0.00    -0.352 N 
ATOM     32  C   UNL A   1      40.581  24.354  26.693  1.00  0.00     0.251 C 
ATOM     33  H   UNL A   1      39.882  22.787  25.620  1.00  0.00     0.163 HD
ATOM     34  O   UNL A   1      41.772  24.124  26.533  1.00  0.00    -0.269 OA
BRANCH  32  35
ATOM     35  C   UNL A   1      40.133  25.523  27.472  1.00  0.00     0.039 A 
ATOM     36  C   UNL A   1      39.274  25.324  28.551  1.00  0.00     0.014 A 
ATOM     37  C   UNL A   1      40.763  26.751  27.259  1.00  0.00     0.014 A 
ATOM     38  C   UNL A   1      39.127  26.341  29.492  1.00  0.00     0.010 A 
ATOM     39  C   UNL A   1      40.684  27.725  28.241  1.00  0.00     0.010 A 
ATOM     40  C   UNL A   1      39.881  27.521  29.375  1.00  0.00    -0.014 A 
BRANCH  40  41
ATOM     41  C   UNL A   1      39.869  28.546  30.444  1.00  0.00     0.031 A 
ATOM     42  C   UNL A   1      38.904  29.690  30.362  1.00  0.00     0.074 A 
ATOM     43  C   UNL A   1      40.781  28.484  31.435  1.00  0.00     0.049 A 
ATOM     44  N   UNL A   1      38.776  30.723  31.153  1.00  0.00    -0.248 NA
ATOM     45  C   UNL A   1      37.983  29.693  29.213  1.00  0.00     0.031 C 
ATOM     46  C   UNL A   1      41.820  27.459  31.571  1.00  0.00     0.029 A 
ATOM     47  N   UNL A   1      40.987  29.306  32.514  1.00  0.00    -0.354 N 
ATOM     48  C   UNL A   1      37.772  31.501  30.592  1.00  0.00     0.074 A 
ATOM     49  C   UNL A   1      37.372  30.858  29.360  1.00  0.00     0.031 C 
ATOM     50  C   UNL A   1      42.533  27.698  32.683  1.00  0.00     0.029 A 
ATOM     51  C   UNL A   1      42.022  28.904  33.325  1.00  0.00     0.049 A 
ATOM     52  H   UNL A   1      40.445  30.109  32.690  1.00  0.00     0.167 HD
ATOM     53  C   UNL A   1      37.210  32.632  31.079  1.00  0.00     0.037 A 
ATOM     54  C   UNL A   1      42.496  29.450  34.461  1.00  0.00     0.037 A 
ATOM     55  C   UNL A   1      37.600  33.250  32.316  1.00  0.00     0.049 A 
ATOM     56  C   UNL A   1      41.830  30.685  35.001  1.00  0.00     0.074 A 
ATOM     57  C   UNL A   1      37.077  34.376  32.924  1.00  0.00     0.029 A 
ATOM     58  N   UNL A   1      38.614  32.781  33.141  1.00  0.00    -0.354 N 
ATOM     59  N   UNL A   1      40.835  31.373  34.496  1.00  0.00    -0.248 NA
ATOM     60  C   UNL A   1      42.342  31.212  36.273  1.00  0.00     0.031 C 
ATOM     61  C   UNL A   1      37.788  34.601  34.108  1.00  0.00     0.029 A 
ATOM     62  C   UNL A   1      38.731  33.595  34.252  1.00  0.00     0.049 A 
ATOM     63  H   UNL A   1      39.166  31.986  32.961  1.00  0.00     0.167 HD
ATOM     64  C   UNL A   1      40.585  32.399  35.397  1.00  0.00     0.074 A 
ATOM     65  C   UNL A   1      41.523  32.231  36.490  1.00  0.00     0.031 C 
ATOM     66  C   UNL A   1      39.666  33.393  35.330  1.00  0.00     0.037 A 
BRANCH  53  67
ATOM     67  C   UNL A   1      36.106  33.246  30.271  1.00  0.00     0.057 A 
ATOM     68  C   UNL A   1      34.759  33.073  30.619  1.00  0.00     0.134 A 
ATOM     69  C   UNL A   1      36.385  34.010  29.131  1.00  0.00     0.134 A 
ATOM     70  F   UNL A   1      34.425  32.336  31.690  1.00  0.00    -0.206 F 
ATOM     71  C   UNL A   1      33.729  33.606  29.845  1.00  0.00     0.040 A 
ATOM     72  C   UNL A   1      35.362  34.572  28.363  1.00  0.00     0.040 A 
ATOM     73  F   UNL A   1      37.652  34.217  28.741  1.00  0.00    -0.206 F 
ATOM     74  C   UNL A   1      34.030  34.363  28.715  1.00  0.00     0.006 A 
ENDBRANCH  53  67
BRANCH  54  75
ATOM     75  C   UNL A   1      43.626  28.813  35.185  1.00  0.00     0.057 A 
ATOM     76  C   UNL A   1      43.395  27.881  36.204  1.00  0.00     0.134 A 
ATOM     77  C   UNL A   1      44.957  29.122  34.885  1.00  0.00     0.134 A 
ATOM     78  F   UNL A   1      42.141  27.554  36.548  1.00  0.00    -0.206 F 
ATOM     79  C   UNL A   1      44.445  27.297  36.915  1.00  0.00     0.040 A 
ATOM     80  C   UNL A   1      46.018  28.528  35.573  1.00  0.00     0.040 A 
ATOM     81  F   UNL A   1      45.247  29.999  33.912  1.00  0.00    -0.206 F 
ATOM     82  C   UNL A   1      45.763  27.618  36.597  1.00  0.00     0.006 A 
ENDBRANCH  54  75
BRANCH  66  83
ATOM     83  C   UNL A   1      39.616  34.351  36.480  1.00  0.00     0.057 A 
ATOM     84  C   UNL A   1      38.928  34.049  37.660  1.00  0.00     0.134 A 
ATOM     85  C   UNL A   1      40.302  35.571  36.419  1.00  0.00     0.134 A 
ATOM     86  F   UNL A   1      38.242  32.902  37.772  1.00  0.00    -0.206 F 
ATOM     87  C   UNL A   1      38.908  34.936  38.737  1.00  0.00     0.040 A 
ATOM     88  C   UNL A   1      40.309  36.456  37.496  1.00  0.00     0.040 A 
ATOM     89  F   UNL A   1      40.985  35.914  35.316  1.00  0.00    -0.206 F 
ATOM     90  C   UNL A   1      39.606  36.141  38.659  1.00  0.00     0.006 A 
ENDBRANCH  66  83
ENDBRANCH  40  41
ENDBRANCH  32  35
ENDBRANCH  30  31
ENDBRANCH  29  30
ENDBRANCH  28  29
ENDBRANCH  27  28
ENDBRANCH   1  27
TORSDOF 18
ENDMDL
MODEL 2
REMARK VINA RESULT:     -11.4      4.467      7.865
REMARK SMILES Cc1ccc([C@H]2CC(c3cccs3)=NN2C(=O)CCC(=O)NCCCCCCNC(=O)c2ccc(-c3c4nc(c(-c5c(F)cccc5F)c5ccc([nH]5)c(-c5c(F)cccc5F)c5nc(c(-c6c(F)cccc6F)c6ccc3[nH]6)C=C5)C=C4)cc2)o1
REMARK SMILES IDX 24 1 23 2 22 3 20 4 21 5 19 7 18 8 16 9 17 10 15 11 6 12
REMARK SMILES IDX 7 13 8 14 14 15 5 16 1 17 2 18 3 19 86 20 4 21 9 22 10 23
REMARK SMILES IDX 13 24 11 25 12 26 25 27 26 28 27 29 28 30 29 31 30 32 31 34
REMARK SMILES IDX 32 35 33 36 85 37 34 38 84 39 35 40 36 41 37 42 78 43 38 44
REMARK SMILES IDX 83 45 77 46 79 47 39 48 82 49 76 50 75 51 40 53 66 54 49 55
REMARK SMILES IDX 65 56 50 57 53 58 64 59 80 60 51 61 52 62 63 64 81 65 54 66
REMARK SMILES IDX 41 67 42 68 47 69 43 70 44 71 46 72 48 73 45 74 67 75 68 76
REMARK SMILES IDX 73 77 69 78 70 79 72 80 74 81 71 82 55 83 56 84 61 85 57 86
REMARK SMILES IDX 58 87 60 88 62 89 59 90
REMARK H PARENT 22 6 29 33 79 52 53 63
REMARK Flexibility Score: inf
ROOT
ATOM      1  C   UNL A   1      34.483  24.280  23.681  1.00  0.00     0.021 C 
ENDROOT
BRANCH   1   2
ATOM      2  C   UNL A   1      33.659  23.435  22.711  1.00  0.00     0.116 C 
BRANCH   2   3
ATOM      3  N   UNL A   1      33.334  24.003  21.417  1.00  0.00    -0.356 N 
ATOM      4  C   UNL A   1      32.704  25.164  21.102  1.00  0.00     0.220 C 
ATOM      5  O   UNL A   1      32.908  25.657  19.992  1.00  0.00    -0.275 OA
ATOM      6  H   UNL A   1      33.614  23.461  20.644  1.00  0.00     0.163 HD
BRANCH   4   7
ATOM      7  C   UNL A   1      31.731  25.798  22.067  1.00  0.00     0.110 C 
BRANCH   7   8
ATOM      8  C   UNL A   1      32.212  27.200  22.456  1.00  0.00     0.112 C 
BRANCH   8   9
ATOM      9  C   UNL A   1      31.332  27.728  23.565  1.00  0.00     0.243 C 
ATOM     10  O   UNL A   1      30.282  28.309  23.282  1.00  0.00    -0.273 OA
BRANCH   9  11
ATOM     11  N   UNL A   1      31.837  27.644  24.852  1.00  0.00    -0.222 N 
ATOM     12  C   UNL A   1      31.101  27.210  26.040  1.00  0.00     0.183 C 
ATOM     13  C   UNL A   1      31.660  28.102  27.149  1.00  0.00     0.095 C 
ATOM     14  C   UNL A   1      32.869  28.641  26.452  1.00  0.00     0.081 C 
ATOM     15  N   UNL A   1      32.917  28.419  25.180  1.00  0.00    -0.173 NA
BRANCH  12  16
ATOM     16  C   UNL A   1      31.334  25.763  26.305  1.00  0.00     0.129 A 
ATOM     17  C   UNL A   1      29.566  22.771  27.113  1.00  0.00     0.087 C 
ATOM     18  C   UNL A   1      30.627  23.745  26.795  1.00  0.00     0.101 A 
ATOM     19  C   UNL A   1      31.979  23.634  26.559  1.00  0.00     0.045 A 
ATOM     20  O   UNL A   1      30.234  25.042  26.666  1.00  0.00    -0.464 OA
ATOM     21  C   UNL A   1      32.438  24.936  26.249  1.00  0.00     0.048 A 
ENDBRANCH  12  16
BRANCH  14  22
ATOM     22  C   UNL A   1      33.874  29.437  27.089  1.00  0.00     0.050 A 
ATOM     23  C   UNL A   1      35.189  29.117  27.359  1.00  0.00     0.022 A 
ATOM     24  S   UNL A   1      33.525  31.070  27.451  1.00  0.00    -0.142 S 
ATOM     25  C   UNL A   1      35.923  30.241  27.841  1.00  0.00     0.012 A 
ATOM     26  C   UNL A   1      35.143  31.374  27.912  1.00  0.00     0.065 A 
ENDBRANCH  14  22
ENDBRANCH   9  11
ENDBRANCH   8   9
ENDBRANCH   7   8
ENDBRANCH   4   7
ENDBRANCH   2   3
ENDBRANCH   1   2
BRANCH   1  27
ATOM     27  C   UNL A   1      35.728  23.686  24.350  1.00  0.00     0.002 C 
BRANCH  27  28
ATOM     28  C   UNL A   1      36.582  22.693  23.561  1.00  0.00     0.002 C 
BRANCH  28  29
ATOM     29  C   UNL A   1      36.989  21.439  24.328  1.00  0.00     0.021 C 
BRANCH  29  30
ATOM     30  C   UNL A   1      37.879  21.724  25.529  1.00  0.00     0.116 C 
BRANCH  30  31
ATOM     31  N   UNL A   1      38.931  20.734  25.750  1.00  0.00    -0.352 N 
ATOM     32  C   UNL A   1      40.107  20.928  26.442  1.00  0.00     0.251 C 
ATOM     33  H   UNL A   1      38.784  19.838  25.367  1.00  0.00     0.163 HD
ATOM     34  O   UNL A   1      40.975  20.069  26.522  1.00  0.00    -0.269 OA
BRANCH  32  35
ATOM     35  C   UNL A   1      40.303  22.260  27.041  1.00  0.00     0.039 A 
ATOM     36  C   UNL A   1      41.247  22.410  28.056  1.00  0.00     0.014 A 
ATOM     37  C   UNL A   1      39.716  23.367  26.422  1.00  0.00     0.014 A 
ATOM     38  C   UNL A   1      41.689  23.691  28.380  1.00  0.00     0.010 A 
ATOM     39  C   UNL A   1      40.222  24.629  26.685  1.00  0.00     0.010 A 
ATOM     40  C   UNL A   1      41.227  24.800  27.652  1.00  0.00    -0.014 A 
BRANCH  40  41
ATOM     41  C   UNL A   1      41.801  26.149  27.864  1.00  0.00     0.031 A 
ATOM     42  C   UNL A   1      43.164  26.467  27.327  1.00  0.00     0.074 A 
ATOM     43  C   UNL A   1      41.126  27.048  28.608  1.00  0.00     0.049 A 
ATOM     44  N   UNL A   1      43.871  27.558  27.461  1.00  0.00    -0.248 NA
ATOM     45  C   UNL A   1      43.839  25.400  26.571  1.00  0.00     0.031 C 
ATOM     46  C   UNL A   1      39.827  26.819  29.248  1.00  0.00     0.029 A 
ATOM     47  N   UNL A   1      41.444  28.335  28.962  1.00  0.00    -0.354 N 
ATOM     48  C   UNL A   1      45.075  27.304  26.816  1.00  0.00     0.074 A 
ATOM     49  C   UNL A   1      45.030  25.935  26.352  1.00  0.00     0.031 C 
ATOM     50  C   UNL A   1      39.448  27.936  29.890  1.00  0.00     0.029 A 
ATOM     51  C   UNL A   1      40.484  28.950  29.731  1.00  0.00     0.049 A 
ATOM     52  H   UNL A   1      42.281  28.777  28.690  1.00  0.00     0.167 HD
ATOM     53  C   UNL A   1      46.111  28.148  26.601  1.00  0.00     0.037 A 
ATOM     54  C   UNL A   1      40.449  30.195  30.242  1.00  0.00     0.037 A 
ATOM     55  C   UNL A   1      46.135  29.514  27.047  1.00  0.00     0.049 A 
ATOM     56  C   UNL A   1      41.595  31.126  29.957  1.00  0.00     0.074 A 
ATOM     57  C   UNL A   1      47.115  30.470  26.854  1.00  0.00     0.029 A 
ATOM     58  N   UNL A   1      45.119  30.119  27.773  1.00  0.00    -0.354 N 
ATOM     59  N   UNL A   1      42.698  30.894  29.287  1.00  0.00    -0.248 NA
ATOM     60  C   UNL A   1      41.488  32.492  30.485  1.00  0.00     0.031 C 
ATOM     61  C   UNL A   1      46.701  31.650  27.483  1.00  0.00     0.029 A 
ATOM     62  C   UNL A   1      45.449  31.436  28.036  1.00  0.00     0.049 A 
ATOM     63  H   UNL A   1      44.287  29.677  28.058  1.00  0.00     0.167 HD
ATOM     64  C   UNL A   1      43.406  32.089  29.292  1.00  0.00     0.074 A 
ATOM     65  C   UNL A   1      42.596  33.048  30.017  1.00  0.00     0.031 C 
ATOM     66  C   UNL A   1      44.615  32.370  28.750  1.00  0.00     0.037 A 
BRANCH  53  67
ATOM     67  C   UNL A   1      47.281  27.608  25.834  1.00  0.00     0.057 A 
ATOM     68  C   UNL A   1      47.318  27.644  24.433  1.00  0.00     0.134 A 
ATOM     69  C   UNL A   1      48.376  27.039  26.495  1.00  0.00     0.134 A 
ATOM     70  F   UNL A   1      46.291  28.160  23.739  1.00  0.00    -0.206 F 
ATOM     71  C   UNL A   1      48.385  27.103  23.715  1.00  0.00     0.040 A 
ATOM     72  C   UNL A   1      49.462  26.518  25.788  1.00  0.00     0.040 A 
ATOM     73  F   UNL A   1      48.406  26.972  27.834  1.00  0.00    -0.206 F 
ATOM     74  C   UNL A   1      49.464  26.542  24.394  1.00  0.00     0.006 A 
ENDBRANCH  53  67
BRANCH  54  75
ATOM     75  C   UNL A   1      39.277  30.648  31.034  1.00  0.00     0.057 A 
ATOM     76  C   UNL A   1      39.143  30.304  32.385  1.00  0.00     0.134 A 
ATOM     77  C   UNL A   1      38.263  31.426  30.465  1.00  0.00     0.134 A 
ATOM     78  F   UNL A   1      40.075  29.548  32.984  1.00  0.00    -0.206 F 
ATOM     79  C   UNL A   1      38.032  30.696  33.135  1.00  0.00     0.040 A 
ATOM     80  C   UNL A   1      37.157  31.844  31.209  1.00  0.00     0.040 A 
ATOM     81  F   UNL A   1      38.336  31.799  29.179  1.00  0.00    -0.206 F 
ATOM     82  C   UNL A   1      37.036  31.472  32.547  1.00  0.00     0.006 A 
ENDBRANCH  54  75
BRANCH  66  83
ATOM     83  C   UNL A   1      45.116  33.774  28.897  1.00  0.00     0.057 A 
ATOM     84  C   UNL A   1      45.932  34.156  29.968  1.00  0.00     0.134 A 
ATOM     85  C   UNL A   1      44.814  34.741  27.930  1.00  0.00     0.134 A 
ATOM     86  F   UNL A   1      46.245  33.276  30.932  1.00  0.00    -0.206 F 
ATOM     87  C   UNL A   1      46.416  35.459  30.083  1.00  0.00     0.040 A 
ATOM     88  C   UNL A   1      45.311  36.041  28.022  1.00  0.00     0.040 A 
ATOM     89  F   UNL A   1      44.042  34.434  26.876  1.00  0.00    -0.206 F 
ATOM     90  C   UNL A   1      46.111  36.404  29.104  1.00  0.00     0.006 A 
ENDBRANCH  66  83
ENDBRANCH  40  41
ENDBRANCH  32  35
ENDBRANCH  30  31
ENDBRANCH  29  30
ENDBRANCH  28  29
ENDBRANCH  27  28
ENDBRANCH   1  27
TORSDOF 18
ENDMDL
MODEL 3
REMARK VINA RESULT:     -11.4      4.221      7.416
REMARK SMILES Cc1ccc([C@H]2CC(c3cccs3)=NN2C(=O)CCC(=O)NCCCCCCNC(=O)c2ccc(-c3c4nc(c(-c5c(F)cccc5F)c5ccc([nH]5)c(-c5c(F)cccc5F)c5nc(c(-c6c(F)cccc6F)c6ccc3[nH]6)C=C5)C=C4)cc2)o1
REMARK SMILES IDX 24 1 23 2 22 3 20 4 21 5 19 7 18 8 16 9 17 10 15 11 6 12
REMARK SMILES IDX 7 13 8 14 14 15 5 16 1 17 2 18 3 19 86 20 4 21 9 22 10 23
REMARK SMILES IDX 13 24 11 25 12 26 25 27 26 28 27 29 28 30 29 31 30 32 31 34
REMARK SMILES IDX 32 35 33 36 85 37 34 38 84 39 35 40 36 41 37 42 78 43 38 44
REMARK SMILES IDX 83 45 77 46 79 47 39 48 82 49 76 50 75 51 40 53 66 54 49 55
REMARK SMILES IDX 65 56 50 57 53 58 64 59 80 60 51 61 52 62 63 64 81 65 54 66
REMARK SMILES IDX 41 67 42 68 47 69 43 70 44 71 46 72 48 73 45 74 67 75 68 76
REMARK SMILES IDX 73 77 69 78 70 79 72 80 74 81 71 82 55 83 56 84 61 85 57 86
REMARK SMILES IDX 58 87 60 88 62 89 59 90
REMARK H PARENT 22 6 29 33 79 52 53 63
REMARK Flexibility Score: inf
ROOT
ATOM      1  C   UNL A   1      35.038  24.456  25.139  1.00  0.00     0.021 C 
ENDROOT
BRANCH   1   2
ATOM      2  C   UNL A   1      33.842  23.955  24.331  1.00  0.00     0.116 C 
BRANCH   2   3
ATOM      3  N   UNL A   1      32.966  22.977  24.944  1.00  0.00    -0.356 N 
ATOM      4  C   UNL A   1      31.823  23.147  25.657  1.00  0.00     0.220 C 
ATOM      5  O   UNL A   1      31.024  22.212  25.712  1.00  0.00    -0.275 OA
ATOM      6  H   UNL A   1      33.243  22.039  24.825  1.00  0.00     0.163 HD
BRANCH   4   7
ATOM      7  C   UNL A   1      31.572  24.430  26.414  1.00  0.00     0.110 C 
BRANCH   7   8
ATOM      8  C   UNL A   1      30.223  25.029  26.001  1.00  0.00     0.112 C 
BRANCH   8   9
ATOM      9  C   UNL A   1      30.387  25.733  24.674  1.00  0.00     0.243 C 
ATOM     10  O   UNL A   1      30.304  25.084  23.629  1.00  0.00    -0.273 OA
BRANCH   9  11
ATOM     11  N   UNL A   1      30.763  27.065  24.720  1.00  0.00    -0.222 N 
ATOM     12  C   UNL A   1      30.899  27.962  23.572  1.00  0.00     0.183 C 
ATOM     13  C   UNL A   1      32.095  28.838  23.946  1.00  0.00     0.095 C 
ATOM     14  C   UNL A   1      32.202  28.509  25.400  1.00  0.00     0.081 C 
ATOM     15  N   UNL A   1      31.499  27.498  25.791  1.00  0.00    -0.173 NA
BRANCH  12  16
ATOM     16  C   UNL A   1      29.655  28.756  23.374  1.00  0.00     0.129 A 
ATOM     17  C   UNL A   1      28.523  32.134  23.172  1.00  0.00     0.087 C 
ATOM     18  C   UNL A   1      28.580  30.660  23.194  1.00  0.00     0.101 A 
ATOM     19  C   UNL A   1      27.653  29.670  22.959  1.00  0.00     0.045 A 
ATOM     20  O   UNL A   1      29.794  30.110  23.471  1.00  0.00    -0.464 OA
ATOM     21  C   UNL A   1      28.343  28.441  23.082  1.00  0.00     0.048 A 
ENDBRANCH  12  16
BRANCH  14  22
ATOM     22  C   UNL A   1      33.084  29.175  26.311  1.00  0.00     0.050 A 
ATOM     23  C   UNL A   1      34.393  28.869  26.627  1.00  0.00     0.022 A 
ATOM     24  S   UNL A   1      32.581  30.646  27.020  1.00  0.00    -0.142 S 
ATOM     25  C   UNL A   1      34.994  29.876  27.439  1.00  0.00     0.012 A 
ATOM     26  C   UNL A   1      34.126  30.912  27.703  1.00  0.00     0.065 A 
ENDBRANCH  14  22
ENDBRANCH   9  11
ENDBRANCH   8   9
ENDBRANCH   7   8
ENDBRANCH   4   7
ENDBRANCH   2   3
ENDBRANCH   1   2
BRANCH   1  27
ATOM     27  C   UNL A   1      36.388  23.736  25.039  1.00  0.00     0.002 C 
BRANCH  27  28
ATOM     28  C   UNL A   1      36.627  22.785  23.864  1.00  0.00     0.002 C 
BRANCH  28  29
ATOM     29  C   UNL A   1      37.086  21.383  24.250  1.00  0.00     0.021 C 
BRANCH  29  30
ATOM     30  C   UNL A   1      37.717  21.310  25.633  1.00  0.00     0.116 C 
BRANCH  30  31
ATOM     31  N   UNL A   1      38.861  20.405  25.728  1.00  0.00    -0.352 N 
ATOM     32  C   UNL A   1      40.077  20.679  26.316  1.00  0.00     0.251 C 
ATOM     33  H   UNL A   1      38.751  19.509  25.333  1.00  0.00     0.163 HD
ATOM     34  O   UNL A   1      41.014  19.893  26.292  1.00  0.00    -0.269 OA
BRANCH  32  35
ATOM     35  C   UNL A   1      40.220  22.008  26.936  1.00  0.00     0.039 A 
ATOM     36  C   UNL A   1      41.126  22.169  27.983  1.00  0.00     0.014 A 
ATOM     37  C   UNL A   1      39.628  23.108  26.310  1.00  0.00     0.014 A 
ATOM     38  C   UNL A   1      41.527  23.457  28.335  1.00  0.00     0.010 A 
ATOM     39  C   UNL A   1      40.095  24.379  26.602  1.00  0.00     0.010 A 
ATOM     40  C   UNL A   1      41.062  24.563  27.604  1.00  0.00    -0.014 A 
BRANCH  40  41
ATOM     41  C   UNL A   1      41.596  25.922  27.850  1.00  0.00     0.031 A 
ATOM     42  C   UNL A   1      42.969  26.278  27.362  1.00  0.00     0.074 A 
ATOM     43  C   UNL A   1      40.876  26.797  28.580  1.00  0.00     0.049 A 
ATOM     44  N   UNL A   1      43.645  27.384  27.531  1.00  0.00    -0.248 NA
ATOM     45  C   UNL A   1      43.694  25.235  26.618  1.00  0.00     0.031 C 
ATOM     46  C   UNL A   1      39.562  26.529  29.173  1.00  0.00     0.029 A 
ATOM     47  N   UNL A   1      41.151  28.087  28.957  1.00  0.00    -0.354 N 
ATOM     48  C   UNL A   1      44.875  27.166  26.925  1.00  0.00     0.074 A 
ATOM     49  C   UNL A   1      44.878  25.801  26.445  1.00  0.00     0.031 C 
ATOM     50  C   UNL A   1      39.135  27.630  29.813  1.00  0.00     0.029 A 
ATOM     51  C   UNL A   1      40.152  28.670  29.700  1.00  0.00     0.049 A 
ATOM     52  H   UNL A   1      41.985  28.551  28.719  1.00  0.00     0.167 HD
ATOM     53  C   UNL A   1      45.897  28.036  26.753  1.00  0.00     0.037 A 
ATOM     54  C   UNL A   1      40.069  29.908  30.223  1.00  0.00     0.037 A 
ATOM     55  C   UNL A   1      45.874  29.397  27.214  1.00  0.00     0.049 A 
ATOM     56  C   UNL A   1      41.201  30.869  29.986  1.00  0.00     0.074 A 
ATOM     57  C   UNL A   1      46.837  30.378  27.064  1.00  0.00     0.029 A 
ATOM     58  N   UNL A   1      44.820  29.970  27.912  1.00  0.00    -0.354 N 
ATOM     59  N   UNL A   1      42.332  30.671  29.351  1.00  0.00    -0.248 NA
ATOM     60  C   UNL A   1      41.044  32.226  30.525  1.00  0.00     0.031 C 
ATOM     61  C   UNL A   1      46.374  31.541  27.691  1.00  0.00     0.029 A 
ATOM     62  C   UNL A   1      45.109  31.291  28.200  1.00  0.00     0.049 A 
ATOM     63  H   UNL A   1      43.989  29.505  28.163  1.00  0.00     0.167 HD
ATOM     64  C   UNL A   1      43.010  31.881  29.393  1.00  0.00     0.074 A 
ATOM     65  C   UNL A   1      42.154  32.813  30.100  1.00  0.00     0.031 C 
ATOM     66  C   UNL A   1      44.229  32.197  28.894  1.00  0.00     0.037 A 
BRANCH  53  67
ATOM     67  C   UNL A   1      47.105  27.532  26.021  1.00  0.00     0.057 A 
ATOM     68  C   UNL A   1      47.205  27.621  24.625  1.00  0.00     0.134 A 
ATOM     69  C   UNL A   1      48.174  26.947  26.709  1.00  0.00     0.134 A 
ATOM     70  F   UNL A   1      46.205  28.155  23.905  1.00  0.00    -0.206 F 
ATOM     71  C   UNL A   1      48.307  27.113  23.937  1.00  0.00     0.040 A 
ATOM     72  C   UNL A   1      49.295  26.460  26.033  1.00  0.00     0.040 A 
ATOM     73  F   UNL A   1      48.144  26.831  28.045  1.00  0.00    -0.206 F 
ATOM     74  C   UNL A   1      49.359  26.534  24.643  1.00  0.00     0.006 A 
ENDBRANCH  53  67
BRANCH  54  75
ATOM     75  C   UNL A   1      38.861  30.324  30.980  1.00  0.00     0.057 A 
ATOM     76  C   UNL A   1      38.766  30.112  32.360  1.00  0.00     0.134 A 
ATOM     77  C   UNL A   1      37.773  30.935  30.347  1.00  0.00     0.134 A 
ATOM     78  F   UNL A   1      39.770  29.518  33.022  1.00  0.00    -0.206 F 
ATOM     79  C   UNL A   1      37.624  30.469  33.080  1.00  0.00     0.040 A 
ATOM     80  C   UNL A   1      36.633  31.318  31.058  1.00  0.00     0.040 A 
ATOM     81  F   UNL A   1      37.804  31.177  29.027  1.00  0.00    -0.206 F 
ATOM     82  C   UNL A   1      36.554  31.078  32.429  1.00  0.00     0.006 A 
ENDBRANCH  54  75
BRANCH  66  83
ATOM     83  C   UNL A   1      44.692  33.611  29.073  1.00  0.00     0.057 A 
ATOM     84  C   UNL A   1      44.390  34.608  28.140  1.00  0.00     0.134 A 
ATOM     85  C   UNL A   1      45.409  33.984  30.217  1.00  0.00     0.134 A 
ATOM     86  F   UNL A   1      43.717  34.308  27.018  1.00  0.00    -0.206 F 
ATOM     87  C   UNL A   1      44.802  35.928  28.327  1.00  0.00     0.040 A 
ATOM     88  C   UNL A   1      45.806  35.304  30.427  1.00  0.00     0.040 A 
ATOM     89  F   UNL A   1      45.722  33.074  31.153  1.00  0.00    -0.206 F 
ATOM     90  C   UNL A   1      45.506  36.279  29.478  1.00  0.00     0.006 A 
ENDBRANCH  66  83
ENDBRANCH  40  41
ENDBRANCH  32  35
ENDBRANCH  30  31
ENDBRANCH  29  30
ENDBRANCH  28  29
ENDBRANCH  27  28
ENDBRANCH   1  27
TORSDOF 18
ENDMDL
